MODEL 1
REMARK VINA RESULT:    -8.462      0.000      0.000
REMARK INTER + INTRA:         -10.263
REMARK INTER:                  -9.946
REMARK INTRA:                  -0.317
REMARK UNBOUND:                -0.317
REMARK SMILES O=c1cc(-c2ccc(O)c(O)c2)oc2cc(O)cc(O)c12
REMARK SMILES IDX 4 1 3 2 2 3 1 4 21 5 19 6 18 7 16 8 15 9 14 10 13 11 5 12
REMARK SMILES IDX 6 13 7 14 8 15 12 16 10 17 9 18 11 20 20 22 17 24
REMARK H PARENT 9 19 11 21 20 23 17 25
REMARK Flexibility Score: inf
ROOT
ATOM      1  C   UNL     1     -33.744  43.513  40.016  1.00  0.00     0.138 A 
ATOM      2  C   UNL     1     -34.962  43.329  40.691  1.00  0.00     0.100 A 
ATOM      3  C   UNL     1     -35.024  42.439  41.763  1.00  0.00     0.197 A 
ATOM      4  O   UNL     1     -36.122  42.279  42.362  1.00  0.00    -0.289 OA
ATOM      5  C   UNL     1     -33.867  41.735  42.152  1.00  0.00     0.107 A 
ATOM      6  C   UNL     1     -33.843  40.815  43.227  1.00  0.00     0.134 A 
ATOM      7  C   UNL     1     -32.650  40.151  43.547  1.00  0.00     0.093 A 
ATOM      8  C   UNL     1     -31.483  40.388  42.812  1.00  0.00     0.123 A 
ATOM      9  C   UNL     1     -31.502  41.293  41.750  1.00  0.00     0.094 A 
ATOM     10  C   UNL     1     -32.680  41.967  41.416  1.00  0.00     0.146 A 
ATOM     11  O   UNL     1     -32.671  42.826  40.401  1.00  0.00    -0.456 OA
ENDROOT
BRANCH   1  12
ATOM     12  C   UNL     1     -33.618  44.447  38.867  1.00  0.00     0.021 A 
ATOM     13  C   UNL     1     -34.745  45.044  38.271  1.00  0.00     0.016 A 
ATOM     14  C   UNL     1     -34.596  45.926  37.198  1.00  0.00     0.051 A 
ATOM     15  C   UNL     1     -33.321  46.234  36.707  1.00  0.00     0.157 A 
ATOM     16  C   UNL     1     -32.341  44.772  38.376  1.00  0.00     0.062 A 
ATOM     17  C   UNL     1     -32.189  45.655  37.302  1.00  0.00     0.158 A 
BRANCH  15  18
ATOM     18  O   UNL     1     -33.177  47.113  35.636  1.00  0.00    -0.504 OA
ATOM     19  H   UNL     1     -32.296  47.580  35.446  1.00  0.00     0.293 HD
ENDBRANCH  15  18
BRANCH  17  20
ATOM     20  O   UNL     1     -30.905  45.944  36.838  1.00  0.00    -0.504 OA
ATOM     21  H   UNL     1     -30.741  46.593  36.079  1.00  0.00     0.293 HD
ENDBRANCH  17  20
ENDBRANCH   1  12
BRANCH   6  22
ATOM     22  O   UNL     1     -34.992  40.559  43.977  1.00  0.00    -0.507 OA
ATOM     23  H   UNL     1     -35.097  40.901  44.926  1.00  0.00     0.293 HD
ENDBRANCH   6  22
BRANCH   8  24
ATOM     24  O   UNL     1     -30.298  39.727  43.129  1.00  0.00    -0.508 OA
ATOM     25  H   UNL     1     -29.710  39.320  42.411  1.00  0.00     0.293 HD
ENDBRANCH   8  24
TORSDOF 5
ENDMDL
MODEL 2
REMARK VINA RESULT:    -8.112      1.254      2.728
REMARK INTER + INTRA:          -9.851
REMARK INTER:                  -9.564
REMARK INTRA:                  -0.287
REMARK UNBOUND:                -0.317
REMARK SMILES O=c1cc(-c2ccc(O)c(O)c2)oc2cc(O)cc(O)c12
REMARK SMILES IDX 4 1 3 2 2 3 1 4 21 5 19 6 18 7 16 8 15 9 14 10 13 11 5 12
REMARK SMILES IDX 6 13 7 14 8 15 12 16 10 17 9 18 11 20 20 22 17 24
REMARK H PARENT 9 19 11 21 20 23 17 25
REMARK Flexibility Score: inf
ROOT
ATOM      1  C   UNL     1     -33.519  43.429  40.082  1.00  0.00     0.138 A 
ATOM      2  C   UNL     1     -32.484  42.504  40.297  1.00  0.00     0.100 A 
ATOM      3  C   UNL     1     -32.558  41.632  41.384  1.00  0.00     0.197 A 
ATOM      4  O   UNL     1     -31.624  40.806  41.570  1.00  0.00    -0.289 OA
ATOM      5  C   UNL     1     -33.666  41.695  42.253  1.00  0.00     0.107 A 
ATOM      6  C   UNL     1     -33.819  40.848  43.376  1.00  0.00     0.134 A 
ATOM      7  C   UNL     1     -34.950  40.978  44.195  1.00  0.00     0.093 A 
ATOM      8  C   UNL     1     -35.929  41.937  43.911  1.00  0.00     0.123 A 
ATOM      9  C   UNL     1     -35.782  42.775  42.805  1.00  0.00     0.094 A 
ATOM     10  C   UNL     1     -34.663  42.661  41.975  1.00  0.00     0.146 A 
ATOM     11  O   UNL     1     -34.548  43.470  40.926  1.00  0.00    -0.456 OA
ENDROOT
BRANCH   1  12
ATOM     12  C   UNL     1     -33.494  44.382  38.942  1.00  0.00     0.021 A 
ATOM     13  C   UNL     1     -34.677  44.915  38.396  1.00  0.00     0.016 A 
ATOM     14  C   UNL     1     -34.623  45.816  37.330  1.00  0.00     0.051 A 
ATOM     15  C   UNL     1     -33.388  46.207  36.796  1.00  0.00     0.157 A 
ATOM     16  C   UNL     1     -32.258  44.790  38.409  1.00  0.00     0.062 A 
ATOM     17  C   UNL     1     -32.201  45.692  37.341  1.00  0.00     0.158 A 
BRANCH  15  18
ATOM     18  O   UNL     1     -33.338  47.106  35.732  1.00  0.00    -0.504 OA
ATOM     19  H   UNL     1     -33.717  46.872  34.821  1.00  0.00     0.293 HD
ENDBRANCH  15  18
BRANCH  17  20
ATOM     20  O   UNL     1     -30.956  46.065  36.835  1.00  0.00    -0.504 OA
ATOM     21  H   UNL     1     -30.600  45.701  35.960  1.00  0.00     0.293 HD
ENDBRANCH  17  20
ENDBRANCH   1  12
BRANCH   6  22
ATOM     22  O   UNL     1     -32.859  39.883  43.683  1.00  0.00    -0.507 OA
ATOM     23  H   UNL     1     -33.035  39.154  44.364  1.00  0.00     0.293 HD
ENDBRANCH   6  22
BRANCH   8  24
ATOM     24  O   UNL     1     -37.053  42.067  44.725  1.00  0.00    -0.508 OA
ATOM     25  H   UNL     1     -37.681  41.289  44.889  1.00  0.00     0.293 HD
ENDBRANCH   8  24
TORSDOF 5
ENDMDL
MODEL 3
REMARK VINA RESULT:    -8.041      7.494     11.977
REMARK INTER + INTRA:          -9.768
REMARK INTER:                  -9.456
REMARK INTRA:                  -0.312
REMARK UNBOUND:                -0.317
REMARK SMILES O=c1cc(-c2ccc(O)c(O)c2)oc2cc(O)cc(O)c12
REMARK SMILES IDX 4 1 3 2 2 3 1 4 21 5 19 6 18 7 16 8 15 9 14 10 13 11 5 12
REMARK SMILES IDX 6 13 7 14 8 15 12 16 10 17 9 18 11 20 20 22 17 24
REMARK H PARENT 9 19 11 21 20 23 17 25
REMARK Flexibility Score: inf
ROOT
ATOM      1  C   UNL     1     -38.933  37.597  47.012  1.00  0.00     0.138 A 
ATOM      2  C   UNL     1     -39.057  38.764  46.239  1.00  0.00     0.100 A 
ATOM      3  C   UNL     1     -38.218  38.951  45.140  1.00  0.00     0.197 A 
ATOM      4  O   UNL     1     -38.335  40.002  44.454  1.00  0.00    -0.289 OA
ATOM      5  C   UNL     1     -37.257  37.971  44.822  1.00  0.00     0.107 A 
ATOM      6  C   UNL     1     -36.370  38.081  43.726  1.00  0.00     0.134 A 
ATOM      7  C   UNL     1     -35.438  37.062  43.480  1.00  0.00     0.093 A 
ATOM      8  C   UNL     1     -35.378  35.937  44.309  1.00  0.00     0.123 A 
ATOM      9  C   UNL     1     -36.251  35.823  45.392  1.00  0.00     0.094 A 
ATOM     10  C   UNL     1     -37.188  36.827  45.654  1.00  0.00     0.146 A 
ATOM     11  O   UNL     1     -38.009  36.694  46.690  1.00  0.00    -0.456 OA
ENDROOT
BRANCH   1  12
ATOM     12  C   UNL     1     -39.798  37.344  48.193  1.00  0.00     0.021 A 
ATOM     13  C   UNL     1     -40.464  38.389  48.860  1.00  0.00     0.016 A 
ATOM     14  C   UNL     1     -41.280  38.121  49.962  1.00  0.00     0.051 A 
ATOM     15  C   UNL     1     -41.449  36.805  50.413  1.00  0.00     0.157 A 
ATOM     16  C   UNL     1     -39.984  36.025  48.644  1.00  0.00     0.062 A 
ATOM     17  C   UNL     1     -40.800  35.753  49.748  1.00  0.00     0.158 A 
BRANCH  15  18
ATOM     18  O   UNL     1     -42.262  36.542  51.514  1.00  0.00    -0.504 OA
ATOM     19  H   UNL     1     -43.195  36.158  51.407  1.00  0.00     0.293 HD
ENDBRANCH  15  18
BRANCH  17  20
ATOM     20  O   UNL     1     -40.952  34.432  50.169  1.00  0.00    -0.504 OA
ATOM     21  H   UNL     1     -41.277  34.198  51.099  1.00  0.00     0.293 HD
ENDBRANCH  17  20
ENDBRANCH   1  12
BRANCH   6  22
ATOM     22  O   UNL     1     -36.408  39.193  42.882  1.00  0.00    -0.507 OA
ATOM     23  H   UNL     1     -37.283  39.623  42.606  1.00  0.00     0.293 HD
ENDBRANCH   6  22
BRANCH   8  24
ATOM     24  O   UNL     1     -34.452  34.924  44.066  1.00  0.00    -0.508 OA
ATOM     25  H   UNL     1     -33.571  35.112  43.603  1.00  0.00     0.293 HD
ENDBRANCH   8  24
TORSDOF 5
ENDMDL
MODEL 4
REMARK VINA RESULT:    -8.034      5.607     10.087
REMARK INTER + INTRA:          -9.759
REMARK INTER:                  -9.464
REMARK INTRA:                  -0.295
REMARK UNBOUND:                -0.317
REMARK SMILES O=c1cc(-c2ccc(O)c(O)c2)oc2cc(O)cc(O)c12
REMARK SMILES IDX 4 1 3 2 2 3 1 4 21 5 19 6 18 7 16 8 15 9 14 10 13 11 5 12
REMARK SMILES IDX 6 13 7 14 8 15 12 16 10 17 9 18 11 20 20 22 17 24
REMARK H PARENT 9 19 11 21 20 23 17 25
REMARK Flexibility Score: inf
ROOT
ATOM      1  C   UNL     1     -37.812  38.737  44.878  1.00  0.00     0.138 A 
ATOM      2  C   UNL     1     -36.423  38.582  45.017  1.00  0.00     0.100 A 
ATOM      3  C   UNL     1     -35.603  38.705  43.894  1.00  0.00     0.197 A 
ATOM      4  O   UNL     1     -34.358  38.563  44.028  1.00  0.00    -0.289 OA
ATOM      5  C   UNL     1     -36.180  38.978  42.638  1.00  0.00     0.107 A 
ATOM      6  C   UNL     1     -35.422  39.118  41.451  1.00  0.00     0.134 A 
ATOM      7  C   UNL     1     -36.074  39.385  40.238  1.00  0.00     0.093 A 
ATOM      8  C   UNL     1     -37.466  39.514  40.190  1.00  0.00     0.123 A 
ATOM      9  C   UNL     1     -38.218  39.375  41.358  1.00  0.00     0.094 A 
ATOM     10  C   UNL     1     -37.588  39.111  42.577  1.00  0.00     0.146 A 
ATOM     11  O   UNL     1     -38.326  38.985  43.676  1.00  0.00    -0.456 OA
ENDROOT
BRANCH   1  12
ATOM     12  C   UNL     1     -38.733  38.617  46.038  1.00  0.00     0.021 A 
ATOM     13  C   UNL     1     -40.129  38.720  45.889  1.00  0.00     0.016 A 
ATOM     14  C   UNL     1     -40.972  38.593  46.995  1.00  0.00     0.051 A 
ATOM     15  C   UNL     1     -40.437  38.353  48.268  1.00  0.00     0.157 A 
ATOM     16  C   UNL     1     -38.205  38.364  47.317  1.00  0.00     0.062 A 
ATOM     17  C   UNL     1     -39.047  38.236  48.427  1.00  0.00     0.158 A 
BRANCH  15  18
ATOM     18  O   UNL     1     -41.281  38.229  49.370  1.00  0.00    -0.504 OA
ATOM     19  H   UNL     1     -41.977  37.493  49.426  1.00  0.00     0.293 HD
ENDBRANCH  15  18
BRANCH  17  20
ATOM     20  O   UNL     1     -38.484  37.994  49.680  1.00  0.00    -0.504 OA
ATOM     21  H   UNL     1     -37.954  37.154  49.879  1.00  0.00     0.293 HD
ENDBRANCH  17  20
ENDBRANCH   1  12
BRANCH   6  22
ATOM     22  O   UNL     1     -34.032  38.995  41.469  1.00  0.00    -0.507 OA
ATOM     23  H   UNL     1     -33.426  39.803  41.559  1.00  0.00     0.293 HD
ENDBRANCH   6  22
BRANCH   8  24
ATOM     24  O   UNL     1     -38.114  39.778  38.985  1.00  0.00    -0.508 OA
ATOM     25  H   UNL     1     -37.668  40.316  38.251  1.00  0.00     0.293 HD
ENDBRANCH   8  24
TORSDOF 5
ENDMDL
MODEL 5
REMARK VINA RESULT:    -7.980      4.867      7.211
REMARK INTER + INTRA:          -9.696
REMARK INTER:                  -9.416
REMARK INTRA:                  -0.280
REMARK UNBOUND:                -0.317
REMARK SMILES O=c1cc(-c2ccc(O)c(O)c2)oc2cc(O)cc(O)c12
REMARK SMILES IDX 4 1 3 2 2 3 1 4 21 5 19 6 18 7 16 8 15 9 14 10 13 11 5 12
REMARK SMILES IDX 6 13 7 14 8 15 12 16 10 17 9 18 11 20 20 22 17 24
REMARK H PARENT 9 19 11 21 20 23 17 25
REMARK Flexibility Score: inf
ROOT
ATOM      1  C   UNL     1     -37.309  39.709  43.549  1.00  0.00     0.138 A 
ATOM      2  C   UNL     1     -38.667  39.798  43.202  1.00  0.00     0.100 A 
ATOM      3  C   UNL     1     -39.641  39.504  44.157  1.00  0.00     0.197 A 
ATOM      4  O   UNL     1     -40.857  39.585  43.836  1.00  0.00    -0.289 OA
ATOM      5  C   UNL     1     -39.249  39.118  45.455  1.00  0.00     0.107 A 
ATOM      6  C   UNL     1     -40.170  38.804  46.482  1.00  0.00     0.134 A 
ATOM      7  C   UNL     1     -39.697  38.424  47.746  1.00  0.00     0.093 A 
ATOM      8  C   UNL     1     -38.323  38.351  48.002  1.00  0.00     0.123 A 
ATOM      9  C   UNL     1     -37.411  38.660  46.992  1.00  0.00     0.094 A 
ATOM     10  C   UNL     1     -37.861  39.042  45.725  1.00  0.00     0.146 A 
ATOM     11  O   UNL     1     -36.971  39.333  44.781  1.00  0.00    -0.456 OA
ENDROOT
BRANCH   1  12
ATOM     12  C   UNL     1     -36.230  40.009  42.573  1.00  0.00     0.021 A 
ATOM     13  C   UNL     1     -35.047  39.248  42.519  1.00  0.00     0.016 A 
ATOM     14  C   UNL     1     -34.053  39.547  41.584  1.00  0.00     0.051 A 
ATOM     15  C   UNL     1     -34.225  40.606  40.683  1.00  0.00     0.157 A 
ATOM     16  C   UNL     1     -36.400  41.062  41.656  1.00  0.00     0.062 A 
ATOM     17  C   UNL     1     -35.406  41.364  40.719  1.00  0.00     0.158 A 
BRANCH  15  18
ATOM     18  O   UNL     1     -33.231  40.902  39.753  1.00  0.00    -0.504 OA
ATOM     19  H   UNL     1     -32.530  40.218  39.488  1.00  0.00     0.293 HD
ENDBRANCH  15  18
BRANCH  17  20
ATOM     20  O   UNL     1     -35.610  42.422  39.832  1.00  0.00    -0.504 OA
ATOM     21  H   UNL     1     -35.735  42.274  38.839  1.00  0.00     0.293 HD
ENDBRANCH  17  20
ENDBRANCH   1  12
BRANCH   6  22
ATOM     22  O   UNL     1     -41.545  38.868  46.255  1.00  0.00    -0.507 OA
ATOM     23  H   UNL     1     -42.018  39.749  46.088  1.00  0.00     0.293 HD
ENDBRANCH   6  22
BRANCH   8  24
ATOM     24  O   UNL     1     -37.853  37.973  49.258  1.00  0.00    -0.508 OA
ATOM     25  H   UNL     1     -37.968  38.570  50.069  1.00  0.00     0.293 HD
ENDBRANCH   8  24
TORSDOF 5
ENDMDL
MODEL 6
REMARK VINA RESULT:    -7.946      4.567      7.425
REMARK INTER + INTRA:          -9.657
REMARK INTER:                  -9.350
REMARK INTRA:                  -0.307
REMARK UNBOUND:                -0.317
REMARK SMILES O=c1cc(-c2ccc(O)c(O)c2)oc2cc(O)cc(O)c12
REMARK SMILES IDX 4 1 3 2 2 3 1 4 21 5 19 6 18 7 16 8 15 9 14 10 13 11 5 12
REMARK SMILES IDX 6 13 7 14 8 15 12 16 10 17 9 18 11 20 20 22 17 24
REMARK H PARENT 9 19 11 21 20 23 17 25
REMARK Flexibility Score: inf
ROOT
ATOM      1  C   UNL     1     -36.079  39.348  44.135  1.00  0.00     0.138 A 
ATOM      2  C   UNL     1     -35.349  38.969  45.273  1.00  0.00     0.100 A 
ATOM      3  C   UNL     1     -36.029  38.633  46.445  1.00  0.00     0.197 A 
ATOM      4  O   UNL     1     -35.366  38.295  47.461  1.00  0.00    -0.289 OA
ATOM      5  C   UNL     1     -37.437  38.683  46.471  1.00  0.00     0.107 A 
ATOM      6  C   UNL     1     -38.203  38.359  47.615  1.00  0.00     0.134 A 
ATOM      7  C   UNL     1     -39.602  38.439  47.560  1.00  0.00     0.093 A 
ATOM      8  C   UNL     1     -40.248  38.838  46.384  1.00  0.00     0.123 A 
ATOM      9  C   UNL     1     -39.497  39.160  45.253  1.00  0.00     0.094 A 
ATOM     10  C   UNL     1     -38.101  39.085  45.286  1.00  0.00     0.146 A 
ATOM     11  O   UNL     1     -37.408  39.395  44.195  1.00  0.00    -0.456 OA
ENDROOT
BRANCH   1  12
ATOM     12  C   UNL     1     -35.409  39.716  42.861  1.00  0.00     0.021 A 
ATOM     13  C   UNL     1     -34.177  39.151  42.482  1.00  0.00     0.016 A 
ATOM     14  C   UNL     1     -33.575  39.508  41.273  1.00  0.00     0.051 A 
ATOM     15  C   UNL     1     -34.194  40.430  40.419  1.00  0.00     0.157 A 
ATOM     16  C   UNL     1     -36.031  40.631  41.992  1.00  0.00     0.062 A 
ATOM     17  C   UNL     1     -35.429  40.991  40.781  1.00  0.00     0.158 A 
BRANCH  15  18
ATOM     18  O   UNL     1     -33.589  40.785  39.215  1.00  0.00    -0.504 OA
ATOM     19  H   UNL     1     -34.117  40.837  38.351  1.00  0.00     0.293 HD
ENDBRANCH  15  18
BRANCH  17  20
ATOM     20  O   UNL     1     -36.074  41.908  39.951  1.00  0.00    -0.504 OA
ATOM     21  H   UNL     1     -35.830  42.013  38.973  1.00  0.00     0.293 HD
ENDBRANCH  17  20
ENDBRANCH   1  12
BRANCH   6  22
ATOM     22  O   UNL     1     -37.587  37.958  48.801  1.00  0.00    -0.507 OA
ATOM     23  H   UNL     1     -36.579  37.874  48.876  1.00  0.00     0.293 HD
ENDBRANCH   6  22
BRANCH   8  24
ATOM     24  O   UNL     1     -41.638  38.918  46.329  1.00  0.00    -0.508 OA
ATOM     25  H   UNL     1     -42.121  39.155  45.471  1.00  0.00     0.293 HD
ENDBRANCH   8  24
TORSDOF 5
ENDMDL
MODEL 7
REMARK VINA RESULT:    -7.866      2.337      3.703
REMARK INTER + INTRA:          -9.563
REMARK INTER:                  -9.268
REMARK INTRA:                  -0.295
REMARK UNBOUND:                -0.317
REMARK SMILES O=c1cc(-c2ccc(O)c(O)c2)oc2cc(O)cc(O)c12
REMARK SMILES IDX 4 1 3 2 2 3 1 4 21 5 19 6 18 7 16 8 15 9 14 10 13 11 5 12
REMARK SMILES IDX 6 13 7 14 8 15 12 16 10 17 9 18 11 20 20 22 17 24
REMARK H PARENT 9 19 11 21 20 23 17 25
REMARK Flexibility Score: inf
ROOT
ATOM      1  C   UNL     1     -34.755  42.219  41.887  1.00  0.00     0.138 A 
ATOM      2  C   UNL     1     -34.384  40.894  41.606  1.00  0.00     0.100 A 
ATOM      3  C   UNL     1     -34.375  39.950  42.634  1.00  0.00     0.197 A 
ATOM      4  O   UNL     1     -34.040  38.764  42.373  1.00  0.00    -0.289 OA
ATOM      5  C   UNL     1     -34.735  40.341  43.940  1.00  0.00     0.107 A 
ATOM      6  C   UNL     1     -34.754  39.449  45.038  1.00  0.00     0.134 A 
ATOM      7  C   UNL     1     -35.119  39.918  46.308  1.00  0.00     0.093 A 
ATOM      8  C   UNL     1     -35.464  41.260  46.500  1.00  0.00     0.123 A 
ATOM      9  C   UNL     1     -35.447  42.144  45.420  1.00  0.00     0.094 A 
ATOM     10  C   UNL     1     -35.087  41.697  44.145  1.00  0.00     0.146 A 
ATOM     11  O   UNL     1     -35.080  42.558  43.133  1.00  0.00    -0.456 OA
ENDROOT
BRANCH   1  12
ATOM     12  C   UNL     1     -34.782  43.266  40.833  1.00  0.00     0.021 A 
ATOM     13  C   UNL     1     -35.098  44.605  41.127  1.00  0.00     0.016 A 
ATOM     14  C   UNL     1     -35.105  45.570  40.117  1.00  0.00     0.051 A 
ATOM     15  C   UNL     1     -34.791  45.217  38.798  1.00  0.00     0.157 A 
ATOM     16  C   UNL     1     -34.455  42.922  39.509  1.00  0.00     0.062 A 
ATOM     17  C   UNL     1     -34.463  43.886  38.495  1.00  0.00     0.158 A 
BRANCH  15  18
ATOM     18  O   UNL     1     -34.802  46.182  37.793  1.00  0.00    -0.504 OA
ATOM     19  H   UNL     1     -34.740  45.929  36.813  1.00  0.00     0.293 HD
ENDBRANCH  15  18
BRANCH  17  20
ATOM     20  O   UNL     1     -34.141  43.503  37.193  1.00  0.00    -0.504 OA
ATOM     21  H   UNL     1     -33.497  44.033  36.619  1.00  0.00     0.293 HD
ENDBRANCH  17  20
ENDBRANCH   1  12
BRANCH   6  22
ATOM     22  O   UNL     1     -34.413  38.105  44.876  1.00  0.00    -0.507 OA
ATOM     23  H   UNL     1     -34.112  37.735  43.981  1.00  0.00     0.293 HD
ENDBRANCH   6  22
BRANCH   8  24
ATOM     24  O   UNL     1     -35.827  41.727  47.762  1.00  0.00    -0.508 OA
ATOM     25  H   UNL     1     -35.415  41.347  48.606  1.00  0.00     0.293 HD
ENDBRANCH   8  24
TORSDOF 5
ENDMDL
MODEL 8
REMARK VINA RESULT:    -7.815      4.868      9.238
REMARK INTER + INTRA:          -9.502
REMARK INTER:                  -9.186
REMARK INTRA:                  -0.316
REMARK UNBOUND:                -0.317
REMARK SMILES O=c1cc(-c2ccc(O)c(O)c2)oc2cc(O)cc(O)c12
REMARK SMILES IDX 4 1 3 2 2 3 1 4 21 5 19 6 18 7 16 8 15 9 14 10 13 11 5 12
REMARK SMILES IDX 6 13 7 14 8 15 12 16 10 17 9 18 11 20 20 22 17 24
REMARK H PARENT 9 19 11 21 20 23 17 25
REMARK Flexibility Score: inf
ROOT
ATOM      1  C   UNL     1     -37.621  39.754  44.764  1.00  0.00     0.138 A 
ATOM      2  C   UNL     1     -37.993  39.838  43.412  1.00  0.00     0.100 A 
ATOM      3  C   UNL     1     -37.071  40.304  42.474  1.00  0.00     0.197 A 
ATOM      4  O   UNL     1     -37.414  40.377  41.264  1.00  0.00    -0.289 OA
ATOM      5  C   UNL     1     -35.782  40.686  42.896  1.00  0.00     0.107 A 
ATOM      6  C   UNL     1     -34.788  41.167  42.012  1.00  0.00     0.134 A 
ATOM      7  C   UNL     1     -33.530  41.532  42.513  1.00  0.00     0.093 A 
ATOM      8  C   UNL     1     -33.248  41.425  43.880  1.00  0.00     0.123 A 
ATOM      9  C   UNL     1     -34.226  40.951  44.756  1.00  0.00     0.094 A 
ATOM     10  C   UNL     1     -35.486  40.581  44.277  1.00  0.00     0.146 A 
ATOM     11  O   UNL     1     -36.399  40.132  45.132  1.00  0.00    -0.456 OA
ENDROOT
BRANCH   1  12
ATOM     12  C   UNL     1     -38.561  39.266  45.806  1.00  0.00     0.021 A 
ATOM     13  C   UNL     1     -39.938  39.121  45.552  1.00  0.00     0.016 A 
ATOM     14  C   UNL     1     -40.797  38.650  46.548  1.00  0.00     0.051 A 
ATOM     15  C   UNL     1     -40.297  38.311  47.812  1.00  0.00     0.157 A 
ATOM     16  C   UNL     1     -38.065  38.910  47.073  1.00  0.00     0.062 A 
ATOM     17  C   UNL     1     -38.924  38.440  48.073  1.00  0.00     0.158 A 
BRANCH  15  18
ATOM     18  O   UNL     1     -41.158  37.843  48.803  1.00  0.00    -0.504 OA
ATOM     19  H   UNL     1     -41.978  38.368  49.085  1.00  0.00     0.293 HD
ENDBRANCH  15  18
BRANCH  17  20
ATOM     20  O   UNL     1     -38.394  38.106  49.319  1.00  0.00    -0.504 OA
ATOM     21  H   UNL     1     -37.867  38.768  49.875  1.00  0.00     0.293 HD
ENDBRANCH  17  20
ENDBRANCH   1  12
BRANCH   6  22
ATOM     22  O   UNL     1     -35.040  41.284  40.645  1.00  0.00    -0.507 OA
ATOM     23  H   UNL     1     -35.295  40.483  40.079  1.00  0.00     0.293 HD
ENDBRANCH   6  22
BRANCH   8  24
ATOM     24  O   UNL     1     -31.998  41.788  44.379  1.00  0.00    -0.508 OA
ATOM     25  H   UNL     1     -31.800  41.774  45.372  1.00  0.00     0.293 HD
ENDBRANCH   8  24
TORSDOF 5
ENDMDL
MODEL 9
REMARK VINA RESULT:    -7.773      2.999      8.186
REMARK INTER + INTRA:          -9.453
REMARK INTER:                  -9.139
REMARK INTRA:                  -0.314
REMARK UNBOUND:                -0.317
REMARK SMILES O=c1cc(-c2ccc(O)c(O)c2)oc2cc(O)cc(O)c12
REMARK SMILES IDX 4 1 3 2 2 3 1 4 21 5 19 6 18 7 16 8 15 9 14 10 13 11 5 12
REMARK SMILES IDX 6 13 7 14 8 15 12 16 10 17 9 18 11 20 20 22 17 24
REMARK H PARENT 9 19 11 21 20 23 17 25
REMARK Flexibility Score: inf
ROOT
ATOM      1  C   UNL     1     -34.688  39.995  43.009  1.00  0.00     0.138 A 
ATOM      2  C   UNL     1     -34.290  39.450  41.777  1.00  0.00     0.100 A 
ATOM      3  C   UNL     1     -34.196  40.279  40.658  1.00  0.00     0.197 A 
ATOM      4  O   UNL     1     -33.840  39.781  39.556  1.00  0.00    -0.289 OA
ATOM      5  C   UNL     1     -34.506  41.649  40.778  1.00  0.00     0.107 A 
ATOM      6  C   UNL     1     -34.436  42.557  39.696  1.00  0.00     0.134 A 
ATOM      7  C   UNL     1     -34.765  43.905  39.898  1.00  0.00     0.093 A 
ATOM      8  C   UNL     1     -35.163  44.360  41.160  1.00  0.00     0.123 A 
ATOM      9  C   UNL     1     -35.234  43.468  42.231  1.00  0.00     0.094 A 
ATOM     10  C   UNL     1     -34.909  42.120  42.051  1.00  0.00     0.146 A 
ATOM     11  O   UNL     1     -34.983  41.291  43.087  1.00  0.00    -0.456 OA
ENDROOT
BRANCH   1  12
ATOM     12  C   UNL     1     -34.806  39.161  44.233  1.00  0.00     0.021 A 
ATOM     13  C   UNL     1     -34.870  37.756  44.168  1.00  0.00     0.016 A 
ATOM     14  C   UNL     1     -34.970  36.997  45.337  1.00  0.00     0.051 A 
ATOM     15  C   UNL     1     -35.002  37.625  46.589  1.00  0.00     0.157 A 
ATOM     16  C   UNL     1     -34.826  39.783  45.494  1.00  0.00     0.062 A 
ATOM     17  C   UNL     1     -34.927  39.024  46.665  1.00  0.00     0.158 A 
BRANCH  15  18
ATOM     18  O   UNL     1     -35.104  36.864  47.751  1.00  0.00    -0.504 OA
ATOM     19  H   UNL     1     -35.454  35.912  47.734  1.00  0.00     0.293 HD
ENDBRANCH  15  18
BRANCH  17  20
ATOM     20  O   UNL     1     -34.952  39.680  47.897  1.00  0.00    -0.504 OA
ATOM     21  H   UNL     1     -34.363  40.479  48.093  1.00  0.00     0.293 HD
ENDBRANCH  17  20
ENDBRANCH   1  12
BRANCH   6  22
ATOM     22  O   UNL     1     -34.042  42.131  38.427  1.00  0.00    -0.507 OA
ATOM     23  H   UNL     1     -33.185  42.459  37.996  1.00  0.00     0.293 HD
ENDBRANCH   6  22
BRANCH   8  24
ATOM     24  O   UNL     1     -35.491  45.700  41.361  1.00  0.00    -0.508 OA
ATOM     25  H   UNL     1     -36.418  46.055  41.156  1.00  0.00     0.293 HD
ENDBRANCH   8  24
TORSDOF 5
ENDMDL
