MODEL 1
REMARK VINA RESULT:    -4.960      0.000      0.000
REMARK INTER + INTRA:          -7.603
REMARK INTER:                  -7.279
REMARK INTRA:                  -0.324
REMARK UNBOUND:                -0.324
REMARK SMILES O=C([O-])CCCCCCCC(=O)[O-]
REMARK SMILES IDX 7 1 6 2 5 3 4 4 2 5 1 6 3 7 8 8 9 9 10 10 11 11 12 12 13 13
REMARK H PARENT
REMARK Flexibility Score: inf
ROOT
ATOM      1  C   UNL     1     -21.785 -32.019  23.247  1.00  0.00     0.000 C 
ENDROOT
BRANCH   1   2
ATOM      2  C   UNL     1     -20.283 -31.726  23.326  1.00  0.00     0.000 C 
BRANCH   2   3
ATOM      3  C   UNL     1     -20.024 -30.335  23.923  1.00  0.00     0.006 C 
BRANCH   3   4
ATOM      4  C   UNL     1     -18.620 -30.215  24.531  1.00  0.00     0.053 C 
BRANCH   4   5
ATOM      5  C   UNL     1     -17.550 -30.399  23.499  1.00  0.00     0.041 C 
ATOM      6  O   UNL     1     -16.668 -31.284  23.652  1.00  0.00    -0.550 OA
ATOM      7  O   UNL     1     -17.509 -29.573  22.383  1.00  0.00    -0.550 OA
ENDBRANCH   4   5
ENDBRANCH   3   4
ENDBRANCH   2   3
ENDBRANCH   1   2
BRANCH   1   8
ATOM      8  C   UNL     1     -22.562 -31.204  24.289  1.00  0.00     0.000 C 
BRANCH   8   9
ATOM      9  C   UNL     1     -24.036 -31.633  24.336  1.00  0.00     0.006 C 
BRANCH   9  10
ATOM     10  C   UNL     1     -24.334 -32.561  25.520  1.00  0.00     0.053 C 
BRANCH  10  11
ATOM     11  C   UNL     1     -25.792 -32.886  25.621  1.00  0.00     0.041 C 
ATOM     12  O   UNL     1     -26.333 -33.027  26.749  1.00  0.00    -0.550 OA
ATOM     13  O   UNL     1     -26.562 -33.000  24.470  1.00  0.00    -0.550 OA
ENDBRANCH  10  11
ENDBRANCH   9  10
ENDBRANCH   8   9
ENDBRANCH   1   8
TORSDOF 8
ENDMDL
MODEL 2
REMARK VINA RESULT:    -4.901      0.990      7.277
REMARK INTER + INTRA:          -7.517
REMARK INTER:                  -7.139
REMARK INTRA:                  -0.378
REMARK UNBOUND:                -0.324
REMARK SMILES O=C([O-])CCCCCCCC(=O)[O-]
REMARK SMILES IDX 7 1 6 2 5 3 4 4 2 5 1 6 3 7 8 8 9 9 10 10 11 11 12 12 13 13
REMARK H PARENT
REMARK Flexibility Score: inf
ROOT
ATOM      1  C   UNL     1     -20.744 -31.380  23.578  1.00  0.00     0.000 C 
ENDROOT
BRANCH   1   2
ATOM      2  C   UNL     1     -22.222 -31.772  23.472  1.00  0.00     0.000 C 
BRANCH   2   3
ATOM      3  C   UNL     1     -23.040 -31.147  24.611  1.00  0.00     0.006 C 
BRANCH   3   4
ATOM      4  C   UNL     1     -24.013 -32.149  25.246  1.00  0.00     0.053 C 
BRANCH   4   5
ATOM      5  C   UNL     1     -25.396 -32.010  24.688  1.00  0.00     0.041 C 
ATOM      6  O   UNL     1     -25.715 -30.983  24.033  1.00  0.00    -0.550 OA
ATOM      7  O   UNL     1     -26.344 -33.000  24.918  1.00  0.00    -0.550 OA
ENDBRANCH   4   5
ENDBRANCH   3   4
ENDBRANCH   2   3
ENDBRANCH   1   2
BRANCH   1   8
ATOM      8  C   UNL     1     -20.547 -30.235  24.579  1.00  0.00     0.000 C 
BRANCH   8   9
ATOM      9  C   UNL     1     -19.112 -29.691  24.519  1.00  0.00     0.006 C 
BRANCH   9  10
ATOM     10  C   UNL     1     -18.117 -30.734  23.994  1.00  0.00     0.053 C 
BRANCH  10  11
ATOM     11  C   UNL     1     -17.176 -30.148  22.987  1.00  0.00     0.041 C 
ATOM     12  O   UNL     1     -16.135 -30.774  22.654  1.00  0.00    -0.550 OA
ATOM     13  O   UNL     1     -17.464 -28.927  22.391  1.00  0.00    -0.550 OA
ENDBRANCH  10  11
ENDBRANCH   9  10
ENDBRANCH   8   9
ENDBRANCH   1   8
TORSDOF 8
ENDMDL
MODEL 3
REMARK VINA RESULT:    -4.815      2.277      7.739
REMARK INTER + INTRA:          -7.391
REMARK INTER:                  -7.118
REMARK INTRA:                  -0.273
REMARK UNBOUND:                -0.324
REMARK SMILES O=C([O-])CCCCCCCC(=O)[O-]
REMARK SMILES IDX 7 1 6 2 5 3 4 4 2 5 1 6 3 7 8 8 9 9 10 10 11 11 12 12 13 13
REMARK H PARENT
REMARK Flexibility Score: inf
ROOT
ATOM      1  C   UNL     1     -18.275 -30.419  23.752  1.00  0.00     0.000 C 
ENDROOT
BRANCH   1   2
ATOM      2  C   UNL     1     -19.393 -31.445  23.536  1.00  0.00     0.000 C 
BRANCH   2   3
ATOM      3  C   UNL     1     -20.759 -30.861  23.922  1.00  0.00     0.006 C 
BRANCH   3   4
ATOM      4  C   UNL     1     -21.924 -31.713  23.401  1.00  0.00     0.053 C 
BRANCH   4   5
ATOM      5  C   UNL     1     -23.212 -31.368  24.084  1.00  0.00     0.041 C 
ATOM      6  O   UNL     1     -23.607 -32.043  25.070  1.00  0.00    -0.550 OA
ATOM      7  O   UNL     1     -23.993 -30.320  23.610  1.00  0.00    -0.550 OA
ENDBRANCH   4   5
ENDBRANCH   3   4
ENDBRANCH   2   3
ENDBRANCH   1   2
BRANCH   1   8
ATOM      8  C   UNL     1     -16.893 -31.074  23.632  1.00  0.00     0.000 C 
BRANCH   8   9
ATOM      9  C   UNL     1     -16.077 -30.437  22.497  1.00  0.00     0.006 C 
BRANCH   9  10
ATOM     10  C   UNL     1     -16.745 -29.173  21.941  1.00  0.00     0.053 C 
BRANCH  10  11
ATOM     11  C   UNL     1     -16.501 -29.014  20.472  1.00  0.00     0.041 C 
ATOM     12  O   UNL     1     -16.533 -30.018  19.712  1.00  0.00    -0.550 OA
ATOM     13  O   UNL     1     -16.272 -27.754  19.936  1.00  0.00    -0.550 OA
ENDBRANCH  10  11
ENDBRANCH   9  10
ENDBRANCH   8   9
ENDBRANCH   1   8
TORSDOF 8
ENDMDL
MODEL 4
REMARK VINA RESULT:    -4.813      1.313      2.001
REMARK INTER + INTRA:          -7.388
REMARK INTER:                  -7.041
REMARK INTRA:                  -0.347
REMARK UNBOUND:                -0.324
REMARK SMILES O=C([O-])CCCCCCCC(=O)[O-]
REMARK SMILES IDX 7 1 6 2 5 3 4 4 2 5 1 6 3 7 8 8 9 9 10 10 11 11 12 12 13 13
REMARK H PARENT
REMARK Flexibility Score: inf
ROOT
ATOM      1  C   UNL     1     -20.200 -31.758  23.267  1.00  0.00     0.000 C 
ENDROOT
BRANCH   1   2
ATOM      2  C   UNL     1     -19.985 -30.410  23.964  1.00  0.00     0.000 C 
BRANCH   2   3
ATOM      3  C   UNL     1     -18.522 -30.240  24.395  1.00  0.00     0.006 C 
BRANCH   3   4
ATOM      4  C   UNL     1     -17.561 -31.076  23.539  1.00  0.00     0.053 C 
BRANCH   4   5
ATOM      5  C   UNL     1     -17.036 -30.298  22.372  1.00  0.00     0.041 C 
ATOM      6  O   UNL     1     -17.053 -29.039  22.392  1.00  0.00    -0.550 OA
ATOM      7  O   UNL     1     -16.558 -30.962  21.249  1.00  0.00    -0.550 OA
ENDBRANCH   4   5
ENDBRANCH   3   4
ENDBRANCH   2   3
ENDBRANCH   1   2
BRANCH   1   8
ATOM      8  C   UNL     1     -21.680 -32.161  23.288  1.00  0.00     0.000 C 
BRANCH   8   9
ATOM      9  C   UNL     1     -22.507 -31.174  24.126  1.00  0.00     0.006 C 
BRANCH   9  10
ATOM     10  C   UNL     1     -23.690 -31.856  24.825  1.00  0.00     0.053 C 
BRANCH  10  11
ATOM     11  C   UNL     1     -24.997 -31.485  24.196  1.00  0.00     0.041 C 
ATOM     12  O   UNL     1     -25.894 -32.355  24.040  1.00  0.00    -0.550 OA
ATOM     13  O   UNL     1     -25.240 -30.172  23.814  1.00  0.00    -0.550 OA
ENDBRANCH  10  11
ENDBRANCH   9  10
ENDBRANCH   8   9
ENDBRANCH   1   8
TORSDOF 8
ENDMDL
MODEL 5
REMARK VINA RESULT:    -4.801      1.510      2.371
REMARK INTER + INTRA:          -7.371
REMARK INTER:                  -7.195
REMARK INTRA:                  -0.177
REMARK UNBOUND:                -0.324
REMARK SMILES O=C([O-])CCCCCCCC(=O)[O-]
REMARK SMILES IDX 7 1 6 2 5 3 4 4 2 5 1 6 3 7 8 8 9 9 10 10 11 11 12 12 13 13
REMARK H PARENT
REMARK Flexibility Score: inf
ROOT
ATOM      1  C   UNL     1     -23.400 -31.686  24.792  1.00  0.00     0.000 C 
ENDROOT
BRANCH   1   2
ATOM      2  C   UNL     1     -22.920 -31.631  23.337  1.00  0.00     0.000 C 
BRANCH   2   3
ATOM      3  C   UNL     1     -21.417 -31.929  23.242  1.00  0.00     0.006 C 
BRANCH   3   4
ATOM      4  C   UNL     1     -20.566 -30.855  23.934  1.00  0.00     0.053 C 
BRANCH   4   5
ATOM      5  C   UNL     1     -19.100 -31.092  23.731  1.00  0.00     0.041 C 
ATOM      6  O   UNL     1     -18.707 -32.026  22.985  1.00  0.00    -0.550 OA
ATOM      7  O   UNL     1     -18.168 -30.302  24.393  1.00  0.00    -0.550 OA
ENDBRANCH   4   5
ENDBRANCH   3   4
ENDBRANCH   2   3
ENDBRANCH   1   2
BRANCH   1   8
ATOM      8  C   UNL     1     -24.926 -31.821  24.864  1.00  0.00     0.000 C 
BRANCH   8   9
ATOM      9  C   UNL     1     -25.334 -32.978  25.788  1.00  0.00     0.006 C 
BRANCH   9  10
ATOM     10  C   UNL     1     -26.714 -32.757  26.421  1.00  0.00     0.053 C 
BRANCH  10  11
ATOM     11  C   UNL     1     -27.761 -32.476  25.388  1.00  0.00     0.041 C 
ATOM     12  O   UNL     1     -27.901 -33.246  24.402  1.00  0.00    -0.550 OA
ATOM     13  O   UNL     1     -28.605 -31.382  25.532  1.00  0.00    -0.550 OA
ENDBRANCH  10  11
ENDBRANCH   9  10
ENDBRANCH   8   9
ENDBRANCH   1   8
TORSDOF 8
ENDMDL
MODEL 6
REMARK VINA RESULT:    -4.693      3.257      7.123
REMARK INTER + INTRA:          -7.211
REMARK INTER:                  -6.596
REMARK INTRA:                  -0.615
REMARK UNBOUND:                -0.324
REMARK SMILES O=C([O-])CCCCCCCC(=O)[O-]
REMARK SMILES IDX 7 1 6 2 5 3 4 4 2 5 1 6 3 7 8 8 9 9 10 10 11 11 12 12 13 13
REMARK H PARENT
REMARK Flexibility Score: inf
ROOT
ATOM      1  C   UNL     1     -25.595 -33.154  25.683  1.00  0.00     0.000 C 
ENDROOT
BRANCH   1   2
ATOM      2  C   UNL     1     -26.673 -32.089  25.917  1.00  0.00     0.000 C 
BRANCH   2   3
ATOM      3  C   UNL     1     -27.885 -32.324  25.005  1.00  0.00     0.006 C 
BRANCH   3   4
ATOM      4  C   UNL     1     -27.580 -33.316  23.875  1.00  0.00     0.053 C 
BRANCH   4   5
ATOM      5  C   UNL     1     -27.533 -32.640  22.539  1.00  0.00     0.041 C 
ATOM      6  O   UNL     1     -28.513 -32.722  21.753  1.00  0.00    -0.550 OA
ATOM      7  O   UNL     1     -26.395 -31.945  22.149  1.00  0.00    -0.550 OA
ENDBRANCH   4   5
ENDBRANCH   3   4
ENDBRANCH   2   3
ENDBRANCH   1   2
BRANCH   1   8
ATOM      8  C   UNL     1     -24.195 -32.527  25.670  1.00  0.00     0.000 C 
BRANCH   8   9
ATOM      9  C   UNL     1     -24.182 -31.224  24.857  1.00  0.00     0.006 C 
BRANCH   9  10
ATOM     10  C   UNL     1     -22.782 -30.882  24.331  1.00  0.00     0.053 C 
BRANCH  10  11
ATOM     11  C   UNL     1     -22.479 -31.594  23.049  1.00  0.00     0.041 C 
ATOM     12  O   UNL     1     -23.087 -31.280  21.992  1.00  0.00    -0.550 OA
ATOM     13  O   UNL     1     -21.501 -32.580  23.014  1.00  0.00    -0.550 OA
ENDBRANCH  10  11
ENDBRANCH   9  10
ENDBRANCH   8   9
ENDBRANCH   1   8
TORSDOF 8
ENDMDL
MODEL 7
REMARK VINA RESULT:    -4.688      4.441      5.571
REMARK INTER + INTRA:          -7.205
REMARK INTER:                  -6.484
REMARK INTRA:                  -0.722
REMARK UNBOUND:                -0.324
REMARK SMILES O=C([O-])CCCCCCCC(=O)[O-]
REMARK SMILES IDX 7 1 6 2 5 3 4 4 2 5 1 6 3 7 8 8 9 9 10 10 11 11 12 12 13 13
REMARK H PARENT
REMARK Flexibility Score: inf
ROOT
ATOM      1  C   UNL     1     -24.215 -31.595  25.066  1.00  0.00     0.000 C 
ENDROOT
BRANCH   1   2
ATOM      2  C   UNL     1     -23.259 -31.770  23.881  1.00  0.00     0.000 C 
BRANCH   2   3
ATOM      3  C   UNL     1     -23.922 -31.330  22.569  1.00  0.00     0.006 C 
BRANCH   3   4
ATOM      4  C   UNL     1     -25.365 -31.838  22.446  1.00  0.00     0.053 C 
BRANCH   4   5
ATOM      5  C   UNL     1     -26.287 -30.773  21.938  1.00  0.00     0.041 C 
ATOM      6  O   UNL     1     -27.521 -30.836  22.180  1.00  0.00    -0.550 OA
ATOM      7  O   UNL     1     -25.790 -29.728  21.168  1.00  0.00    -0.550 OA
ENDBRANCH   4   5
ENDBRANCH   3   4
ENDBRANCH   2   3
ENDBRANCH   1   2
BRANCH   1   8
ATOM      8  C   UNL     1     -24.283 -32.871  25.914  1.00  0.00     0.000 C 
BRANCH   8   9
ATOM      9  C   UNL     1     -25.737 -33.224  26.263  1.00  0.00     0.006 C 
BRANCH   9  10
ATOM     10  C   UNL     1     -26.639 -31.985  26.314  1.00  0.00     0.053 C 
BRANCH  10  11
ATOM     11  C   UNL     1     -27.839 -32.133  25.431  1.00  0.00     0.041 C 
ATOM     12  O   UNL     1     -27.912 -33.091  24.617  1.00  0.00    -0.550 OA
ATOM     13  O   UNL     1     -28.894 -31.235  25.532  1.00  0.00    -0.550 OA
ENDBRANCH  10  11
ENDBRANCH   9  10
ENDBRANCH   8   9
ENDBRANCH   1   8
TORSDOF 8
ENDMDL
MODEL 8
REMARK VINA RESULT:    -4.596      2.490      4.009
REMARK INTER + INTRA:          -7.070
REMARK INTER:                  -6.657
REMARK INTRA:                  -0.412
REMARK UNBOUND:                -0.324
REMARK SMILES O=C([O-])CCCCCCCC(=O)[O-]
REMARK SMILES IDX 7 1 6 2 5 3 4 4 2 5 1 6 3 7 8 8 9 9 10 10 11 11 12 12 13 13
REMARK H PARENT
REMARK Flexibility Score: inf
ROOT
ATOM      1  C   UNL     1     -25.491 -31.607  25.508  1.00  0.00     0.000 C 
ENDROOT
BRANCH   1   2
ATOM      2  C   UNL     1     -24.093 -32.136  25.166  1.00  0.00     0.000 C 
BRANCH   2   3
ATOM      3  C   UNL     1     -23.465 -31.330  24.021  1.00  0.00     0.006 C 
BRANCH   3   4
ATOM      4  C   UNL     1     -22.100 -30.742  24.403  1.00  0.00     0.053 C 
BRANCH   4   5
ATOM      5  C   UNL     1     -20.978 -31.434  23.693  1.00  0.00     0.041 C 
ATOM      6  O   UNL     1     -19.799 -31.006  23.802  1.00  0.00    -0.550 OA
ATOM      7  O   UNL     1     -21.238 -32.534  22.885  1.00  0.00    -0.550 OA
ENDBRANCH   4   5
ENDBRANCH   3   4
ENDBRANCH   2   3
ENDBRANCH   1   2
BRANCH   1   8
ATOM      8  C   UNL     1     -26.405 -32.738  25.994  1.00  0.00     0.000 C 
BRANCH   8   9
ATOM      9  C   UNL     1     -27.671 -32.834  25.129  1.00  0.00     0.006 C 
BRANCH   9  10
ATOM     10  C   UNL     1     -27.353 -33.213  23.677  1.00  0.00     0.053 C 
BRANCH  10  11
ATOM     11  C   UNL     1     -27.952 -32.243  22.705  1.00  0.00     0.041 C 
ATOM     12  O   UNL     1     -28.637 -32.661  21.735  1.00  0.00    -0.550 OA
ATOM     13  O   UNL     1     -27.782 -30.877  22.888  1.00  0.00    -0.550 OA
ENDBRANCH  10  11
ENDBRANCH   9  10
ENDBRANCH   8   9
ENDBRANCH   1   8
TORSDOF 8
ENDMDL
