MODEL 1
REMARK VINA RESULT:    -3.019      0.000      0.000
REMARK INTER + INTRA:          -3.019
REMARK INTER:                  -3.019
REMARK INTRA:                   0.000
REMARK UNBOUND:                 0.000
REMARK SMILES CC(=O)[O-]
REMARK SMILES IDX 1 1 2 2 3 3 4 4
REMARK H PARENT
REMARK Flexibility Score: inf
ROOT
ATOM      1  C   UNL     1     -20.743  -6.074   2.967  1.00  0.00     0.063 C 
ATOM      2  C   UNL     1     -20.690  -7.293   2.110  1.00  0.00     0.038 C 
ATOM      3  O   UNL     1     -21.660  -8.095   2.092  1.00  0.00    -0.550 OA
ATOM      4  O   UNL     1     -19.594  -7.518   1.288  1.00  0.00    -0.550 OA
ENDROOT
TORSDOF 0
ENDMDL
MODEL 2
REMARK VINA RESULT:    -2.991     17.613     18.131
REMARK INTER + INTRA:          -2.991
REMARK INTER:                  -2.991
REMARK INTRA:                   0.000
REMARK UNBOUND:                 0.000
REMARK SMILES CC(=O)[O-]
REMARK SMILES IDX 1 1 2 2 3 3 4 4
REMARK H PARENT
REMARK Flexibility Score: inf
ROOT
ATOM      1  C   UNL     1     -31.225   6.103   3.429  1.00  0.00     0.063 C 
ATOM      2  C   UNL     1     -32.624   6.177   3.941  1.00  0.00     0.038 C 
ATOM      3  O   UNL     1     -32.936   7.039   4.804  1.00  0.00    -0.550 OA
ATOM      4  O   UNL     1     -33.598   5.331   3.429  1.00  0.00    -0.550 OA
ENDROOT
TORSDOF 0
ENDMDL
MODEL 3
REMARK VINA RESULT:    -2.990      0.102      1.620
REMARK INTER + INTRA:          -2.990
REMARK INTER:                  -2.990
REMARK INTRA:                   0.000
REMARK UNBOUND:                 0.000
REMARK SMILES CC(=O)[O-]
REMARK SMILES IDX 1 1 2 2 3 3 4 4
REMARK H PARENT
REMARK Flexibility Score: inf
ROOT
ATOM      1  C   UNL     1     -20.727  -6.041   3.000  1.00  0.00     0.063 C 
ATOM      2  C   UNL     1     -20.683  -7.215   2.082  1.00  0.00     0.038 C 
ATOM      3  O   UNL     1     -19.689  -7.392   1.331  1.00  0.00    -0.550 OA
ATOM      4  O   UNL     1     -21.715  -8.144   2.091  1.00  0.00    -0.550 OA
ENDROOT
TORSDOF 0
ENDMDL
MODEL 4
REMARK VINA RESULT:    -2.903     17.451     17.910
REMARK INTER + INTRA:          -2.903
REMARK INTER:                  -2.903
REMARK INTRA:                   0.000
REMARK UNBOUND:                 0.000
REMARK SMILES CC(=O)[O-]
REMARK SMILES IDX 1 1 2 2 3 3 4 4
REMARK H PARENT
REMARK Flexibility Score: inf
ROOT
ATOM      1  C   UNL     1     -32.679   7.117   4.734  1.00  0.00     0.063 C 
ATOM      2  C   UNL     1     -32.540   6.043   3.708  1.00  0.00     0.038 C 
ATOM      3  O   UNL     1     -33.537   5.346   3.383  1.00  0.00    -0.550 OA
ATOM      4  O   UNL     1     -31.323   5.843   3.071  1.00  0.00    -0.550 OA
ENDROOT
TORSDOF 0
ENDMDL
MODEL 5
REMARK VINA RESULT:    -2.843     17.100     17.582
REMARK INTER + INTRA:          -2.843
REMARK INTER:                  -2.843
REMARK INTRA:                   0.000
REMARK UNBOUND:                 0.000
REMARK SMILES CC(=O)[O-]
REMARK SMILES IDX 1 1 2 2 3 3 4 4
REMARK H PARENT
REMARK Flexibility Score: inf
ROOT
ATOM      1  C   UNL     1     -33.183   5.901   3.643  1.00  0.00     0.063 C 
ATOM      2  C   UNL     1     -31.718   6.142   3.794  1.00  0.00     0.038 C 
ATOM      3  O   UNL     1     -30.926   5.809   2.875  1.00  0.00    -0.550 OA
ATOM      4  O   UNL     1     -31.231   6.781   4.926  1.00  0.00    -0.550 OA
ENDROOT
TORSDOF 0
ENDMDL
MODEL 6
REMARK VINA RESULT:    -2.839      1.793      2.052
REMARK INTER + INTRA:          -2.839
REMARK INTER:                  -2.839
REMARK INTRA:                   0.000
REMARK UNBOUND:                 0.000
REMARK SMILES CC(=O)[O-]
REMARK SMILES IDX 1 1 2 2 3 3 4 4
REMARK H PARENT
REMARK Flexibility Score: inf
ROOT
ATOM      1  C   UNL     1     -20.842  -7.630   2.034  1.00  0.00     0.063 C 
ATOM      2  C   UNL     1     -20.525  -6.210   2.360  1.00  0.00     0.038 C 
ATOM      3  O   UNL     1     -20.965  -5.691   3.419  1.00  0.00    -0.550 OA
ATOM      4  O   UNL     1     -19.699  -5.472   1.523  1.00  0.00    -0.550 OA
ENDROOT
TORSDOF 0
ENDMDL
MODEL 7
REMARK VINA RESULT:    -2.790      1.999      2.697
REMARK INTER + INTRA:          -2.790
REMARK INTER:                  -2.790
REMARK INTRA:                   0.000
REMARK UNBOUND:                 0.000
REMARK SMILES CC(=O)[O-]
REMARK SMILES IDX 1 1 2 2 3 3 4 4
REMARK H PARENT
REMARK Flexibility Score: inf
ROOT
ATOM      1  C   UNL     1     -19.907  -7.286   1.529  1.00  0.00     0.063 C 
ATOM      2  C   UNL     1     -20.181  -5.937   2.104  1.00  0.00     0.038 C 
ATOM      3  O   UNL     1     -19.749  -4.905   1.527  1.00  0.00    -0.550 OA
ATOM      4  O   UNL     1     -20.958  -5.813   3.248  1.00  0.00    -0.550 OA
ENDROOT
TORSDOF 0
ENDMDL
MODEL 8
REMARK VINA RESULT:    -2.755     16.989     17.433
REMARK INTER + INTRA:          -2.755
REMARK INTER:                  -2.755
REMARK INTRA:                   0.000
REMARK UNBOUND:                 0.000
REMARK SMILES CC(=O)[O-]
REMARK SMILES IDX 1 1 2 2 3 3 4 4
REMARK H PARENT
REMARK Flexibility Score: inf
ROOT
ATOM      1  C   UNL     1     -32.886   6.394   4.212  1.00  0.00     0.063 C 
ATOM      2  C   UNL     1     -31.424   6.249   3.952  1.00  0.00     0.038 C 
ATOM      3  O   UNL     1     -30.591   6.555   4.844  1.00  0.00    -0.550 OA
ATOM      4  O   UNL     1     -30.981   5.727   2.744  1.00  0.00    -0.550 OA
ENDROOT
TORSDOF 0
ENDMDL
MODEL 9
REMARK VINA RESULT:    -2.713     17.502     17.978
REMARK INTER + INTRA:          -2.713
REMARK INTER:                  -2.713
REMARK INTRA:                   0.000
REMARK UNBOUND:                 0.000
REMARK SMILES CC(=O)[O-]
REMARK SMILES IDX 1 1 2 2 3 3 4 4
REMARK H PARENT
REMARK Flexibility Score: inf
ROOT
ATOM      1  C   UNL     1     -31.466   5.950   3.239  1.00  0.00     0.063 C 
ATOM      2  C   UNL     1     -31.719   6.680   4.515  1.00  0.00     0.038 C 
ATOM      3  O   UNL     1     -32.890   7.023   4.825  1.00  0.00    -0.550 OA
ATOM      4  O   UNL     1     -30.672   6.936   5.390  1.00  0.00    -0.550 OA
ENDROOT
TORSDOF 0
ENDMDL
