MODEL 1
REMARK VINA RESULT:    -3.529      0.000      0.000
REMARK INTER + INTRA:          -7.871
REMARK INTER:                  -6.417
REMARK INTRA:                  -1.454
REMARK UNBOUND:                -1.454
REMARK SMILES CCCCCCCCCCCCCCCC(=O)[O-]
REMARK SMILES IDX 9 1 10 2 11 3 12 4 13 5 14 6 15 7 16 8 17 9 18 10 8 11 7 12
REMARK SMILES IDX 6 13 5 14 4 15 3 16 2 17 1 18
REMARK H PARENT
REMARK Flexibility Score: inf
ROOT
ATOM      1  C   UNL     1     -13.848 -15.080  19.222  1.00  0.00     0.000 C 
ENDROOT
BRANCH   1   2
ATOM      2  C   UNL     1     -15.125 -14.219  19.156  1.00  0.00     0.000 C 
BRANCH   2   3
ATOM      3  C   UNL     1     -15.123 -13.064  20.170  1.00  0.00     0.000 C 
BRANCH   3   4
ATOM      4  C   UNL     1     -14.273 -11.864  19.709  1.00  0.00     0.000 C 
BRANCH   4   5
ATOM      5  C   UNL     1     -13.935 -11.834  18.204  1.00  0.00     0.000 C 
BRANCH   5   6
ATOM      6  C   UNL     1     -12.508 -11.366  17.864  1.00  0.00     0.006 C 
BRANCH   6   7
ATOM      7  C   UNL     1     -11.524 -12.531  17.704  1.00  0.00     0.053 C 
BRANCH   7   8
ATOM      8  C   UNL     1     -10.945 -12.912  19.030  1.00  0.00     0.041 C 
ATOM      9  O   UNL     1     -10.302 -12.068  19.708  1.00  0.00    -0.550 OA
ATOM     10  O   UNL     1     -11.074 -14.215  19.495  1.00  0.00    -0.550 OA
ENDBRANCH   7   8
ENDBRANCH   6   7
ENDBRANCH   5   6
ENDBRANCH   4   5
ENDBRANCH   3   4
ENDBRANCH   2   3
ENDBRANCH   1   2
BRANCH   1  11
ATOM     11  C   UNL     1     -14.080 -16.596  19.354  1.00  0.00     0.000 C 
BRANCH  11  12
ATOM     12  C   UNL     1     -15.122 -16.954  20.429  1.00  0.00    -0.000 C 
BRANCH  12  13
ATOM     13  C   UNL     1     -14.619 -18.034  21.400  1.00  0.00    -0.000 C 
BRANCH  13  14
ATOM     14  C   UNL     1     -14.553 -17.540  22.856  1.00  0.00    -0.000 C 
BRANCH  14  15
ATOM     15  C   UNL     1     -13.723 -16.255  23.007  1.00  0.00    -0.000 C 
BRANCH  15  16
ATOM     16  C   UNL     1     -14.543 -15.088  23.576  1.00  0.00    -0.000 C 
BRANCH  16  17
ATOM     17  C   UNL     1     -13.732 -13.787  23.552  1.00  0.00    -0.003 C 
ATOM     18  C   UNL     1     -12.624 -13.846  22.505  1.00  0.00     0.004 C 
ENDBRANCH  16  17
ENDBRANCH  15  16
ENDBRANCH  14  15
ENDBRANCH  13  14
ENDBRANCH  12  13
ENDBRANCH  11  12
ENDBRANCH   1  11
TORSDOF 14
ENDMDL
MODEL 2
REMARK VINA RESULT:    -3.310      2.443      5.703
REMARK INTER + INTRA:          -7.472
REMARK INTER:                  -6.071
REMARK INTRA:                  -1.401
REMARK UNBOUND:                -1.454
REMARK SMILES CCCCCCCCCCCCCCCC(=O)[O-]
REMARK SMILES IDX 9 1 10 2 11 3 12 4 13 5 14 6 15 7 16 8 17 9 18 10 8 11 7 12
REMARK SMILES IDX 6 13 5 14 4 15 3 16 2 17 1 18
REMARK H PARENT
REMARK Flexibility Score: inf
ROOT
ATOM      1  C   UNL     1     -14.001 -12.309  19.763  1.00  0.00     0.000 C 
ENDROOT
BRANCH   1   2
ATOM      2  C   UNL     1     -15.125 -11.731  20.643  1.00  0.00     0.000 C 
BRANCH   2   3
ATOM      3  C   UNL     1     -14.791 -11.767  22.143  1.00  0.00     0.000 C 
BRANCH   3   4
ATOM      4  C   UNL     1     -15.098 -13.130  22.792  1.00  0.00     0.000 C 
BRANCH   4   5
ATOM      5  C   UNL     1     -13.870 -13.909  23.306  1.00  0.00     0.000 C 
BRANCH   5   6
ATOM      6  C   UNL     1     -13.866 -15.413  22.979  1.00  0.00     0.006 C 
BRANCH   6   7
ATOM      7  C   UNL     1     -14.993 -15.816  22.020  1.00  0.00     0.053 C 
BRANCH   7   8
ATOM      8  C   UNL     1     -14.896 -17.270  21.681  1.00  0.00     0.041 C 
ATOM      9  O   UNL     1     -14.589 -18.108  22.570  1.00  0.00    -0.550 OA
ATOM     10  O   UNL     1     -15.095 -17.694  20.373  1.00  0.00    -0.550 OA
ENDBRANCH   7   8
ENDBRANCH   6   7
ENDBRANCH   5   6
ENDBRANCH   4   5
ENDBRANCH   3   4
ENDBRANCH   2   3
ENDBRANCH   1   2
BRANCH   1  11
ATOM     11  C   UNL     1     -14.130 -13.806  19.427  1.00  0.00     0.000 C 
BRANCH  11  12
ATOM     12  C   UNL     1     -12.771 -14.522  19.339  1.00  0.00    -0.000 C 
BRANCH  12  13
ATOM     13  C   UNL     1     -11.700 -13.865  20.224  1.00  0.00    -0.000 C 
BRANCH  13  14
ATOM     14  C   UNL     1     -10.966 -12.713  19.514  1.00  0.00    -0.000 C 
BRANCH  14  15
ATOM     15  C   UNL     1     -10.659 -13.028  18.042  1.00  0.00    -0.000 C 
BRANCH  15  16
ATOM     16  C   UNL     1     -11.589 -12.282  17.073  1.00  0.00    -0.000 C 
BRANCH  16  17
ATOM     17  C   UNL     1     -11.770 -10.822  17.503  1.00  0.00    -0.003 C 
ATOM     18  C   UNL     1     -11.112  -9.868  16.509  1.00  0.00     0.004 C 
ENDBRANCH  16  17
ENDBRANCH  15  16
ENDBRANCH  14  15
ENDBRANCH  13  14
ENDBRANCH  12  13
ENDBRANCH  11  12
ENDBRANCH   1  11
TORSDOF 14
ENDMDL
MODEL 3
REMARK VINA RESULT:    -3.137      1.756      5.757
REMARK INTER + INTRA:          -7.159
REMARK INTER:                  -5.981
REMARK INTRA:                  -1.178
REMARK UNBOUND:                -1.454
REMARK SMILES CCCCCCCCCCCCCCCC(=O)[O-]
REMARK SMILES IDX 9 1 10 2 11 3 12 4 13 5 14 6 15 7 16 8 17 9 18 10 8 11 7 12
REMARK SMILES IDX 6 13 5 14 4 15 3 16 2 17 1 18
REMARK H PARENT
REMARK Flexibility Score: inf
ROOT
ATOM      1  C   UNL     1     -14.018 -16.078  18.811  1.00  0.00     0.000 C 
ENDROOT
BRANCH   1   2
ATOM      2  C   UNL     1     -14.229 -17.481  19.412  1.00  0.00     0.000 C 
BRANCH   2   3
ATOM      3  C   UNL     1     -13.917 -17.542  20.916  1.00  0.00     0.000 C 
BRANCH   3   4
ATOM      4  C   UNL     1     -15.125 -17.988  21.761  1.00  0.00     0.000 C 
BRANCH   4   5
ATOM      5  C   UNL     1     -14.878 -18.059  23.281  1.00  0.00     0.000 C 
BRANCH   5   6
ATOM      6  C   UNL     1     -14.332 -16.768  23.916  1.00  0.00     0.006 C 
BRANCH   6   7
ATOM      7  C   UNL     1     -14.983 -15.503  23.344  1.00  0.00     0.053 C 
BRANCH   7   8
ATOM      8  C   UNL     1     -13.947 -14.459  23.073  1.00  0.00     0.041 C 
ATOM      9  O   UNL     1     -12.747 -14.791  22.879  1.00  0.00    -0.550 OA
ATOM     10  O   UNL     1     -14.296 -13.114  23.084  1.00  0.00    -0.550 OA
ENDBRANCH   7   8
ENDBRANCH   6   7
ENDBRANCH   5   6
ENDBRANCH   4   5
ENDBRANCH   3   4
ENDBRANCH   2   3
ENDBRANCH   1   2
BRANCH   1  11
ATOM     11  C   UNL     1     -14.620 -14.915  19.622  1.00  0.00     0.000 C 
BRANCH  11  12
ATOM     12  C   UNL     1     -14.999 -13.706  18.749  1.00  0.00    -0.000 C 
BRANCH  12  13
ATOM     13  C   UNL     1     -14.021 -12.531  18.915  1.00  0.00    -0.000 C 
BRANCH  13  14
ATOM     14  C   UNL     1     -12.861 -12.854  19.873  1.00  0.00    -0.000 C 
BRANCH  14  15
ATOM     15  C   UNL     1     -11.594 -13.311  19.133  1.00  0.00    -0.000 C 
BRANCH  15  16
ATOM     16  C   UNL     1     -11.468 -12.683  17.736  1.00  0.00    -0.000 C 
BRANCH  16  17
ATOM     17  C   UNL     1     -10.951 -11.243  17.828  1.00  0.00    -0.003 C 
ATOM     18  C   UNL     1     -11.713 -10.322  16.879  1.00  0.00     0.004 C 
ENDBRANCH  16  17
ENDBRANCH  15  16
ENDBRANCH  14  15
ENDBRANCH  13  14
ENDBRANCH  12  13
ENDBRANCH  11  12
ENDBRANCH   1  11
TORSDOF 14
ENDMDL
MODEL 4
REMARK VINA RESULT:    -2.958      1.662      2.231
REMARK INTER + INTRA:          -6.833
REMARK INTER:                  -6.246
REMARK INTRA:                  -0.587
REMARK UNBOUND:                -1.454
REMARK SMILES CCCCCCCCCCCCCCCC(=O)[O-]
REMARK SMILES IDX 9 1 10 2 11 3 12 4 13 5 14 6 15 7 16 8 17 9 18 10 8 11 7 12
REMARK SMILES IDX 6 13 5 14 4 15 3 16 2 17 1 18
REMARK H PARENT
REMARK Flexibility Score: inf
ROOT
ATOM      1  C   UNL     1     -15.094 -14.891  19.306  1.00  0.00     0.000 C 
ENDROOT
BRANCH   1   2
ATOM      2  C   UNL     1     -14.557 -13.478  19.009  1.00  0.00     0.000 C 
BRANCH   2   3
ATOM      3  C   UNL     1     -13.831 -12.848  20.210  1.00  0.00     0.000 C 
BRANCH   3   4
ATOM      4  C   UNL     1     -12.689 -13.729  20.748  1.00  0.00     0.000 C 
BRANCH   4   5
ATOM      5  C   UNL     1     -11.431 -13.798  19.858  1.00  0.00     0.000 C 
BRANCH   5   6
ATOM      6  C   UNL     1     -11.625 -13.304  18.413  1.00  0.00     0.006 C 
BRANCH   6   7
ATOM      7  C   UNL     1     -10.950 -11.952  18.152  1.00  0.00     0.053 C 
BRANCH   7   8
ATOM      8  C   UNL     1     -11.890 -11.026  17.446  1.00  0.00     0.041 C 
ATOM      9  O   UNL     1     -13.134 -11.214  17.513  1.00  0.00    -0.550 OA
ATOM     10  O   UNL     1     -11.391  -9.985  16.674  1.00  0.00    -0.550 OA
ENDBRANCH   7   8
ENDBRANCH   6   7
ENDBRANCH   5   6
ENDBRANCH   4   5
ENDBRANCH   3   4
ENDBRANCH   2   3
ENDBRANCH   1   2
BRANCH   1  11
ATOM     11  C   UNL     1     -14.223 -16.050  18.787  1.00  0.00     0.000 C 
BRANCH  11  12
ATOM     12  C   UNL     1     -13.629 -16.909  19.917  1.00  0.00    -0.000 C 
BRANCH  12  13
ATOM     13  C   UNL     1     -14.673 -17.834  20.565  1.00  0.00    -0.000 C 
BRANCH  13  14
ATOM     14  C   UNL     1     -15.125 -17.341  21.951  1.00  0.00    -0.000 C 
BRANCH  14  15
ATOM     15  C   UNL     1     -14.012 -16.599  22.707  1.00  0.00    -0.000 C 
BRANCH  15  16
ATOM     16  C   UNL     1     -14.372 -16.330  24.175  1.00  0.00    -0.000 C 
BRANCH  16  17
ATOM     17  C   UNL     1     -14.770 -14.864  24.382  1.00  0.00    -0.003 C 
ATOM     18  C   UNL     1     -13.663 -13.921  23.920  1.00  0.00     0.004 C 
ENDBRANCH  16  17
ENDBRANCH  15  16
ENDBRANCH  14  15
ENDBRANCH  13  14
ENDBRANCH  12  13
ENDBRANCH  11  12
ENDBRANCH   1  11
TORSDOF 14
ENDMDL
MODEL 5
REMARK VINA RESULT:    -2.940      2.475      5.684
REMARK INTER + INTRA:          -6.800
REMARK INTER:                  -5.615
REMARK INTRA:                  -1.185
REMARK UNBOUND:                -1.454
REMARK SMILES CCCCCCCCCCCCCCCC(=O)[O-]
REMARK SMILES IDX 9 1 10 2 11 3 12 4 13 5 14 6 15 7 16 8 17 9 18 10 8 11 7 12
REMARK SMILES IDX 6 13 5 14 4 15 3 16 2 17 1 18
REMARK H PARENT
REMARK Flexibility Score: inf
ROOT
ATOM      1  C   UNL     1     -10.976 -12.533  18.272  1.00  0.00     0.000 C 
ENDROOT
BRANCH   1   2
ATOM      2  C   UNL     1     -10.707 -13.101  19.678  1.00  0.00     0.000 C 
BRANCH   2   3
ATOM      3  C   UNL     1     -11.830 -14.024  20.178  1.00  0.00     0.000 C 
BRANCH   3   4
ATOM      4  C   UNL     1     -12.158 -13.816  21.669  1.00  0.00     0.000 C 
BRANCH   4   5
ATOM      5  C   UNL     1     -13.499 -14.412  22.140  1.00  0.00     0.000 C 
BRANCH   5   6
ATOM      6  C   UNL     1     -13.685 -14.478  23.666  1.00  0.00     0.006 C 
BRANCH   6   7
ATOM      7  C   UNL     1     -14.880 -15.346  24.082  1.00  0.00     0.053 C 
BRANCH   7   8
ATOM      8  C   UNL     1     -14.654 -16.770  23.685  1.00  0.00     0.041 C 
ATOM      9  O   UNL     1     -15.125 -17.208  22.601  1.00  0.00    -0.550 OA
ATOM     10  O   UNL     1     -13.967 -17.629  24.534  1.00  0.00    -0.550 OA
ENDBRANCH   7   8
ENDBRANCH   6   7
ENDBRANCH   5   6
ENDBRANCH   4   5
ENDBRANCH   3   4
ENDBRANCH   2   3
ENDBRANCH   1   2
BRANCH   1  11
ATOM     11  C   UNL     1     -12.034 -11.417  18.202  1.00  0.00     0.000 C 
BRANCH  11  12
ATOM     12  C   UNL     1     -13.465 -11.954  18.020  1.00  0.00    -0.000 C 
BRANCH  12  13
ATOM     13  C   UNL     1     -14.329 -11.767  19.277  1.00  0.00    -0.000 C 
BRANCH  13  14
ATOM     14  C   UNL     1     -15.121 -13.034  19.648  1.00  0.00    -0.000 C 
BRANCH  14  15
ATOM     15  C   UNL     1     -15.107 -14.088  18.530  1.00  0.00    -0.000 C 
BRANCH  15  16
ATOM     16  C   UNL     1     -15.118 -15.524  19.073  1.00  0.00    -0.000 C 
BRANCH  16  17
ATOM     17  C   UNL     1     -13.745 -16.184  18.902  1.00  0.00    -0.003 C 
ATOM     18  C   UNL     1     -13.746 -17.610  19.445  1.00  0.00     0.004 C 
ENDBRANCH  16  17
ENDBRANCH  15  16
ENDBRANCH  14  15
ENDBRANCH  13  14
ENDBRANCH  12  13
ENDBRANCH  11  12
ENDBRANCH   1  11
TORSDOF 14
ENDMDL
MODEL 6
REMARK VINA RESULT:    -2.861      2.584      5.962
REMARK INTER + INTRA:          -6.656
REMARK INTER:                  -5.610
REMARK INTRA:                  -1.047
REMARK UNBOUND:                -1.454
REMARK SMILES CCCCCCCCCCCCCCCC(=O)[O-]
REMARK SMILES IDX 9 1 10 2 11 3 12 4 13 5 14 6 15 7 16 8 17 9 18 10 8 11 7 12
REMARK SMILES IDX 6 13 5 14 4 15 3 16 2 17 1 18
REMARK H PARENT
REMARK Flexibility Score: inf
ROOT
ATOM      1  C   UNL     1     -12.670 -14.406  20.021  1.00  0.00     0.000 C 
ENDROOT
BRANCH   1   2
ATOM      2  C   UNL     1     -12.808 -15.933  19.874  1.00  0.00     0.000 C 
BRANCH   2   3
ATOM      3  C   UNL     1     -14.091 -16.351  19.138  1.00  0.00     0.000 C 
BRANCH   3   4
ATOM      4  C   UNL     1     -15.078 -17.115  20.041  1.00  0.00     0.000 C 
BRANCH   4   5
ATOM      5  C   UNL     1     -14.437 -18.124  21.015  1.00  0.00     0.000 C 
BRANCH   5   6
ATOM      6  C   UNL     1     -14.952 -18.052  22.464  1.00  0.00     0.006 C 
BRANCH   6   7
ATOM      7  C   UNL     1     -15.101 -16.613  22.971  1.00  0.00     0.053 C 
BRANCH   7   8
ATOM      8  C   UNL     1     -14.700 -16.522  24.409  1.00  0.00     0.041 C 
ATOM      9  O   UNL     1     -14.666 -17.558  25.125  1.00  0.00    -0.550 OA
ATOM     10  O   UNL     1     -14.412 -15.285  24.973  1.00  0.00    -0.550 OA
ENDBRANCH   7   8
ENDBRANCH   6   7
ENDBRANCH   5   6
ENDBRANCH   4   5
ENDBRANCH   3   4
ENDBRANCH   2   3
ENDBRANCH   1   2
BRANCH   1  11
ATOM     11  C   UNL     1     -12.543 -13.891  21.466  1.00  0.00     0.000 C 
BRANCH  11  12
ATOM     12  C   UNL     1     -13.886 -13.426  22.059  1.00  0.00    -0.000 C 
BRANCH  12  13
ATOM     13  C   UNL     1     -15.004 -13.363  21.006  1.00  0.00    -0.000 C 
BRANCH  13  14
ATOM     14  C   UNL     1     -15.073 -12.001  20.292  1.00  0.00    -0.000 C 
BRANCH  14  15
ATOM     15  C   UNL     1     -15.118 -12.138  18.762  1.00  0.00    -0.000 C 
BRANCH  15  16
ATOM     16  C   UNL     1     -13.950 -11.418  18.072  1.00  0.00    -0.000 C 
BRANCH  16  17
ATOM     17  C   UNL     1     -12.620 -12.119  18.372  1.00  0.00    -0.003 C 
ATOM     18  C   UNL     1     -11.481 -11.514  17.557  1.00  0.00     0.004 C 
ENDBRANCH  16  17
ENDBRANCH  15  16
ENDBRANCH  14  15
ENDBRANCH  13  14
ENDBRANCH  12  13
ENDBRANCH  11  12
ENDBRANCH   1  11
TORSDOF 14
ENDMDL
MODEL 7
REMARK VINA RESULT:    -2.270      2.287      5.672
REMARK INTER + INTRA:          -5.582
REMARK INTER:                  -3.540
REMARK INTRA:                  -2.042
REMARK UNBOUND:                -1.454
REMARK SMILES CCCCCCCCCCCCCCCC(=O)[O-]
REMARK SMILES IDX 9 1 10 2 11 3 12 4 13 5 14 6 15 7 16 8 17 9 18 10 8 11 7 12
REMARK SMILES IDX 6 13 5 14 4 15 3 16 2 17 1 18
REMARK H PARENT
REMARK Flexibility Score: inf
ROOT
ATOM      1  C   UNL     1     -14.747 -12.571  19.528  1.00  0.00     0.000 C 
ENDROOT
BRANCH   1   2
ATOM      2  C   UNL     1     -14.954 -13.583  18.385  1.00  0.00     0.000 C 
BRANCH   2   3
ATOM      3  C   UNL     1     -15.125 -15.026  18.885  1.00  0.00     0.000 C 
BRANCH   3   4
ATOM      4  C   UNL     1     -13.843 -15.866  18.739  1.00  0.00     0.000 C 
BRANCH   4   5
ATOM      5  C   UNL     1     -13.799 -17.158  19.581  1.00  0.00     0.000 C 
BRANCH   5   6
ATOM      6  C   UNL     1     -14.785 -17.202  20.761  1.00  0.00     0.006 C 
BRANCH   6   7
ATOM      7  C   UNL     1     -14.225 -17.951  21.977  1.00  0.00     0.053 C 
BRANCH   7   8
ATOM      8  C   UNL     1     -14.449 -17.160  23.226  1.00  0.00     0.041 C 
ATOM      9  O   UNL     1     -14.066 -15.961  23.296  1.00  0.00    -0.550 OA
ATOM     10  O   UNL     1     -15.036 -17.760  24.333  1.00  0.00    -0.550 OA
ENDBRANCH   7   8
ENDBRANCH   6   7
ENDBRANCH   5   6
ENDBRANCH   4   5
ENDBRANCH   3   4
ENDBRANCH   2   3
ENDBRANCH   1   2
BRANCH   1  11
ATOM     11  C   UNL     1     -14.671 -13.178  20.941  1.00  0.00     0.000 C 
BRANCH  11  12
ATOM     12  C   UNL     1     -13.288 -13.010  21.594  1.00  0.00    -0.000 C 
BRANCH  12  13
ATOM     13  C   UNL     1     -12.193 -13.808  20.868  1.00  0.00    -0.000 C 
BRANCH  13  14
ATOM     14  C   UNL     1     -11.310 -12.923  19.970  1.00  0.00    -0.000 C 
BRANCH  14  15
ATOM     15  C   UNL     1     -10.998 -13.582  18.617  1.00  0.00    -0.000 C 
BRANCH  15  16
ATOM     16  C   UNL     1     -11.402 -12.701  17.426  1.00  0.00    -0.000 C 
BRANCH  16  17
ATOM     17  C   UNL     1     -11.856 -11.315  17.898  1.00  0.00    -0.003 C 
ATOM     18  C   UNL     1     -11.431 -10.229  16.914  1.00  0.00     0.004 C 
ENDBRANCH  16  17
ENDBRANCH  15  16
ENDBRANCH  14  15
ENDBRANCH  13  14
ENDBRANCH  12  13
ENDBRANCH  11  12
ENDBRANCH   1  11
TORSDOF 14
ENDMDL
