MODEL 1
REMARK VINA RESULT:    -4.129      0.000      0.000
REMARK INTER + INTRA:          -6.606
REMARK INTER:                  -5.577
REMARK INTRA:                  -1.029
REMARK UNBOUND:                -1.029
REMARK SMILES CC(=O)CCC=C(C)CCC=C(C)C
REMARK SMILES IDX 7 1 6 2 8 3 9 4 10 5 11 6 13 7 12 8 14 9 5 10 4 11 2 12 3 13
REMARK SMILES IDX 1 14
REMARK H PARENT
REMARK Flexibility Score: inf
ROOT
ATOM      1  C   UNL     1     -11.001  12.164 -23.901  1.00  0.00    -0.077 C 
ATOM      2  C   UNL     1     -11.617  13.207 -23.300  1.00  0.00    -0.028 C 
ATOM      3  C   UNL     1      -9.495  12.051 -23.957  1.00  0.00     0.039 C 
ENDROOT
BRANCH   1   4
ATOM      4  C   UNL     1     -11.843  11.079 -24.542  1.00  0.00     0.034 C 
BRANCH   4   5
ATOM      5  C   UNL     1     -11.787   9.766 -23.748  1.00  0.00     0.032 C 
BRANCH   5   6
ATOM      6  C   UNL     1     -12.648   9.823 -22.509  1.00  0.00    -0.028 C 
ATOM      7  C   UNL     1     -10.693   9.919 -20.946  1.00  0.00     0.039 C 
ATOM      8  C   UNL     1     -12.173   9.923 -21.248  1.00  0.00    -0.080 C 
ATOM      9  C   UNL     1     -13.162  10.021 -20.115  1.00  0.00     0.039 C 
ENDBRANCH   5   6
ENDBRANCH   4   5
ENDBRANCH   1   4
BRANCH   2  10
ATOM     10  C   UNL     1     -10.900  14.310 -22.564  1.00  0.00     0.035 C 
BRANCH  10  11
ATOM     11  C   UNL     1     -10.992  15.625 -23.344  1.00  0.00     0.079 C 
BRANCH  11  12
ATOM     12  C   UNL     1     -12.368  16.220 -23.226  1.00  0.00     0.130 C 
ATOM     13  O   UNL     1     -12.865  16.387 -22.123  1.00  0.00    -0.300 OA
ATOM     14  C   UNL     1     -13.124  16.631 -24.453  1.00  0.00     0.087 C 
ENDBRANCH  11  12
ENDBRANCH  10  11
ENDBRANCH   2  10
TORSDOF 6
ENDMDL
MODEL 2
REMARK VINA RESULT:    -4.092      1.569      2.279
REMARK INTER + INTRA:          -6.556
REMARK INTER:                  -5.950
REMARK INTRA:                  -0.605
REMARK UNBOUND:                -1.029
REMARK SMILES CC(=O)CCC=C(C)CCC=C(C)C
REMARK SMILES IDX 7 1 6 2 8 3 9 4 10 5 11 6 13 7 12 8 14 9 5 10 4 11 2 12 3 13
REMARK SMILES IDX 1 14
REMARK H PARENT
REMARK Flexibility Score: inf
ROOT
ATOM      1  C   UNL     1     -11.561  12.747 -22.992  1.00  0.00    -0.077 C 
ATOM      2  C   UNL     1     -11.363  14.067 -23.207  1.00  0.00    -0.028 C 
ATOM      3  C   UNL     1     -12.321  12.239 -21.788  1.00  0.00     0.039 C 
ENDROOT
BRANCH   1   4
ATOM      4  C   UNL     1     -11.001  11.746 -23.983  1.00  0.00     0.034 C 
BRANCH   4   5
ATOM      5  C   UNL     1     -11.948  10.555 -24.191  1.00  0.00     0.032 C 
BRANCH   5   6
ATOM      6  C   UNL     1     -11.302   9.249 -23.794  1.00  0.00    -0.028 C 
ATOM      7  C   UNL     1     -13.145   8.618 -22.220  1.00  0.00     0.039 C 
ATOM      8  C   UNL     1     -11.841   8.355 -22.936  1.00  0.00    -0.080 C 
ATOM      9  C   UNL     1     -11.098   7.071 -22.678  1.00  0.00     0.039 C 
ENDBRANCH   5   6
ENDBRANCH   4   5
ENDBRANCH   1   4
BRANCH   2  10
ATOM     10  C   UNL     1     -11.928  15.164 -22.341  1.00  0.00     0.035 C 
BRANCH  10  11
ATOM     11  C   UNL     1     -11.892  16.505 -23.080  1.00  0.00     0.079 C 
BRANCH  11  12
ATOM     12  C   UNL     1     -13.231  16.814 -23.692  1.00  0.00     0.130 C 
ATOM     13  O   UNL     1     -13.431  16.564 -24.871  1.00  0.00    -0.300 OA
ATOM     14  C   UNL     1     -14.327  17.405 -22.859  1.00  0.00     0.087 C 
ENDBRANCH  11  12
ENDBRANCH  10  11
ENDBRANCH   2  10
TORSDOF 6
ENDMDL
MODEL 3
REMARK VINA RESULT:    -4.073      5.492      7.355
REMARK INTER + INTRA:          -6.530
REMARK INTER:                  -5.882
REMARK INTRA:                  -0.648
REMARK UNBOUND:                -1.029
REMARK SMILES CC(=O)CCC=C(C)CCC=C(C)C
REMARK SMILES IDX 7 1 6 2 8 3 9 4 10 5 11 6 13 7 12 8 14 9 5 10 4 11 2 12 3 13
REMARK SMILES IDX 1 14
REMARK H PARENT
REMARK Flexibility Score: inf
ROOT
ATOM      1  C   UNL     1     -13.908  12.197 -18.090  1.00  0.00    -0.077 C 
ATOM      2  C   UNL     1     -13.818  12.940 -16.964  1.00  0.00    -0.028 C 
ATOM      3  C   UNL     1     -13.947  12.828 -19.462  1.00  0.00     0.039 C 
ENDROOT
BRANCH   1   4
ATOM      4  C   UNL     1     -13.980  10.687 -17.973  1.00  0.00     0.034 C 
BRANCH   4   5
ATOM      5  C   UNL     1     -14.889  10.245 -16.817  1.00  0.00     0.032 C 
BRANCH   5   6
ATOM      6  C   UNL     1     -14.641   8.807 -16.427  1.00  0.00    -0.028 C 
ATOM      7  C   UNL     1     -12.983   9.396 -14.645  1.00  0.00     0.039 C 
ATOM      8  C   UNL     1     -13.814   8.412 -15.435  1.00  0.00    -0.080 C 
ATOM      9  C   UNL     1     -13.710   6.941 -15.131  1.00  0.00     0.039 C 
ENDBRANCH   5   6
ENDBRANCH   4   5
ENDBRANCH   1   4
BRANCH   2  10
ATOM     10  C   UNL     1     -13.666  14.440 -16.944  1.00  0.00     0.035 C 
BRANCH  10  11
ATOM     11  C   UNL     1     -14.866  15.093 -16.251  1.00  0.00     0.079 C 
BRANCH  11  12
ATOM     12  C   UNL     1     -14.550  15.396 -14.812  1.00  0.00     0.130 C 
ATOM     13  O   UNL     1     -13.684  16.214 -14.540  1.00  0.00    -0.300 OA
ATOM     14  C   UNL     1     -15.306  14.718 -13.710  1.00  0.00     0.087 C 
ENDBRANCH  11  12
ENDBRANCH  10  11
ENDBRANCH   2  10
TORSDOF 6
ENDMDL
MODEL 4
REMARK VINA RESULT:    -4.069      2.584      5.706
REMARK INTER + INTRA:          -6.525
REMARK INTER:                  -5.632
REMARK INTRA:                  -0.893
REMARK UNBOUND:                -1.029
REMARK SMILES CC(=O)CCC=C(C)CCC=C(C)C
REMARK SMILES IDX 7 1 6 2 8 3 9 4 10 5 11 6 13 7 12 8 14 9 5 10 4 11 2 12 3 13
REMARK SMILES IDX 1 14
REMARK H PARENT
REMARK Flexibility Score: inf
ROOT
ATOM      1  C   UNL     1      -9.812  11.832 -24.053  1.00  0.00    -0.077 C 
ATOM      2  C   UNL     1     -11.152  11.697 -24.168  1.00  0.00    -0.028 C 
ATOM      3  C   UNL     1      -8.907  10.644 -23.822  1.00  0.00     0.039 C 
ENDROOT
BRANCH   1   4
ATOM      4  C   UNL     1      -9.198  13.214 -24.153  1.00  0.00     0.034 C 
BRANCH   4   5
ATOM      5  C   UNL     1      -9.698  14.144 -23.038  1.00  0.00     0.032 C 
BRANCH   5   6
ATOM      6  C   UNL     1     -10.631  15.206 -23.570  1.00  0.00    -0.028 C 
ATOM      7  C   UNL     1     -12.563  14.458 -22.163  1.00  0.00     0.039 C 
ATOM      8  C   UNL     1     -11.908  15.379 -23.165  1.00  0.00    -0.080 C 
ATOM      9  C   UNL     1     -12.699  16.518 -23.754  1.00  0.00     0.039 C 
ENDBRANCH   5   6
ENDBRANCH   4   5
ENDBRANCH   1   4
BRANCH   2  10
ATOM     10  C   UNL     1     -11.878  10.376 -24.160  1.00  0.00     0.035 C 
BRANCH  10  11
ATOM     11  C   UNL     1     -12.475  10.098 -22.777  1.00  0.00     0.079 C 
BRANCH  11  12
ATOM     12  C   UNL     1     -12.568   8.619 -22.523  1.00  0.00     0.130 C 
ATOM     13  O   UNL     1     -13.611   8.139 -22.105  1.00  0.00    -0.300 OA
ATOM     14  C   UNL     1     -11.396   7.727 -22.800  1.00  0.00     0.087 C 
ENDBRANCH  11  12
ENDBRANCH  10  11
ENDBRANCH   2  10
TORSDOF 6
ENDMDL
MODEL 5
REMARK VINA RESULT:    -4.068     13.076     14.571
REMARK INTER + INTRA:          -6.524
REMARK INTER:                  -5.662
REMARK INTRA:                  -0.862
REMARK UNBOUND:                -1.029
REMARK SMILES CC(=O)CCC=C(C)CCC=C(C)C
REMARK SMILES IDX 7 1 6 2 8 3 9 4 10 5 11 6 13 7 12 8 14 9 5 10 4 11 2 12 3 13
REMARK SMILES IDX 1 14
REMARK H PARENT
REMARK Flexibility Score: inf
ROOT
ATOM      1  C   UNL     1       0.700  10.521 -17.494  1.00  0.00    -0.077 C 
ATOM      2  C   UNL     1       1.496  10.538 -18.588  1.00  0.00    -0.028 C 
ATOM      3  C   UNL     1      -0.164   9.328 -17.155  1.00  0.00     0.039 C 
ENDROOT
BRANCH   1   4
ATOM      4  C   UNL     1       0.669  11.733 -16.585  1.00  0.00     0.034 C 
BRANCH   4   5
ATOM      5  C   UNL     1       0.197  12.992 -17.327  1.00  0.00     0.032 C 
BRANCH   5   6
ATOM      6  C   UNL     1       1.336  13.949 -17.588  1.00  0.00    -0.028 C 
ATOM      7  C   UNL     1       1.090  13.832 -20.078  1.00  0.00     0.039 C 
ATOM      8  C   UNL     1       1.727  14.360 -18.815  1.00  0.00    -0.080 C 
ATOM      9  C   UNL     1       2.850  15.359 -18.911  1.00  0.00     0.039 C 
ENDBRANCH   5   6
ENDBRANCH   4   5
ENDBRANCH   1   4
BRANCH   2  10
ATOM     10  C   UNL     1       1.673   9.375 -19.530  1.00  0.00     0.035 C 
BRANCH  10  11
ATOM     11  C   UNL     1       0.713   9.492 -20.717  1.00  0.00     0.079 C 
BRANCH  11  12
ATOM     12  C   UNL     1       0.403   8.136 -21.289  1.00  0.00     0.130 C 
ATOM     13  O   UNL     1       0.412   7.971 -22.500  1.00  0.00    -0.300 OA
ATOM     14  C   UNL     1       0.104   6.981 -20.382  1.00  0.00     0.087 C 
ENDBRANCH  11  12
ENDBRANCH  10  11
ENDBRANCH   2  10
TORSDOF 6
ENDMDL
MODEL 6
REMARK VINA RESULT:    -4.035      2.799      5.480
REMARK INTER + INTRA:          -6.480
REMARK INTER:                  -5.579
REMARK INTRA:                  -0.901
REMARK UNBOUND:                -1.029
REMARK SMILES CC(=O)CCC=C(C)CCC=C(C)C
REMARK SMILES IDX 7 1 6 2 8 3 9 4 10 5 11 6 13 7 12 8 14 9 5 10 4 11 2 12 3 13
REMARK SMILES IDX 1 14
REMARK H PARENT
REMARK Flexibility Score: inf
ROOT
ATOM      1  C   UNL     1     -11.268  12.130 -23.360  1.00  0.00    -0.077 C 
ATOM      2  C   UNL     1     -10.021  12.644 -23.458  1.00  0.00    -0.028 C 
ATOM      3  C   UNL     1     -11.856  11.251 -24.439  1.00  0.00     0.039 C 
ENDROOT
BRANCH   1   4
ATOM      4  C   UNL     1     -12.104  12.450 -22.137  1.00  0.00     0.034 C 
BRANCH   4   5
ATOM      5  C   UNL     1     -11.897  13.896 -21.665  1.00  0.00     0.032 C 
BRANCH   5   6
ATOM      6  C   UNL     1     -12.693  14.876 -22.495  1.00  0.00    -0.028 C 
ATOM      7  C   UNL     1     -10.666  16.120 -23.281  1.00  0.00     0.039 C 
ATOM      8  C   UNL     1     -12.153  15.859 -23.249  1.00  0.00    -0.080 C 
ATOM      9  C   UNL     1     -13.077  16.727 -24.063  1.00  0.00     0.039 C 
ENDBRANCH   5   6
ENDBRANCH   4   5
ENDBRANCH   1   4
BRANCH   2  10
ATOM     10  C   UNL     1      -9.063  12.345 -24.583  1.00  0.00     0.035 C 
BRANCH  10  11
ATOM     11  C   UNL     1      -8.045  13.478 -24.738  1.00  0.00     0.079 C 
BRANCH  11  12
ATOM     12  C   UNL     1      -6.651  12.929 -24.871  1.00  0.00     0.130 C 
ATOM     13  O   UNL     1      -5.728  13.677 -25.155  1.00  0.00    -0.300 OA
ATOM     14  C   UNL     1      -6.384  11.473 -24.637  1.00  0.00     0.087 C 
ENDBRANCH  11  12
ENDBRANCH  10  11
ENDBRANCH   2  10
TORSDOF 6
ENDMDL
MODEL 7
REMARK VINA RESULT:    -3.955     14.105     15.178
REMARK INTER + INTRA:          -6.371
REMARK INTER:                  -5.659
REMARK INTRA:                  -0.712
REMARK UNBOUND:                -1.029
REMARK SMILES CC(=O)CCC=C(C)CCC=C(C)C
REMARK SMILES IDX 7 1 6 2 8 3 9 4 10 5 11 6 13 7 12 8 14 9 5 10 4 11 2 12 3 13
REMARK SMILES IDX 1 14
REMARK H PARENT
REMARK Flexibility Score: inf
ROOT
ATOM      1  C   UNL     1      -4.075   9.278 -11.099  1.00  0.00    -0.077 C 
ATOM      2  C   UNL     1      -4.728   8.235 -11.659  1.00  0.00    -0.028 C 
ATOM      3  C   UNL     1      -4.742  10.194 -10.098  1.00  0.00     0.039 C 
ENDROOT
BRANCH   1   4
ATOM      4  C   UNL     1      -2.634   9.542 -11.489  1.00  0.00     0.034 C 
BRANCH   4   5
ATOM      5  C   UNL     1      -1.788   8.262 -11.452  1.00  0.00     0.032 C 
BRANCH   5   6
ATOM      6  C   UNL     1      -1.079   8.020 -12.764  1.00  0.00    -0.028 C 
ATOM      7  C   UNL     1      -2.133   5.776 -13.117  1.00  0.00     0.039 C 
ATOM      8  C   UNL     1      -1.247   6.925 -13.537  1.00  0.00    -0.080 C 
ATOM      9  C   UNL     1      -0.506   6.851 -14.846  1.00  0.00     0.039 C 
ENDBRANCH   5   6
ENDBRANCH   4   5
ENDBRANCH   1   4
BRANCH   2  10
ATOM     10  C   UNL     1      -6.133   7.822 -11.304  1.00  0.00     0.035 C 
BRANCH  10  11
ATOM     11  C   UNL     1      -6.252   6.295 -11.266  1.00  0.00     0.079 C 
BRANCH  11  12
ATOM     12  C   UNL     1      -7.694   5.873 -11.195  1.00  0.00     0.130 C 
ATOM     13  O   UNL     1      -8.038   4.804 -11.675  1.00  0.00    -0.300 OA
ATOM     14  C   UNL     1      -8.707   6.747 -10.521  1.00  0.00     0.087 C 
ENDBRANCH  11  12
ENDBRANCH  10  11
ENDBRANCH   2  10
TORSDOF 6
ENDMDL
MODEL 8
REMARK VINA RESULT:    -3.949     12.257     14.216
REMARK INTER + INTRA:          -6.362
REMARK INTER:                  -5.356
REMARK INTRA:                  -1.007
REMARK UNBOUND:                -1.029
REMARK SMILES CC(=O)CCC=C(C)CCC=C(C)C
REMARK SMILES IDX 7 1 6 2 8 3 9 4 10 5 11 6 13 7 12 8 14 9 5 10 4 11 2 12 3 13
REMARK SMILES IDX 1 14
REMARK H PARENT
REMARK Flexibility Score: inf
ROOT
ATOM      1  C   UNL     1      -5.815   6.588 -11.717  1.00  0.00    -0.077 C 
ATOM      2  C   UNL     1      -5.611   7.827 -11.215  1.00  0.00    -0.028 C 
ATOM      3  C   UNL     1      -5.285   6.178 -13.072  1.00  0.00     0.039 C 
ENDROOT
BRANCH   1   4
ATOM      4  C   UNL     1      -6.601   5.581 -10.901  1.00  0.00     0.034 C 
BRANCH   4   5
ATOM      5  C   UNL     1      -8.082   5.549 -11.305  1.00  0.00     0.032 C 
BRANCH   5   6
ATOM      6  C   UNL     1      -8.887   6.594 -10.568  1.00  0.00    -0.028 C 
ATOM      7  C   UNL     1      -9.129   8.071 -12.576  1.00  0.00     0.039 C 
ATOM      8  C   UNL     1      -9.390   7.714 -11.132  1.00  0.00    -0.080 C 
ATOM      9  C   UNL     1     -10.217   8.638 -10.277  1.00  0.00     0.039 C 
ENDBRANCH   5   6
ENDBRANCH   4   5
ENDBRANCH   1   4
BRANCH   2  10
ATOM     10  C   UNL     1      -4.787   8.894 -11.890  1.00  0.00     0.035 C 
BRANCH  10  11
ATOM     11  C   UNL     1      -3.717   9.431 -10.936  1.00  0.00     0.079 C 
BRANCH  11  12
ATOM     12  C   UNL     1      -2.343   9.264 -11.526  1.00  0.00     0.130 C 
ATOM     13  O   UNL     1      -1.620  10.239 -11.667  1.00  0.00    -0.300 OA
ATOM     14  C   UNL     1      -1.848   7.906 -11.921  1.00  0.00     0.087 C 
ENDBRANCH  11  12
ENDBRANCH  10  11
ENDBRANCH   2  10
TORSDOF 6
ENDMDL
MODEL 9
REMARK VINA RESULT:    -3.936      9.492     11.296
REMARK INTER + INTRA:          -6.346
REMARK INTER:                  -5.366
REMARK INTRA:                  -0.980
REMARK UNBOUND:                -1.029
REMARK SMILES CC(=O)CCC=C(C)CCC=C(C)C
REMARK SMILES IDX 7 1 6 2 8 3 9 4 10 5 11 6 13 7 12 8 14 9 5 10 4 11 2 12 3 13
REMARK SMILES IDX 1 14
REMARK H PARENT
REMARK Flexibility Score: inf
ROOT
ATOM      1  C   UNL     1      -1.055   8.922 -22.507  1.00  0.00    -0.077 C 
ATOM      2  C   UNL     1      -1.113  10.273 -22.471  1.00  0.00    -0.028 C 
ATOM      3  C   UNL     1      -2.275   8.078 -22.791  1.00  0.00     0.039 C 
ENDROOT
BRANCH   1   4
ATOM      4  C   UNL     1       0.271   8.234 -22.249  1.00  0.00     0.034 C 
BRANCH   4   5
ATOM      5  C   UNL     1       0.363   7.687 -20.818  1.00  0.00     0.032 C 
BRANCH   5   6
ATOM      6  C   UNL     1       0.991   8.685 -19.875  1.00  0.00    -0.028 C 
ATOM      7  C   UNL     1      -1.180   9.269 -18.771  1.00  0.00     0.039 C 
ATOM      8  C   UNL     1       0.318   9.379 -18.931  1.00  0.00    -0.080 C 
ATOM      9  C   UNL     1       1.095  10.304 -18.031  1.00  0.00     0.039 C 
ENDBRANCH   5   6
ENDBRANCH   4   5
ENDBRANCH   1   4
BRANCH   2  10
ATOM     10  C   UNL     1      -2.348  11.080 -22.780  1.00  0.00     0.035 C 
BRANCH  10  11
ATOM     11  C   UNL     1      -2.090  12.031 -23.952  1.00  0.00     0.079 C 
BRANCH  11  12
ATOM     12  C   UNL     1      -3.252  12.029 -24.907  1.00  0.00     0.130 C 
ATOM     13  O   UNL     1      -3.894  13.053 -25.084  1.00  0.00    -0.300 OA
ATOM     14  C   UNL     1      -3.613  10.784 -25.659  1.00  0.00     0.087 C 
ENDBRANCH  11  12
ENDBRANCH  10  11
ENDBRANCH   2  10
TORSDOF 6
ENDMDL
