MODEL 1
REMARK VINA RESULT:    -5.003      0.000      0.000
REMARK INTER + INTRA:          -5.149
REMARK INTER:                  -5.149
REMARK INTRA:                   0.000
REMARK UNBOUND:                 0.000
REMARK SMILES Cc1cccc(O)c1C
REMARK SMILES IDX 1 1 2 2 8 3 6 4 5 5 4 6 3 7 9 8 7 9
REMARK H PARENT 7 10
REMARK Flexibility Score: inf
ROOT
ATOM      1  C   UNL     1      -4.929  -6.833  15.720  1.00  0.00     0.045 C 
ATOM      2  C   UNL     1      -6.158  -6.551  16.546  1.00  0.00    -0.045 A 
ATOM      3  C   UNL     1      -7.246  -5.784  16.043  1.00  0.00    -0.006 A 
ATOM      4  C   UNL     1      -8.371  -5.557  16.877  1.00  0.00     0.118 A 
ATOM      5  C   UNL     1      -8.402  -6.083  18.171  1.00  0.00     0.046 A 
ATOM      6  C   UNL     1      -7.334  -6.832  18.656  1.00  0.00     0.004 A 
ATOM      7  C   UNL     1      -6.221  -7.065  17.852  1.00  0.00     0.004 A 
ATOM      8  C   UNL     1      -7.234  -5.205  14.647  1.00  0.00     0.048 C 
ENDROOT
BRANCH   4   9
ATOM      9  O   UNL     1      -9.475  -4.813  16.450  1.00  0.00    -0.508 OA
ATOM     10  H   UNL     1     -10.430  -5.042  16.693  1.00  0.00     0.293 HD
ENDBRANCH   4   9
TORSDOF 1
ENDMDL
MODEL 2
REMARK VINA RESULT:    -4.940      2.104      2.689
REMARK INTER + INTRA:          -5.085
REMARK INTER:                  -5.085
REMARK INTRA:                   0.000
REMARK UNBOUND:                 0.000
REMARK SMILES Cc1cccc(O)c1C
REMARK SMILES IDX 1 1 2 2 8 3 6 4 5 5 4 6 3 7 9 8 7 9
REMARK H PARENT 7 10
REMARK Flexibility Score: inf
ROOT
ATOM      1  C   UNL     1      -8.589  -5.756  14.632  1.00  0.00     0.045 C 
ATOM      2  C   UNL     1      -7.871  -6.288  15.846  1.00  0.00    -0.045 A 
ATOM      3  C   UNL     1      -6.930  -5.504  16.570  1.00  0.00    -0.006 A 
ATOM      4  C   UNL     1      -6.292  -6.070  17.704  1.00  0.00     0.118 A 
ATOM      5  C   UNL     1      -6.589  -7.378  18.096  1.00  0.00     0.046 A 
ATOM      6  C   UNL     1      -7.511  -8.138  17.383  1.00  0.00     0.004 A 
ATOM      7  C   UNL     1      -8.148  -7.600  16.267  1.00  0.00     0.004 A 
ATOM      8  C   UNL     1      -6.591  -4.088  16.164  1.00  0.00     0.048 C 
ENDROOT
BRANCH   4   9
ATOM      9  O   UNL     1      -5.356  -5.360  18.462  1.00  0.00    -0.508 OA
ATOM     10  H   UNL     1      -5.248  -4.355  18.417  1.00  0.00     0.293 HD
ENDBRANCH   4   9
TORSDOF 1
ENDMDL
MODEL 3
REMARK VINA RESULT:    -4.816      1.872      2.112
REMARK INTER + INTRA:          -4.957
REMARK INTER:                  -4.957
REMARK INTRA:                   0.000
REMARK UNBOUND:                 0.000
REMARK SMILES Cc1cccc(O)c1C
REMARK SMILES IDX 1 1 2 2 8 3 6 4 5 5 4 6 3 7 9 8 7 9
REMARK H PARENT 7 10
REMARK Flexibility Score: inf
ROOT
ATOM      1  C   UNL     1      -6.339  -3.831  16.170  1.00  0.00     0.045 C 
ATOM      2  C   UNL     1      -6.639  -5.224  16.661  1.00  0.00    -0.045 A 
ATOM      3  C   UNL     1      -7.486  -6.112  15.940  1.00  0.00    -0.006 A 
ATOM      4  C   UNL     1      -7.725  -7.409  16.462  1.00  0.00     0.118 A 
ATOM      5  C   UNL     1      -7.134  -7.800  17.667  1.00  0.00     0.046 A 
ATOM      6  C   UNL     1      -6.307  -6.926  18.366  1.00  0.00     0.004 A 
ATOM      7  C   UNL     1      -6.061  -5.648  17.869  1.00  0.00     0.004 A 
ATOM      8  C   UNL     1      -8.136  -5.710  14.636  1.00  0.00     0.048 C 
ENDROOT
BRANCH   4   9
ATOM      9  O   UNL     1      -8.546  -8.333  15.809  1.00  0.00    -0.508 OA
ATOM     10  H   UNL     1      -9.242  -8.893  16.283  1.00  0.00     0.293 HD
ENDBRANCH   4   9
TORSDOF 1
ENDMDL
MODEL 4
REMARK VINA RESULT:    -4.762     10.408     10.858
REMARK INTER + INTRA:          -4.901
REMARK INTER:                  -4.901
REMARK INTRA:                   0.000
REMARK UNBOUND:                 0.000
REMARK SMILES Cc1cccc(O)c1C
REMARK SMILES IDX 1 1 2 2 8 3 6 4 5 5 4 6 3 7 9 8 7 9
REMARK H PARENT 7 10
REMARK Flexibility Score: inf
ROOT
ATOM      1  C   UNL     1     -13.462  -9.931  25.125  1.00  0.00     0.045 C 
ATOM      2  C   UNL     1     -13.652 -10.776  23.891  1.00  0.00    -0.045 A 
ATOM      3  C   UNL     1     -14.780 -10.624  23.038  1.00  0.00    -0.006 A 
ATOM      4  C   UNL     1     -14.894 -11.455  21.894  1.00  0.00     0.118 A 
ATOM      5  C   UNL     1     -13.909 -12.406  21.617  1.00  0.00     0.046 A 
ATOM      6  C   UNL     1     -12.808 -12.549  22.456  1.00  0.00     0.004 A 
ATOM      7  C   UNL     1     -12.679 -11.742  23.584  1.00  0.00     0.004 A 
ATOM      8  C   UNL     1     -15.859  -9.603  23.318  1.00  0.00     0.048 C 
ENDROOT
BRANCH   4   9
ATOM      9  O   UNL     1     -15.975 -11.362  21.012  1.00  0.00    -0.508 OA
ATOM     10  H   UNL     1     -15.982 -11.780  20.092  1.00  0.00     0.293 HD
ENDBRANCH   4   9
TORSDOF 1
ENDMDL
MODEL 5
REMARK VINA RESULT:    -4.684      1.286      2.292
REMARK INTER + INTRA:          -4.821
REMARK INTER:                  -4.821
REMARK INTRA:                   0.000
REMARK UNBOUND:                 0.000
REMARK SMILES Cc1cccc(O)c1C
REMARK SMILES IDX 1 1 2 2 8 3 6 4 5 5 4 6 3 7 9 8 7 9
REMARK H PARENT 7 10
REMARK Flexibility Score: inf
ROOT
ATOM      1  C   UNL     1      -6.004  -7.620  18.374  1.00  0.00     0.045 C 
ATOM      2  C   UNL     1      -6.933  -6.792  17.525  1.00  0.00    -0.045 A 
ATOM      3  C   UNL     1      -6.546  -6.289  16.251  1.00  0.00    -0.006 A 
ATOM      4  C   UNL     1      -7.473  -5.516  15.506  1.00  0.00     0.118 A 
ATOM      5  C   UNL     1      -8.745  -5.257  16.023  1.00  0.00     0.046 A 
ATOM      6  C   UNL     1      -9.117  -5.753  17.268  1.00  0.00     0.004 A 
ATOM      7  C   UNL     1      -8.221  -6.514  18.015  1.00  0.00     0.004 A 
ATOM      8  C   UNL     1      -5.175  -6.556  15.673  1.00  0.00     0.048 C 
ENDROOT
BRANCH   4   9
ATOM      9  O   UNL     1      -7.161  -4.989  14.249  1.00  0.00    -0.508 OA
ATOM     10  H   UNL     1      -7.812  -4.967  13.476  1.00  0.00     0.293 HD
ENDBRANCH   4   9
TORSDOF 1
ENDMDL
MODEL 6
REMARK VINA RESULT:    -4.532      6.144      7.829
REMARK INTER + INTRA:          -4.665
REMARK INTER:                  -4.665
REMARK INTRA:                   0.000
REMARK UNBOUND:                 0.000
REMARK SMILES Cc1cccc(O)c1C
REMARK SMILES IDX 1 1 2 2 8 3 6 4 5 5 4 6 3 7 9 8 7 9
REMARK H PARENT 7 10
REMARK Flexibility Score: inf
ROOT
ATOM      1  C   UNL     1      -6.748  -1.743  11.227  1.00  0.00     0.045 C 
ATOM      2  C   UNL     1      -6.201  -0.675  12.140  1.00  0.00    -0.045 A 
ATOM      3  C   UNL     1      -5.236  -0.962  13.145  1.00  0.00    -0.006 A 
ATOM      4  C   UNL     1      -4.766   0.093  13.968  1.00  0.00     0.118 A 
ATOM      5  C   UNL     1      -5.248   1.392  13.787  1.00  0.00     0.046 A 
ATOM      6  C   UNL     1      -6.192   1.665  12.801  1.00  0.00     0.004 A 
ATOM      7  C   UNL     1      -6.666   0.643  11.984  1.00  0.00     0.004 A 
ATOM      8  C   UNL     1      -4.701  -2.359  13.359  1.00  0.00     0.048 C 
ENDROOT
BRANCH   4   9
ATOM      9  O   UNL     1      -3.819  -0.115  14.975  1.00  0.00    -0.508 OA
ATOM     10  H   UNL     1      -3.541  -1.032  15.299  1.00  0.00     0.293 HD
ENDBRANCH   4   9
TORSDOF 1
ENDMDL
MODEL 7
REMARK VINA RESULT:    -4.462      6.217      7.672
REMARK INTER + INTRA:          -4.592
REMARK INTER:                  -4.592
REMARK INTRA:                   0.000
REMARK UNBOUND:                 0.000
REMARK SMILES Cc1cccc(O)c1C
REMARK SMILES IDX 1 1 2 2 8 3 6 4 5 5 4 6 3 7 9 8 7 9
REMARK H PARENT 7 10
REMARK Flexibility Score: inf
ROOT
ATOM      1  C   UNL     1      -3.031  -3.879  11.593  1.00  0.00     0.045 C 
ATOM      2  C   UNL     1      -4.208  -3.479  10.741  1.00  0.00    -0.045 A 
ATOM      3  C   UNL     1      -5.309  -2.749  11.269  1.00  0.00    -0.006 A 
ATOM      4  C   UNL     1      -6.383  -2.406  10.409  1.00  0.00     0.118 A 
ATOM      5  C   UNL     1      -6.352  -2.784   9.064  1.00  0.00     0.046 A 
ATOM      6  C   UNL     1      -5.272  -3.498   8.554  1.00  0.00     0.004 A 
ATOM      7  C   UNL     1      -4.208  -3.843   9.383  1.00  0.00     0.004 A 
ATOM      8  C   UNL     1      -5.364  -2.331  12.721  1.00  0.00     0.048 C 
ENDROOT
BRANCH   4   9
ATOM      9  O   UNL     1      -7.497  -1.691  10.859  1.00  0.00    -0.508 OA
ATOM     10  H   UNL     1      -7.795  -0.812  10.458  1.00  0.00     0.293 HD
ENDBRANCH   4   9
TORSDOF 1
ENDMDL
MODEL 8
REMARK VINA RESULT:    -4.443      8.241      9.111
REMARK INTER + INTRA:          -4.573
REMARK INTER:                  -4.573
REMARK INTRA:                   0.000
REMARK UNBOUND:                 0.000
REMARK SMILES Cc1cccc(O)c1C
REMARK SMILES IDX 1 1 2 2 8 3 6 4 5 5 4 6 3 7 9 8 7 9
REMARK H PARENT 7 10
REMARK Flexibility Score: inf
ROOT
ATOM      1  C   UNL     1      -3.679  -1.274  11.558  1.00  0.00     0.045 C 
ATOM      2  C   UNL     1      -4.482  -0.065  11.966  1.00  0.00    -0.045 A 
ATOM      3  C   UNL     1      -3.864   1.164  12.328  1.00  0.00    -0.006 A 
ATOM      4  C   UNL     1      -4.683   2.261  12.702  1.00  0.00     0.118 A 
ATOM      5  C   UNL     1      -6.073   2.127  12.711  1.00  0.00     0.046 A 
ATOM      6  C   UNL     1      -6.670   0.922  12.354  1.00  0.00     0.004 A 
ATOM      7  C   UNL     1      -5.883  -0.166  11.985  1.00  0.00     0.004 A 
ATOM      8  C   UNL     1      -2.362   1.332  12.327  1.00  0.00     0.048 C 
ENDROOT
BRANCH   4   9
ATOM      9  O   UNL     1      -4.145   3.498  13.070  1.00  0.00    -0.508 OA
ATOM     10  H   UNL     1      -3.509   4.026  12.488  1.00  0.00     0.293 HD
ENDBRANCH   4   9
TORSDOF 1
ENDMDL
MODEL 9
REMARK VINA RESULT:    -4.413      8.408      9.344
REMARK INTER + INTRA:          -4.542
REMARK INTER:                  -4.542
REMARK INTRA:                   0.000
REMARK UNBOUND:                 0.000
REMARK SMILES Cc1cccc(O)c1C
REMARK SMILES IDX 1 1 2 2 8 3 6 4 5 5 4 6 3 7 9 8 7 9
REMARK H PARENT 7 10
REMARK Flexibility Score: inf
ROOT
ATOM      1  C   UNL     1      -4.169  -1.606  11.255  1.00  0.00     0.045 C 
ATOM      2  C   UNL     1      -2.728  -1.624  11.700  1.00  0.00    -0.045 A 
ATOM      3  C   UNL     1      -1.671  -1.985  10.820  1.00  0.00    -0.006 A 
ATOM      4  C   UNL     1      -0.339  -1.979  11.307  1.00  0.00     0.118 A 
ATOM      5  C   UNL     1      -0.079  -1.625  12.634  1.00  0.00     0.046 A 
ATOM      6  C   UNL     1      -1.119  -1.273  13.489  1.00  0.00     0.004 A 
ATOM      7  C   UNL     1      -2.433  -1.272  13.028  1.00  0.00     0.004 A 
ATOM      8  C   UNL     1      -1.928  -2.373   9.382  1.00  0.00     0.048 C 
ENDROOT
BRANCH   4   9
ATOM      9  O   UNL     1       0.750  -2.323  10.500  1.00  0.00    -0.508 OA
ATOM     10  H   UNL     1       1.693  -1.996  10.666  1.00  0.00     0.293 HD
ENDBRANCH   4   9
TORSDOF 1
ENDMDL
