MODEL 1
REMARK VINA RESULT:    -5.481      0.000      0.000
REMARK INTER + INTRA:          -6.733
REMARK INTER:                  -6.763
REMARK INTRA:                   0.030
REMARK UNBOUND:                 0.030
REMARK SMILES COC(=O)c1ccccc1C(=O)OC
REMARK SMILES IDX 5 1 6 2 7 3 8 4 9 5 10 6 3 7 4 8 2 9 1 10 11 11 12 12 13 13
REMARK SMILES IDX 14 14
REMARK H PARENT
REMARK Flexibility Score: inf
ROOT
ATOM      1  C   UNL     1     136.819 123.088 139.726  1.00  0.00     0.074 A 
ATOM      2  C   UNL     1     137.242 122.826 138.410  1.00  0.00     0.016 A 
ATOM      3  C   UNL     1     136.387 123.044 137.328  1.00  0.00     0.001 A 
ATOM      4  C   UNL     1     135.099 123.528 137.544  1.00  0.00     0.001 A 
ATOM      5  C   UNL     1     134.651 123.775 138.842  1.00  0.00     0.016 A 
ATOM      6  C   UNL     1     135.489 123.540 139.948  1.00  0.00     0.074 A 
ENDROOT
BRANCH   1   7
ATOM      7  C   UNL     1     137.808 122.951 140.820  1.00  0.00     0.338 C 
ATOM      8  O   UNL     1     137.478 122.377 141.894  1.00  0.00    -0.246 OA
BRANCH   7   9
ATOM      9  O   UNL     1     139.118 123.409 140.642  1.00  0.00    -0.465 OA
ATOM     10  C   UNL     1     139.807 124.167 141.628  1.00  0.00     0.282 C 
ENDBRANCH   7   9
ENDBRANCH   1   7
BRANCH   6  11
ATOM     11  C   UNL     1     134.914 123.714 141.301  1.00  0.00     0.338 C 
ATOM     12  O   UNL     1     134.173 122.823 141.799  1.00  0.00    -0.246 OA
BRANCH  11  13
ATOM     13  O   UNL     1     135.151 124.901 142.004  1.00  0.00    -0.465 OA
ATOM     14  C   UNL     1     135.537 124.918 143.373  1.00  0.00     0.282 C 
ENDBRANCH  11  13
ENDBRANCH   6  11
TORSDOF 4
ENDMDL
MODEL 2
REMARK VINA RESULT:    -5.431      0.110      3.232
REMARK INTER + INTRA:          -6.671
REMARK INTER:                  -6.717
REMARK INTRA:                   0.046
REMARK UNBOUND:                 0.030
REMARK SMILES COC(=O)c1ccccc1C(=O)OC
REMARK SMILES IDX 5 1 6 2 7 3 8 4 9 5 10 6 3 7 4 8 2 9 1 10 11 11 12 12 13 13
REMARK SMILES IDX 14 14
REMARK H PARENT
REMARK Flexibility Score: inf
ROOT
ATOM      1  C   UNL     1     135.525 123.587 140.009  1.00  0.00     0.074 A 
ATOM      2  C   UNL     1     134.667 123.854 138.927  1.00  0.00     0.016 A 
ATOM      3  C   UNL     1     135.081 123.628 137.614  1.00  0.00     0.001 A 
ATOM      4  C   UNL     1     136.357 123.129 137.361  1.00  0.00     0.001 A 
ATOM      5  C   UNL     1     137.233 122.877 138.417  1.00  0.00     0.016 A 
ATOM      6  C   UNL     1     136.843 123.121 139.747  1.00  0.00     0.074 A 
ENDROOT
BRANCH   1   7
ATOM      7  C   UNL     1     134.989 123.734 141.382  1.00  0.00     0.338 C 
ATOM      8  O   UNL     1     134.318 122.797 141.896  1.00  0.00    -0.246 OA
BRANCH   7   9
ATOM      9  O   UNL     1     135.271 124.885 142.125  1.00  0.00    -0.465 OA
ATOM     10  C   UNL     1     135.628 124.842 143.501  1.00  0.00     0.282 C 
ENDBRANCH   7   9
ENDBRANCH   1   7
BRANCH   6  11
ATOM     11  C   UNL     1     137.858 122.940 140.811  1.00  0.00     0.338 C 
ATOM     12  O   UNL     1     137.554 122.364 141.891  1.00  0.00    -0.246 OA
BRANCH  11  13
ATOM     13  O   UNL     1     139.143 123.464 140.633  1.00  0.00    -0.465 OA
ATOM     14  C   UNL     1     139.834 124.165 141.660  1.00  0.00     0.282 C 
ENDBRANCH  11  13
ENDBRANCH   6  11
TORSDOF 4
ENDMDL
MODEL 3
REMARK VINA RESULT:    -5.345      1.961      3.507
REMARK INTER + INTRA:          -6.564
REMARK INTER:                  -6.224
REMARK INTRA:                  -0.340
REMARK UNBOUND:                 0.030
REMARK SMILES COC(=O)c1ccccc1C(=O)OC
REMARK SMILES IDX 5 1 6 2 7 3 8 4 9 5 10 6 3 7 4 8 2 9 1 10 11 11 12 12 13 13
REMARK SMILES IDX 14 14
REMARK H PARENT
REMARK Flexibility Score: inf
ROOT
ATOM      1  C   UNL     1     136.469 123.766 139.416  1.00  0.00     0.074 A 
ATOM      2  C   UNL     1     137.830 123.797 139.060  1.00  0.00     0.016 A 
ATOM      3  C   UNL     1     138.806 123.295 139.923  1.00  0.00     0.001 A 
ATOM      4  C   UNL     1     138.438 122.754 141.152  1.00  0.00     0.001 A 
ATOM      5  C   UNL     1     137.097 122.733 141.536  1.00  0.00     0.016 A 
ATOM      6  C   UNL     1     136.100 123.254 140.691  1.00  0.00     0.074 A 
ENDROOT
BRANCH   1   7
ATOM      7  C   UNL     1     135.472 124.202 138.412  1.00  0.00     0.338 C 
ATOM      8  O   UNL     1     135.403 125.419 138.085  1.00  0.00    -0.246 OA
BRANCH   7   9
ATOM      9  O   UNL     1     134.647 123.260 137.788  1.00  0.00    -0.465 OA
ATOM     10  C   UNL     1     135.091 121.951 137.454  1.00  0.00     0.282 C 
ENDBRANCH   7   9
ENDBRANCH   1   7
BRANCH   6  11
ATOM     11  C   UNL     1     134.712 123.304 141.205  1.00  0.00     0.338 C 
ATOM     12  O   UNL     1     133.985 122.274 141.179  1.00  0.00    -0.246 OA
BRANCH  11  13
ATOM     13  O   UNL     1     134.192 124.518 141.669  1.00  0.00    -0.465 OA
ATOM     14  C   UNL     1     134.917 125.382 142.534  1.00  0.00     0.282 C 
ENDBRANCH  11  13
ENDBRANCH   6  11
TORSDOF 4
ENDMDL
MODEL 4
REMARK VINA RESULT:    -5.314      1.959      4.066
REMARK INTER + INTRA:          -6.527
REMARK INTER:                  -6.213
REMARK INTRA:                  -0.314
REMARK UNBOUND:                 0.030
REMARK SMILES COC(=O)c1ccccc1C(=O)OC
REMARK SMILES IDX 5 1 6 2 7 3 8 4 9 5 10 6 3 7 4 8 2 9 1 10 11 11 12 12 13 13
REMARK SMILES IDX 14 14
REMARK H PARENT
REMARK Flexibility Score: inf
ROOT
ATOM      1  C   UNL     1     136.111 123.233 140.669  1.00  0.00     0.074 A 
ATOM      2  C   UNL     1     137.105 122.711 141.516  1.00  0.00     0.016 A 
ATOM      3  C   UNL     1     138.450 122.740 141.141  1.00  0.00     0.001 A 
ATOM      4  C   UNL     1     138.821 123.290 139.917  1.00  0.00     0.001 A 
ATOM      5  C   UNL     1     137.850 123.793 139.052  1.00  0.00     0.016 A 
ATOM      6  C   UNL     1     136.487 123.754 139.400  1.00  0.00     0.074 A 
ENDROOT
BRANCH   1   7
ATOM      7  C   UNL     1     134.719 123.283 141.170  1.00  0.00     0.338 C 
ATOM      8  O   UNL     1     134.018 122.234 141.180  1.00  0.00    -0.246 OA
BRANCH   7   9
ATOM      9  O   UNL     1     134.201 124.477 141.683  1.00  0.00    -0.465 OA
ATOM     10  C   UNL     1     134.941 125.326 142.550  1.00  0.00     0.282 C 
ENDBRANCH   7   9
ENDBRANCH   1   7
BRANCH   6  11
ATOM     11  C   UNL     1     135.501 124.199 138.389  1.00  0.00     0.338 C 
ATOM     12  O   UNL     1     135.418 125.418 138.073  1.00  0.00    -0.246 OA
BRANCH  11  13
ATOM     13  O   UNL     1     134.620 123.268 137.828  1.00  0.00    -0.465 OA
ATOM     14  C   UNL     1     135.029 121.961 137.443  1.00  0.00     0.282 C 
ENDBRANCH  11  13
ENDBRANCH   6  11
TORSDOF 4
ENDMDL
MODEL 5
REMARK VINA RESULT:    -5.226      1.997      4.464
REMARK INTER + INTRA:          -6.419
REMARK INTER:                  -6.225
REMARK INTRA:                  -0.193
REMARK UNBOUND:                 0.030
REMARK SMILES COC(=O)c1ccccc1C(=O)OC
REMARK SMILES IDX 5 1 6 2 7 3 8 4 9 5 10 6 3 7 4 8 2 9 1 10 11 11 12 12 13 13
REMARK SMILES IDX 14 14
REMARK H PARENT
REMARK Flexibility Score: inf
ROOT
ATOM      1  C   UNL     1     135.146 122.789 140.388  1.00  0.00     0.074 A 
ATOM      2  C   UNL     1     133.950 122.732 141.126  1.00  0.00     0.016 A 
ATOM      3  C   UNL     1     133.904 123.175 142.449  1.00  0.00     0.001 A 
ATOM      4  C   UNL     1     135.051 123.683 143.054  1.00  0.00     0.001 A 
ATOM      5  C   UNL     1     136.254 123.729 142.349  1.00  0.00     0.016 A 
ATOM      6  C   UNL     1     136.327 123.266 141.022  1.00  0.00     0.074 A 
ENDROOT
BRANCH   1   7
ATOM      7  C   UNL     1     135.104 122.416 138.956  1.00  0.00     0.338 C 
ATOM      8  O   UNL     1     135.592 121.314 138.581  1.00  0.00    -0.246 OA
BRANCH   7   9
ATOM      9  O   UNL     1     134.479 123.258 138.030  1.00  0.00    -0.465 OA
ATOM     10  C   UNL     1     134.829 124.628 137.878  1.00  0.00     0.282 C 
ENDBRANCH   7   9
ENDBRANCH   1   7
BRANCH   6  11
ATOM     11  C   UNL     1     137.656 123.237 140.371  1.00  0.00     0.338 C 
ATOM     12  O   UNL     1     138.593 122.551 140.863  1.00  0.00    -0.246 OA
BRANCH  11  13
ATOM     13  O   UNL     1     137.885 124.023 139.235  1.00  0.00    -0.465 OA
ATOM     14  C   UNL     1     138.292 123.471 137.990  1.00  0.00     0.282 C 
ENDBRANCH  11  13
ENDBRANCH   6  11
TORSDOF 4
ENDMDL
MODEL 6
REMARK VINA RESULT:    -5.187      1.367      1.712
REMARK INTER + INTRA:          -6.370
REMARK INTER:                  -5.998
REMARK INTRA:                  -0.372
REMARK UNBOUND:                 0.030
REMARK SMILES COC(=O)c1ccccc1C(=O)OC
REMARK SMILES IDX 5 1 6 2 7 3 8 4 9 5 10 6 3 7 4 8 2 9 1 10 11 11 12 12 13 13
REMARK SMILES IDX 14 14
REMARK H PARENT
REMARK Flexibility Score: inf
ROOT
ATOM      1  C   UNL     1     136.641 123.011 140.122  1.00  0.00     0.074 A 
ATOM      2  C   UNL     1     137.552 123.057 139.052  1.00  0.00     0.016 A 
ATOM      3  C   UNL     1     137.106 123.230 137.740  1.00  0.00     0.001 A 
ATOM      4  C   UNL     1     135.745 123.363 137.478  1.00  0.00     0.001 A 
ATOM      5  C   UNL     1     134.821 123.300 138.521  1.00  0.00     0.016 A 
ATOM      6  C   UNL     1     135.248 123.102 139.848  1.00  0.00     0.074 A 
ENDROOT
BRANCH   1   7
ATOM      7  C   UNL     1     137.180 122.945 141.499  1.00  0.00     0.338 C 
ATOM      8  O   UNL     1     137.655 121.860 141.934  1.00  0.00    -0.246 OA
BRANCH   7   9
ATOM      9  O   UNL     1     137.212 124.095 142.296  1.00  0.00    -0.465 OA
ATOM     10  C   UNL     1     136.667 124.135 143.608  1.00  0.00     0.282 C 
ENDBRANCH   7   9
ENDBRANCH   1   7
BRANCH   6  11
ATOM     11  C   UNL     1     134.210 122.931 140.891  1.00  0.00     0.338 C 
ATOM     12  O   UNL     1     133.797 121.779 141.195  1.00  0.00    -0.246 OA
BRANCH  11  13
ATOM     13  O   UNL     1     133.650 124.060 141.497  1.00  0.00    -0.465 OA
ATOM     14  C   UNL     1     132.567 123.979 142.416  1.00  0.00     0.282 C 
ENDBRANCH  11  13
ENDBRANCH   6  11
TORSDOF 4
ENDMDL
MODEL 7
REMARK VINA RESULT:    -5.154      1.987      3.609
REMARK INTER + INTRA:          -6.330
REMARK INTER:                  -6.139
REMARK INTRA:                  -0.191
REMARK UNBOUND:                 0.030
REMARK SMILES COC(=O)c1ccccc1C(=O)OC
REMARK SMILES IDX 5 1 6 2 7 3 8 4 9 5 10 6 3 7 4 8 2 9 1 10 11 11 12 12 13 13
REMARK SMILES IDX 14 14
REMARK H PARENT
REMARK Flexibility Score: inf
ROOT
ATOM      1  C   UNL     1     136.305 123.310 141.029  1.00  0.00     0.074 A 
ATOM      2  C   UNL     1     136.225 123.798 142.345  1.00  0.00     0.016 A 
ATOM      3  C   UNL     1     135.026 123.740 143.058  1.00  0.00     0.001 A 
ATOM      4  C   UNL     1     133.891 123.191 142.467  1.00  0.00     0.001 A 
ATOM      5  C   UNL     1     133.941 122.720 141.155  1.00  0.00     0.016 A 
ATOM      6  C   UNL     1     135.133 122.791 140.411  1.00  0.00     0.074 A 
ENDROOT
BRANCH   1   7
ATOM      7  C   UNL     1     137.630 123.290 140.368  1.00  0.00     0.338 C 
ATOM      8  O   UNL     1     138.541 122.538 140.813  1.00  0.00    -0.246 OA
BRANCH   7   9
ATOM      9  O   UNL     1     137.854 124.061 139.223  1.00  0.00    -0.465 OA
ATOM     10  C   UNL     1     138.287 123.498 137.990  1.00  0.00     0.282 C 
ENDBRANCH   7   9
ENDBRANCH   1   7
BRANCH   6  11
ATOM     11  C   UNL     1     135.089 122.379 138.990  1.00  0.00     0.338 C 
ATOM     12  O   UNL     1     135.650 121.313 138.617  1.00  0.00    -0.246 OA
BRANCH  11  13
ATOM     13  O   UNL     1     134.469 123.211 138.050  1.00  0.00    -0.465 OA
ATOM     14  C   UNL     1     134.807 124.584 137.901  1.00  0.00     0.282 C 
ENDBRANCH  11  13
ENDBRANCH   6  11
TORSDOF 4
ENDMDL
MODEL 8
REMARK VINA RESULT:    -4.919      1.993      3.100
REMARK INTER + INTRA:          -6.040
REMARK INTER:                  -6.239
REMARK INTRA:                   0.199
REMARK UNBOUND:                 0.030
REMARK SMILES COC(=O)c1ccccc1C(=O)OC
REMARK SMILES IDX 5 1 6 2 7 3 8 4 9 5 10 6 3 7 4 8 2 9 1 10 11 11 12 12 13 13
REMARK SMILES IDX 14 14
REMARK H PARENT
REMARK Flexibility Score: inf
ROOT
ATOM      1  C   UNL     1     135.974 123.025 141.350  1.00  0.00     0.074 A 
ATOM      2  C   UNL     1     135.126 122.155 140.640  1.00  0.00     0.016 A 
ATOM      3  C   UNL     1     133.789 121.999 141.011  1.00  0.00     0.001 A 
ATOM      4  C   UNL     1     133.279 122.710 142.095  1.00  0.00     0.001 A 
ATOM      5  C   UNL     1     134.107 123.561 142.827  1.00  0.00     0.016 A 
ATOM      6  C   UNL     1     135.463 123.715 142.484  1.00  0.00     0.074 A 
ENDROOT
BRANCH   1   7
ATOM      7  C   UNL     1     137.346 123.238 140.838  1.00  0.00     0.338 C 
ATOM      8  O   UNL     1     138.308 122.586 141.331  1.00  0.00    -0.246 OA
BRANCH   7   9
ATOM      9  O   UNL     1     137.569 124.119 139.774  1.00  0.00    -0.465 OA
ATOM     10  C   UNL     1     137.745 123.677 138.434  1.00  0.00     0.282 C 
ENDBRANCH   7   9
ENDBRANCH   1   7
BRANCH   6  11
ATOM     11  C   UNL     1     136.312 124.545 143.369  1.00  0.00     0.338 C 
ATOM     12  O   UNL     1     137.466 124.155 143.694  1.00  0.00    -0.246 OA
BRANCH  11  13
ATOM     13  O   UNL     1     135.803 125.739 143.892  1.00  0.00    -0.465 OA
ATOM     14  C   UNL     1     135.805 126.030 145.284  1.00  0.00     0.282 C 
ENDBRANCH  11  13
ENDBRANCH   6  11
TORSDOF 4
ENDMDL
MODEL 9
REMARK VINA RESULT:    -4.689      2.084      4.162
REMARK INTER + INTRA:          -5.755
REMARK INTER:                  -6.173
REMARK INTRA:                   0.417
REMARK UNBOUND:                 0.030
REMARK SMILES COC(=O)c1ccccc1C(=O)OC
REMARK SMILES IDX 5 1 6 2 7 3 8 4 9 5 10 6 3 7 4 8 2 9 1 10 11 11 12 12 13 13
REMARK SMILES IDX 14 14
REMARK H PARENT
REMARK Flexibility Score: inf
ROOT
ATOM      1  C   UNL     1     135.434 123.724 142.548  1.00  0.00     0.074 A 
ATOM      2  C   UNL     1     134.074 123.649 142.901  1.00  0.00     0.016 A 
ATOM      3  C   UNL     1     133.194 122.833 142.188  1.00  0.00     0.001 A 
ATOM      4  C   UNL     1     133.659 122.078 141.114  1.00  0.00     0.001 A 
ATOM      5  C   UNL     1     134.998 122.152 140.732  1.00  0.00     0.016 A 
ATOM      6  C   UNL     1     135.897 122.986 141.423  1.00  0.00     0.074 A 
ENDROOT
BRANCH   1   7
ATOM      7  C   UNL     1     136.340 124.512 143.413  1.00  0.00     0.338 C 
ATOM      8  O   UNL     1     137.529 124.128 143.590  1.00  0.00    -0.246 OA
BRANCH   7   9
ATOM      9  O   UNL     1     135.896 125.708 143.988  1.00  0.00    -0.465 OA
ATOM     10  C   UNL     1     135.850 125.914 145.394  1.00  0.00     0.282 C 
ENDBRANCH   7   9
ENDBRANCH   1   7
BRANCH   6  11
ATOM     11  C   UNL     1     137.276 123.105 140.897  1.00  0.00     0.338 C 
ATOM     12  O   UNL     1     138.213 122.432 141.406  1.00  0.00    -0.246 OA
BRANCH  11  13
ATOM     13  O   UNL     1     137.545 124.014 139.867  1.00  0.00    -0.465 OA
ATOM     14  C   UNL     1     137.998 123.605 138.582  1.00  0.00     0.282 C 
ENDBRANCH  11  13
ENDBRANCH   6  11
TORSDOF 4
ENDMDL
