MODEL 1
REMARK VINA RESULT:    -3.990      0.000      0.000
REMARK INTER + INTRA:          -4.722
REMARK INTER:                  -4.690
REMARK INTRA:                  -0.033
REMARK UNBOUND:                -0.033
REMARK SMILES O=C([O-])CCC(=O)[O-]
REMARK SMILES IDX 4 1 2 2 1 3 3 4 5 5 6 6 7 7 8 8
REMARK H PARENT
REMARK Flexibility Score: inf
ROOT
ATOM      1  C   UNL     1      -8.946 -19.325  -5.654  1.00  0.00     0.059 C 
ENDROOT
BRANCH   1   2
ATOM      2  C   UNL     1      -7.553 -18.870  -5.340  1.00  0.00     0.042 C 
ATOM      3  O   UNL     1      -6.731 -19.665  -4.813  1.00  0.00    -0.550 OA
ATOM      4  O   UNL     1      -7.177 -17.557  -5.591  1.00  0.00    -0.550 OA
ENDBRANCH   1   2
BRANCH   1   5
ATOM      5  C   UNL     1      -9.446 -18.741  -6.979  1.00  0.00     0.059 C 
BRANCH   5   6
ATOM      6  C   UNL     1     -10.462 -19.632  -7.627  1.00  0.00     0.042 C 
ATOM      7  O   UNL     1     -10.815 -19.430  -8.818  1.00  0.00    -0.550 OA
ATOM      8  O   UNL     1     -11.050 -20.661  -6.901  1.00  0.00    -0.550 OA
ENDBRANCH   5   6
ENDBRANCH   1   5
TORSDOF 3
ENDMDL
MODEL 2
REMARK VINA RESULT:    -3.977     10.950     11.796
REMARK INTER + INTRA:          -4.707
REMARK INTER:                  -4.594
REMARK INTRA:                  -0.113
REMARK UNBOUND:                -0.033
REMARK SMILES O=C([O-])CCC(=O)[O-]
REMARK SMILES IDX 4 1 2 2 1 3 3 4 5 5 6 6 7 7 8 8
REMARK H PARENT
REMARK Flexibility Score: inf
ROOT
ATOM      1  C   UNL     1      -7.663 -17.377 -16.552  1.00  0.00     0.059 C 
ENDROOT
BRANCH   1   2
ATOM      2  C   UNL     1      -8.009 -16.346 -17.583  1.00  0.00     0.042 C 
ATOM      3  O   UNL     1      -8.535 -15.256 -17.236  1.00  0.00    -0.550 OA
ATOM      4  O   UNL     1      -7.788 -16.607 -18.929  1.00  0.00    -0.550 OA
ENDBRANCH   1   2
BRANCH   1   5
ATOM      5  C   UNL     1      -6.227 -17.209 -16.044  1.00  0.00     0.059 C 
BRANCH   5   6
ATOM      6  C   UNL     1      -5.244 -17.924 -16.920  1.00  0.00     0.042 C 
ATOM      7  O   UNL     1      -4.035 -17.576 -16.933  1.00  0.00    -0.550 OA
ATOM      8  O   UNL     1      -5.673 -18.950 -17.755  1.00  0.00    -0.550 OA
ENDBRANCH   5   6
ENDBRANCH   1   5
TORSDOF 3
ENDMDL
MODEL 3
REMARK VINA RESULT:    -3.971      0.127      4.129
REMARK INTER + INTRA:          -4.700
REMARK INTER:                  -4.664
REMARK INTRA:                  -0.036
REMARK UNBOUND:                -0.033
REMARK SMILES O=C([O-])CCC(=O)[O-]
REMARK SMILES IDX 4 1 2 2 1 3 3 4 5 5 6 6 7 7 8 8
REMARK H PARENT
REMARK Flexibility Score: inf
ROOT
ATOM      1  C   UNL     1      -9.495 -18.714  -6.891  1.00  0.00     0.059 C 
ENDROOT
BRANCH   1   2
ATOM      2  C   UNL     1     -10.497 -19.622  -7.536  1.00  0.00     0.042 C 
ATOM      3  O   UNL     1     -10.954 -20.612  -6.905  1.00  0.00    -0.550 OA
ATOM      4  O   UNL     1     -10.895 -19.399  -8.849  1.00  0.00    -0.550 OA
ENDBRANCH   1   2
BRANCH   1   5
ATOM      5  C   UNL     1      -8.915 -19.331  -5.614  1.00  0.00     0.059 C 
BRANCH   5   6
ATOM      6  C   UNL     1      -7.533 -18.823  -5.335  1.00  0.00     0.042 C 
ATOM      7  O   UNL     1      -7.263 -17.603  -5.483  1.00  0.00    -0.550 OA
ATOM      8  O   UNL     1      -6.530 -19.706  -4.952  1.00  0.00    -0.550 OA
ENDBRANCH   5   6
ENDBRANCH   1   5
TORSDOF 3
ENDMDL
MODEL 4
REMARK VINA RESULT:    -3.963     10.899     11.394
REMARK INTER + INTRA:          -4.691
REMARK INTER:                  -4.590
REMARK INTRA:                  -0.101
REMARK UNBOUND:                -0.033
REMARK SMILES O=C([O-])CCC(=O)[O-]
REMARK SMILES IDX 4 1 2 2 1 3 3 4 5 5 6 6 7 7 8 8
REMARK H PARENT
REMARK Flexibility Score: inf
ROOT
ATOM      1  C   UNL     1      -6.317 -17.404 -15.988  1.00  0.00     0.059 C 
ENDROOT
BRANCH   1   2
ATOM      2  C   UNL     1      -5.297 -18.008 -16.904  1.00  0.00     0.042 C 
ATOM      3  O   UNL     1      -4.118 -17.565 -16.918  1.00  0.00    -0.550 OA
ATOM      4  O   UNL     1      -5.659 -19.030 -17.772  1.00  0.00    -0.550 OA
ENDBRANCH   1   2
BRANCH   1   5
ATOM      5  C   UNL     1      -7.730 -17.498 -16.575  1.00  0.00     0.059 C 
BRANCH   5   6
ATOM      6  C   UNL     1      -7.986 -16.411 -17.574  1.00  0.00     0.042 C 
ATOM      7  O   UNL     1      -7.781 -16.615 -18.799  1.00  0.00    -0.550 OA
ATOM      8  O   UNL     1      -8.412 -15.159 -17.147  1.00  0.00    -0.550 OA
ENDBRANCH   5   6
ENDBRANCH   1   5
TORSDOF 3
ENDMDL
MODEL 5
REMARK VINA RESULT:    -3.895     10.965     11.431
REMARK INTER + INTRA:          -4.611
REMARK INTER:                  -4.495
REMARK INTRA:                  -0.116
REMARK UNBOUND:                -0.033
REMARK SMILES O=C([O-])CCC(=O)[O-]
REMARK SMILES IDX 4 1 2 2 1 3 3 4 5 5 6 6 7 7 8 8
REMARK H PARENT
REMARK Flexibility Score: inf
ROOT
ATOM      1  C   UNL     1      -6.203 -17.252 -16.039  1.00  0.00     0.059 C 
ENDROOT
BRANCH   1   2
ATOM      2  C   UNL     1      -5.176 -17.878 -16.932  1.00  0.00     0.042 C 
ATOM      3  O   UNL     1      -5.473 -18.885 -17.629  1.00  0.00    -0.550 OA
ATOM      4  O   UNL     1      -3.881 -17.378 -16.962  1.00  0.00    -0.550 OA
ENDBRANCH   1   2
BRANCH   1   5
ATOM      5  C   UNL     1      -7.622 -17.451 -16.582  1.00  0.00     0.059 C 
BRANCH   5   6
ATOM      6  C   UNL     1      -7.978 -16.404 -17.593  1.00  0.00     0.042 C 
ATOM      7  O   UNL     1      -8.525 -15.330 -17.228  1.00  0.00    -0.550 OA
ATOM      8  O   UNL     1      -7.743 -16.631 -18.944  1.00  0.00    -0.550 OA
ENDBRANCH   5   6
ENDBRANCH   1   5
TORSDOF 3
ENDMDL
MODEL 6
REMARK VINA RESULT:    -3.854     13.188     13.889
REMARK INTER + INTRA:          -4.562
REMARK INTER:                  -4.518
REMARK INTRA:                  -0.044
REMARK UNBOUND:                -0.033
REMARK SMILES O=C([O-])CCC(=O)[O-]
REMARK SMILES IDX 4 1 2 2 1 3 3 4 5 5 6 6 7 7 8 8
REMARK H PARENT
REMARK Flexibility Score: inf
ROOT
ATOM      1  C   UNL     1       2.852 -20.870 -12.269  1.00  0.00     0.059 C 
ENDROOT
BRANCH   1   2
ATOM      2  C   UNL     1       4.136 -21.494 -11.814  1.00  0.00     0.042 C 
ATOM      3  O   UNL     1       5.186 -21.351 -12.495  1.00  0.00    -0.550 OA
ATOM      4  O   UNL     1       4.163 -22.270 -10.662  1.00  0.00    -0.550 OA
ENDBRANCH   1   2
BRANCH   1   5
ATOM      5  C   UNL     1       2.965 -20.323 -13.696  1.00  0.00     0.059 C 
BRANCH   5   6
ATOM      6  C   UNL     1       1.697 -20.530 -14.468  1.00  0.00     0.042 C 
ATOM      7  O   UNL     1       1.481 -21.624 -15.052  1.00  0.00    -0.550 OA
ATOM      8  O   UNL     1       0.772 -19.498 -14.577  1.00  0.00    -0.550 OA
ENDBRANCH   5   6
ENDBRANCH   1   5
TORSDOF 3
ENDMDL
MODEL 7
REMARK VINA RESULT:    -3.806     13.085     14.253
REMARK INTER + INTRA:          -4.506
REMARK INTER:                  -4.449
REMARK INTRA:                  -0.057
REMARK UNBOUND:                -0.033
REMARK SMILES O=C([O-])CCC(=O)[O-]
REMARK SMILES IDX 4 1 2 2 1 3 3 4 5 5 6 6 7 7 8 8
REMARK H PARENT
REMARK Flexibility Score: inf
ROOT
ATOM      1  C   UNL     1       2.947 -20.241 -13.659  1.00  0.00     0.059 C 
ENDROOT
BRANCH   1   2
ATOM      2  C   UNL     1       1.547 -20.510 -14.121  1.00  0.00     0.042 C 
ATOM      3  O   UNL     1       0.881 -19.602 -14.686  1.00  0.00    -0.550 OA
ATOM      4  O   UNL     1       0.964 -21.750 -13.891  1.00  0.00    -0.550 OA
ENDBRANCH   1   2
BRANCH   1   5
ATOM      5  C   UNL     1       3.094 -20.454 -12.149  1.00  0.00     0.059 C 
BRANCH   5   6
ATOM      6  C   UNL     1       4.234 -21.374 -11.830  1.00  0.00     0.042 C 
ATOM      7  O   UNL     1       5.268 -21.375 -12.548  1.00  0.00    -0.550 OA
ATOM      8  O   UNL     1       4.137 -22.260 -10.764  1.00  0.00    -0.550 OA
ENDBRANCH   5   6
ENDBRANCH   1   5
TORSDOF 3
ENDMDL
MODEL 8
REMARK VINA RESULT:    -3.792     11.122     12.074
REMARK INTER + INTRA:          -4.490
REMARK INTER:                  -4.323
REMARK INTRA:                  -0.167
REMARK UNBOUND:                -0.033
REMARK SMILES O=C([O-])CCC(=O)[O-]
REMARK SMILES IDX 4 1 2 2 1 3 3 4 5 5 6 6 7 7 8 8
REMARK H PARENT
REMARK Flexibility Score: inf
ROOT
ATOM      1  C   UNL     1      -7.126 -17.099 -16.513  1.00  0.00     0.059 C 
ENDROOT
BRANCH   1   2
ATOM      2  C   UNL     1      -7.828 -16.368 -17.615  1.00  0.00     0.042 C 
ATOM      3  O   UNL     1      -7.706 -16.752 -18.809  1.00  0.00    -0.550 OA
ATOM      4  O   UNL     1      -8.584 -15.237 -17.330  1.00  0.00    -0.550 OA
ENDBRANCH   1   2
BRANCH   1   5
ATOM      5  C   UNL     1      -6.039 -16.235 -15.864  1.00  0.00     0.059 C 
BRANCH   5   6
ATOM      6  C   UNL     1      -4.969 -15.865 -16.845  1.00  0.00     0.042 C 
ATOM      7  O   UNL     1      -4.134 -16.726 -17.227  1.00  0.00    -0.550 OA
ATOM      8  O   UNL     1      -4.867 -14.558 -17.306  1.00  0.00    -0.550 OA
ENDBRANCH   5   6
ENDBRANCH   1   5
TORSDOF 3
ENDMDL
MODEL 9
REMARK VINA RESULT:    -3.724     11.510     12.016
REMARK INTER + INTRA:          -4.410
REMARK INTER:                  -4.268
REMARK INTRA:                  -0.142
REMARK UNBOUND:                -0.033
REMARK SMILES O=C([O-])CCC(=O)[O-]
REMARK SMILES IDX 4 1 2 2 1 3 3 4 5 5 6 6 7 7 8 8
REMARK H PARENT
REMARK Flexibility Score: inf
ROOT
ATOM      1  C   UNL     1      -5.032 -16.202 -16.157  1.00  0.00     0.059 C 
ENDROOT
BRANCH   1   2
ATOM      2  C   UNL     1      -4.135 -15.531 -17.151  1.00  0.00     0.042 C 
ATOM      3  O   UNL     1      -4.441 -14.402 -17.620  1.00  0.00    -0.550 OA
ATOM      4  O   UNL     1      -2.983 -16.169 -17.593  1.00  0.00    -0.550 OA
ENDBRANCH   1   2
BRANCH   1   5
ATOM      5  C   UNL     1      -6.495 -16.184 -16.613  1.00  0.00     0.059 C 
BRANCH   5   6
ATOM      6  C   UNL     1      -6.721 -17.097 -17.780  1.00  0.00     0.042 C 
ATOM      7  O   UNL     1      -7.514 -16.766 -18.700  1.00  0.00    -0.550 OA
ATOM      8  O   UNL     1      -6.087 -18.332 -17.831  1.00  0.00    -0.550 OA
ENDBRANCH   5   6
ENDBRANCH   1   5
TORSDOF 3
ENDMDL
