MODEL 1
REMARK VINA RESULT:    -4.627      0.000      0.000
REMARK INTER + INTRA:          -5.308
REMARK INTER:                  -5.168
REMARK INTRA:                  -0.140
REMARK UNBOUND:                -0.140
REMARK SMILES O=C([O-])C=Cc1ccccc1
REMARK SMILES IDX 4 1 5 2 2 3 1 4 3 5 6 6 7 7 11 8 8 9 10 10 9 11
REMARK H PARENT
REMARK Flexibility Score: inf
ROOT
ATOM      1  C   UNL     1     -30.789 -21.414 -33.130  1.00  0.00     0.025 C 
ATOM      2  C   UNL     1     -31.394 -22.503 -33.627  1.00  0.00     0.010 C 
ENDROOT
BRANCH   1   3
ATOM      3  C   UNL     1     -30.046 -21.442 -31.858  1.00  0.00     0.064 C 
ATOM      4  O   UNL     1     -29.143 -20.600 -31.609  1.00  0.00    -0.545 OA
ATOM      5  O   UNL     1     -30.345 -22.417 -30.915  1.00  0.00    -0.545 OA
ENDBRANCH   1   3
BRANCH   2   6
ATOM      6  C   UNL     1     -32.159 -22.542 -34.903  1.00  0.00    -0.026 A 
ATOM      7  C   UNL     1     -32.119 -23.634 -35.798  1.00  0.00     0.008 A 
ATOM      8  C   UNL     1     -32.963 -21.433 -35.230  1.00  0.00     0.008 A 
ATOM      9  C   UNL     1     -32.865 -23.606 -36.982  1.00  0.00     0.001 A 
ATOM     10  C   UNL     1     -33.705 -21.413 -36.414  1.00  0.00     0.001 A 
ATOM     11  C   UNL     1     -33.655 -22.499 -37.290  1.00  0.00     0.000 A 
ENDBRANCH   2   6
TORSDOF 2
ENDMDL
MODEL 2
REMARK VINA RESULT:    -4.622      0.093      1.462
REMARK INTER + INTRA:          -5.303
REMARK INTER:                  -5.172
REMARK INTRA:                  -0.131
REMARK UNBOUND:                -0.140
REMARK SMILES O=C([O-])C=Cc1ccccc1
REMARK SMILES IDX 4 1 5 2 2 3 1 4 3 5 6 6 7 7 11 8 8 9 10 10 9 11
REMARK H PARENT
REMARK Flexibility Score: inf
ROOT
ATOM      1  C   UNL     1     -30.840 -21.414 -33.090  1.00  0.00     0.025 C 
ATOM      2  C   UNL     1     -31.397 -22.502 -33.643  1.00  0.00     0.010 C 
ENDROOT
BRANCH   1   3
ATOM      3  C   UNL     1     -30.034 -21.487 -31.859  1.00  0.00     0.064 C 
ATOM      4  O   UNL     1     -29.085 -20.686 -31.651  1.00  0.00    -0.545 OA
ATOM      5  O   UNL     1     -30.325 -22.458 -30.909  1.00  0.00    -0.545 OA
ENDBRANCH   1   3
BRANCH   2   6
ATOM      6  C   UNL     1     -32.221 -22.498 -34.882  1.00  0.00    -0.026 A 
ATOM      7  C   UNL     1     -33.044 -21.414 -35.263  1.00  0.00     0.008 A 
ATOM      8  C   UNL     1     -32.175 -23.632 -35.714  1.00  0.00     0.008 A 
ATOM      9  C   UNL     1     -33.793 -21.475 -36.443  1.00  0.00     0.001 A 
ATOM     10  C   UNL     1     -32.927 -23.686 -36.892  1.00  0.00     0.001 A 
ATOM     11  C   UNL     1     -33.735 -22.608 -37.255  1.00  0.00     0.000 A 
ENDBRANCH   2   6
TORSDOF 2
ENDMDL
MODEL 3
REMARK VINA RESULT:    -4.447      2.813      5.610
REMARK INTER + INTRA:          -5.108
REMARK INTER:                  -4.979
REMARK INTRA:                  -0.129
REMARK UNBOUND:                -0.140
REMARK SMILES O=C([O-])C=Cc1ccccc1
REMARK SMILES IDX 4 1 5 2 2 3 1 4 3 5 6 6 7 7 11 8 8 9 10 10 9 11
REMARK H PARENT
REMARK Flexibility Score: inf
ROOT
ATOM      1  C   UNL     1     -31.539 -22.490 -34.212  1.00  0.00     0.025 C 
ATOM      2  C   UNL     1     -31.359 -21.221 -33.817  1.00  0.00     0.010 C 
ENDROOT
BRANCH   1   3
ATOM      3  C   UNL     1     -32.441 -22.845 -35.321  1.00  0.00     0.064 C 
ATOM      4  O   UNL     1     -32.515 -24.026 -35.752  1.00  0.00    -0.545 OA
ATOM      5  O   UNL     1     -33.225 -21.858 -35.905  1.00  0.00    -0.545 OA
ENDBRANCH   1   3
BRANCH   2   6
ATOM      6  C   UNL     1     -30.465 -20.796 -32.706  1.00  0.00    -0.026 A 
ATOM      7  C   UNL     1     -30.829 -20.875 -31.343  1.00  0.00     0.008 A 
ATOM      8  C   UNL     1     -29.193 -20.290 -33.033  1.00  0.00     0.008 A 
ATOM      9  C   UNL     1     -29.940 -20.459 -30.347  1.00  0.00     0.001 A 
ATOM     10  C   UNL     1     -28.309 -19.875 -32.032  1.00  0.00     0.001 A 
ATOM     11  C   UNL     1     -28.683 -19.960 -30.690  1.00  0.00     0.000 A 
ENDBRANCH   2   6
TORSDOF 2
ENDMDL
MODEL 4
REMARK VINA RESULT:    -3.860      4.659      6.192
REMARK INTER + INTRA:          -4.452
REMARK INTER:                  -4.320
REMARK INTRA:                  -0.131
REMARK UNBOUND:                -0.140
REMARK SMILES O=C([O-])C=Cc1ccccc1
REMARK SMILES IDX 4 1 5 2 2 3 1 4 3 5 6 6 7 7 11 8 8 9 10 10 9 11
REMARK H PARENT
REMARK Flexibility Score: inf
ROOT
ATOM      1  C   UNL     1     -33.000 -26.486 -37.680  1.00  0.00     0.025 C 
ATOM      2  C   UNL     1     -32.258 -25.374 -37.795  1.00  0.00     0.010 C 
ENDROOT
BRANCH   1   3
ATOM      3  C   UNL     1     -32.677 -27.723 -38.412  1.00  0.00     0.064 C 
ATOM      4  O   UNL     1     -31.492 -28.002 -38.732  1.00  0.00    -0.545 OA
ATOM      5  O   UNL     1     -33.699 -28.597 -38.758  1.00  0.00    -0.545 OA
ENDBRANCH   1   3
BRANCH   2   6
ATOM      6  C   UNL     1     -32.529 -24.094 -37.085  1.00  0.00    -0.026 A 
ATOM      7  C   UNL     1     -33.123 -22.974 -37.706  1.00  0.00     0.008 A 
ATOM      8  C   UNL     1     -32.173 -24.000 -35.726  1.00  0.00     0.008 A 
ATOM      9  C   UNL     1     -33.351 -21.800 -36.980  1.00  0.00     0.001 A 
ATOM     10  C   UNL     1     -32.404 -22.824 -35.007  1.00  0.00     0.001 A 
ATOM     11  C   UNL     1     -32.992 -21.724 -35.634  1.00  0.00     0.000 A 
ENDBRANCH   2   6
TORSDOF 2
ENDMDL
MODEL 5
REMARK VINA RESULT:    -3.435      1.822      2.767
REMARK INTER + INTRA:          -3.977
REMARK INTER:                  -3.842
REMARK INTRA:                  -0.135
REMARK UNBOUND:                -0.140
REMARK SMILES O=C([O-])C=Cc1ccccc1
REMARK SMILES IDX 4 1 5 2 2 3 1 4 3 5 6 6 7 7 11 8 8 9 10 10 9 11
REMARK H PARENT
REMARK Flexibility Score: inf
ROOT
ATOM      1  C   UNL     1     -31.189 -22.311 -34.238  1.00  0.00     0.025 C 
ATOM      2  C   UNL     1     -32.101 -22.495 -35.204  1.00  0.00     0.010 C 
ENDROOT
BRANCH   1   3
ATOM      3  C   UNL     1     -31.312 -21.234 -33.240  1.00  0.00     0.064 C 
ATOM      4  O   UNL     1     -30.895 -21.384 -32.061  1.00  0.00    -0.545 OA
ATOM      5  O   UNL     1     -31.900 -20.030 -33.605  1.00  0.00    -0.545 OA
ENDBRANCH   1   3
BRANCH   2   6
ATOM      6  C   UNL     1     -32.037 -23.561 -36.241  1.00  0.00    -0.026 A 
ATOM      7  C   UNL     1     -33.074 -24.495 -36.459  1.00  0.00     0.008 A 
ATOM      8  C   UNL     1     -30.883 -23.639 -37.043  1.00  0.00     0.008 A 
ATOM      9  C   UNL     1     -32.949 -25.472 -37.452  1.00  0.00     0.001 A 
ATOM     10  C   UNL     1     -30.765 -24.618 -38.034  1.00  0.00     0.001 A 
ATOM     11  C   UNL     1     -31.798 -25.534 -38.238  1.00  0.00     0.000 A 
ENDBRANCH   2   6
TORSDOF 2
ENDMDL
MODEL 6
REMARK VINA RESULT:    -3.428      3.614      5.210
REMARK INTER + INTRA:          -3.969
REMARK INTER:                  -3.840
REMARK INTRA:                  -0.129
REMARK UNBOUND:                -0.140
REMARK SMILES O=C([O-])C=Cc1ccccc1
REMARK SMILES IDX 4 1 5 2 2 3 1 4 3 5 6 6 7 7 11 8 8 9 10 10 9 11
REMARK H PARENT
REMARK Flexibility Score: inf
ROOT
ATOM      1  C   UNL     1     -32.044 -23.670 -36.975  1.00  0.00     0.025 C 
ATOM      2  C   UNL     1     -32.343 -23.516 -35.677  1.00  0.00     0.010 C 
ENDROOT
BRANCH   1   3
ATOM      3  C   UNL     1     -32.183 -24.965 -37.664  1.00  0.00     0.064 C 
ATOM      4  O   UNL     1     -32.995 -25.838 -37.256  1.00  0.00    -0.545 OA
ATOM      5  O   UNL     1     -31.405 -25.230 -38.783  1.00  0.00    -0.545 OA
ENDBRANCH   1   3
BRANCH   2   6
ATOM      6  C   UNL     1     -32.225 -22.239 -34.923  1.00  0.00    -0.026 A 
ATOM      7  C   UNL     1     -33.011 -21.098 -35.200  1.00  0.00     0.008 A 
ATOM      8  C   UNL     1     -31.281 -22.167 -33.881  1.00  0.00     0.008 A 
ATOM      9  C   UNL     1     -32.850 -19.928 -34.451  1.00  0.00     0.001 A 
ATOM     10  C   UNL     1     -31.125 -20.994 -33.137  1.00  0.00     0.001 A 
ATOM     11  C   UNL     1     -31.909 -19.875 -33.423  1.00  0.00     0.000 A 
ENDBRANCH   2   6
TORSDOF 2
ENDMDL
MODEL 7
REMARK VINA RESULT:    -2.580      4.437      6.007
REMARK INTER + INTRA:          -3.022
REMARK INTER:                  -2.894
REMARK INTRA:                  -0.128
REMARK UNBOUND:                -0.140
REMARK SMILES O=C([O-])C=Cc1ccccc1
REMARK SMILES IDX 4 1 5 2 2 3 1 4 3 5 6 6 7 7 11 8 8 9 10 10 9 11
REMARK H PARENT
REMARK Flexibility Score: inf
ROOT
ATOM      1  C   UNL     1     -32.487 -24.832 -36.642  1.00  0.00     0.025 C 
ATOM      2  C   UNL     1     -32.415 -25.279 -37.905  1.00  0.00     0.010 C 
ENDROOT
BRANCH   1   3
ATOM      3  C   UNL     1     -32.255 -23.419 -36.297  1.00  0.00     0.064 C 
ATOM      4  O   UNL     1     -32.618 -22.490 -37.067  1.00  0.00    -0.545 OA
ATOM      5  O   UNL     1     -31.624 -23.103 -35.101  1.00  0.00    -0.545 OA
ENDBRANCH   1   3
BRANCH   2   6
ATOM      6  C   UNL     1     -32.637 -26.691 -38.320  1.00  0.00    -0.026 A 
ATOM      7  C   UNL     1     -33.914 -27.291 -38.378  1.00  0.00     0.008 A 
ATOM      8  C   UNL     1     -31.515 -27.464 -38.674  1.00  0.00     0.008 A 
ATOM      9  C   UNL     1     -34.053 -28.624 -38.778  1.00  0.00     0.001 A 
ATOM     10  C   UNL     1     -31.661 -28.795 -39.074  1.00  0.00     0.001 A 
ATOM     11  C   UNL     1     -32.929 -29.375 -39.125  1.00  0.00     0.000 A 
ENDBRANCH   2   6
TORSDOF 2
ENDMDL
