MODEL 1
REMARK VINA RESULT:    -3.224      0.000      0.000
REMARK INTER + INTRA:          -4.591
REMARK INTER:                  -4.167
REMARK INTRA:                  -0.424
REMARK UNBOUND:                -0.424
REMARK SMILES CCCCCCC(=O)[O-]
REMARK SMILES IDX 5 1 6 2 7 3 8 4 9 5 4 6 3 7 2 8 1 9
REMARK H PARENT
REMARK Flexibility Score: inf
ROOT
ATOM      1  C   UNL     1     153.510 151.271 157.603  1.00  0.00     0.006 C 
ENDROOT
BRANCH   1   2
ATOM      2  C   UNL     1     153.240 150.875 159.058  1.00  0.00     0.053 C 
BRANCH   2   3
ATOM      3  C   UNL     1     152.644 152.022 159.811  1.00  0.00     0.041 C 
ATOM      4  O   UNL     1     152.987 152.245 161.001  1.00  0.00    -0.550 OA
ATOM      5  O   UNL     1     151.672 152.816 159.214  1.00  0.00    -0.550 OA
ENDBRANCH   2   3
ENDBRANCH   1   2
BRANCH   1   6
ATOM      6  C   UNL     1     154.911 151.884 157.452  1.00  0.00     0.000 C 
BRANCH   6   7
ATOM      7  C   UNL     1     154.869 153.393 157.165  1.00  0.00    -0.000 C 
BRANCH   7   8
ATOM      8  C   UNL     1     155.247 154.238 158.391  1.00  0.00    -0.003 C 
ATOM      9  C   UNL     1     154.176 155.285 158.687  1.00  0.00     0.004 C 
ENDBRANCH   7   8
ENDBRANCH   6   7
ENDBRANCH   1   6
TORSDOF 5
ENDMDL
MODEL 2
REMARK VINA RESULT:    -3.156      2.169      3.252
REMARK INTER + INTRA:          -4.503
REMARK INTER:                  -4.115
REMARK INTRA:                  -0.388
REMARK UNBOUND:                -0.424
REMARK SMILES CCCCCCC(=O)[O-]
REMARK SMILES IDX 5 1 6 2 7 3 8 4 9 5 4 6 3 7 2 8 1 9
REMARK H PARENT
REMARK Flexibility Score: inf
ROOT
ATOM      1  C   UNL     1     153.650 151.274 157.563  1.00  0.00     0.006 C 
ENDROOT
BRANCH   1   2
ATOM      2  C   UNL     1     155.091 151.792 157.504  1.00  0.00     0.053 C 
BRANCH   2   3
ATOM      3  C   UNL     1     155.110 153.288 157.516  1.00  0.00     0.041 C 
ATOM      4  O   UNL     1     155.498 153.908 158.540  1.00  0.00    -0.550 OA
ATOM      5  O   UNL     1     154.653 153.998 156.412  1.00  0.00    -0.550 OA
ENDBRANCH   2   3
ENDBRANCH   1   2
BRANCH   1   6
ATOM      6  C   UNL     1     153.268 150.879 158.998  1.00  0.00     0.000 C 
BRANCH   6   7
ATOM      7  C   UNL     1     152.673 152.050 159.795  1.00  0.00    -0.000 C 
BRANCH   7   8
ATOM      8  C   UNL     1     151.556 152.778 159.032  1.00  0.00    -0.003 C 
ATOM      9  C   UNL     1     151.856 154.269 158.910  1.00  0.00     0.004 C 
ENDBRANCH   7   8
ENDBRANCH   6   7
ENDBRANCH   1   6
TORSDOF 5
ENDMDL
MODEL 3
REMARK VINA RESULT:    -3.015      2.469      3.394
REMARK INTER + INTRA:          -4.321
REMARK INTER:                  -3.916
REMARK INTRA:                  -0.405
REMARK UNBOUND:                -0.424
REMARK SMILES CCCCCCC(=O)[O-]
REMARK SMILES IDX 5 1 6 2 7 3 8 4 9 5 4 6 3 7 2 8 1 9
REMARK H PARENT
REMARK Flexibility Score: inf
ROOT
ATOM      1  C   UNL     1     153.154 151.248 159.335  1.00  0.00     0.006 C 
ENDROOT
BRANCH   1   2
ATOM      2  C   UNL     1     153.379 151.037 157.834  1.00  0.00     0.053 C 
BRANCH   2   3
ATOM      3  C   UNL     1     154.670 151.659 157.405  1.00  0.00     0.041 C 
ATOM      4  O   UNL     1     154.690 152.841 156.972  1.00  0.00    -0.550 OA
ATOM      5  O   UNL     1     155.844 150.918 157.438  1.00  0.00    -0.550 OA
ENDBRANCH   2   3
ENDBRANCH   1   2
BRANCH   1   6
ATOM      6  C   UNL     1     152.298 152.498 159.591  1.00  0.00     0.000 C 
BRANCH   6   7
ATOM      7  C   UNL     1     151.260 152.740 158.484  1.00  0.00    -0.000 C 
BRANCH   7   8
ATOM      8  C   UNL     1     151.415 154.116 157.819  1.00  0.00    -0.003 C 
ATOM      9  C   UNL     1     152.379 155.000 158.605  1.00  0.00     0.004 C 
ENDBRANCH   7   8
ENDBRANCH   6   7
ENDBRANCH   1   6
TORSDOF 5
ENDMDL
MODEL 4
REMARK VINA RESULT:    -2.985      1.727      2.670
REMARK INTER + INTRA:          -4.282
REMARK INTER:                  -4.066
REMARK INTRA:                  -0.216
REMARK UNBOUND:                -0.424
REMARK SMILES CCCCCCC(=O)[O-]
REMARK SMILES IDX 5 1 6 2 7 3 8 4 9 5 4 6 3 7 2 8 1 9
REMARK H PARENT
REMARK Flexibility Score: inf
ROOT
ATOM      1  C   UNL     1     153.108 152.152 159.830  1.00  0.00     0.006 C 
ENDROOT
BRANCH   1   2
ATOM      2  C   UNL     1     151.683 152.704 159.957  1.00  0.00     0.053 C 
BRANCH   2   3
ATOM      3  C   UNL     1     151.295 153.443 158.715  1.00  0.00     0.041 C 
ATOM      4  O   UNL     1     150.499 152.922 157.891  1.00  0.00    -0.550 OA
ATOM      5  O   UNL     1     151.852 154.687 158.444  1.00  0.00    -0.550 OA
ENDBRANCH   2   3
ENDBRANCH   1   2
BRANCH   1   6
ATOM      6  C   UNL     1     153.127 150.875 158.976  1.00  0.00     0.000 C 
BRANCH   6   7
ATOM      7  C   UNL     1     153.700 151.112 157.570  1.00  0.00    -0.000 C 
BRANCH   7   8
ATOM      8  C   UNL     1     155.013 151.909 157.594  1.00  0.00    -0.003 C 
ATOM      9  C   UNL     1     154.802 153.330 157.079  1.00  0.00     0.004 C 
ENDBRANCH   7   8
ENDBRANCH   6   7
ENDBRANCH   1   6
TORSDOF 5
ENDMDL
MODEL 5
REMARK VINA RESULT:    -2.955     11.574     12.437
REMARK INTER + INTRA:          -4.244
REMARK INTER:                  -3.845
REMARK INTRA:                  -0.399
REMARK UNBOUND:                -0.424
REMARK SMILES CCCCCCC(=O)[O-]
REMARK SMILES IDX 5 1 6 2 7 3 8 4 9 5 4 6 3 7 2 8 1 9
REMARK H PARENT
REMARK Flexibility Score: inf
ROOT
ATOM      1  C   UNL     1     151.218 154.242 147.323  1.00  0.00     0.006 C 
ENDROOT
BRANCH   1   2
ATOM      2  C   UNL     1     150.320 155.481 147.404  1.00  0.00     0.053 C 
BRANCH   2   3
ATOM      3  C   UNL     1     149.002 155.134 148.021  1.00  0.00     0.041 C 
ATOM      4  O   UNL     1     148.085 154.636 147.316  1.00  0.00    -0.550 OA
ATOM      5  O   UNL     1     148.769 155.406 149.363  1.00  0.00    -0.550 OA
ENDBRANCH   2   3
ENDBRANCH   1   2
BRANCH   1   6
ATOM      6  C   UNL     1     151.167 153.619 145.919  1.00  0.00     0.000 C 
BRANCH   6   7
ATOM      7  C   UNL     1     150.823 152.122 145.949  1.00  0.00    -0.000 C 
BRANCH   7   8
ATOM      8  C   UNL     1     150.459 151.626 147.356  1.00  0.00    -0.003 C 
ATOM      9  C   UNL     1     148.993 151.207 147.429  1.00  0.00     0.004 C 
ENDBRANCH   7   8
ENDBRANCH   6   7
ENDBRANCH   1   6
TORSDOF 5
ENDMDL
MODEL 6
REMARK VINA RESULT:    -2.935     11.905     12.696
REMARK INTER + INTRA:          -4.217
REMARK INTER:                  -3.873
REMARK INTRA:                  -0.344
REMARK UNBOUND:                -0.424
REMARK SMILES CCCCCCC(=O)[O-]
REMARK SMILES IDX 5 1 6 2 7 3 8 4 9 5 4 6 3 7 2 8 1 9
REMARK H PARENT
REMARK Flexibility Score: inf
ROOT
ATOM      1  C   UNL     1     148.930 154.058 147.577  1.00  0.00     0.006 C 
ENDROOT
BRANCH   1   2
ATOM      2  C   UNL     1     148.575 152.853 146.699  1.00  0.00     0.053 C 
BRANCH   2   3
ATOM      3  C   UNL     1     149.679 151.844 146.721  1.00  0.00     0.041 C 
ATOM      4  O   UNL     1     149.668 150.876 145.917  1.00  0.00    -0.550 OA
ATOM      5  O   UNL     1     150.695 151.946 147.664  1.00  0.00    -0.550 OA
ENDBRANCH   2   3
ENDBRANCH   1   2
BRANCH   1   6
ATOM      6  C   UNL     1     149.168 155.310 146.719  1.00  0.00     0.000 C 
BRANCH   6   7
ATOM      7  C   UNL     1     150.312 156.185 147.255  1.00  0.00    -0.000 C 
BRANCH   7   8
ATOM      8  C   UNL     1     151.637 155.417 147.378  1.00  0.00    -0.003 C 
ATOM      9  C   UNL     1     152.075 154.859 146.027  1.00  0.00     0.004 C 
ENDBRANCH   7   8
ENDBRANCH   6   7
ENDBRANCH   1   6
TORSDOF 5
ENDMDL
MODEL 7
REMARK VINA RESULT:    -2.914      1.426      2.533
REMARK INTER + INTRA:          -4.190
REMARK INTER:                  -3.778
REMARK INTRA:                  -0.412
REMARK UNBOUND:                -0.424
REMARK SMILES CCCCCCC(=O)[O-]
REMARK SMILES IDX 5 1 6 2 7 3 8 4 9 5 4 6 3 7 2 8 1 9
REMARK H PARENT
REMARK Flexibility Score: inf
ROOT
ATOM      1  C   UNL     1     151.736 153.905 159.151  1.00  0.00     0.006 C 
ENDROOT
BRANCH   1   2
ATOM      2  C   UNL     1     151.825 152.445 158.693  1.00  0.00     0.053 C 
BRANCH   2   3
ATOM      3  C   UNL     1     152.870 151.713 159.474  1.00  0.00     0.041 C 
ATOM      4  O   UNL     1     153.670 150.937 158.889  1.00  0.00    -0.550 OA
ATOM      5  O   UNL     1     152.928 151.850 160.856  1.00  0.00    -0.550 OA
ENDBRANCH   2   3
ENDBRANCH   1   2
BRANCH   1   6
ATOM      6  C   UNL     1     152.424 154.838 158.144  1.00  0.00     0.000 C 
BRANCH   6   7
ATOM      7  C   UNL     1     153.788 155.343 158.640  1.00  0.00    -0.000 C 
BRANCH   7   8
ATOM      8  C   UNL     1     154.950 154.448 158.184  1.00  0.00    -0.003 C 
ATOM      9  C   UNL     1     154.700 153.893 156.785  1.00  0.00     0.004 C 
ENDBRANCH   7   8
ENDBRANCH   6   7
ENDBRANCH   1   6
TORSDOF 5
ENDMDL
MODEL 8
REMARK VINA RESULT:    -2.901     11.506     12.474
REMARK INTER + INTRA:          -4.173
REMARK INTER:                  -3.944
REMARK INTRA:                  -0.229
REMARK UNBOUND:                -0.424
REMARK SMILES CCCCCCC(=O)[O-]
REMARK SMILES IDX 5 1 6 2 7 3 8 4 9 5 4 6 3 7 2 8 1 9
REMARK H PARENT
REMARK Flexibility Score: inf
ROOT
ATOM      1  C   UNL     1     148.910 154.897 148.337  1.00  0.00     0.006 C 
ENDROOT
BRANCH   1   2
ATOM      2  C   UNL     1     150.264 155.579 148.559  1.00  0.00     0.053 C 
BRANCH   2   3
ATOM      3  C   UNL     1     150.309 156.898 147.856  1.00  0.00     0.041 C 
ATOM      4  O   UNL     1     150.911 157.873 148.377  1.00  0.00    -0.550 OA
ATOM      5  O   UNL     1     149.642 157.066 146.649  1.00  0.00    -0.550 OA
ENDBRANCH   2   3
ENDBRANCH   1   2
BRANCH   1   6
ATOM      6  C   UNL     1     149.060 153.658 147.442  1.00  0.00     0.000 C 
BRANCH   6   7
ATOM      7  C   UNL     1     150.487 153.087 147.457  1.00  0.00    -0.000 C 
BRANCH   7   8
ATOM      8  C   UNL     1     150.512 151.556 147.335  1.00  0.00    -0.003 C 
ATOM      9  C   UNL     1     149.294 151.046 146.571  1.00  0.00     0.004 C 
ENDBRANCH   7   8
ENDBRANCH   6   7
ENDBRANCH   1   6
TORSDOF 5
ENDMDL
