MODEL 1
REMARK VINA RESULT:    -6.529      0.000      0.000
REMARK INTER + INTRA:          -8.239
REMARK INTER:                  -8.056
REMARK INTRA:                  -0.183
REMARK UNBOUND:                -0.183
REMARK SMILES CCOC(=O)c1ccc(O)c(O)c1
REMARK SMILES IDX 4 1 5 2 3 3 2 4 1 5 6 6 13 7 7 8 11 9 8 10 9 11 12 12 10 14
REMARK H PARENT 12 13 10 15
REMARK Flexibility Score: inf
ROOT
ATOM      1  C   UNL     1     -31.392  -4.134 -17.133  1.00  0.00     0.338 C 
ATOM      2  O   UNL     1     -32.349  -3.833 -16.367  1.00  0.00    -0.246 OA
ENDROOT
BRANCH   1   3
ATOM      3  O   UNL     1     -30.516  -5.169 -16.787  1.00  0.00    -0.462 OA
BRANCH   3   4
ATOM      4  C   UNL     1     -30.884  -6.543 -16.855  1.00  0.00     0.230 C 
ATOM      5  C   UNL     1     -29.633  -7.399 -16.958  1.00  0.00     0.049 C 
ENDBRANCH   3   4
ENDBRANCH   1   3
BRANCH   1   6
ATOM      6  C   UNL     1     -31.193  -3.394 -18.399  1.00  0.00     0.064 A 
ATOM      7  C   UNL     1     -32.296  -2.892 -19.110  1.00  0.00     0.065 A 
ATOM      8  C   UNL     1     -29.901  -3.182 -18.909  1.00  0.00     0.020 A 
ATOM      9  C   UNL     1     -32.122  -2.189 -20.309  1.00  0.00     0.158 A 
ATOM     10  C   UNL     1     -29.719  -2.484 -20.105  1.00  0.00     0.051 A 
ATOM     11  C   UNL     1     -30.816  -1.983 -20.813  1.00  0.00     0.157 A 
BRANCH   9  12
ATOM     12  O   UNL     1     -33.265  -1.721 -20.960  1.00  0.00    -0.504 OA
ATOM     13  H   UNL     1     -33.245  -1.142 -21.788  1.00  0.00     0.293 HD
ENDBRANCH   9  12
BRANCH  11  14
ATOM     14  O   UNL     1     -30.565  -1.294 -22.001  1.00  0.00    -0.504 OA
ATOM     15  H   UNL     1     -30.218  -1.729 -22.845  1.00  0.00     0.293 HD
ENDBRANCH  11  14
ENDBRANCH   1   6
TORSDOF 5
ENDMDL
MODEL 2
REMARK VINA RESULT:    -6.141      1.523      2.303
REMARK INTER + INTRA:          -7.761
REMARK INTER:                  -7.491
REMARK INTRA:                  -0.269
REMARK UNBOUND:                -0.183
REMARK SMILES CCOC(=O)c1ccc(O)c(O)c1
REMARK SMILES IDX 4 1 5 2 3 3 2 4 1 5 6 6 13 7 7 8 11 9 8 10 9 11 12 12 10 14
REMARK H PARENT 12 13 10 15
REMARK Flexibility Score: inf
ROOT
ATOM      1  C   UNL     1     -32.180  -4.044 -17.066  1.00  0.00     0.338 C 
ATOM      2  O   UNL     1     -31.396  -4.774 -16.399  1.00  0.00    -0.246 OA
ENDROOT
BRANCH   1   3
ATOM      3  O   UNL     1     -33.513  -3.897 -16.664  1.00  0.00    -0.462 OA
BRANCH   3   4
ATOM      4  C   UNL     1     -34.424  -4.990 -16.605  1.00  0.00     0.230 C 
ATOM      5  C   UNL     1     -35.364  -4.933 -17.798  1.00  0.00     0.049 C 
ENDBRANCH   3   4
ENDBRANCH   1   3
BRANCH   1   6
ATOM      6  C   UNL     1     -31.695  -3.341 -18.274  1.00  0.00     0.064 A 
ATOM      7  C   UNL     1     -32.607  -2.783 -19.186  1.00  0.00     0.065 A 
ATOM      8  C   UNL     1     -30.319  -3.220 -18.529  1.00  0.00     0.020 A 
ATOM      9  C   UNL     1     -32.162  -2.114 -20.334  1.00  0.00     0.158 A 
ATOM     10  C   UNL     1     -29.867  -2.557 -19.671  1.00  0.00     0.051 A 
ATOM     11  C   UNL     1     -30.773  -2.000 -20.579  1.00  0.00     0.157 A 
BRANCH   9  12
ATOM     12  O   UNL     1     -33.126  -1.586 -21.195  1.00  0.00    -0.504 OA
ATOM     13  H   UNL     1     -33.034  -0.699 -21.669  1.00  0.00     0.293 HD
ENDBRANCH   9  12
BRANCH  11  14
ATOM     14  O   UNL     1     -30.256  -1.349 -21.702  1.00  0.00    -0.504 OA
ATOM     15  H   UNL     1     -29.537  -0.641 -21.662  1.00  0.00     0.293 HD
ENDBRANCH  11  14
ENDBRANCH   1   6
TORSDOF 5
ENDMDL
MODEL 3
REMARK VINA RESULT:    -5.878      2.093      3.169
REMARK INTER + INTRA:          -7.436
REMARK INTER:                  -7.131
REMARK INTRA:                  -0.305
REMARK UNBOUND:                -0.183
REMARK SMILES CCOC(=O)c1ccc(O)c(O)c1
REMARK SMILES IDX 4 1 5 2 3 3 2 4 1 5 6 6 13 7 7 8 11 9 8 10 9 11 12 12 10 14
REMARK H PARENT 12 13 10 15
REMARK Flexibility Score: inf
ROOT
ATOM      1  C   UNL     1     -33.453  -4.051 -17.034  1.00  0.00     0.338 C 
ATOM      2  O   UNL     1     -33.012  -4.223 -15.864  1.00  0.00    -0.246 OA
ENDROOT
BRANCH   1   3
ATOM      3  O   UNL     1     -34.753  -4.455 -17.358  1.00  0.00    -0.462 OA
BRANCH   3   4
ATOM      4  C   UNL     1     -35.902  -3.987 -16.657  1.00  0.00     0.230 C 
ATOM      5  C   UNL     1     -36.015  -2.480 -16.817  1.00  0.00     0.049 C 
ENDBRANCH   3   4
ENDBRANCH   1   3
BRANCH   1   6
ATOM      6  C   UNL     1     -32.599  -3.424 -18.067  1.00  0.00     0.064 A 
ATOM      7  C   UNL     1     -33.176  -2.843 -19.209  1.00  0.00     0.065 A 
ATOM      8  C   UNL     1     -31.202  -3.397 -17.923  1.00  0.00     0.020 A 
ATOM      9  C   UNL     1     -32.381  -2.245 -20.194  1.00  0.00     0.158 A 
ATOM     10  C   UNL     1     -30.402  -2.804 -18.901  1.00  0.00     0.051 A 
ATOM     11  C   UNL     1     -30.974  -2.226 -20.038  1.00  0.00     0.157 A 
BRANCH   9  12
ATOM     12  O   UNL     1     -33.024  -1.690 -21.302  1.00  0.00    -0.504 OA
ATOM     13  H   UNL     1     -33.563  -0.836 -21.272  1.00  0.00     0.293 HD
ENDBRANCH   9  12
BRANCH  11  14
ATOM     14  O   UNL     1     -30.118  -1.649 -20.978  1.00  0.00    -0.504 OA
ATOM     15  H   UNL     1     -29.237  -1.212 -20.747  1.00  0.00     0.293 HD
ENDBRANCH  11  14
ENDBRANCH   1   6
TORSDOF 5
ENDMDL
MODEL 4
REMARK VINA RESULT:    -5.314      2.591      4.830
REMARK INTER + INTRA:          -6.740
REMARK INTER:                  -6.625
REMARK INTRA:                  -0.115
REMARK UNBOUND:                -0.183
REMARK SMILES CCOC(=O)c1ccc(O)c(O)c1
REMARK SMILES IDX 4 1 5 2 3 3 2 4 1 5 6 6 13 7 7 8 11 9 8 10 9 11 12 12 10 14
REMARK H PARENT 12 13 10 15
REMARK Flexibility Score: inf
ROOT
ATOM      1  C   UNL     1     -31.571  -2.643 -18.362  1.00  0.00     0.338 C 
ATOM      2  O   UNL     1     -30.669  -2.749 -17.486  1.00  0.00    -0.246 OA
ENDROOT
BRANCH   1   3
ATOM      3  O   UNL     1     -31.365  -1.835 -19.485  1.00  0.00    -0.462 OA
BRANCH   3   4
ATOM      4  C   UNL     1     -31.087  -2.368 -20.777  1.00  0.00     0.230 C 
ATOM      5  C   UNL     1     -29.938  -1.599 -21.407  1.00  0.00     0.049 C 
ENDBRANCH   3   4
ENDBRANCH   1   3
BRANCH   1   6
ATOM      6  C   UNL     1     -32.849  -3.372 -18.204  1.00  0.00     0.064 A 
ATOM      7  C   UNL     1     -34.009  -2.922 -18.857  1.00  0.00     0.065 A 
ATOM      8  C   UNL     1     -32.924  -4.523 -17.402  1.00  0.00     0.020 A 
ATOM      9  C   UNL     1     -35.225  -3.602 -18.718  1.00  0.00     0.158 A 
ATOM     10  C   UNL     1     -34.133  -5.206 -17.257  1.00  0.00     0.051 A 
ATOM     11  C   UNL     1     -35.288  -4.760 -17.906  1.00  0.00     0.157 A 
BRANCH   9  12
ATOM     12  O   UNL     1     -36.336  -3.095 -19.396  1.00  0.00    -0.504 OA
ATOM     13  H   UNL     1     -37.031  -3.671 -19.849  1.00  0.00     0.293 HD
ENDBRANCH   9  12
BRANCH  11  14
ATOM     14  O   UNL     1     -36.464  -5.488 -17.720  1.00  0.00    -0.504 OA
ATOM     15  H   UNL     1     -37.306  -5.107 -17.311  1.00  0.00     0.293 HD
ENDBRANCH  11  14
ENDBRANCH   1   6
TORSDOF 5
ENDMDL
MODEL 5
REMARK VINA RESULT:    -5.241      6.669      8.375
REMARK INTER + INTRA:          -6.649
REMARK INTER:                  -6.368
REMARK INTRA:                  -0.281
REMARK UNBOUND:                -0.183
REMARK SMILES CCOC(=O)c1ccc(O)c(O)c1
REMARK SMILES IDX 4 1 5 2 3 3 2 4 1 5 6 6 13 7 7 8 11 9 8 10 9 11 12 12 10 14
REMARK H PARENT 12 13 10 15
REMARK Flexibility Score: inf
ROOT
ATOM      1  C   UNL     1     -37.995  -7.835 -14.986  1.00  0.00     0.338 C 
ATOM      2  O   UNL     1     -38.470  -8.324 -16.048  1.00  0.00    -0.246 OA
ENDROOT
BRANCH   1   3
ATOM      3  O   UNL     1     -38.466  -8.272 -13.743  1.00  0.00    -0.462 OA
BRANCH   3   4
ATOM      4  C   UNL     1     -39.853  -8.398 -13.446  1.00  0.00     0.230 C 
ATOM      5  C   UNL     1     -40.400  -7.054 -12.993  1.00  0.00     0.049 C 
ENDBRANCH   3   4
ENDBRANCH   1   3
BRANCH   1   6
ATOM      6  C   UNL     1     -36.941  -6.799 -15.051  1.00  0.00     0.064 A 
ATOM      7  C   UNL     1     -36.639  -6.021 -13.920  1.00  0.00     0.065 A 
ATOM      8  C   UNL     1     -36.225  -6.577 -16.239  1.00  0.00     0.020 A 
ATOM      9  C   UNL     1     -35.643  -5.037 -13.966  1.00  0.00     0.158 A 
ATOM     10  C   UNL     1     -35.232  -5.598 -16.294  1.00  0.00     0.051 A 
ATOM     11  C   UNL     1     -34.930  -4.823 -15.170  1.00  0.00     0.157 A 
BRANCH   9  12
ATOM     12  O   UNL     1     -35.399  -4.302 -12.804  1.00  0.00    -0.504 OA
ATOM     13  H   UNL     1     -36.042  -4.245 -12.028  1.00  0.00     0.293 HD
ENDBRANCH   9  12
BRANCH  11  14
ATOM     14  O   UNL     1     -33.925  -3.861 -15.291  1.00  0.00    -0.504 OA
ATOM     15  H   UNL     1     -33.270  -3.633 -14.557  1.00  0.00     0.293 HD
ENDBRANCH  11  14
ENDBRANCH   1   6
TORSDOF 5
ENDMDL
MODEL 6
REMARK VINA RESULT:    -5.120      7.206      9.360
REMARK INTER + INTRA:          -6.501
REMARK INTER:                  -6.167
REMARK INTRA:                  -0.333
REMARK UNBOUND:                -0.183
REMARK SMILES CCOC(=O)c1ccc(O)c(O)c1
REMARK SMILES IDX 4 1 5 2 3 3 2 4 1 5 6 6 13 7 7 8 11 9 8 10 9 11 12 12 10 14
REMARK H PARENT 12 13 10 15
REMARK Flexibility Score: inf
ROOT
ATOM      1  C   UNL     1     -36.157  -5.039 -13.365  1.00  0.00     0.338 C 
ATOM      2  O   UNL     1     -36.192  -4.319 -12.329  1.00  0.00    -0.246 OA
ENDROOT
BRANCH   1   3
ATOM      3  O   UNL     1     -35.151  -4.845 -14.319  1.00  0.00    -0.462 OA
BRANCH   3   4
ATOM      4  C   UNL     1     -35.431  -4.516 -15.676  1.00  0.00     0.230 C 
ATOM      5  C   UNL     1     -34.932  -5.630 -16.582  1.00  0.00     0.049 C 
ENDBRANCH   3   4
ENDBRANCH   1   3
BRANCH   1   6
ATOM      6  C   UNL     1     -37.177  -6.089 -13.575  1.00  0.00     0.064 A 
ATOM      7  C   UNL     1     -38.536  -5.748 -13.681  1.00  0.00     0.065 A 
ATOM      8  C   UNL     1     -36.806  -7.440 -13.673  1.00  0.00     0.020 A 
ATOM      9  C   UNL     1     -39.514  -6.732 -13.881  1.00  0.00     0.158 A 
ATOM     10  C   UNL     1     -37.774  -8.427 -13.871  1.00  0.00     0.051 A 
ATOM     11  C   UNL     1     -39.126  -8.089 -13.977  1.00  0.00     0.157 A 
BRANCH   9  12
ATOM     12  O   UNL     1     -40.844  -6.318 -13.976  1.00  0.00    -0.504 OA
ATOM     13  H   UNL     1     -41.491  -6.654 -14.675  1.00  0.00     0.293 HD
ENDBRANCH   9  12
BRANCH  11  14
ATOM     14  O   UNL     1     -40.044  -9.124 -14.175  1.00  0.00    -0.504 OA
ATOM     15  H   UNL     1     -40.577  -9.252 -15.024  1.00  0.00     0.293 HD
ENDBRANCH  11  14
ENDBRANCH   1   6
TORSDOF 5
ENDMDL
MODEL 7
REMARK VINA RESULT:    -5.041      4.246      5.021
REMARK INTER + INTRA:          -6.403
REMARK INTER:                  -6.219
REMARK INTRA:                  -0.184
REMARK UNBOUND:                -0.183
REMARK SMILES CCOC(=O)c1ccc(O)c(O)c1
REMARK SMILES IDX 4 1 5 2 3 3 2 4 1 5 6 6 13 7 7 8 11 9 8 10 9 11 12 12 10 14
REMARK H PARENT 12 13 10 15
REMARK Flexibility Score: inf
ROOT
ATOM      1  C   UNL     1     -35.700  -5.935 -16.062  1.00  0.00     0.338 C 
ATOM      2  O   UNL     1     -35.833  -5.560 -14.865  1.00  0.00    -0.246 OA
ENDROOT
BRANCH   1   3
ATOM      3  O   UNL     1     -36.044  -7.241 -16.429  1.00  0.00    -0.462 OA
BRANCH   3   4
ATOM      4  C   UNL     1     -36.816  -8.098 -15.592  1.00  0.00     0.230 C 
ATOM      5  C   UNL     1     -38.293  -7.908 -15.895  1.00  0.00     0.049 C 
ENDBRANCH   3   4
ENDBRANCH   1   3
BRANCH   1   6
ATOM      6  C   UNL     1     -35.181  -4.998 -17.083  1.00  0.00     0.064 A 
ATOM      7  C   UNL     1     -36.054  -4.134 -17.764  1.00  0.00     0.065 A 
ATOM      8  C   UNL     1     -33.809  -4.956 -17.386  1.00  0.00     0.020 A 
ATOM      9  C   UNL     1     -35.577  -3.241 -18.732  1.00  0.00     0.158 A 
ATOM     10  C   UNL     1     -33.325  -4.070 -18.350  1.00  0.00     0.051 A 
ATOM     11  C   UNL     1     -34.193  -3.209 -19.029  1.00  0.00     0.157 A 
BRANCH   9  12
ATOM     12  O   UNL     1     -36.504  -2.413 -19.368  1.00  0.00    -0.504 OA
ATOM     13  H   UNL     1     -36.406  -2.081 -20.317  1.00  0.00     0.293 HD
ENDBRANCH   9  12
BRANCH  11  14
ATOM     14  O   UNL     1     -33.645  -2.347 -19.981  1.00  0.00    -0.504 OA
ATOM     15  H   UNL     1     -33.392  -1.387 -19.795  1.00  0.00     0.293 HD
ENDBRANCH  11  14
ENDBRANCH   1   6
TORSDOF 5
ENDMDL
MODEL 8
REMARK VINA RESULT:    -4.977      6.297      7.737
REMARK INTER + INTRA:          -6.324
REMARK INTER:                  -6.043
REMARK INTRA:                  -0.281
REMARK UNBOUND:                -0.183
REMARK SMILES CCOC(=O)c1ccc(O)c(O)c1
REMARK SMILES IDX 4 1 5 2 3 3 2 4 1 5 6 6 13 7 7 8 11 9 8 10 9 11 12 12 10 14
REMARK H PARENT 12 13 10 15
REMARK Flexibility Score: inf
ROOT
ATOM      1  C   UNL     1     -36.968  -7.879 -13.989  1.00  0.00     0.338 C 
ATOM      2  O   UNL     1     -36.431  -8.405 -12.975  1.00  0.00    -0.246 OA
ENDROOT
BRANCH   1   3
ATOM      3  O   UNL     1     -38.123  -8.443 -14.541  1.00  0.00    -0.462 OA
BRANCH   3   4
ATOM      4  C   UNL     1     -39.299  -8.692 -13.777  1.00  0.00     0.230 C 
ATOM      5  C   UNL     1     -39.899  -7.371 -13.323  1.00  0.00     0.049 C 
ENDBRANCH   3   4
ENDBRANCH   1   3
BRANCH   1   6
ATOM      6  C   UNL     1     -36.379  -6.666 -14.596  1.00  0.00     0.064 A 
ATOM      7  C   UNL     1     -36.304  -6.535 -15.993  1.00  0.00     0.065 A 
ATOM      8  C   UNL     1     -35.886  -5.627 -13.789  1.00  0.00     0.020 A 
ATOM      9  C   UNL     1     -35.750  -5.391 -16.583  1.00  0.00     0.158 A 
ATOM     10  C   UNL     1     -35.331  -4.484 -14.368  1.00  0.00     0.051 A 
ATOM     11  C   UNL     1     -35.256  -4.352 -15.758  1.00  0.00     0.157 A 
BRANCH   9  12
ATOM     12  O   UNL     1     -35.709  -5.332 -17.977  1.00  0.00    -0.504 OA
ATOM     13  H   UNL     1     -35.891  -6.120 -18.581  1.00  0.00     0.293 HD
ENDBRANCH   9  12
BRANCH  11  14
ATOM     14  O   UNL     1     -34.690  -3.184 -16.274  1.00  0.00    -0.504 OA
ATOM     15  H   UNL     1     -34.022  -3.167 -17.031  1.00  0.00     0.293 HD
ENDBRANCH  11  14
ENDBRANCH   1   6
TORSDOF 5
ENDMDL
