MODEL 1
REMARK VINA RESULT:    -6.897      0.000      0.000
REMARK INTER + INTRA:          -8.475
REMARK INTER:                  -8.308
REMARK INTRA:                  -0.167
REMARK UNBOUND:                -0.167
REMARK SMILES O=c1c(O)c(-c2ccc(O)c(O)c2)oc2cc(O)cc(O)c12
REMARK SMILES IDX 5 1 3 2 2 3 1 4 22 5 20 6 19 7 17 8 16 9 15 10 14 11 6 12
REMARK SMILES IDX 7 13 8 14 9 15 13 16 11 17 10 18 12 20 4 22 21 24 18 26
REMARK H PARENT 10 19 12 21 4 23 21 25 18 27
REMARK Flexibility Score: inf
ROOT
ATOM      1  C   UNL     1      -1.573   6.767  -1.254  1.00  0.00     0.180 A 
ATOM      2  C   UNL     1      -0.346   6.748  -0.567  1.00  0.00     0.208 A 
ATOM      3  C   UNL     1       0.848   6.768  -1.306  1.00  0.00     0.238 A 
ATOM      4  O   UNL     1       1.941   6.806  -0.684  1.00  0.00    -0.285 OA
ATOM      5  C   UNL     1       0.801   6.792  -2.721  1.00  0.00     0.111 A 
ATOM      6  C   UNL     1       1.949   6.774  -3.569  1.00  0.00     0.134 A 
ATOM      7  C   UNL     1       1.788   6.933  -4.951  1.00  0.00     0.093 A 
ATOM      8  C   UNL     1       0.516   7.043  -5.521  1.00  0.00     0.123 A 
ATOM      9  C   UNL     1      -0.612   7.001  -4.705  1.00  0.00     0.094 A 
ATOM     10  C   UNL     1      -0.483   6.881  -3.320  1.00  0.00     0.146 A 
ATOM     11  O   UNL     1      -1.583   6.856  -2.579  1.00  0.00    -0.452 OA
ENDROOT
BRANCH   1  12
ATOM     12  C   UNL     1      -2.873   6.722  -0.547  1.00  0.00     0.025 A 
ATOM     13  C   UNL     1      -3.788   7.773  -0.713  1.00  0.00     0.016 A 
ATOM     14  C   UNL     1      -5.028   7.741  -0.072  1.00  0.00     0.051 A 
ATOM     15  C   UNL     1      -5.380   6.653   0.733  1.00  0.00     0.157 A 
ATOM     16  C   UNL     1      -3.237   5.619   0.247  1.00  0.00     0.062 A 
ATOM     17  C   UNL     1      -4.482   5.583   0.890  1.00  0.00     0.158 A 
BRANCH  15  18
ATOM     18  O   UNL     1      -6.624   6.650   1.362  1.00  0.00    -0.504 OA
ATOM     19  H   UNL     1      -7.229   7.462   1.363  1.00  0.00     0.293 HD
ENDBRANCH  15  18
BRANCH  17  20
ATOM     20  O   UNL     1      -4.833   4.489   1.680  1.00  0.00    -0.504 OA
ATOM     21  H   UNL     1      -5.076   4.597   2.658  1.00  0.00     0.293 HD
ENDBRANCH  17  20
ENDBRANCH   1  12
BRANCH   2  22
ATOM     22  O   UNL     1      -0.323   6.746   0.830  1.00  0.00    -0.502 OA
ATOM     23  H   UNL     1       0.246   7.390   1.366  1.00  0.00     0.293 HD
ENDBRANCH   2  22
BRANCH   6  24
ATOM     24  O   UNL     1       3.254   6.578  -3.112  1.00  0.00    -0.507 OA
ATOM     25  H   UNL     1       3.555   6.705  -2.157  1.00  0.00     0.293 HD
ENDBRANCH   6  24
BRANCH   8  26
ATOM     26  O   UNL     1       0.364   7.184  -6.898  1.00  0.00    -0.508 OA
ATOM     27  H   UNL     1      -0.426   7.679  -7.296  1.00  0.00     0.293 HD
ENDBRANCH   8  26
TORSDOF 6
ENDMDL
MODEL 2
REMARK VINA RESULT:    -6.758      3.377      5.454
REMARK INTER + INTRA:          -8.308
REMARK INTER:                  -8.240
REMARK INTRA:                  -0.068
REMARK UNBOUND:                -0.167
REMARK SMILES O=c1c(O)c(-c2ccc(O)c(O)c2)oc2cc(O)cc(O)c12
REMARK SMILES IDX 5 1 3 2 2 3 1 4 22 5 20 6 19 7 17 8 16 9 15 10 14 11 6 12
REMARK SMILES IDX 7 13 8 14 9 15 13 16 11 17 10 18 12 20 4 22 21 24 18 26
REMARK H PARENT 10 19 12 21 4 23 21 25 18 27
REMARK Flexibility Score: inf
ROOT
ATOM      1  C   UNL     1      -1.863   4.917  -1.753  1.00  0.00     0.180 A 
ATOM      2  C   UNL     1      -2.362   6.130  -1.245  1.00  0.00     0.208 A 
ATOM      3  C   UNL     1      -1.600   6.839  -0.303  1.00  0.00     0.238 A 
ATOM      4  O   UNL     1      -2.026   7.950   0.105  1.00  0.00    -0.285 OA
ATOM      5  C   UNL     1      -0.356   6.319   0.131  1.00  0.00     0.111 A 
ATOM      6  C   UNL     1       0.480   6.935   1.111  1.00  0.00     0.134 A 
ATOM      7  C   UNL     1       1.749   6.401   1.368  1.00  0.00     0.093 A 
ATOM      8  C   UNL     1       2.184   5.237   0.729  1.00  0.00     0.123 A 
ATOM      9  C   UNL     1       1.350   4.597  -0.185  1.00  0.00     0.094 A 
ATOM     10  C   UNL     1       0.094   5.125  -0.490  1.00  0.00     0.146 A 
ATOM     11  O   UNL     1      -0.664   4.490  -1.374  1.00  0.00    -0.452 OA
ENDROOT
BRANCH   1  12
ATOM     12  C   UNL     1      -2.621   4.100  -2.728  1.00  0.00     0.025 A 
ATOM     13  C   UNL     1      -2.981   2.785  -2.396  1.00  0.00     0.016 A 
ATOM     14  C   UNL     1      -3.713   2.003  -3.292  1.00  0.00     0.051 A 
ATOM     15  C   UNL     1      -4.110   2.527  -4.527  1.00  0.00     0.157 A 
ATOM     16  C   UNL     1      -3.037   4.632  -3.962  1.00  0.00     0.062 A 
ATOM     17  C   UNL     1      -3.775   3.850  -4.862  1.00  0.00     0.158 A 
BRANCH  15  18
ATOM     18  O   UNL     1      -4.838   1.723  -5.402  1.00  0.00    -0.504 OA
ATOM     19  H   UNL     1      -5.660   2.062  -5.888  1.00  0.00     0.293 HD
ENDBRANCH  15  18
BRANCH  17  20
ATOM     20  O   UNL     1      -4.179   4.383  -6.086  1.00  0.00    -0.504 OA
ATOM     21  H   UNL     1      -4.014   3.893  -6.958  1.00  0.00     0.293 HD
ENDBRANCH  17  20
ENDBRANCH   1  12
BRANCH   2  22
ATOM     22  O   UNL     1      -3.582   6.635  -1.704  1.00  0.00    -0.502 OA
ATOM     23  H   UNL     1      -3.748   7.625  -1.831  1.00  0.00     0.293 HD
ENDBRANCH   2  22
BRANCH   6  24
ATOM     24  O   UNL     1       0.104   8.044   1.872  1.00  0.00    -0.507 OA
ATOM     25  H   UNL     1       0.666   8.874   1.996  1.00  0.00     0.293 HD
ENDBRANCH   6  24
BRANCH   8  26
ATOM     26  O   UNL     1       3.442   4.703   1.002  1.00  0.00    -0.508 OA
ATOM     27  H   UNL     1       4.092   4.471   0.260  1.00  0.00     0.293 HD
ENDBRANCH   8  26
TORSDOF 6
ENDMDL
MODEL 3
REMARK VINA RESULT:    -6.748      3.563      7.457
REMARK INTER + INTRA:          -8.295
REMARK INTER:                  -8.055
REMARK INTRA:                  -0.240
REMARK UNBOUND:                -0.167
REMARK SMILES O=c1c(O)c(-c2ccc(O)c(O)c2)oc2cc(O)cc(O)c12
REMARK SMILES IDX 5 1 3 2 2 3 1 4 22 5 20 6 19 7 17 8 16 9 15 10 14 11 6 12
REMARK SMILES IDX 7 13 8 14 9 15 13 16 11 17 10 18 12 20 4 22 21 24 18 26
REMARK H PARENT 10 19 12 21 4 23 21 25 18 27
REMARK Flexibility Score: inf
ROOT
ATOM      1  C   UNL     1       1.934   6.038  -3.877  1.00  0.00     0.180 A 
ATOM      2  C   UNL     1       2.300   4.701  -4.114  1.00  0.00     0.208 A 
ATOM      3  C   UNL     1       2.180   3.767  -3.073  1.00  0.00     0.238 A 
ATOM      4  O   UNL     1       2.457   2.563  -3.307  1.00  0.00    -0.285 OA
ATOM      5  C   UNL     1       1.711   4.184  -1.803  1.00  0.00     0.111 A 
ATOM      6  C   UNL     1       1.587   3.331  -0.666  1.00  0.00     0.134 A 
ATOM      7  C   UNL     1       0.989   3.820   0.502  1.00  0.00     0.093 A 
ATOM      8  C   UNL     1       0.570   5.150   0.594  1.00  0.00     0.123 A 
ATOM      9  C   UNL     1       0.741   6.006  -0.491  1.00  0.00     0.094 A 
ATOM     10  C   UNL     1       1.301   5.538  -1.682  1.00  0.00     0.146 A 
ATOM     11  O   UNL     1       1.436   6.384  -2.696  1.00  0.00    -0.452 OA
ENDROOT
BRANCH   1  12
ATOM     12  C   UNL     1       2.057   7.085  -4.917  1.00  0.00     0.025 A 
ATOM     13  C   UNL     1       1.136   7.119  -5.975  1.00  0.00     0.016 A 
ATOM     14  C   UNL     1       1.220   8.109  -6.957  1.00  0.00     0.051 A 
ATOM     15  C   UNL     1       2.215   9.090  -6.888  1.00  0.00     0.157 A 
ATOM     16  C   UNL     1       3.045   8.083  -4.839  1.00  0.00     0.062 A 
ATOM     17  C   UNL     1       3.130   9.080  -5.821  1.00  0.00     0.158 A 
BRANCH  15  18
ATOM     18  O   UNL     1       2.276  10.064  -7.883  1.00  0.00    -0.504 OA
ATOM     19  H   UNL     1       1.503  10.691  -8.070  1.00  0.00     0.293 HD
ENDBRANCH  15  18
BRANCH  17  20
ATOM     20  O   UNL     1       4.116  10.063  -5.739  1.00  0.00    -0.504 OA
ATOM     21  H   UNL     1       3.885  11.050  -5.763  1.00  0.00     0.293 HD
ENDBRANCH  17  20
ENDBRANCH   1  12
BRANCH   2  22
ATOM     22  O   UNL     1       2.740   4.307  -5.381  1.00  0.00    -0.502 OA
ATOM     23  H   UNL     1       2.101   4.050  -6.123  1.00  0.00     0.293 HD
ENDBRANCH   2  22
BRANCH   6  24
ATOM     24  O   UNL     1       2.057   2.016  -0.622  1.00  0.00    -0.507 OA
ATOM     25  H   UNL     1       1.517   1.222  -0.310  1.00  0.00     0.293 HD
ENDBRANCH   6  24
BRANCH   8  26
ATOM     26  O   UNL     1      -0.010   5.634   1.765  1.00  0.00    -0.508 OA
ATOM     27  H   UNL     1      -0.639   6.429   1.756  1.00  0.00     0.293 HD
ENDBRANCH   8  26
TORSDOF 6
ENDMDL
MODEL 4
REMARK VINA RESULT:    -6.732      3.851      5.951
REMARK INTER + INTRA:          -8.276
REMARK INTER:                  -8.168
REMARK INTRA:                  -0.108
REMARK UNBOUND:                -0.167
REMARK SMILES O=c1c(O)c(-c2ccc(O)c(O)c2)oc2cc(O)cc(O)c12
REMARK SMILES IDX 5 1 3 2 2 3 1 4 22 5 20 6 19 7 17 8 16 9 15 10 14 11 6 12
REMARK SMILES IDX 7 13 8 14 9 15 13 16 11 17 10 18 12 20 4 22 21 24 18 26
REMARK H PARENT 10 19 12 21 4 23 21 25 18 27
REMARK Flexibility Score: inf
ROOT
ATOM      1  C   UNL     1       1.030   4.600  -2.651  1.00  0.00     0.180 A 
ATOM      2  C   UNL     1       1.722   5.510  -3.470  1.00  0.00     0.208 A 
ATOM      3  C   UNL     1       1.043   6.117  -4.539  1.00  0.00     0.238 A 
ATOM      4  O   UNL     1       1.652   6.970  -5.234  1.00  0.00    -0.285 OA
ATOM      5  C   UNL     1      -0.313   5.794  -4.785  1.00  0.00     0.111 A 
ATOM      6  C   UNL     1      -1.087   6.319  -5.864  1.00  0.00     0.134 A 
ATOM      7  C   UNL     1      -2.456   6.033  -5.935  1.00  0.00     0.093 A 
ATOM      8  C   UNL     1      -3.064   5.188  -5.003  1.00  0.00     0.123 A 
ATOM      9  C   UNL     1      -2.304   4.624  -3.982  1.00  0.00     0.094 A 
ATOM     10  C   UNL     1      -0.944   4.919  -3.863  1.00  0.00     0.146 A 
ATOM     11  O   UNL     1      -0.259   4.369  -2.869  1.00  0.00    -0.452 OA
ENDROOT
BRANCH   1  12
ATOM     12  C   UNL     1       1.685   3.901  -1.522  1.00  0.00     0.025 A 
ATOM     13  C   UNL     1       1.798   2.503  -1.547  1.00  0.00     0.016 A 
ATOM     14  C   UNL     1       2.430   1.824  -0.502  1.00  0.00     0.051 A 
ATOM     15  C   UNL     1       2.972   2.532   0.575  1.00  0.00     0.157 A 
ATOM     16  C   UNL     1       2.249   4.613  -0.448  1.00  0.00     0.062 A 
ATOM     17  C   UNL     1       2.886   3.935   0.601  1.00  0.00     0.158 A 
BRANCH  15  18
ATOM     18  O   UNL     1       3.595   1.828   1.604  1.00  0.00    -0.504 OA
ATOM     19  H   UNL     1       3.450   2.059   2.580  1.00  0.00     0.293 HD
ENDBRANCH  15  18
BRANCH  17  20
ATOM     20  O   UNL     1       3.437   4.647   1.665  1.00  0.00    -0.504 OA
ATOM     21  H   UNL     1       2.959   5.442   2.075  1.00  0.00     0.293 HD
ENDBRANCH  17  20
ENDBRANCH   1  12
BRANCH   2  22
ATOM     22  O   UNL     1       3.055   5.829  -3.196  1.00  0.00    -0.502 OA
ATOM     23  H   UNL     1       3.798   5.142  -3.236  1.00  0.00     0.293 HD
ENDBRANCH   2  22
BRANCH   6  24
ATOM     24  O   UNL     1      -0.559   7.097  -6.898  1.00  0.00    -0.507 OA
ATOM     25  H   UNL     1      -0.659   8.098  -6.973  1.00  0.00     0.293 HD
ENDBRANCH   6  24
BRANCH   8  26
ATOM     26  O   UNL     1      -4.424   4.895  -5.089  1.00  0.00    -0.508 OA
ATOM     27  H   UNL     1      -4.776   3.960  -4.919  1.00  0.00     0.293 HD
ENDBRANCH   8  26
TORSDOF 6
ENDMDL
MODEL 5
REMARK VINA RESULT:    -6.685      2.961      7.582
REMARK INTER + INTRA:          -8.219
REMARK INTER:                  -7.956
REMARK INTRA:                  -0.263
REMARK UNBOUND:                -0.167
REMARK SMILES O=c1c(O)c(-c2ccc(O)c(O)c2)oc2cc(O)cc(O)c12
REMARK SMILES IDX 5 1 3 2 2 3 1 4 22 5 20 6 19 7 17 8 16 9 15 10 14 11 6 12
REMARK SMILES IDX 7 13 8 14 9 15 13 16 11 17 10 18 12 20 4 22 21 24 18 26
REMARK H PARENT 10 19 12 21 4 23 21 25 18 27
REMARK Flexibility Score: inf
ROOT
ATOM      1  C   UNL     1       0.719   4.701  -3.150  1.00  0.00     0.180 A 
ATOM      2  C   UNL     1      -0.547   4.864  -3.741  1.00  0.00     0.208 A 
ATOM      3  C   UNL     1      -1.534   5.583  -3.049  1.00  0.00     0.238 A 
ATOM      4  O   UNL     1      -2.646   5.771  -3.606  1.00  0.00    -0.285 OA
ATOM      5  C   UNL     1      -1.249   6.116  -1.768  1.00  0.00     0.111 A 
ATOM      6  C   UNL     1      -2.187   6.828  -0.961  1.00  0.00     0.134 A 
ATOM      7  C   UNL     1      -1.759   7.424   0.232  1.00  0.00     0.093 A 
ATOM      8  C   UNL     1      -0.442   7.279   0.677  1.00  0.00     0.123 A 
ATOM      9  C   UNL     1       0.464   6.536  -0.075  1.00  0.00     0.094 A 
ATOM     10  C   UNL     1       0.077   5.960  -1.287  1.00  0.00     0.146 A 
ATOM     11  O   UNL     1       0.975   5.270  -1.978  1.00  0.00    -0.452 OA
ENDROOT
BRANCH   1  12
ATOM     12  C   UNL     1       1.802   3.935  -3.807  1.00  0.00     0.025 A 
ATOM     13  C   UNL     1       1.734   2.534  -3.840  1.00  0.00     0.016 A 
ATOM     14  C   UNL     1       2.734   1.790  -4.472  1.00  0.00     0.051 A 
ATOM     15  C   UNL     1       3.808   2.435  -5.093  1.00  0.00     0.157 A 
ATOM     16  C   UNL     1       2.872   4.582  -4.450  1.00  0.00     0.062 A 
ATOM     17  C   UNL     1       3.876   3.839  -5.087  1.00  0.00     0.158 A 
BRANCH  15  18
ATOM     18  O   UNL     1       4.793   1.668  -5.714  1.00  0.00    -0.504 OA
ATOM     19  H   UNL     1       4.724   1.388  -6.685  1.00  0.00     0.293 HD
ENDBRANCH  15  18
BRANCH  17  20
ATOM     20  O   UNL     1       4.937   4.489  -5.717  1.00  0.00    -0.504 OA
ATOM     21  H   UNL     1       5.537   4.007  -6.377  1.00  0.00     0.293 HD
ENDBRANCH  17  20
ENDBRANCH   1  12
BRANCH   2  22
ATOM     22  O   UNL     1      -0.799   4.347  -5.015  1.00  0.00    -0.502 OA
ATOM     23  H   UNL     1      -0.081   3.900  -5.572  1.00  0.00     0.293 HD
ENDBRANCH   2  22
BRANCH   6  24
ATOM     24  O   UNL     1      -3.545   6.953  -1.268  1.00  0.00    -0.507 OA
ATOM     25  H   UNL     1      -3.915   7.071  -2.199  1.00  0.00     0.293 HD
ENDBRANCH   6  24
BRANCH   8  26
ATOM     26  O   UNL     1      -0.028   7.862   1.873  1.00  0.00    -0.508 OA
ATOM     27  H   UNL     1       0.696   7.442   2.444  1.00  0.00     0.293 HD
ENDBRANCH   8  26
TORSDOF 6
ENDMDL
MODEL 6
REMARK VINA RESULT:    -6.646      1.350      2.055
REMARK INTER + INTRA:          -8.173
REMARK INTER:                  -7.865
REMARK INTRA:                  -0.308
REMARK UNBOUND:                -0.167
REMARK SMILES O=c1c(O)c(-c2ccc(O)c(O)c2)oc2cc(O)cc(O)c12
REMARK SMILES IDX 5 1 3 2 2 3 1 4 22 5 20 6 19 7 17 8 16 9 15 10 14 11 6 12
REMARK SMILES IDX 7 13 8 14 9 15 13 16 11 17 10 18 12 20 4 22 21 24 18 26
REMARK H PARENT 10 19 12 21 4 23 21 25 18 27
REMARK Flexibility Score: inf
ROOT
ATOM      1  C   UNL     1      -1.504   5.159  -1.278  1.00  0.00     0.180 A 
ATOM      2  C   UNL     1      -0.251   5.372  -0.676  1.00  0.00     0.208 A 
ATOM      3  C   UNL     1       0.813   5.836  -1.464  1.00  0.00     0.238 A 
ATOM      4  O   UNL     1       1.916   6.076  -0.909  1.00  0.00    -0.285 OA
ATOM      5  C   UNL     1       0.617   6.067  -2.848  1.00  0.00     0.111 A 
ATOM      6  C   UNL     1       1.636   6.500  -3.749  1.00  0.00     0.134 A 
ATOM      7  C   UNL     1       1.298   6.822  -5.069  1.00  0.00     0.093 A 
ATOM      8  C   UNL     1      -0.010   6.665  -5.537  1.00  0.00     0.123 A 
ATOM      9  C   UNL     1      -0.998   6.186  -4.680  1.00  0.00     0.094 A 
ATOM     10  C   UNL     1      -0.700   5.891  -3.348  1.00  0.00     0.146 A 
ATOM     11  O   UNL     1      -1.673   5.448  -2.563  1.00  0.00    -0.452 OA
ENDROOT
BRANCH   1  12
ATOM     12  C   UNL     1      -2.667   4.647  -0.518  1.00  0.00     0.025 A 
ATOM     13  C   UNL     1      -2.786   3.269  -0.283  1.00  0.00     0.016 A 
ATOM     14  C   UNL     1      -3.863   2.764   0.449  1.00  0.00     0.051 A 
ATOM     15  C   UNL     1      -4.830   3.630   0.971  1.00  0.00     0.157 A 
ATOM     16  C   UNL     1      -3.629   5.518   0.025  1.00  0.00     0.062 A 
ATOM     17  C   UNL     1      -4.710   5.014   0.763  1.00  0.00     0.158 A 
BRANCH  15  18
ATOM     18  O   UNL     1      -5.895   3.098   1.696  1.00  0.00    -0.504 OA
ATOM     19  H   UNL     1      -5.829   2.909   2.689  1.00  0.00     0.293 HD
ENDBRANCH  15  18
BRANCH  17  20
ATOM     20  O   UNL     1      -5.663   5.884   1.292  1.00  0.00    -0.504 OA
ATOM     21  H   UNL     1      -6.246   5.618   2.077  1.00  0.00     0.293 HD
ENDBRANCH  17  20
ENDBRANCH   1  12
BRANCH   2  22
ATOM     22  O   UNL     1      -0.086   5.157   0.696  1.00  0.00    -0.502 OA
ATOM     23  H   UNL     1      -0.778   4.678   1.258  1.00  0.00     0.293 HD
ENDBRANCH   2  22
BRANCH   6  24
ATOM     24  O   UNL     1       2.987   6.602  -3.408  1.00  0.00    -0.507 OA
ATOM     25  H   UNL     1       3.559   5.834  -3.089  1.00  0.00     0.293 HD
ENDBRANCH   6  24
BRANCH   8  26
ATOM     26  O   UNL     1      -0.334   6.973  -6.857  1.00  0.00    -0.508 OA
ATOM     27  H   UNL     1      -0.952   6.382  -7.402  1.00  0.00     0.293 HD
ENDBRANCH   8  26
TORSDOF 6
ENDMDL
MODEL 7
REMARK VINA RESULT:    -6.579      4.197      6.356
REMARK INTER + INTRA:          -8.092
REMARK INTER:                  -7.802
REMARK INTRA:                  -0.290
REMARK UNBOUND:                -0.167
REMARK SMILES O=c1c(O)c(-c2ccc(O)c(O)c2)oc2cc(O)cc(O)c12
REMARK SMILES IDX 5 1 3 2 2 3 1 4 22 5 20 6 19 7 17 8 16 9 15 10 14 11 6 12
REMARK SMILES IDX 7 13 8 14 9 15 13 16 11 17 10 18 12 20 4 22 21 24 18 26
REMARK H PARENT 10 19 12 21 4 23 21 25 18 27
REMARK Flexibility Score: inf
ROOT
ATOM      1  C   UNL     1      -1.098   3.622  -0.532  1.00  0.00     0.180 A 
ATOM      2  C   UNL     1      -1.617   2.504   0.146  1.00  0.00     0.208 A 
ATOM      3  C   UNL     1      -2.630   1.747  -0.465  1.00  0.00     0.238 A 
ATOM      4  O   UNL     1      -3.052   0.718   0.122  1.00  0.00    -0.285 OA
ATOM      5  C   UNL     1      -3.121   2.126  -1.738  1.00  0.00     0.111 A 
ATOM      6  C   UNL     1      -4.172   1.454  -2.433  1.00  0.00     0.134 A 
ATOM      7  C   UNL     1      -4.488   1.835  -3.743  1.00  0.00     0.093 A 
ATOM      8  C   UNL     1      -3.834   2.906  -4.359  1.00  0.00     0.123 A 
ATOM      9  C   UNL     1      -2.849   3.604  -3.666  1.00  0.00     0.094 A 
ATOM     10  C   UNL     1      -2.486   3.225  -2.372  1.00  0.00     0.146 A 
ATOM     11  O   UNL     1      -1.534   3.911  -1.752  1.00  0.00    -0.452 OA
ENDROOT
BRANCH   1  12
ATOM     12  C   UNL     1      -0.048   4.483   0.058  1.00  0.00     0.025 A 
ATOM     13  C   UNL     1       1.293   4.076  -0.000  1.00  0.00     0.016 A 
ATOM     14  C   UNL     1       2.302   4.882   0.532  1.00  0.00     0.051 A 
ATOM     15  C   UNL     1       1.989   6.113   1.116  1.00  0.00     0.157 A 
ATOM     16  C   UNL     1      -0.360   5.731   0.628  1.00  0.00     0.062 A 
ATOM     17  C   UNL     1       0.652   6.543   1.161  1.00  0.00     0.158 A 
BRANCH  15  18
ATOM     18  O   UNL     1       3.017   6.896   1.641  1.00  0.00    -0.504 OA
ATOM     19  H   UNL     1       3.377   7.708   1.154  1.00  0.00     0.293 HD
ENDBRANCH  15  18
BRANCH  17  20
ATOM     20  O   UNL     1       0.334   7.776   1.730  1.00  0.00    -0.504 OA
ATOM     21  H   UNL     1       1.050   8.460   1.946  1.00  0.00     0.293 HD
ENDBRANCH  17  20
ENDBRANCH   1  12
BRANCH   2  22
ATOM     22  O   UNL     1      -1.103   2.137   1.392  1.00  0.00    -0.502 OA
ATOM     23  H   UNL     1      -0.471   1.354   1.511  1.00  0.00     0.293 HD
ENDBRANCH   2  22
BRANCH   6  24
ATOM     24  O   UNL     1      -4.949   0.435  -1.876  1.00  0.00    -0.507 OA
ATOM     25  H   UNL     1      -5.323  -0.350  -2.389  1.00  0.00     0.293 HD
ENDBRANCH   6  24
BRANCH   8  26
ATOM     26  O   UNL     1      -4.165   3.289  -5.656  1.00  0.00    -0.508 OA
ATOM     27  H   UNL     1      -4.905   3.958  -5.839  1.00  0.00     0.293 HD
ENDBRANCH   8  26
TORSDOF 6
ENDMDL
MODEL 8
REMARK VINA RESULT:    -6.553      3.722      5.912
REMARK INTER + INTRA:          -8.060
REMARK INTER:                  -7.829
REMARK INTRA:                  -0.231
REMARK UNBOUND:                -0.167
REMARK SMILES O=c1c(O)c(-c2ccc(O)c(O)c2)oc2cc(O)cc(O)c12
REMARK SMILES IDX 5 1 3 2 2 3 1 4 22 5 20 6 19 7 17 8 16 9 15 10 14 11 6 12
REMARK SMILES IDX 7 13 8 14 9 15 13 16 11 17 10 18 12 20 4 22 21 24 18 26
REMARK H PARENT 10 19 12 21 4 23 21 25 18 27
REMARK Flexibility Score: inf
ROOT
ATOM      1  C   UNL     1       0.036   4.700  -2.559  1.00  0.00     0.180 A 
ATOM      2  C   UNL     1       0.298   3.331  -2.369  1.00  0.00     0.208 A 
ATOM      3  C   UNL     1       1.188   2.942  -1.356  1.00  0.00     0.238 A 
ATOM      4  O   UNL     1       1.376   1.714  -1.156  1.00  0.00    -0.285 OA
ATOM      5  C   UNL     1       1.818   3.926  -0.556  1.00  0.00     0.111 A 
ATOM      6  C   UNL     1       2.767   3.646   0.473  1.00  0.00     0.134 A 
ATOM      7  C   UNL     1       3.227   4.687   1.289  1.00  0.00     0.093 A 
ATOM      8  C   UNL     1       2.822   6.007   1.071  1.00  0.00     0.123 A 
ATOM      9  C   UNL     1       1.942   6.296   0.032  1.00  0.00     0.094 A 
ATOM     10  C   UNL     1       1.437   5.275  -0.776  1.00  0.00     0.146 A 
ATOM     11  O   UNL     1       0.592   5.594  -1.749  1.00  0.00    -0.452 OA
ENDROOT
BRANCH   1  12
ATOM     12  C   UNL     1      -0.870   5.189  -3.622  1.00  0.00     0.025 A 
ATOM     13  C   UNL     1      -2.256   5.025  -3.478  1.00  0.00     0.016 A 
ATOM     14  C   UNL     1      -3.132   5.496  -4.459  1.00  0.00     0.051 A 
ATOM     15  C   UNL     1      -2.638   6.153  -5.591  1.00  0.00     0.157 A 
ATOM     16  C   UNL     1      -0.376   5.867  -4.751  1.00  0.00     0.062 A 
ATOM     17  C   UNL     1      -1.253   6.344  -5.736  1.00  0.00     0.158 A 
BRANCH  15  18
ATOM     18  O   UNL     1      -3.535   6.611  -6.555  1.00  0.00    -0.504 OA
ATOM     19  H   UNL     1      -3.587   6.201  -7.480  1.00  0.00     0.293 HD
ENDBRANCH  15  18
BRANCH  17  20
ATOM     20  O   UNL     1      -0.755   7.010  -6.856  1.00  0.00    -0.504 OA
ATOM     21  H   UNL     1       0.069   6.680  -7.346  1.00  0.00     0.293 HD
ENDBRANCH  17  20
ENDBRANCH   1  12
BRANCH   2  22
ATOM     22  O   UNL     1      -0.351   2.377  -3.157  1.00  0.00    -0.502 OA
ATOM     23  H   UNL     1      -0.280   2.366  -4.167  1.00  0.00     0.293 HD
ENDBRANCH   2  22
BRANCH   6  24
ATOM     24  O   UNL     1       3.307   2.380   0.714  1.00  0.00    -0.507 OA
ATOM     25  H   UNL     1       3.665   1.762   0.001  1.00  0.00     0.293 HD
ENDBRANCH   6  24
BRANCH   8  26
ATOM     26  O   UNL     1       3.297   7.039   1.877  1.00  0.00    -0.508 OA
ATOM     27  H   UNL     1       4.262   7.344   1.833  1.00  0.00     0.293 HD
ENDBRANCH   8  26
TORSDOF 6
ENDMDL
MODEL 9
REMARK VINA RESULT:    -6.548      3.488      5.499
REMARK INTER + INTRA:          -8.055
REMARK INTER:                  -7.969
REMARK INTRA:                  -0.086
REMARK UNBOUND:                -0.167
REMARK SMILES O=c1c(O)c(-c2ccc(O)c(O)c2)oc2cc(O)cc(O)c12
REMARK SMILES IDX 5 1 3 2 2 3 1 4 22 5 20 6 19 7 17 8 16 9 15 10 14 11 6 12
REMARK SMILES IDX 7 13 8 14 9 15 13 16 11 17 10 18 12 20 4 22 21 24 18 26
REMARK H PARENT 10 19 12 21 4 23 21 25 18 27
REMARK Flexibility Score: inf
ROOT
ATOM      1  C   UNL     1      -1.915   4.784  -1.564  1.00  0.00     0.180 A 
ATOM      2  C   UNL     1      -0.657   4.402  -1.066  1.00  0.00     0.208 A 
ATOM      3  C   UNL     1      -0.019   5.225  -0.124  1.00  0.00     0.238 A 
ATOM      4  O   UNL     1       1.081   4.850   0.358  1.00  0.00    -0.285 OA
ATOM      5  C   UNL     1      -0.639   6.427   0.296  1.00  0.00     0.111 A 
ATOM      6  C   UNL     1      -0.065   7.356   1.215  1.00  0.00     0.134 A 
ATOM      7  C   UNL     1      -0.824   8.446   1.659  1.00  0.00     0.093 A 
ATOM      8  C   UNL     1      -2.111   8.676   1.166  1.00  0.00     0.123 A 
ATOM      9  C   UNL     1      -2.656   7.807   0.224  1.00  0.00     0.094 A 
ATOM     10  C   UNL     1      -1.939   6.691  -0.211  1.00  0.00     0.146 A 
ATOM     11  O   UNL     1      -2.499   5.883  -1.102  1.00  0.00    -0.452 OA
ENDROOT
BRANCH   1  12
ATOM     12  C   UNL     1      -2.637   3.982  -2.578  1.00  0.00     0.025 A 
ATOM     13  C   UNL     1      -3.004   2.661  -2.280  1.00  0.00     0.016 A 
ATOM     14  C   UNL     1      -3.703   1.892  -3.213  1.00  0.00     0.051 A 
ATOM     15  C   UNL     1      -4.061   2.435  -4.451  1.00  0.00     0.157 A 
ATOM     16  C   UNL     1      -3.015   4.534  -3.815  1.00  0.00     0.062 A 
ATOM     17  C   UNL     1      -3.720   3.765  -4.753  1.00  0.00     0.158 A 
BRANCH  15  18
ATOM     18  O   UNL     1      -4.758   1.644  -5.363  1.00  0.00    -0.504 OA
ATOM     19  H   UNL     1      -5.097   0.720  -5.125  1.00  0.00     0.293 HD
ENDBRANCH  15  18
BRANCH  17  20
ATOM     20  O   UNL     1      -4.086   4.317  -5.979  1.00  0.00    -0.504 OA
ATOM     21  H   UNL     1      -4.561   3.769  -6.687  1.00  0.00     0.293 HD
ENDBRANCH  17  20
ENDBRANCH   1  12
BRANCH   2  22
ATOM     22  O   UNL     1      -0.072   3.201  -1.478  1.00  0.00    -0.502 OA
ATOM     23  H   UNL     1       0.889   2.963  -1.267  1.00  0.00     0.293 HD
ENDBRANCH   2  22
BRANCH   6  24
ATOM     24  O   UNL     1       1.244   7.270   1.697  1.00  0.00    -0.507 OA
ATOM     25  H   UNL     1       2.058   7.622   1.216  1.00  0.00     0.293 HD
ENDBRANCH   6  24
BRANCH   8  26
ATOM     26  O   UNL     1      -2.853   9.772   1.601  1.00  0.00    -0.508 OA
ATOM     27  H   UNL     1      -3.499  10.252   0.985  1.00  0.00     0.293 HD
ENDBRANCH   8  26
TORSDOF 6
ENDMDL
