MODEL 1
REMARK VINA RESULT:    -5.316      0.000      0.000
REMARK INTER + INTRA:          -5.316
REMARK INTER:                  -5.316
REMARK INTRA:                   0.000
REMARK UNBOUND:                 0.000
REMARK SMILES CC1=CC=CC(C)(C)[C@@H]1C
REMARK SMILES IDX 10 1 9 2 2 3 3 4 4 5 5 6 6 7 7 8 8 9 1 10
REMARK H PARENT
REMARK Flexibility Score: inf
ROOT
ATOM      1  C   UNL     1     111.797 104.891 129.247  1.00  0.00     0.013 C 
ATOM      2  C   UNL     1     110.615 105.785 128.826  1.00  0.00     0.021 C 
ATOM      3  C   UNL     1     109.890 105.109 127.672  1.00  0.00    -0.070 C 
ATOM      4  C   UNL     1     110.263 105.363 126.407  1.00  0.00    -0.001 C 
ATOM      5  C   UNL     1     111.283 106.384 126.110  1.00  0.00    -0.004 C 
ATOM      6  C   UNL     1     111.691 107.238 127.055  1.00  0.00    -0.020 C 
ATOM      7  C   UNL     1     111.044 107.245 128.429  1.00  0.00    -0.011 C 
ATOM      8  C   UNL     1     112.023 107.858 129.454  1.00  0.00     0.016 C 
ATOM      9  C   UNL     1     109.791 108.149 128.370  1.00  0.00     0.016 C 
ATOM     10  C   UNL     1     108.819 104.091 127.940  1.00  0.00     0.040 C 
ENDROOT
TORSDOF 0
ENDMDL
MODEL 2
REMARK VINA RESULT:    -5.314      4.786      6.736
REMARK INTER + INTRA:          -5.314
REMARK INTER:                  -5.314
REMARK INTRA:                   0.000
REMARK UNBOUND:                 0.000
REMARK SMILES CC1=CC=CC(C)(C)[C@@H]1C
REMARK SMILES IDX 10 1 9 2 2 3 3 4 4 5 5 6 6 7 7 8 8 9 1 10
REMARK H PARENT
REMARK Flexibility Score: inf
ROOT
ATOM      1  C   UNL     1     104.925 100.665 129.272  1.00  0.00     0.013 C 
ATOM      2  C   UNL     1     105.804 101.860 128.856  1.00  0.00     0.021 C 
ATOM      3  C   UNL     1     105.096 102.606 127.734  1.00  0.00    -0.070 C 
ATOM      4  C   UNL     1     105.320 102.263 126.456  1.00  0.00    -0.001 C 
ATOM      5  C   UNL     1     106.338 101.253 126.112  1.00  0.00    -0.004 C 
ATOM      6  C   UNL     1     107.217 100.830 127.026  1.00  0.00    -0.020 C 
ATOM      7  C   UNL     1     107.255 101.447 128.413  1.00  0.00    -0.011 C 
ATOM      8  C   UNL     1     107.897 100.448 129.401  1.00  0.00     0.016 C 
ATOM      9  C   UNL     1     108.152 102.705 128.359  1.00  0.00     0.016 C 
ATOM     10  C   UNL     1     104.081 103.667 128.051  1.00  0.00     0.040 C 
ENDROOT
TORSDOF 0
ENDMDL
MODEL 3
REMARK VINA RESULT:    -5.300      4.810      6.763
REMARK INTER + INTRA:          -5.300
REMARK INTER:                  -5.300
REMARK INTRA:                   0.000
REMARK UNBOUND:                 0.000
REMARK SMILES CC1=CC=CC(C)(C)[C@@H]1C
REMARK SMILES IDX 10 1 9 2 2 3 3 4 4 5 5 6 6 7 7 8 8 9 1 10
REMARK H PARENT
REMARK Flexibility Score: inf
ROOT
ATOM      1  C   UNL     1     107.515 111.846 129.254  1.00  0.00     0.013 C 
ATOM      2  C   UNL     1     106.659 110.631 128.849  1.00  0.00     0.021 C 
ATOM      3  C   UNL     1     107.371 109.900 127.720  1.00  0.00    -0.070 C 
ATOM      4  C   UNL     1     107.123 110.237 126.444  1.00  0.00    -0.001 C 
ATOM      5  C   UNL     1     106.078 111.222 126.111  1.00  0.00    -0.004 C 
ATOM      6  C   UNL     1     105.201 111.626 127.036  1.00  0.00    -0.020 C 
ATOM      7  C   UNL     1     105.194 111.010 128.424  1.00  0.00    -0.011 C 
ATOM      8  C   UNL     1     104.541 111.995 129.419  1.00  0.00     0.016 C 
ATOM      9  C   UNL     1     104.325 109.732 128.382  1.00  0.00     0.016 C 
ATOM     10  C   UNL     1     108.413 108.862 128.025  1.00  0.00     0.040 C 
ENDROOT
TORSDOF 0
ENDMDL
MODEL 4
REMARK VINA RESULT:    -5.253      7.584      9.507
REMARK INTER + INTRA:          -5.253
REMARK INTER:                  -5.253
REMARK INTRA:                   0.000
REMARK UNBOUND:                 0.000
REMARK SMILES CC1=CC=CC(C)(C)[C@@H]1C
REMARK SMILES IDX 10 1 9 2 2 3 3 4 4 5 5 6 6 7 7 8 8 9 1 10
REMARK H PARENT
REMARK Flexibility Score: inf
ROOT
ATOM      1  C   UNL     1     100.677 107.554 129.253  1.00  0.00     0.013 C 
ATOM      2  C   UNL     1     101.877 106.680 128.840  1.00  0.00     0.021 C 
ATOM      3  C   UNL     1     102.621 107.388 127.717  1.00  0.00    -0.070 C 
ATOM      4  C   UNL     1     102.280 107.160 126.439  1.00  0.00    -0.001 C 
ATOM      5  C   UNL     1     101.275 106.137 126.096  1.00  0.00    -0.004 C 
ATOM      6  C   UNL     1     100.855 105.258 127.012  1.00  0.00    -0.020 C 
ATOM      7  C   UNL     1     101.470 105.225 128.400  1.00  0.00    -0.011 C 
ATOM      8  C   UNL     1     100.473 104.581 129.388  1.00  0.00     0.016 C 
ATOM      9  C   UNL     1     102.732 104.334 128.349  1.00  0.00     0.016 C 
ATOM     10  C   UNL     1     103.677 108.408 128.033  1.00  0.00     0.040 C 
ENDROOT
TORSDOF 0
ENDMDL
MODEL 5
REMARK VINA RESULT:    -5.001      7.684      9.428
REMARK INTER + INTRA:          -5.001
REMARK INTER:                  -5.001
REMARK INTRA:                   0.000
REMARK UNBOUND:                 0.000
REMARK SMILES CC1=CC=CC(C)(C)[C@@H]1C
REMARK SMILES IDX 10 1 9 2 2 3 3 4 4 5 5 6 6 7 7 8 8 9 1 10
REMARK H PARENT
REMARK Flexibility Score: inf
ROOT
ATOM      1  C   UNL     1     103.251 107.634 128.948  1.00  0.00     0.013 C 
ATOM      2  C   UNL     1     101.991 107.347 128.110  1.00  0.00     0.021 C 
ATOM      3  C   UNL     1     100.883 106.895 129.050  1.00  0.00    -0.070 C 
ATOM      4  C   UNL     1     100.737 105.591 129.335  1.00  0.00    -0.001 C 
ATOM      5  C   UNL     1     101.556 104.572 128.654  1.00  0.00    -0.004 C 
ATOM      6  C   UNL     1     102.289 104.890 127.581  1.00  0.00    -0.020 C 
ATOM      7  C   UNL     1     102.222 106.281 126.977  1.00  0.00    -0.011 C 
ATOM      8  C   UNL     1     103.515 106.557 126.179  1.00  0.00     0.016 C 
ATOM      9  C   UNL     1     101.035 106.322 125.986  1.00  0.00     0.016 C 
ATOM     10  C   UNL     1     100.006 107.907 129.731  1.00  0.00     0.040 C 
ENDROOT
TORSDOF 0
ENDMDL
MODEL 6
REMARK VINA RESULT:    -4.990      5.405      6.962
REMARK INTER + INTRA:          -4.990
REMARK INTER:                  -4.990
REMARK INTRA:                   0.000
REMARK UNBOUND:                 0.000
REMARK SMILES CC1=CC=CC(C)(C)[C@@H]1C
REMARK SMILES IDX 10 1 9 2 2 3 3 4 4 5 5 6 6 7 7 8 8 9 1 10
REMARK H PARENT
REMARK Flexibility Score: inf
ROOT
ATOM      1  C   UNL     1     104.861 103.208 128.981  1.00  0.00     0.013 C 
ATOM      2  C   UNL     1     105.164 101.953 128.142  1.00  0.00     0.021 C 
ATOM      3  C   UNL     1     105.579 100.834 129.087  1.00  0.00    -0.070 C 
ATOM      4  C   UNL     1     106.873 100.677 129.410  1.00  0.00    -0.001 C 
ATOM      5  C   UNL     1     107.918 101.493 128.767  1.00  0.00    -0.004 C 
ATOM      6  C   UNL     1     107.638 102.236 127.691  1.00  0.00    -0.020 C 
ATOM      7  C   UNL     1     106.266 102.183 127.043  1.00  0.00    -0.011 C 
ATOM      8  C   UNL     1     106.023 103.485 126.248  1.00  0.00     0.016 C 
ATOM      9  C   UNL     1     106.247 101.005 126.043  1.00  0.00     0.016 C 
ATOM     10  C   UNL     1     104.541  99.960 129.730  1.00  0.00     0.040 C 
ENDROOT
TORSDOF 0
ENDMDL
MODEL 7
REMARK VINA RESULT:    -4.937      3.528      6.475
REMARK INTER + INTRA:          -4.937
REMARK INTER:                  -4.937
REMARK INTRA:                   0.000
REMARK UNBOUND:                 0.000
REMARK SMILES CC1=CC=CC(C)(C)[C@@H]1C
REMARK SMILES IDX 10 1 9 2 2 3 3 4 4 5 5 6 6 7 7 8 8 9 1 10
REMARK H PARENT
REMARK Flexibility Score: inf
ROOT
ATOM      1  C   UNL     1     105.234 103.400 128.583  1.00  0.00     0.013 C 
ATOM      2  C   UNL     1     106.564 102.700 128.921  1.00  0.00     0.021 C 
ATOM      3  C   UNL     1     107.667 103.340 128.089  1.00  0.00    -0.070 C 
ATOM      4  C   UNL     1     107.958 102.850 126.874  1.00  0.00    -0.001 C 
ATOM      5  C   UNL     1     107.310 101.621 126.379  1.00  0.00    -0.004 C 
ATOM      6  C   UNL     1     106.604 100.841 127.204  1.00  0.00    -0.020 C 
ATOM      7  C   UNL     1     106.530 101.145 128.690  1.00  0.00    -0.011 C 
ATOM      8  C   UNL     1     105.258 100.501 129.283  1.00  0.00     0.016 C 
ATOM      9  C   UNL     1     107.754 100.498 129.377  1.00  0.00     0.016 C 
ATOM     10  C   UNL     1     108.372 104.570 128.583  1.00  0.00     0.040 C 
ENDROOT
TORSDOF 0
ENDMDL
MODEL 8
REMARK VINA RESULT:    -4.930      1.094      2.441
REMARK INTER + INTRA:          -4.930
REMARK INTER:                  -4.930
REMARK INTRA:                   0.000
REMARK UNBOUND:                 0.000
REMARK SMILES CC1=CC=CC(C)(C)[C@@H]1C
REMARK SMILES IDX 10 1 9 2 2 3 3 4 4 5 5 6 6 7 7 8 8 9 1 10
REMARK H PARENT
REMARK Flexibility Score: inf
ROOT
ATOM      1  C   UNL     1     109.047 105.212 128.595  1.00  0.00     0.013 C 
ATOM      2  C   UNL     1     109.750 106.530 128.970  1.00  0.00     0.021 C 
ATOM      3  C   UNL     1     109.099 107.660 128.185  1.00  0.00    -0.070 C 
ATOM      4  C   UNL     1     109.573 107.994 126.974  1.00  0.00    -0.001 C 
ATOM      5  C   UNL     1     110.796 107.365 126.441  1.00  0.00    -0.004 C 
ATOM      6  C   UNL     1     111.586 106.632 127.231  1.00  0.00    -0.020 C 
ATOM      7  C   UNL     1     111.302 106.507 128.717  1.00  0.00    -0.011 C 
ATOM      8  C   UNL     1     111.955 105.216 129.258  1.00  0.00     0.016 C 
ATOM      9  C   UNL     1     111.957 107.708 129.438  1.00  0.00     0.016 C 
ATOM     10  C   UNL     1     107.875 108.347 128.718  1.00  0.00     0.040 C 
ENDROOT
TORSDOF 0
ENDMDL
MODEL 9
REMARK VINA RESULT:    -4.922      5.106      6.598
REMARK INTER + INTRA:          -4.922
REMARK INTER:                  -4.922
REMARK INTRA:                   0.000
REMARK UNBOUND:                 0.000
REMARK SMILES CC1=CC=CC(C)(C)[C@@H]1C
REMARK SMILES IDX 10 1 9 2 2 3 3 4 4 5 5 6 6 7 7 8 8 9 1 10
REMARK H PARENT
REMARK Flexibility Score: inf
ROOT
ATOM      1  C   UNL     1     107.330 109.056 128.474  1.00  0.00     0.013 C 
ATOM      2  C   UNL     1     106.013 109.723 128.913  1.00  0.00     0.021 C 
ATOM      3  C   UNL     1     104.862 109.020 128.206  1.00  0.00    -0.070 C 
ATOM      4  C   UNL     1     104.443 109.460 127.009  1.00  0.00    -0.001 C 
ATOM      5  C   UNL     1     104.998 110.692 126.420  1.00  0.00    -0.004 C 
ATOM      6  C   UNL     1     105.749 111.521 127.152  1.00  0.00    -0.020 C 
ATOM      7  C   UNL     1     105.969 111.270 128.633  1.00  0.00    -0.011 C 
ATOM      8  C   UNL     1     107.267 111.974 129.087  1.00  0.00     0.016 C 
ATOM      9  C   UNL     1     104.791 111.898 129.412  1.00  0.00     0.016 C 
ATOM     10  C   UNL     1     104.249 107.784 128.800  1.00  0.00     0.040 C 
ENDROOT
TORSDOF 0
ENDMDL
