MODEL 1
REMARK VINA RESULT:    -4.739      0.000      0.000
REMARK INTER + INTRA:         -11.680
REMARK INTER:                  -8.895
REMARK INTRA:                  -2.784
REMARK UNBOUND:                -2.784
REMARK SMILES CCCCCCCCCCCCCC=CC=CC(=O)OC
REMARK SMILES IDX 9 1 8 2 7 3 6 4 5 5 4 6 3 7 2 8 1 9 10 10 11 11 12 12 13 13
REMARK SMILES IDX 14 14 15 15 16 16 17 17 18 18 19 19 20 20 21 21
REMARK H PARENT
REMARK Flexibility Score: inf
ROOT
ATOM      1  C   UNL     1     -21.508  -2.449 -10.571  1.00  0.00     0.000 C 
ENDROOT
BRANCH   1   2
ATOM      2  C   UNL     1     -22.396  -3.693 -10.734  1.00  0.00     0.000 C 
BRANCH   2   3
ATOM      3  C   UNL     1     -21.580  -4.977 -10.970  1.00  0.00     0.000 C 
BRANCH   3   4
ATOM      4  C   UNL     1     -21.824  -6.043  -9.880  1.00  0.00    -0.000 C 
BRANCH   4   5
ATOM      5  C   UNL     1     -20.874  -7.250  -9.969  1.00  0.00    -0.000 C 
BRANCH   5   6
ATOM      6  C   UNL     1     -20.112  -7.578  -8.673  1.00  0.00    -0.000 C 
BRANCH   6   7
ATOM      7  C   UNL     1     -20.989  -8.079  -7.505  1.00  0.00    -0.000 C 
BRANCH   7   8
ATOM      8  C   UNL     1     -20.295  -9.044  -6.530  1.00  0.00    -0.003 C 
ATOM      9  C   UNL     1     -21.207 -10.172  -6.057  1.00  0.00     0.004 C 
ENDBRANCH   7   8
ENDBRANCH   6   7
ENDBRANCH   5   6
ENDBRANCH   4   5
ENDBRANCH   3   4
ENDBRANCH   2   3
ENDBRANCH   1   2
BRANCH   1  10
ATOM     10  C   UNL     1     -20.054  -2.801 -10.216  1.00  0.00     0.000 C 
BRANCH  10  11
ATOM     11  C   UNL     1     -19.750  -2.648  -8.716  1.00  0.00     0.000 C 
BRANCH  11  12
ATOM     12  C   UNL     1     -19.463  -3.968  -7.980  1.00  0.00     0.004 C 
BRANCH  12  13
ATOM     13  C   UNL     1     -20.508  -4.295  -6.902  1.00  0.00     0.027 C 
BRANCH  13  14
ATOM     14  C   UNL     1     -21.754  -3.465  -7.089  1.00  0.00    -0.027 C 
ATOM     15  C   UNL     1     -23.002  -3.913  -6.903  1.00  0.00    -0.004 C 
BRANCH  15  16
ATOM     16  C   UNL     1     -23.329  -5.306  -6.520  1.00  0.00     0.007 C 
ATOM     17  C   UNL     1     -23.379  -5.671  -5.236  1.00  0.00     0.093 C 
BRANCH  17  18
ATOM     18  C   UNL     1     -23.719  -7.045  -4.824  1.00  0.00     0.330 C 
ATOM     19  O   UNL     1     -23.867  -7.956  -5.685  1.00  0.00    -0.247 OA
BRANCH  18  20
ATOM     20  O   UNL     1     -23.873  -7.326  -3.464  1.00  0.00    -0.466 OA
ATOM     21  C   UNL     1     -23.384  -8.523  -2.874  1.00  0.00     0.282 C 
ENDBRANCH  18  20
ENDBRANCH  17  18
ENDBRANCH  15  16
ENDBRANCH  13  14
ENDBRANCH  12  13
ENDBRANCH  11  12
ENDBRANCH  10  11
ENDBRANCH   1  10
TORSDOF 15
ENDMDL
MODEL 2
REMARK VINA RESULT:    -4.589      1.146      3.966
REMARK INTER + INTRA:         -11.398
REMARK INTER:                  -8.545
REMARK INTRA:                  -2.853
REMARK UNBOUND:                -2.784
REMARK SMILES CCCCCCCCCCCCCC=CC=CC(=O)OC
REMARK SMILES IDX 9 1 8 2 7 3 6 4 5 5 4 6 3 7 2 8 1 9 10 10 11 11 12 12 13 13
REMARK SMILES IDX 14 14 15 15 16 16 17 17 18 18 19 19 20 20 21 21
REMARK H PARENT
REMARK Flexibility Score: inf
ROOT
ATOM      1  C   UNL     1     -21.480  -2.339 -10.510  1.00  0.00     0.000 C 
ENDROOT
BRANCH   1   2
ATOM      2  C   UNL     1     -20.026  -2.662 -10.128  1.00  0.00     0.000 C 
BRANCH   2   3
ATOM      3  C   UNL     1     -19.774  -2.551  -8.614  1.00  0.00     0.000 C 
BRANCH   3   4
ATOM      4  C   UNL     1     -19.423  -3.911  -7.971  1.00  0.00    -0.000 C 
BRANCH   4   5
ATOM      5  C   UNL     1     -20.446  -4.384  -6.923  1.00  0.00    -0.000 C 
BRANCH   5   6
ATOM      6  C   UNL     1     -21.667  -3.464  -6.740  1.00  0.00    -0.000 C 
BRANCH   6   7
ATOM      7  C   UNL     1     -23.036  -4.137  -6.975  1.00  0.00    -0.000 C 
BRANCH   7   8
ATOM      8  C   UNL     1     -23.143  -5.593  -6.495  1.00  0.00    -0.003 C 
ATOM      9  C   UNL     1     -23.473  -5.709  -5.010  1.00  0.00     0.004 C 
ENDBRANCH   7   8
ENDBRANCH   6   7
ENDBRANCH   5   6
ENDBRANCH   4   5
ENDBRANCH   3   4
ENDBRANCH   2   3
ENDBRANCH   1   2
BRANCH   1  10
ATOM     10  C   UNL     1     -22.327  -3.601 -10.742  1.00  0.00     0.000 C 
BRANCH  10  11
ATOM     11  C   UNL     1     -21.478  -4.878 -10.862  1.00  0.00     0.000 C 
BRANCH  11  12
ATOM     12  C   UNL     1     -21.852  -5.994  -9.871  1.00  0.00     0.004 C 
BRANCH  12  13
ATOM     13  C   UNL     1     -21.055  -7.289 -10.096  1.00  0.00     0.027 C 
BRANCH  13  14
ATOM     14  C   UNL     1     -19.858  -7.351  -9.181  1.00  0.00    -0.027 C 
ATOM     15  C   UNL     1     -19.853  -7.923  -7.971  1.00  0.00    -0.004 C 
BRANCH  15  16
ATOM     16  C   UNL     1     -21.044  -8.547  -7.350  1.00  0.00     0.007 C 
ATOM     17  C   UNL     1     -20.940  -9.253  -6.221  1.00  0.00     0.093 C 
BRANCH  17  18
ATOM     18  C   UNL     1     -22.111  -9.870  -5.571  1.00  0.00     0.330 C 
ATOM     19  O   UNL     1     -23.069  -9.158  -5.162  1.00  0.00    -0.247 OA
BRANCH  18  20
ATOM     20  O   UNL     1     -22.146 -11.258  -5.415  1.00  0.00    -0.466 OA
ATOM     21  C   UNL     1     -22.290 -11.878  -4.144  1.00  0.00     0.282 C 
ENDBRANCH  18  20
ENDBRANCH  17  18
ENDBRANCH  15  16
ENDBRANCH  13  14
ENDBRANCH  12  13
ENDBRANCH  11  12
ENDBRANCH  10  11
ENDBRANCH   1  10
TORSDOF 15
ENDMDL
MODEL 3
REMARK VINA RESULT:    -4.548      1.176      3.862
REMARK INTER + INTRA:         -11.321
REMARK INTER:                  -8.311
REMARK INTRA:                  -3.011
REMARK UNBOUND:                -2.784
REMARK SMILES CCCCCCCCCCCCCC=CC=CC(=O)OC
REMARK SMILES IDX 9 1 8 2 7 3 6 4 5 5 4 6 3 7 2 8 1 9 10 10 11 11 12 12 13 13
REMARK SMILES IDX 14 14 15 15 16 16 17 17 18 18 19 19 20 20 21 21
REMARK H PARENT
REMARK Flexibility Score: inf
ROOT
ATOM      1  C   UNL     1     -21.520  -5.486 -10.633  1.00  0.00     0.000 C 
ENDROOT
BRANCH   1   2
ATOM      2  C   UNL     1     -22.268  -4.166 -10.387  1.00  0.00     0.000 C 
BRANCH   2   3
ATOM      3  C   UNL     1     -21.364  -2.932 -10.566  1.00  0.00     0.000 C 
BRANCH   3   4
ATOM      4  C   UNL     1     -19.979  -3.112  -9.908  1.00  0.00    -0.000 C 
BRANCH   4   5
ATOM      5  C   UNL     1     -19.966  -2.823  -8.398  1.00  0.00    -0.000 C 
BRANCH   5   6
ATOM      6  C   UNL     1     -19.708  -4.046  -7.500  1.00  0.00    -0.000 C 
BRANCH   6   7
ATOM      7  C   UNL     1     -20.863  -4.413  -6.544  1.00  0.00    -0.000 C 
BRANCH   7   8
ATOM      8  C   UNL     1     -22.101  -3.507  -6.631  1.00  0.00    -0.003 C 
ATOM      9  C   UNL     1     -23.373  -4.267  -6.992  1.00  0.00     0.004 C 
ENDBRANCH   7   8
ENDBRANCH   6   7
ENDBRANCH   5   6
ENDBRANCH   4   5
ENDBRANCH   3   4
ENDBRANCH   2   3
ENDBRANCH   1   2
BRANCH   1  10
ATOM     10  C   UNL     1     -21.549  -6.421  -9.413  1.00  0.00     0.000 C 
BRANCH  10  11
ATOM     11  C   UNL     1     -20.618  -7.635  -9.567  1.00  0.00     0.000 C 
BRANCH  11  12
ATOM     12  C   UNL     1     -19.331  -7.569  -8.726  1.00  0.00     0.004 C 
BRANCH  12  13
ATOM     13  C   UNL     1     -19.583  -7.782  -7.225  1.00  0.00     0.027 C 
BRANCH  13  14
ATOM     14  C   UNL     1     -20.421  -9.013  -6.988  1.00  0.00    -0.027 C 
ATOM     15  C   UNL     1     -21.627  -9.013  -6.407  1.00  0.00    -0.004 C 
BRANCH  15  16
ATOM     16  C   UNL     1     -22.289  -7.795  -5.885  1.00  0.00     0.007 C 
ATOM     17  C   UNL     1     -22.981  -7.826  -4.743  1.00  0.00     0.093 C 
BRANCH  17  18
ATOM     18  C   UNL     1     -23.636  -6.626  -4.189  1.00  0.00     0.330 C 
ATOM     19  O   UNL     1     -24.892  -6.511  -4.212  1.00  0.00    -0.247 OA
BRANCH  18  20
ATOM     20  O   UNL     1     -22.843  -5.617  -3.636  1.00  0.00    -0.466 OA
ATOM     21  C   UNL     1     -22.222  -5.749  -2.364  1.00  0.00     0.282 C 
ENDBRANCH  18  20
ENDBRANCH  17  18
ENDBRANCH  15  16
ENDBRANCH  13  14
ENDBRANCH  12  13
ENDBRANCH  11  12
ENDBRANCH  10  11
ENDBRANCH   1  10
TORSDOF 15
ENDMDL
MODEL 4
REMARK VINA RESULT:    -4.416      1.410      2.026
REMARK INTER + INTRA:         -11.072
REMARK INTER:                  -8.052
REMARK INTRA:                  -3.020
REMARK UNBOUND:                -2.784
REMARK SMILES CCCCCCCCCCCCCC=CC=CC(=O)OC
REMARK SMILES IDX 9 1 8 2 7 3 6 4 5 5 4 6 3 7 2 8 1 9 10 10 11 11 12 12 13 13
REMARK SMILES IDX 14 14 15 15 16 16 17 17 18 18 19 19 20 20 21 21
REMARK H PARENT
REMARK Flexibility Score: inf
ROOT
ATOM      1  C   UNL     1     -22.016  -4.256 -10.749  1.00  0.00     0.000 C 
ENDROOT
BRANCH   1   2
ATOM      2  C   UNL     1     -21.856  -5.785 -10.766  1.00  0.00     0.000 C 
BRANCH   2   3
ATOM      3  C   UNL     1     -21.448  -6.353  -9.394  1.00  0.00     0.000 C 
BRANCH   3   4
ATOM      4  C   UNL     1     -20.574  -7.620  -9.513  1.00  0.00    -0.000 C 
BRANCH   4   5
ATOM      5  C   UNL     1     -19.749  -7.927  -8.251  1.00  0.00    -0.000 C 
BRANCH   5   6
ATOM      6  C   UNL     1     -19.485  -6.720  -7.334  1.00  0.00    -0.000 C 
BRANCH   6   7
ATOM      7  C   UNL     1     -19.610  -7.004  -5.822  1.00  0.00    -0.000 C 
BRANCH   7   8
ATOM      8  C   UNL     1     -19.417  -5.785  -4.907  1.00  0.00    -0.003 C 
ATOM      9  C   UNL     1     -20.412  -5.742  -3.752  1.00  0.00     0.004 C 
ENDBRANCH   7   8
ENDBRANCH   6   7
ENDBRANCH   5   6
ENDBRANCH   4   5
ENDBRANCH   3   4
ENDBRANCH   2   3
ENDBRANCH   1   2
BRANCH   1  10
ATOM     10  C   UNL     1     -20.738  -3.531 -10.296  1.00  0.00     0.000 C 
BRANCH  10  11
ATOM     11  C   UNL     1     -20.951  -2.672  -9.039  1.00  0.00     0.000 C 
BRANCH  11  12
ATOM     12  C   UNL     1     -20.459  -3.315  -7.730  1.00  0.00     0.004 C 
BRANCH  12  13
ATOM     13  C   UNL     1     -21.507  -3.267  -6.606  1.00  0.00     0.027 C 
BRANCH  13  14
ATOM     14  C   UNL     1     -22.893  -3.508  -7.149  1.00  0.00    -0.027 C 
ATOM     15  C   UNL     1     -23.570  -4.656  -7.024  1.00  0.00    -0.004 C 
BRANCH  15  16
ATOM     16  C   UNL     1     -23.028  -5.865  -6.361  1.00  0.00     0.007 C 
ATOM     17  C   UNL     1     -23.831  -6.707  -5.705  1.00  0.00     0.093 C 
BRANCH  17  18
ATOM     18  C   UNL     1     -23.322  -7.926  -5.050  1.00  0.00     0.330 C 
ATOM     19  O   UNL     1     -22.875  -8.885  -5.737  1.00  0.00    -0.247 OA
BRANCH  18  20
ATOM     20  O   UNL     1     -23.340  -8.003  -3.655  1.00  0.00    -0.466 OA
ATOM     21  C   UNL     1     -24.172  -7.172  -2.857  1.00  0.00     0.282 C 
ENDBRANCH  18  20
ENDBRANCH  17  18
ENDBRANCH  15  16
ENDBRANCH  13  14
ENDBRANCH  12  13
ENDBRANCH  11  12
ENDBRANCH  10  11
ENDBRANCH   1  10
TORSDOF 15
ENDMDL
MODEL 5
REMARK VINA RESULT:    -4.334      2.337      4.885
REMARK INTER + INTRA:         -10.919
REMARK INTER:                  -8.434
REMARK INTRA:                  -2.486
REMARK UNBOUND:                -2.784
REMARK SMILES CCCCCCCCCCCCCC=CC=CC(=O)OC
REMARK SMILES IDX 9 1 8 2 7 3 6 4 5 5 4 6 3 7 2 8 1 9 10 10 11 11 12 12 13 13
REMARK SMILES IDX 14 14 15 15 16 16 17 17 18 18 19 19 20 20 21 21
REMARK H PARENT
REMARK Flexibility Score: inf
ROOT
ATOM      1  C   UNL     1     -22.466  -4.359 -10.193  1.00  0.00     0.000 C 
ENDROOT
BRANCH   1   2
ATOM      2  C   UNL     1     -22.046  -3.123 -11.005  1.00  0.00     0.000 C 
BRANCH   2   3
ATOM      3  C   UNL     1     -21.500  -1.990 -10.117  1.00  0.00     0.000 C 
BRANCH   3   4
ATOM      4  C   UNL     1     -19.956  -1.940 -10.104  1.00  0.00    -0.000 C 
BRANCH   4   5
ATOM      5  C   UNL     1     -19.336  -2.269  -8.736  1.00  0.00    -0.000 C 
BRANCH   5   6
ATOM      6  C   UNL     1     -19.187  -3.770  -8.430  1.00  0.00    -0.000 C 
BRANCH   6   7
ATOM      7  C   UNL     1     -19.975  -4.271  -7.200  1.00  0.00    -0.000 C 
BRANCH   7   8
ATOM      8  C   UNL     1     -21.233  -3.460  -6.853  1.00  0.00    -0.003 C 
ATOM      9  C   UNL     1     -22.423  -4.336  -6.475  1.00  0.00     0.004 C 
ENDBRANCH   7   8
ENDBRANCH   6   7
ENDBRANCH   5   6
ENDBRANCH   4   5
ENDBRANCH   3   4
ENDBRANCH   2   3
ENDBRANCH   1   2
BRANCH   1  10
ATOM     10  C   UNL     1     -21.618  -5.599 -10.519  1.00  0.00     0.000 C 
BRANCH  10  11
ATOM     11  C   UNL     1     -21.505  -6.576  -9.336  1.00  0.00     0.000 C 
BRANCH  11  12
ATOM     12  C   UNL     1     -20.229  -7.436  -9.332  1.00  0.00     0.004 C 
BRANCH  12  13
ATOM     13  C   UNL     1     -19.973  -8.123  -7.981  1.00  0.00     0.027 C 
BRANCH  13  14
ATOM     14  C   UNL     1     -21.027  -7.742  -6.973  1.00  0.00    -0.027 C 
ATOM     15  C   UNL     1     -21.610  -8.595  -6.121  1.00  0.00    -0.004 C 
BRANCH  15  16
ATOM     16  C   UNL     1     -21.318 -10.047  -6.081  1.00  0.00     0.007 C 
ATOM     17  C   UNL     1     -22.174 -10.934  -6.597  1.00  0.00     0.093 C 
BRANCH  17  18
ATOM     18  C   UNL     1     -21.903 -12.383  -6.587  1.00  0.00     0.330 C 
ATOM     19  O   UNL     1     -20.831 -12.833  -6.096  1.00  0.00    -0.247 OA
BRANCH  18  20
ATOM     20  O   UNL     1     -22.852 -13.254  -7.129  1.00  0.00    -0.466 OA
ATOM     21  C   UNL     1     -22.499 -14.511  -7.692  1.00  0.00     0.282 C 
ENDBRANCH  18  20
ENDBRANCH  17  18
ENDBRANCH  15  16
ENDBRANCH  13  14
ENDBRANCH  12  13
ENDBRANCH  11  12
ENDBRANCH  10  11
ENDBRANCH   1  10
TORSDOF 15
ENDMDL
MODEL 6
REMARK VINA RESULT:    -4.324      2.040      2.770
REMARK INTER + INTRA:         -10.901
REMARK INTER:                  -8.245
REMARK INTRA:                  -2.656
REMARK UNBOUND:                -2.784
REMARK SMILES CCCCCCCCCCCCCC=CC=CC(=O)OC
REMARK SMILES IDX 9 1 8 2 7 3 6 4 5 5 4 6 3 7 2 8 1 9 10 10 11 11 12 12 13 13
REMARK SMILES IDX 14 14 15 15 16 16 17 17 18 18 19 19 20 20 21 21
REMARK H PARENT
REMARK Flexibility Score: inf
ROOT
ATOM      1  C   UNL     1     -22.314  -3.872 -10.735  1.00  0.00     0.000 C 
ENDROOT
BRANCH   1   2
ATOM      2  C   UNL     1     -21.803  -5.314 -10.886  1.00  0.00     0.000 C 
BRANCH   2   3
ATOM      3  C   UNL     1     -21.895  -6.114  -9.574  1.00  0.00     0.000 C 
BRANCH   3   4
ATOM      4  C   UNL     1     -20.784  -7.180  -9.451  1.00  0.00    -0.000 C 
BRANCH   4   5
ATOM      5  C   UNL     1     -20.713  -7.846  -8.066  1.00  0.00    -0.000 C 
BRANCH   5   6
ATOM      6  C   UNL     1     -21.637  -7.233  -6.999  1.00  0.00    -0.000 C 
BRANCH   6   7
ATOM      7  C   UNL     1     -21.766  -8.051  -5.696  1.00  0.00    -0.000 C 
BRANCH   7   8
ATOM      8  C   UNL     1     -23.143  -7.990  -5.016  1.00  0.00    -0.003 C 
ATOM      9  C   UNL     1     -24.049  -6.910  -5.599  1.00  0.00     0.004 C 
ENDBRANCH   7   8
ENDBRANCH   6   7
ENDBRANCH   5   6
ENDBRANCH   4   5
ENDBRANCH   3   4
ENDBRANCH   2   3
ENDBRANCH   1   2
BRANCH   1  10
ATOM     10  C   UNL     1     -21.179  -2.835 -10.767  1.00  0.00     0.000 C 
BRANCH  10  11
ATOM     11  C   UNL     1     -20.772  -2.349  -9.366  1.00  0.00     0.000 C 
BRANCH  11  12
ATOM     12  C   UNL     1     -19.681  -3.194  -8.685  1.00  0.00     0.004 C 
BRANCH  12  13
ATOM     13  C   UNL     1     -20.159  -3.862  -7.387  1.00  0.00     0.027 C 
BRANCH  13  14
ATOM     14  C   UNL     1     -21.579  -3.464  -7.067  1.00  0.00    -0.027 C 
ATOM     15  C   UNL     1     -22.183  -3.679  -5.891  1.00  0.00    -0.004 C 
BRANCH  15  16
ATOM     16  C   UNL     1     -21.542  -4.373  -4.751  1.00  0.00     0.007 C 
ATOM     17  C   UNL     1     -21.942  -4.146  -3.496  1.00  0.00     0.093 C 
BRANCH  17  18
ATOM     18  C   UNL     1     -21.335  -4.836  -2.343  1.00  0.00     0.330 C 
ATOM     19  O   UNL     1     -21.371  -4.319  -1.193  1.00  0.00    -0.247 OA
BRANCH  18  20
ATOM     20  O   UNL     1     -20.720  -6.075  -2.542  1.00  0.00    -0.466 OA
ATOM     21  C   UNL     1     -20.052  -6.770  -1.497  1.00  0.00     0.282 C 
ENDBRANCH  18  20
ENDBRANCH  17  18
ENDBRANCH  15  16
ENDBRANCH  13  14
ENDBRANCH  12  13
ENDBRANCH  11  12
ENDBRANCH  10  11
ENDBRANCH   1  10
TORSDOF 15
ENDMDL
MODEL 7
REMARK VINA RESULT:    -4.315      1.098      4.099
REMARK INTER + INTRA:         -10.884
REMARK INTER:                  -7.974
REMARK INTRA:                  -2.910
REMARK UNBOUND:                -2.784
REMARK SMILES CCCCCCCCCCCCCC=CC=CC(=O)OC
REMARK SMILES IDX 9 1 8 2 7 3 6 4 5 5 4 6 3 7 2 8 1 9 10 10 11 11 12 12 13 13
REMARK SMILES IDX 14 14 15 15 16 16 17 17 18 18 19 19 20 20 21 21
REMARK H PARENT
REMARK Flexibility Score: inf
ROOT
ATOM      1  C   UNL     1     -20.011  -7.505  -6.602  1.00  0.00     0.000 C 
ENDROOT
BRANCH   1   2
ATOM      2  C   UNL     1     -20.678  -8.087  -7.859  1.00  0.00     0.000 C 
BRANCH   2   3
ATOM      3  C   UNL     1     -20.041  -7.566  -9.161  1.00  0.00     0.000 C 
BRANCH   3   4
ATOM      4  C   UNL     1     -21.095  -7.168 -10.218  1.00  0.00    -0.000 C 
BRANCH   4   5
ATOM      5  C   UNL     1     -21.915  -5.923  -9.839  1.00  0.00    -0.000 C 
BRANCH   5   6
ATOM      6  C   UNL     1     -21.599  -4.659 -10.658  1.00  0.00    -0.000 C 
BRANCH   6   7
ATOM      7  C   UNL     1     -20.314  -3.912 -10.243  1.00  0.00    -0.000 C 
BRANCH   7   8
ATOM      8  C   UNL     1     -20.323  -2.397 -10.498  1.00  0.00    -0.003 C 
ATOM      9  C   UNL     1     -21.542  -1.698  -9.906  1.00  0.00     0.004 C 
ENDBRANCH   7   8
ENDBRANCH   6   7
ENDBRANCH   5   6
ENDBRANCH   4   5
ENDBRANCH   3   4
ENDBRANCH   2   3
ENDBRANCH   1   2
BRANCH   1  10
ATOM     10  C   UNL     1     -19.361  -6.135  -6.855  1.00  0.00     0.000 C 
BRANCH  10  11
ATOM     11  C   UNL     1     -20.009  -5.005  -6.037  1.00  0.00     0.000 C 
BRANCH  11  12
ATOM     12  C   UNL     1     -20.677  -3.904  -6.879  1.00  0.00     0.004 C 
BRANCH  12  13
ATOM     13  C   UNL     1     -22.044  -3.471  -6.326  1.00  0.00     0.027 C 
BRANCH  13  14
ATOM     14  C   UNL     1     -23.167  -4.129  -7.088  1.00  0.00    -0.027 C 
ATOM     15  C   UNL     1     -23.804  -5.241  -6.697  1.00  0.00    -0.004 C 
BRANCH  15  16
ATOM     16  C   UNL     1     -23.462  -5.997  -5.470  1.00  0.00     0.007 C 
ATOM     17  C   UNL     1     -23.436  -7.333  -5.472  1.00  0.00     0.093 C 
BRANCH  17  18
ATOM     18  C   UNL     1     -23.082  -8.112  -4.272  1.00  0.00     0.330 C 
ATOM     19  O   UNL     1     -22.723  -7.531  -3.211  1.00  0.00    -0.247 OA
BRANCH  18  20
ATOM     20  O   UNL     1     -23.152  -9.507  -4.325  1.00  0.00    -0.466 OA
ATOM     21  C   UNL     1     -22.049 -10.310  -4.724  1.00  0.00     0.282 C 
ENDBRANCH  18  20
ENDBRANCH  17  18
ENDBRANCH  15  16
ENDBRANCH  13  14
ENDBRANCH  12  13
ENDBRANCH  11  12
ENDBRANCH  10  11
ENDBRANCH   1  10
TORSDOF 15
ENDMDL
MODEL 8
REMARK VINA RESULT:    -4.308      1.675      4.672
REMARK INTER + INTRA:         -10.870
REMARK INTER:                  -7.921
REMARK INTRA:                  -2.949
REMARK UNBOUND:                -2.784
REMARK SMILES CCCCCCCCCCCCCC=CC=CC(=O)OC
REMARK SMILES IDX 9 1 8 2 7 3 6 4 5 5 4 6 3 7 2 8 1 9 10 10 11 11 12 12 13 13
REMARK SMILES IDX 14 14 15 15 16 16 17 17 18 18 19 19 20 20 21 21
REMARK H PARENT
REMARK Flexibility Score: inf
ROOT
ATOM      1  C   UNL     1     -19.441  -6.475  -6.845  1.00  0.00     0.000 C 
ENDROOT
BRANCH   1   2
ATOM      2  C   UNL     1     -19.392  -7.345  -8.112  1.00  0.00     0.000 C 
BRANCH   2   3
ATOM      3  C   UNL     1     -20.787  -7.600  -8.709  1.00  0.00     0.000 C 
BRANCH   3   4
ATOM      4  C   UNL     1     -20.923  -7.059 -10.149  1.00  0.00    -0.000 C 
BRANCH   4   5
ATOM      5  C   UNL     1     -21.888  -5.867 -10.276  1.00  0.00    -0.000 C 
BRANCH   5   6
ATOM      6  C   UNL     1     -21.221  -4.519 -10.603  1.00  0.00    -0.000 C 
BRANCH   6   7
ATOM      7  C   UNL     1     -22.096  -3.274 -10.342  1.00  0.00    -0.000 C 
BRANCH   7   8
ATOM      8  C   UNL     1     -21.324  -1.984 -10.023  1.00  0.00    -0.003 C 
ATOM      9  C   UNL     1     -19.857  -2.048 -10.436  1.00  0.00     0.004 C 
ENDBRANCH   7   8
ENDBRANCH   6   7
ENDBRANCH   5   6
ENDBRANCH   4   5
ENDBRANCH   3   4
ENDBRANCH   2   3
ENDBRANCH   1   2
BRANCH   1  10
ATOM     10  C   UNL     1     -19.898  -5.035  -7.132  1.00  0.00     0.000 C 
BRANCH  10  11
ATOM     11  C   UNL     1     -20.968  -4.539  -6.145  1.00  0.00     0.000 C 
BRANCH  11  12
ATOM     12  C   UNL     1     -22.321  -4.186  -6.789  1.00  0.00     0.004 C 
BRANCH  12  13
ATOM     13  C   UNL     1     -23.294  -5.375  -6.834  1.00  0.00     0.027 C 
BRANCH  13  14
ATOM     14  C   UNL     1     -23.688  -5.802  -5.443  1.00  0.00    -0.027 C 
ATOM     15  C   UNL     1     -23.559  -7.046  -4.963  1.00  0.00    -0.004 C 
BRANCH  15  16
ATOM     16  C   UNL     1     -23.039  -8.184  -5.754  1.00  0.00     0.007 C 
ATOM     17  C   UNL     1     -21.956  -8.859  -5.358  1.00  0.00     0.093 C 
BRANCH  17  18
ATOM     18  C   UNL     1     -21.426 -10.007  -6.116  1.00  0.00     0.330 C 
ATOM     19  O   UNL     1     -22.199 -10.751  -6.780  1.00  0.00    -0.247 OA
BRANCH  18  20
ATOM     20  O   UNL     1     -20.052 -10.258  -6.091  1.00  0.00    -0.466 OA
ATOM     21  C   UNL     1     -19.509 -11.470  -5.583  1.00  0.00     0.282 C 
ENDBRANCH  18  20
ENDBRANCH  17  18
ENDBRANCH  15  16
ENDBRANCH  13  14
ENDBRANCH  12  13
ENDBRANCH  11  12
ENDBRANCH  10  11
ENDBRANCH   1  10
TORSDOF 15
ENDMDL
MODEL 9
REMARK VINA RESULT:    -4.282      1.501      3.084
REMARK INTER + INTRA:         -10.822
REMARK INTER:                  -7.946
REMARK INTRA:                  -2.877
REMARK UNBOUND:                -2.784
REMARK SMILES CCCCCCCCCCCCCC=CC=CC(=O)OC
REMARK SMILES IDX 9 1 8 2 7 3 6 4 5 5 4 6 3 7 2 8 1 9 10 10 11 11 12 12 13 13
REMARK SMILES IDX 14 14 15 15 16 16 17 17 18 18 19 19 20 20 21 21
REMARK H PARENT
REMARK Flexibility Score: inf
ROOT
ATOM      1  C   UNL     1     -21.994  -5.565  -9.822  1.00  0.00     0.000 C 
ENDROOT
BRANCH   1   2
ATOM      2  C   UNL     1     -21.013  -6.692 -10.185  1.00  0.00     0.000 C 
BRANCH   2   3
ATOM      3  C   UNL     1     -20.749  -7.649  -9.008  1.00  0.00     0.000 C 
BRANCH   3   4
ATOM      4  C   UNL     1     -19.243  -7.853  -8.737  1.00  0.00    -0.000 C 
BRANCH   4   5
ATOM      5  C   UNL     1     -18.887  -7.940  -7.243  1.00  0.00    -0.000 C 
BRANCH   5   6
ATOM      6  C   UNL     1     -19.516  -9.126  -6.490  1.00  0.00    -0.000 C 
BRANCH   6   7
ATOM      7  C   UNL     1     -20.577  -8.745  -5.436  1.00  0.00    -0.000 C 
BRANCH   7   8
ATOM      8  C   UNL     1     -22.037  -8.957  -5.868  1.00  0.00    -0.003 C 
ATOM      9  C   UNL     1     -23.043  -8.451  -4.840  1.00  0.00     0.004 C 
ENDBRANCH   7   8
ENDBRANCH   6   7
ENDBRANCH   5   6
ENDBRANCH   4   5
ENDBRANCH   3   4
ENDBRANCH   2   3
ENDBRANCH   1   2
BRANCH   1  10
ATOM     10  C   UNL     1     -22.135  -4.519 -10.939  1.00  0.00     0.000 C 
BRANCH  10  11
ATOM     11  C   UNL     1     -21.859  -3.085 -10.455  1.00  0.00     0.000 C 
BRANCH  11  12
ATOM     12  C   UNL     1     -20.402  -2.620 -10.621  1.00  0.00     0.004 C 
BRANCH  12  13
ATOM     13  C   UNL     1     -19.714  -2.310  -9.282  1.00  0.00     0.027 C 
BRANCH  13  14
ATOM     14  C   UNL     1     -18.906  -3.490  -8.804  1.00  0.00    -0.027 C 
ATOM     15  C   UNL     1     -19.230  -4.263  -7.759  1.00  0.00    -0.004 C 
BRANCH  15  16
ATOM     16  C   UNL     1     -20.418  -4.036  -6.905  1.00  0.00     0.007 C 
ATOM     17  C   UNL     1     -21.033  -5.056  -6.299  1.00  0.00     0.093 C 
BRANCH  17  18
ATOM     18  C   UNL     1     -22.207  -4.858  -5.429  1.00  0.00     0.330 C 
ATOM     19  O   UNL     1     -23.375  -5.007  -5.882  1.00  0.00    -0.247 OA
BRANCH  18  20
ATOM     20  O   UNL     1     -22.006  -4.506  -4.092  1.00  0.00    -0.466 OA
ATOM     21  C   UNL     1     -21.638  -5.457  -3.101  1.00  0.00     0.282 C 
ENDBRANCH  18  20
ENDBRANCH  17  18
ENDBRANCH  15  16
ENDBRANCH  13  14
ENDBRANCH  12  13
ENDBRANCH  11  12
ENDBRANCH  10  11
ENDBRANCH   1  10
TORSDOF 15
ENDMDL
