MODEL 1
REMARK VINA RESULT:    -3.762      0.000      0.000
REMARK INTER + INTRA:          -7.541
REMARK INTER:                  -6.840
REMARK INTRA:                  -0.701
REMARK UNBOUND:                -0.701
REMARK SMILES CCCCCCCCCCCCCCCC(=O)[O-]
REMARK SMILES IDX 9 1 10 2 11 3 12 4 13 5 14 6 15 7 16 8 17 9 18 10 8 11 7 12
REMARK SMILES IDX 6 13 5 14 4 15 3 16 2 17 1 18
REMARK H PARENT
REMARK Flexibility Score: inf
ROOT
ATOM      1  C   UNL     1      -2.847   4.477   0.044  1.00  0.00     0.000 C 
ENDROOT
BRANCH   1   2
ATOM      2  C   UNL     1      -3.121   5.272  -1.251  1.00  0.00     0.000 C 
BRANCH   2   3
ATOM      3  C   UNL     1      -3.381   4.382  -2.482  1.00  0.00     0.000 C 
BRANCH   3   4
ATOM      4  C   UNL     1      -3.802   5.141  -3.756  1.00  0.00     0.000 C 
BRANCH   4   5
ATOM      5  C   UNL     1      -5.275   5.588  -3.790  1.00  0.00     0.000 C 
BRANCH   5   6
ATOM      6  C   UNL     1      -5.650   6.313  -5.093  1.00  0.00     0.006 C 
BRANCH   6   7
ATOM      7  C   UNL     1      -7.036   5.901  -5.607  1.00  0.00     0.053 C 
BRANCH   7   8
ATOM      8  C   UNL     1      -7.181   6.144  -7.078  1.00  0.00     0.041 C 
ATOM      9  O   UNL     1      -6.387   5.604  -7.891  1.00  0.00    -0.550 OA
ATOM     10  O   UNL     1      -8.213   6.945  -7.553  1.00  0.00    -0.550 OA
ENDBRANCH   7   8
ENDBRANCH   6   7
ENDBRANCH   5   6
ENDBRANCH   4   5
ENDBRANCH   3   4
ENDBRANCH   2   3
ENDBRANCH   1   2
BRANCH   1  11
ATOM     11  C   UNL     1      -3.003   2.959  -0.158  1.00  0.00     0.000 C 
BRANCH  11  12
ATOM     12  C   UNL     1      -4.005   2.331   0.824  1.00  0.00    -0.000 C 
BRANCH  12  13
ATOM     13  C   UNL     1      -4.522   0.964   0.351  1.00  0.00    -0.000 C 
BRANCH  13  14
ATOM     14  C   UNL     1      -3.739   0.480  -0.879  1.00  0.00    -0.000 C 
BRANCH  14  15
ATOM     15  C   UNL     1      -3.733  -1.051  -1.016  1.00  0.00    -0.000 C 
BRANCH  15  16
ATOM     16  C   UNL     1      -3.658  -1.514  -2.482  1.00  0.00    -0.000 C 
BRANCH  16  17
ATOM     17  C   UNL     1      -3.880  -3.027  -2.633  1.00  0.00    -0.003 C 
ATOM     18  C   UNL     1      -3.802  -3.774  -1.300  1.00  0.00     0.004 C 
ENDBRANCH  16  17
ENDBRANCH  15  16
ENDBRANCH  14  15
ENDBRANCH  13  14
ENDBRANCH  12  13
ENDBRANCH  11  12
ENDBRANCH   1  11
TORSDOF 14
ENDMDL
MODEL 2
REMARK VINA RESULT:    -3.707      0.900      1.475
REMARK INTER + INTRA:          -7.441
REMARK INTER:                  -6.940
REMARK INTRA:                  -0.501
REMARK UNBOUND:                -0.701
REMARK SMILES CCCCCCCCCCCCCCCC(=O)[O-]
REMARK SMILES IDX 9 1 10 2 11 3 12 4 13 5 14 6 15 7 16 8 17 9 18 10 8 11 7 12
REMARK SMILES IDX 6 13 5 14 4 15 3 16 2 17 1 18
REMARK H PARENT
REMARK Flexibility Score: inf
ROOT
ATOM      1  C   UNL     1      -2.946   3.742  -1.743  1.00  0.00     0.000 C 
ENDROOT
BRANCH   1   2
ATOM      2  C   UNL     1      -3.301   5.107  -2.371  1.00  0.00     0.000 C 
BRANCH   2   3
ATOM      3  C   UNL     1      -3.964   4.999  -3.757  1.00  0.00     0.000 C 
BRANCH   3   4
ATOM      4  C   UNL     1      -5.334   5.694  -3.878  1.00  0.00     0.000 C 
BRANCH   4   5
ATOM      5  C   UNL     1      -5.633   6.307  -5.259  1.00  0.00     0.000 C 
BRANCH   5   6
ATOM      6  C   UNL     1      -7.064   6.021  -5.743  1.00  0.00     0.006 C 
BRANCH   6   7
ATOM      7  C   UNL     1      -7.161   5.982  -7.275  1.00  0.00     0.053 C 
BRANCH   7   8
ATOM      8  C   UNL     1      -7.238   7.356  -7.864  1.00  0.00     0.041 C 
ATOM      9  O   UNL     1      -7.798   8.288  -7.229  1.00  0.00    -0.550 OA
ATOM     10  O   UNL     1      -6.666   7.616  -9.104  1.00  0.00    -0.550 OA
ENDBRANCH   7   8
ENDBRANCH   6   7
ENDBRANCH   5   6
ENDBRANCH   4   5
ENDBRANCH   3   4
ENDBRANCH   2   3
ENDBRANCH   1   2
BRANCH   1  11
ATOM     11  C   UNL     1      -3.016   3.770  -0.206  1.00  0.00     0.000 C 
BRANCH  11  12
ATOM     12  C   UNL     1      -3.723   2.536   0.378  1.00  0.00    -0.000 C 
BRANCH  12  13
ATOM     13  C   UNL     1      -3.053   1.217  -0.035  1.00  0.00    -0.000 C 
BRANCH  13  14
ATOM     14  C   UNL     1      -4.100   0.202  -0.520  1.00  0.00    -0.000 C 
BRANCH  14  15
ATOM     15  C   UNL     1      -3.468  -1.092  -1.060  1.00  0.00    -0.000 C 
BRANCH  15  16
ATOM     16  C   UNL     1      -4.085  -1.538  -2.398  1.00  0.00    -0.000 C 
BRANCH  16  17
ATOM     17  C   UNL     1      -3.867  -3.033  -2.677  1.00  0.00    -0.003 C 
ATOM     18  C   UNL     1      -3.849  -3.878  -1.401  1.00  0.00     0.004 C 
ENDBRANCH  16  17
ENDBRANCH  15  16
ENDBRANCH  14  15
ENDBRANCH  13  14
ENDBRANCH  12  13
ENDBRANCH  11  12
ENDBRANCH   1  11
TORSDOF 14
ENDMDL
MODEL 3
REMARK VINA RESULT:    -3.132      3.906      8.275
REMARK INTER + INTRA:          -6.396
REMARK INTER:                  -5.781
REMARK INTRA:                  -0.614
REMARK UNBOUND:                -0.701
REMARK SMILES CCCCCCCCCCCCCCCC(=O)[O-]
REMARK SMILES IDX 9 1 10 2 11 3 12 4 13 5 14 6 15 7 16 8 17 9 18 10 8 11 7 12
REMARK SMILES IDX 6 13 5 14 4 15 3 16 2 17 1 18
REMARK H PARENT
REMARK Flexibility Score: inf
ROOT
ATOM      1  C   UNL     1      -3.381   5.265  -0.910  1.00  0.00     0.000 C 
ENDROOT
BRANCH   1   2
ATOM      2  C   UNL     1      -3.329   4.141   0.149  1.00  0.00     0.000 C 
BRANCH   2   3
ATOM      3  C   UNL     1      -2.676   2.841  -0.358  1.00  0.00     0.000 C 
BRANCH   3   4
ATOM      4  C   UNL     1      -3.535   1.573  -0.189  1.00  0.00     0.000 C 
BRANCH   4   5
ATOM      5  C   UNL     1      -2.910   0.284  -0.756  1.00  0.00     0.000 C 
BRANCH   5   6
ATOM      6  C   UNL     1      -3.930  -0.856  -0.908  1.00  0.00     0.006 C 
BRANCH   6   7
ATOM      7  C   UNL     1      -3.882  -1.492  -2.305  1.00  0.00     0.053 C 
BRANCH   7   8
ATOM      8  C   UNL     1      -3.848  -2.987  -2.237  1.00  0.00     0.041 C 
ATOM      9  O   UNL     1      -3.772  -3.669  -3.293  1.00  0.00    -0.550 OA
ATOM     10  O   UNL     1      -3.870  -3.629  -1.005  1.00  0.00    -0.550 OA
ENDBRANCH   7   8
ENDBRANCH   6   7
ENDBRANCH   5   6
ENDBRANCH   4   5
ENDBRANCH   3   4
ENDBRANCH   2   3
ENDBRANCH   1   2
BRANCH   1  11
ATOM     11  C   UNL     1      -2.695   4.860  -2.226  1.00  0.00     0.000 C 
BRANCH  11  12
ATOM     12  C   UNL     1      -3.700   4.524  -3.339  1.00  0.00    -0.000 C 
BRANCH  12  13
ATOM     13  C   UNL     1      -4.753   5.624  -3.541  1.00  0.00    -0.000 C 
BRANCH  13  14
ATOM     14  C   UNL     1      -5.289   5.609  -4.981  1.00  0.00    -0.000 C 
BRANCH  14  15
ATOM     15  C   UNL     1      -6.645   6.321  -5.118  1.00  0.00    -0.000 C 
BRANCH  15  16
ATOM     16  C   UNL     1      -7.407   5.902  -6.388  1.00  0.00    -0.000 C 
BRANCH  16  17
ATOM     17  C   UNL     1      -6.936   6.665  -7.635  1.00  0.00    -0.003 C 
ATOM     18  C   UNL     1      -7.272   8.157  -7.581  1.00  0.00     0.004 C 
ENDBRANCH  16  17
ENDBRANCH  15  16
ENDBRANCH  14  15
ENDBRANCH  13  14
ENDBRANCH  12  13
ENDBRANCH  11  12
ENDBRANCH   1  11
TORSDOF 14
ENDMDL
MODEL 4
REMARK VINA RESULT:    -3.038      5.213      8.470
REMARK INTER + INTRA:          -6.226
REMARK INTER:                  -5.153
REMARK INTRA:                  -1.072
REMARK UNBOUND:                -0.701
REMARK SMILES CCCCCCCCCCCCCCCC(=O)[O-]
REMARK SMILES IDX 9 1 10 2 11 3 12 4 13 5 14 6 15 7 16 8 17 9 18 10 8 11 7 12
REMARK SMILES IDX 6 13 5 14 4 15 3 16 2 17 1 18
REMARK H PARENT
REMARK Flexibility Score: inf
ROOT
ATOM      1  C   UNL     1      -2.714  -0.040  -0.809  1.00  0.00     0.000 C 
ENDROOT
BRANCH   1   2
ATOM      2  C   UNL     1      -4.168  -0.422  -1.164  1.00  0.00     0.000 C 
BRANCH   2   3
ATOM      3  C   UNL     1      -4.316  -1.080  -2.549  1.00  0.00     0.000 C 
BRANCH   3   4
ATOM      4  C   UNL     1      -3.070  -1.838  -3.046  1.00  0.00     0.000 C 
BRANCH   4   5
ATOM      5  C   UNL     1      -3.203  -3.372  -3.057  1.00  0.00     0.000 C 
BRANCH   5   6
ATOM      6  C   UNL     1      -4.248  -3.888  -2.053  1.00  0.00     0.006 C 
BRANCH   6   7
ATOM      7  C   UNL     1      -3.712  -3.895  -0.614  1.00  0.00     0.053 C 
BRANCH   7   8
ATOM      8  C   UNL     1      -4.649  -4.590   0.326  1.00  0.00     0.041 C 
ATOM      9  O   UNL     1      -5.066  -4.000   1.356  1.00  0.00    -0.550 OA
ATOM     10  O   UNL     1      -5.084  -5.880   0.048  1.00  0.00    -0.550 OA
ENDBRANCH   7   8
ENDBRANCH   6   7
ENDBRANCH   5   6
ENDBRANCH   4   5
ENDBRANCH   3   4
ENDBRANCH   2   3
ENDBRANCH   1   2
BRANCH   1  11
ATOM     11  C   UNL     1      -2.631   1.291  -0.042  1.00  0.00     0.000 C 
BRANCH  11  12
ATOM     12  C   UNL     1      -4.010   1.812   0.393  1.00  0.00    -0.000 C 
BRANCH  12  13
ATOM     13  C   UNL     1      -3.984   3.293   0.800  1.00  0.00    -0.000 C 
BRANCH  13  14
ATOM     14  C   UNL     1      -2.727   3.988   0.253  1.00  0.00    -0.000 C 
BRANCH  14  15
ATOM     15  C   UNL     1      -3.025   5.372  -0.347  1.00  0.00    -0.000 C 
BRANCH  15  16
ATOM     16  C   UNL     1      -3.382   5.304  -1.842  1.00  0.00    -0.000 C 
BRANCH  16  17
ATOM     17  C   UNL     1      -2.921   3.992  -2.497  1.00  0.00    -0.003 C 
ATOM     18  C   UNL     1      -2.294   4.206  -3.876  1.00  0.00     0.004 C 
ENDBRANCH  16  17
ENDBRANCH  15  16
ENDBRANCH  14  15
ENDBRANCH  13  14
ENDBRANCH  12  13
ENDBRANCH  11  12
ENDBRANCH   1  11
TORSDOF 14
ENDMDL
MODEL 5
REMARK VINA RESULT:    -2.982      4.667      8.532
REMARK INTER + INTRA:          -6.124
REMARK INTER:                  -5.456
REMARK INTRA:                  -0.668
REMARK UNBOUND:                -0.701
REMARK SMILES CCCCCCCCCCCCCCCC(=O)[O-]
REMARK SMILES IDX 9 1 10 2 11 3 12 4 13 5 14 6 15 7 16 8 17 9 18 10 8 11 7 12
REMARK SMILES IDX 6 13 5 14 4 15 3 16 2 17 1 18
REMARK H PARENT
REMARK Flexibility Score: inf
ROOT
ATOM      1  C   UNL     1      -4.273   0.887   0.486  1.00  0.00     0.000 C 
ENDROOT
BRANCH   1   2
ATOM      2  C   UNL     1      -3.472   0.392  -0.738  1.00  0.00     0.000 C 
BRANCH   2   3
ATOM      3  C   UNL     1      -4.120  -0.803  -1.462  1.00  0.00     0.000 C 
BRANCH   3   4
ATOM      4  C   UNL     1      -3.406  -1.246  -2.754  1.00  0.00     0.000 C 
BRANCH   4   5
ATOM      5  C   UNL     1      -3.228  -2.768  -2.910  1.00  0.00     0.000 C 
BRANCH   5   6
ATOM      6  C   UNL     1      -4.197  -3.575  -2.031  1.00  0.00     0.006 C 
BRANCH   6   7
ATOM      7  C   UNL     1      -3.589  -3.919  -0.664  1.00  0.00     0.053 C 
BRANCH   7   8
ATOM      8  C   UNL     1      -4.599  -4.526   0.259  1.00  0.00     0.041 C 
ATOM      9  O   UNL     1      -5.064  -3.858   1.219  1.00  0.00    -0.550 OA
ATOM     10  O   UNL     1      -5.051  -5.823   0.043  1.00  0.00    -0.550 OA
ENDBRANCH   7   8
ENDBRANCH   6   7
ENDBRANCH   5   6
ENDBRANCH   4   5
ENDBRANCH   3   4
ENDBRANCH   2   3
ENDBRANCH   1   2
BRANCH   1  11
ATOM     11  C   UNL     1      -4.078   2.391   0.743  1.00  0.00     0.000 C 
BRANCH  11  12
ATOM     12  C   UNL     1      -2.965   3.001  -0.123  1.00  0.00    -0.000 C 
BRANCH  12  13
ATOM     13  C   UNL     1      -2.865   4.527   0.026  1.00  0.00    -0.000 C 
BRANCH  13  14
ATOM     14  C   UNL     1      -3.169   5.227  -1.308  1.00  0.00    -0.000 C 
BRANCH  14  15
ATOM     15  C   UNL     1      -2.839   4.351  -2.528  1.00  0.00    -0.000 C 
BRANCH  15  16
ATOM     16  C   UNL     1      -3.682   4.716  -3.763  1.00  0.00    -0.000 C 
BRANCH  16  17
ATOM     17  C   UNL     1      -4.732   5.796  -3.460  1.00  0.00    -0.003 C 
ATOM     18  C   UNL     1      -5.766   5.948  -4.577  1.00  0.00     0.004 C 
ENDBRANCH  16  17
ENDBRANCH  15  16
ENDBRANCH  14  15
ENDBRANCH  13  14
ENDBRANCH  12  13
ENDBRANCH  11  12
ENDBRANCH   1  11
TORSDOF 14
ENDMDL
MODEL 6
REMARK VINA RESULT:    -2.961      3.884      8.675
REMARK INTER + INTRA:          -6.085
REMARK INTER:                  -5.577
REMARK INTRA:                  -0.508
REMARK UNBOUND:                -0.701
REMARK SMILES CCCCCCCCCCCCCCCC(=O)[O-]
REMARK SMILES IDX 9 1 10 2 11 3 12 4 13 5 14 6 15 7 16 8 17 9 18 10 8 11 7 12
REMARK SMILES IDX 6 13 5 14 4 15 3 16 2 17 1 18
REMARK H PARENT
REMARK Flexibility Score: inf
ROOT
ATOM      1  C   UNL     1      -3.325   4.924  -1.429  1.00  0.00     0.000 C 
ENDROOT
BRANCH   1   2
ATOM      2  C   UNL     1      -2.872   3.550  -0.889  1.00  0.00     0.000 C 
BRANCH   2   3
ATOM      3  C   UNL     1      -3.725   3.033   0.285  1.00  0.00     0.000 C 
BRANCH   3   4
ATOM      4  C   UNL     1      -3.752   1.500   0.444  1.00  0.00     0.000 C 
BRANCH   4   5
ATOM      5  C   UNL     1      -3.301   0.710  -0.798  1.00  0.00     0.000 C 
BRANCH   5   6
ATOM      6  C   UNL     1      -4.094  -0.593  -0.998  1.00  0.00     0.006 C 
BRANCH   6   7
ATOM      7  C   UNL     1      -3.668  -1.341  -2.269  1.00  0.00     0.053 C 
BRANCH   7   8
ATOM      8  C   UNL     1      -3.803  -2.825  -2.114  1.00  0.00     0.041 C 
ATOM      9  O   UNL     1      -3.952  -3.557  -3.127  1.00  0.00    -0.550 OA
ATOM     10  O   UNL     1      -3.735  -3.402  -0.852  1.00  0.00    -0.550 OA
ENDBRANCH   7   8
ENDBRANCH   6   7
ENDBRANCH   5   6
ENDBRANCH   4   5
ENDBRANCH   3   4
ENDBRANCH   2   3
ENDBRANCH   1   2
BRANCH   1  11
ATOM     11  C   UNL     1      -3.594   4.897  -2.943  1.00  0.00     0.000 C 
BRANCH  11  12
ATOM     12  C   UNL     1      -4.884   5.639  -3.329  1.00  0.00    -0.000 C 
BRANCH  12  13
ATOM     13  C   UNL     1      -5.156   5.611  -4.841  1.00  0.00    -0.000 C 
BRANCH  13  14
ATOM     14  C   UNL     1      -6.371   6.484  -5.193  1.00  0.00    -0.000 C 
BRANCH  14  15
ATOM     15  C   UNL     1      -7.244   5.869  -6.300  1.00  0.00    -0.000 C 
BRANCH  15  16
ATOM     16  C   UNL     1      -7.030   6.545  -7.666  1.00  0.00    -0.000 C 
BRANCH  16  17
ATOM     17  C   UNL     1      -7.222   8.068  -7.605  1.00  0.00    -0.003 C 
ATOM     18  C   UNL     1      -7.249   8.719  -8.989  1.00  0.00     0.004 C 
ENDBRANCH  16  17
ENDBRANCH  15  16
ENDBRANCH  14  15
ENDBRANCH  13  14
ENDBRANCH  12  13
ENDBRANCH  11  12
ENDBRANCH   1  11
TORSDOF 14
ENDMDL
MODEL 7
REMARK VINA RESULT:    -2.823      2.756      4.133
REMARK INTER + INTRA:          -5.835
REMARK INTER:                  -4.847
REMARK INTRA:                  -0.987
REMARK UNBOUND:                -0.701
REMARK SMILES CCCCCCCCCCCCCCCC(=O)[O-]
REMARK SMILES IDX 9 1 10 2 11 3 12 4 13 5 14 6 15 7 16 8 17 9 18 10 8 11 7 12
REMARK SMILES IDX 6 13 5 14 4 15 3 16 2 17 1 18
REMARK H PARENT
REMARK Flexibility Score: inf
ROOT
ATOM      1  C   UNL     1      -2.692   1.282   0.033  1.00  0.00     0.000 C 
ENDROOT
BRANCH   1   2
ATOM      2  C   UNL     1      -4.053   1.787   0.560  1.00  0.00     0.000 C 
BRANCH   2   3
ATOM      3  C   UNL     1      -4.069   3.289   0.900  1.00  0.00     0.000 C 
BRANCH   3   4
ATOM      4  C   UNL     1      -2.705   3.997   0.784  1.00  0.00     0.000 C 
BRANCH   4   5
ATOM      5  C   UNL     1      -2.765   5.442   0.255  1.00  0.00     0.000 C 
BRANCH   5   6
ATOM      6  C   UNL     1      -3.245   5.524  -1.204  1.00  0.00     0.006 C 
BRANCH   6   7
ATOM      7  C   UNL     1      -2.791   4.314  -2.032  1.00  0.00     0.053 C 
BRANCH   7   8
ATOM      8  C   UNL     1      -3.040   4.514  -3.495  1.00  0.00     0.041 C 
ATOM      9  O   UNL     1      -2.244   4.036  -4.345  1.00  0.00    -0.550 OA
ATOM     10  O   UNL     1      -4.168   5.205  -3.922  1.00  0.00    -0.550 OA
ENDBRANCH   7   8
ENDBRANCH   6   7
ENDBRANCH   5   6
ENDBRANCH   4   5
ENDBRANCH   3   4
ENDBRANCH   2   3
ENDBRANCH   1   2
BRANCH   1  11
ATOM     11  C   UNL     1      -2.825  -0.017  -0.780  1.00  0.00     0.000 C 
BRANCH  11  12
ATOM     12  C   UNL     1      -4.283  -0.349  -1.133  1.00  0.00    -0.000 C 
BRANCH  12  13
ATOM     13  C   UNL     1      -4.407  -1.199  -2.406  1.00  0.00    -0.000 C 
BRANCH  13  14
ATOM     14  C   UNL     1      -3.109  -1.978  -2.671  1.00  0.00    -0.000 C 
BRANCH  14  15
ATOM     15  C   UNL     1      -3.362  -3.457  -3.008  1.00  0.00    -0.000 C 
BRANCH  15  16
ATOM     16  C   UNL     1      -4.159  -4.186  -1.912  1.00  0.00    -0.000 C 
BRANCH  16  17
ATOM     17  C   UNL     1      -3.646  -3.864  -0.500  1.00  0.00    -0.003 C 
ATOM     18  C   UNL     1      -4.567  -4.394   0.601  1.00  0.00     0.004 C 
ENDBRANCH  16  17
ENDBRANCH  15  16
ENDBRANCH  14  15
ENDBRANCH  13  14
ENDBRANCH  12  13
ENDBRANCH  11  12
ENDBRANCH   1  11
TORSDOF 14
ENDMDL
MODEL 8
REMARK VINA RESULT:    -2.798      4.051      9.281
REMARK INTER + INTRA:          -5.789
REMARK INTER:                  -5.043
REMARK INTRA:                  -0.746
REMARK UNBOUND:                -0.701
REMARK SMILES CCCCCCCCCCCCCCCC(=O)[O-]
REMARK SMILES IDX 9 1 10 2 11 3 12 4 13 5 14 6 15 7 16 8 17 9 18 10 8 11 7 12
REMARK SMILES IDX 6 13 5 14 4 15 3 16 2 17 1 18
REMARK H PARENT
REMARK Flexibility Score: inf
ROOT
ATOM      1  C   UNL     1      -5.470   6.373  -4.521  1.00  0.00     0.000 C 
ENDROOT
BRANCH   1   2
ATOM      2  C   UNL     1      -4.929   5.500  -3.367  1.00  0.00     0.000 C 
BRANCH   2   3
ATOM      3  C   UNL     1      -3.574   4.835  -3.674  1.00  0.00     0.000 C 
BRANCH   3   4
ATOM      4  C   UNL     1      -2.668   4.608  -2.448  1.00  0.00     0.000 C 
BRANCH   4   5
ATOM      5  C   UNL     1      -3.187   5.221  -1.134  1.00  0.00     0.000 C 
BRANCH   5   6
ATOM      6  C   UNL     1      -2.998   4.289   0.075  1.00  0.00     0.006 C 
BRANCH   6   7
ATOM      7  C   UNL     1      -2.624   2.861  -0.348  1.00  0.00     0.053 C 
BRANCH   7   8
ATOM      8  C   UNL     1      -3.650   1.862   0.092  1.00  0.00     0.041 C 
ATOM      9  O   UNL     1      -3.726   0.740  -0.472  1.00  0.00    -0.550 OA
ATOM     10  O   UNL     1      -4.504   2.160   1.148  1.00  0.00    -0.550 OA
ENDBRANCH   7   8
ENDBRANCH   6   7
ENDBRANCH   5   6
ENDBRANCH   4   5
ENDBRANCH   3   4
ENDBRANCH   2   3
ENDBRANCH   1   2
BRANCH   1  11
ATOM     11  C   UNL     1      -6.507   5.628  -5.380  1.00  0.00     0.000 C 
BRANCH  11  12
ATOM     12  C   UNL     1      -7.340   6.576  -6.258  1.00  0.00    -0.000 C 
BRANCH  12  13
ATOM     13  C   UNL     1      -7.393   6.132  -7.727  1.00  0.00    -0.000 C 
BRANCH  13  14
ATOM     14  C   UNL     1      -8.457   6.927  -8.500  1.00  0.00    -0.000 C 
BRANCH  14  15
ATOM     15  C   UNL     1      -7.912   8.244  -9.078  1.00  0.00    -0.000 C 
BRANCH  15  16
ATOM     16  C   UNL     1      -7.835   9.364  -8.026  1.00  0.00    -0.000 C 
BRANCH  16  17
ATOM     17  C   UNL     1      -6.429   9.972  -7.916  1.00  0.00    -0.003 C 
ATOM     18  C   UNL     1      -5.442   9.369  -8.917  1.00  0.00     0.004 C 
ENDBRANCH  16  17
ENDBRANCH  15  16
ENDBRANCH  14  15
ENDBRANCH  13  14
ENDBRANCH  12  13
ENDBRANCH  11  12
ENDBRANCH   1  11
TORSDOF 14
ENDMDL
MODEL 9
REMARK VINA RESULT:    -2.672      2.035      4.308
REMARK INTER + INTRA:          -5.560
REMARK INTER:                  -4.779
REMARK INTRA:                  -0.781
REMARK UNBOUND:                -0.701
REMARK SMILES CCCCCCCCCCCCCCCC(=O)[O-]
REMARK SMILES IDX 9 1 10 2 11 3 12 4 13 5 14 6 15 7 16 8 17 9 18 10 8 11 7 12
REMARK SMILES IDX 6 13 5 14 4 15 3 16 2 17 1 18
REMARK H PARENT
REMARK Flexibility Score: inf
ROOT
ATOM      1  C   UNL     1      -5.025   5.468  -3.223  1.00  0.00     0.000 C 
ENDROOT
BRANCH   1   2
ATOM      2  C   UNL     1      -5.608   6.387  -4.318  1.00  0.00     0.000 C 
BRANCH   2   3
ATOM      3  C   UNL     1      -6.088   5.631  -5.572  1.00  0.00     0.000 C 
BRANCH   3   4
ATOM      4  C   UNL     1      -7.344   6.218  -6.244  1.00  0.00     0.000 C 
BRANCH   4   5
ATOM      5  C   UNL     1      -7.375   6.100  -7.780  1.00  0.00     0.000 C 
BRANCH   5   6
ATOM      6  C   UNL     1      -8.288   7.146  -8.441  1.00  0.00     0.006 C 
BRANCH   6   7
ATOM      7  C   UNL     1      -7.508   8.382  -8.909  1.00  0.00     0.053 C 
BRANCH   7   8
ATOM      8  C   UNL     1      -7.218   9.320  -7.778  1.00  0.00     0.041 C 
ATOM      9  O   UNL     1      -6.064   9.801  -7.633  1.00  0.00    -0.550 OA
ATOM     10  O   UNL     1      -8.231   9.687  -6.901  1.00  0.00    -0.550 OA
ENDBRANCH   7   8
ENDBRANCH   6   7
ENDBRANCH   5   6
ENDBRANCH   4   5
ENDBRANCH   3   4
ENDBRANCH   2   3
ENDBRANCH   1   2
BRANCH   1  11
ATOM     11  C   UNL     1      -3.668   4.865  -3.627  1.00  0.00     0.000 C 
BRANCH  11  12
ATOM     12  C   UNL     1      -2.825   4.436  -2.416  1.00  0.00    -0.000 C 
BRANCH  12  13
ATOM     13  C   UNL     1      -2.893   5.445  -1.259  1.00  0.00    -0.000 C 
BRANCH  13  14
ATOM     14  C   UNL     1      -2.965   4.719   0.094  1.00  0.00    -0.000 C 
BRANCH  14  15
ATOM     15  C   UNL     1      -2.996   3.189  -0.052  1.00  0.00    -0.000 C 
BRANCH  15  16
ATOM     16  C   UNL     1      -4.155   2.543   0.727  1.00  0.00    -0.000 C 
BRANCH  16  17
ATOM     17  C   UNL     1      -4.222   1.021   0.529  1.00  0.00    -0.003 C 
ATOM     18  C   UNL     1      -3.509   0.557  -0.743  1.00  0.00     0.004 C 
ENDBRANCH  16  17
ENDBRANCH  15  16
ENDBRANCH  14  15
ENDBRANCH  13  14
ENDBRANCH  12  13
ENDBRANCH  11  12
ENDBRANCH   1  11
TORSDOF 14
ENDMDL
