MODEL 1
REMARK VINA RESULT:    -4.426      0.000      0.000
REMARK INTER + INTRA:          -6.067
REMARK INTER:                  -5.720
REMARK INTRA:                  -0.347
REMARK UNBOUND:                -0.347
REMARK SMILES CCCCCCC(=O)[O-]
REMARK SMILES IDX 5 1 6 2 7 3 8 4 9 5 4 6 3 7 2 8 1 9
REMARK H PARENT
REMARK Flexibility Score: inf
ROOT
ATOM      1  C   UNL     1      28.980  -2.217   5.500  1.00  0.00     0.006 C 
ENDROOT
BRANCH   1   2
ATOM      2  C   UNL     1      29.824  -3.316   6.161  1.00  0.00     0.053 C 
BRANCH   2   3
ATOM      3  C   UNL     1      31.092  -2.770   6.742  1.00  0.00     0.041 C 
ATOM      4  O   UNL     1      31.103  -2.301   7.911  1.00  0.00    -0.550 OA
ATOM      5  O   UNL     1      32.268  -2.805   6.004  1.00  0.00    -0.550 OA
ENDBRANCH   2   3
ENDBRANCH   1   2
BRANCH   1   6
ATOM      6  C   UNL     1      27.510  -2.265   5.950  1.00  0.00     0.000 C 
BRANCH   6   7
ATOM      7  C   UNL     1      27.272  -1.523   7.275  1.00  0.00    -0.000 C 
BRANCH   7   8
ATOM      8  C   UNL     1      28.088  -0.227   7.383  1.00  0.00    -0.003 C 
ATOM      9  C   UNL     1      28.421   0.093   8.837  1.00  0.00     0.004 C 
ENDBRANCH   7   8
ENDBRANCH   6   7
ENDBRANCH   1   6
TORSDOF 5
ENDMDL
MODEL 2
REMARK VINA RESULT:    -4.364     16.886     18.505
REMARK INTER + INTRA:          -5.987
REMARK INTER:                  -5.872
REMARK INTRA:                  -0.115
REMARK UNBOUND:                -0.347
REMARK SMILES CCCCCCC(=O)[O-]
REMARK SMILES IDX 5 1 6 2 7 3 8 4 9 5 4 6 3 7 2 8 1 9
REMARK H PARENT
REMARK Flexibility Score: inf
ROOT
ATOM      1  C   UNL     1      13.255   2.385  15.554  1.00  0.00     0.006 C 
ENDROOT
BRANCH   1   2
ATOM      2  C   UNL     1      12.993   3.383  16.691  1.00  0.00     0.053 C 
BRANCH   2   3
ATOM      3  C   UNL     1      13.526   2.887  18.001  1.00  0.00     0.041 C 
ATOM      4  O   UNL     1      13.877   3.705  18.892  1.00  0.00    -0.550 OA
ATOM      5  O   UNL     1      13.607   1.523  18.248  1.00  0.00    -0.550 OA
ENDBRANCH   2   3
ENDBRANCH   1   2
BRANCH   1   6
ATOM      6  C   UNL     1      14.687   2.497  15.003  1.00  0.00     0.000 C 
BRANCH   6   7
ATOM      7  C   UNL     1      14.852   1.806  13.640  1.00  0.00    -0.000 C 
BRANCH   7   8
ATOM      8  C   UNL     1      15.493   2.720  12.586  1.00  0.00    -0.003 C 
ATOM      9  C   UNL     1      15.906   1.927  11.349  1.00  0.00     0.004 C 
ENDBRANCH   7   8
ENDBRANCH   6   7
ENDBRANCH   1   6
TORSDOF 5
ENDMDL
MODEL 3
REMARK VINA RESULT:    -4.336      1.595      2.416
REMARK INTER + INTRA:          -5.951
REMARK INTER:                  -5.608
REMARK INTRA:                  -0.343
REMARK UNBOUND:                -0.347
REMARK SMILES CCCCCCC(=O)[O-]
REMARK SMILES IDX 5 1 6 2 7 3 8 4 9 5 4 6 3 7 2 8 1 9
REMARK H PARENT
REMARK Flexibility Score: inf
ROOT
ATOM      1  C   UNL     1      30.955  -2.633   6.186  1.00  0.00     0.006 C 
ENDROOT
BRANCH   1   2
ATOM      2  C   UNL     1      31.480  -2.582   7.627  1.00  0.00     0.053 C 
BRANCH   2   3
ATOM      3  C   UNL     1      31.137  -1.288   8.300  1.00  0.00     0.041 C 
ATOM      4  O   UNL     1      31.116  -1.213   9.557  1.00  0.00    -0.550 OA
ATOM      5  O   UNL     1      30.870  -0.157   7.539  1.00  0.00    -0.550 OA
ENDBRANCH   2   3
ENDBRANCH   1   2
BRANCH   1   6
ATOM      6  C   UNL     1      29.599  -3.353   6.088  1.00  0.00     0.000 C 
BRANCH   6   7
ATOM      7  C   UNL     1      28.504  -2.471   5.465  1.00  0.00    -0.000 C 
BRANCH   7   8
ATOM      8  C   UNL     1      27.246  -2.381   6.341  1.00  0.00    -0.003 C 
ATOM      9  C   UNL     1      27.395  -1.300   7.408  1.00  0.00     0.004 C 
ENDBRANCH   7   8
ENDBRANCH   6   7
ENDBRANCH   1   6
TORSDOF 5
ENDMDL
MODEL 4
REMARK VINA RESULT:    -4.329     13.831     15.405
REMARK INTER + INTRA:          -5.941
REMARK INTER:                  -5.701
REMARK INTRA:                  -0.240
REMARK UNBOUND:                -0.347
REMARK SMILES CCCCCCC(=O)[O-]
REMARK SMILES IDX 5 1 6 2 7 3 8 4 9 5 4 6 3 7 2 8 1 9
REMARK H PARENT
REMARK Flexibility Score: inf
ROOT
ATOM      1  C   UNL     1      14.754   1.731  13.685  1.00  0.00     0.006 C 
ENDROOT
BRANCH   1   2
ATOM      2  C   UNL     1      15.533   1.559  14.996  1.00  0.00     0.053 C 
BRANCH   2   3
ATOM      3  C   UNL     1      16.155   0.199  15.100  1.00  0.00     0.041 C 
ATOM      4  O   UNL     1      16.942  -0.207  14.205  1.00  0.00    -0.550 OA
ATOM      5  O   UNL     1      15.888  -0.607  16.199  1.00  0.00    -0.550 OA
ENDBRANCH   2   3
ENDBRANCH   1   2
BRANCH   1   6
ATOM      6  C   UNL     1      15.497   2.632  12.683  1.00  0.00     0.000 C 
BRANCH   6   7
ATOM      7  C   UNL     1      15.874   1.893  11.390  1.00  0.00    -0.000 C 
BRANCH   7   8
ATOM      8  C   UNL     1      17.393   1.784  11.190  1.00  0.00    -0.003 C 
ATOM      9  C   UNL     1      17.732   0.786  10.087  1.00  0.00     0.004 C 
ENDBRANCH   7   8
ENDBRANCH   6   7
ENDBRANCH   1   6
TORSDOF 5
ENDMDL
MODEL 5
REMARK VINA RESULT:    -4.302     13.337     14.821
REMARK INTER + INTRA:          -5.907
REMARK INTER:                  -5.591
REMARK INTRA:                  -0.315
REMARK UNBOUND:                -0.347
REMARK SMILES CCCCCCC(=O)[O-]
REMARK SMILES IDX 5 1 6 2 7 3 8 4 9 5 4 6 3 7 2 8 1 9
REMARK H PARENT
REMARK Flexibility Score: inf
ROOT
ATOM      1  C   UNL     1      15.773   1.089  14.778  1.00  0.00     0.006 C 
ENDROOT
BRANCH   1   2
ATOM      2  C   UNL     1      16.377  -0.300  14.532  1.00  0.00     0.053 C 
BRANCH   2   3
ATOM      3  C   UNL     1      17.874  -0.275  14.587  1.00  0.00     0.041 C 
ATOM      4  O   UNL     1      18.551  -0.547  13.561  1.00  0.00    -0.550 OA
ATOM      5  O   UNL     1      18.521   0.076  15.765  1.00  0.00    -0.550 OA
ENDBRANCH   2   3
ENDBRANCH   1   2
BRANCH   1   6
ATOM      6  C   UNL     1      14.859   1.538  13.625  1.00  0.00     0.000 C 
BRANCH   6   7
ATOM      7  C   UNL     1      15.532   2.567  12.703  1.00  0.00    -0.000 C 
BRANCH   7   8
ATOM      8  C   UNL     1      15.858   1.997  11.315  1.00  0.00    -0.003 C 
ATOM      9  C   UNL     1      17.362   1.809  11.138  1.00  0.00     0.004 C 
ENDBRANCH   7   8
ENDBRANCH   6   7
ENDBRANCH   1   6
TORSDOF 5
ENDMDL
MODEL 6
REMARK VINA RESULT:    -4.298     14.355     15.689
REMARK INTER + INTRA:          -5.901
REMARK INTER:                  -5.811
REMARK INTRA:                  -0.091
REMARK UNBOUND:                -0.347
REMARK SMILES CCCCCCC(=O)[O-]
REMARK SMILES IDX 5 1 6 2 7 3 8 4 9 5 4 6 3 7 2 8 1 9
REMARK H PARENT
REMARK Flexibility Score: inf
ROOT
ATOM      1  C   UNL     1      15.437   1.531  12.602  1.00  0.00     0.006 C 
ENDROOT
BRANCH   1   2
ATOM      2  C   UNL     1      16.204   1.980  11.350  1.00  0.00     0.053 C 
BRANCH   2   3
ATOM      3  C   UNL     1      17.403   1.119  11.093  1.00  0.00     0.041 C 
ATOM      4  O   UNL     1      17.779   0.892   9.912  1.00  0.00    -0.550 OA
ATOM      5  O   UNL     1      18.123   0.591  12.157  1.00  0.00    -0.550 OA
ENDBRANCH   2   3
ENDBRANCH   1   2
BRANCH   1   6
ATOM      6  C   UNL     1      15.102   2.711  13.531  1.00  0.00     0.000 C 
BRANCH   6   7
ATOM      7  C   UNL     1      14.654   2.254  14.928  1.00  0.00    -0.000 C 
BRANCH   7   8
ATOM      8  C   UNL     1      13.232   2.719  15.276  1.00  0.00    -0.003 C 
ATOM      9  C   UNL     1      13.170   3.282  16.693  1.00  0.00     0.004 C 
ENDBRANCH   7   8
ENDBRANCH   6   7
ENDBRANCH   1   6
TORSDOF 5
ENDMDL
MODEL 7
REMARK VINA RESULT:    -4.297     15.736     17.324
REMARK INTER + INTRA:          -5.900
REMARK INTER:                  -5.780
REMARK INTRA:                  -0.120
REMARK UNBOUND:                -0.347
REMARK SMILES CCCCCCC(=O)[O-]
REMARK SMILES IDX 5 1 6 2 7 3 8 4 9 5 4 6 3 7 2 8 1 9
REMARK H PARENT
REMARK Flexibility Score: inf
ROOT
ATOM      1  C   UNL     1      15.087   2.265  14.548  1.00  0.00     0.006 C 
ENDROOT
BRANCH   1   2
ATOM      2  C   UNL     1      13.647   2.556  14.992  1.00  0.00     0.053 C 
BRANCH   2   3
ATOM      3  C   UNL     1      13.524   2.611  16.485  1.00  0.00     0.041 C 
ATOM      4  O   UNL     1      13.618   1.557  17.168  1.00  0.00    -0.550 OA
ATOM      5  O   UNL     1      13.335   3.830  17.123  1.00  0.00    -0.550 OA
ENDBRANCH   2   3
ENDBRANCH   1   2
BRANCH   1   6
ATOM      6  C   UNL     1      15.414   2.905  13.188  1.00  0.00     0.000 C 
BRANCH   6   7
ATOM      7  C   UNL     1      15.502   1.872  12.053  1.00  0.00    -0.000 C 
BRANCH   7   8
ATOM      8  C   UNL     1      16.814   1.972  11.261  1.00  0.00    -0.003 C 
ATOM      9  C   UNL     1      17.794   0.881  11.684  1.00  0.00     0.004 C 
ENDBRANCH   7   8
ENDBRANCH   6   7
ENDBRANCH   1   6
TORSDOF 5
ENDMDL
MODEL 8
REMARK VINA RESULT:    -4.277     17.936     18.982
REMARK INTER + INTRA:          -5.874
REMARK INTER:                  -5.750
REMARK INTRA:                  -0.123
REMARK UNBOUND:                -0.347
REMARK SMILES CCCCCCC(=O)[O-]
REMARK SMILES IDX 5 1 6 2 7 3 8 4 9 5 4 6 3 7 2 8 1 9
REMARK H PARENT
REMARK Flexibility Score: inf
ROOT
ATOM      1  C   UNL     1      15.078   1.329  19.670  1.00  0.00     0.006 C 
ENDROOT
BRANCH   1   2
ATOM      2  C   UNL     1      15.277  -0.191  19.745  1.00  0.00     0.053 C 
BRANCH   2   3
ATOM      3  C   UNL     1      16.692  -0.583  19.449  1.00  0.00     0.041 C 
ATOM      4  O   UNL     1      17.605   0.284  19.457  1.00  0.00    -0.550 OA
ATOM      5  O   UNL     1      17.008  -1.911  19.192  1.00  0.00    -0.550 OA
ENDBRANCH   2   3
ENDBRANCH   1   2
BRANCH   1   6
ATOM      6  C   UNL     1      14.006   1.723  18.639  1.00  0.00     0.000 C 
BRANCH   6   7
ATOM      7  C   UNL     1      13.843   3.246  18.509  1.00  0.00    -0.000 C 
BRANCH   7   8
ATOM      8  C   UNL     1      12.876   3.644  17.384  1.00  0.00    -0.003 C 
ATOM      9  C   UNL     1      13.211   2.913  16.087  1.00  0.00     0.004 C 
ENDBRANCH   7   8
ENDBRANCH   6   7
ENDBRANCH   1   6
TORSDOF 5
ENDMDL
MODEL 9
REMARK VINA RESULT:    -4.208     14.735     16.290
REMARK INTER + INTRA:          -5.785
REMARK INTER:                  -5.655
REMARK INTRA:                  -0.130
REMARK UNBOUND:                -0.347
REMARK SMILES CCCCCCC(=O)[O-]
REMARK SMILES IDX 5 1 6 2 7 3 8 4 9 5 4 6 3 7 2 8 1 9
REMARK H PARENT
REMARK Flexibility Score: inf
ROOT
ATOM      1  C   UNL     1      15.131   2.138  15.134  1.00  0.00     0.006 C 
ENDROOT
BRANCH   1   2
ATOM      2  C   UNL     1      16.158   1.185  15.761  1.00  0.00     0.053 C 
BRANCH   2   3
ATOM      3  C   UNL     1      16.477   1.561  17.176  1.00  0.00     0.041 C 
ATOM      4  O   UNL     1      15.556   1.909  17.962  1.00  0.00    -0.550 OA
ATOM      5  O   UNL     1      17.786   1.501  17.634  1.00  0.00    -0.550 OA
ENDBRANCH   2   3
ENDBRANCH   1   2
BRANCH   1   6
ATOM      6  C   UNL     1      14.790   1.751  13.685  1.00  0.00     0.000 C 
BRANCH   6   7
ATOM      7  C   UNL     1      15.532   2.615  12.652  1.00  0.00    -0.000 C 
BRANCH   7   8
ATOM      8  C   UNL     1      15.906   1.833  11.385  1.00  0.00    -0.003 C 
ATOM      9  C   UNL     1      17.399   1.943  11.092  1.00  0.00     0.004 C 
ENDBRANCH   7   8
ENDBRANCH   6   7
ENDBRANCH   1   6
TORSDOF 5
ENDMDL
