MODEL 1
REMARK VINA RESULT:    -0.828      0.000      0.000
REMARK INTER + INTRA:           2.380
REMARK INTER:                  -1.264
REMARK INTRA:                   3.644
REMARK UNBOUND:                 3.644
REMARK SMILES CC1=CCC[C@@H](C)C(=O)C[C@H](C(C)C)C(=O)C1
REMARK SMILES IDX 8 1 9 2 6 3 7 4 5 5 4 6 3 7 2 8 1 9 10 11 11 12 15 13 16 14
REMARK SMILES IDX 17 15 12 17 13 18 14 19
REMARK H PARENT
REMARK Flexibility Score: 70.00
ROOT
ATOM      1  C   UNL     1      -3.073  -5.123 -14.263  1.00  0.00     0.136 C 
ATOM      2  O   UNL     1      -4.256  -5.425 -14.195  1.00  0.00    -0.299 OA
ENDROOT
BRANCH   1   3
ATOM      3  C   UNL     1      -2.066  -6.034 -13.556  1.00  0.00     0.053 C 
ATOM      4  C   UNL     1      -1.422  -5.260 -12.395  1.00  0.00     0.016 C 
BRANCH   3   5
ATOM      5  C   UNL     1      -0.939  -6.641 -14.432  1.00  0.00     0.015 C 
BRANCH   5   6
ATOM      6  C   UNL     1      -1.319  -7.811 -15.359  1.00  0.00     0.028 C 
BRANCH   6   7
ATOM      7  C   UNL     1      -2.778  -7.866 -15.740  1.00  0.00    -0.028 C 
ATOM      8  C   UNL     1      -3.365  -7.281 -16.816  1.00  0.00    -0.070 CG0
ATOM      9  C   UNL     1      -4.828  -7.582 -17.038  1.00  0.00     0.039 C 
ATOM     10  G   UNL     1      -2.700  -6.267 -17.743  1.00  0.00     0.000 G0
ENDBRANCH   6   7
ENDBRANCH   5   6
ENDBRANCH   3   5
ENDBRANCH   1   3
BRANCH   1  11
ATOM     11  C   UNL     1      -2.720  -3.856 -15.004  1.00  0.00     0.087 C 
BRANCH  11  12
ATOM     12  C   UNL     1      -2.852  -3.909 -16.559  1.00  0.00     0.066 C 
BRANCH  12  13
ATOM     13  C   UNL     1      -2.074  -5.028 -17.260  1.00  0.00     0.140 C 
ATOM     14  O   UNL     1      -0.875  -4.874 -17.447  1.00  0.00    -0.299 OA
BRANCH  13  15
ATOM     15  C   UNL     1      -2.720  -6.277 -17.815  1.00  0.00     0.106 CG0
ATOM     16  G   UNL     1      -3.349  -7.205 -16.780  1.00  0.00     0.000 G0
ENDBRANCH  13  15
ENDBRANCH  12  13
BRANCH  12  17
ATOM     17  C   UNL     1      -4.314  -3.706 -17.093  1.00  0.00    -0.006 C 
ATOM     18  C   UNL     1      -4.830  -4.985 -17.775  1.00  0.00     0.008 C 
ATOM     19  C   UNL     1      -5.342  -3.256 -16.042  1.00  0.00     0.008 C 
ENDBRANCH  12  17
ENDBRANCH  11  12
ENDBRANCH   1  11
TORSDOF 1
ENDMDL
MODEL 2
REMARK VINA RESULT:     1.662      1.464      3.659
REMARK INTER + INTRA:           6.181
REMARK INTER:                  -1.393
REMARK INTRA:                   7.574
REMARK UNBOUND:                 3.644
REMARK SMILES CC1=CCC[C@@H](C)C(=O)C[C@H](C(C)C)C(=O)C1
REMARK SMILES IDX 8 1 9 2 6 3 7 4 5 5 4 6 3 7 2 8 1 9 10 11 11 12 15 13 16 14
REMARK SMILES IDX 17 15 12 17 13 18 14 19
REMARK H PARENT
REMARK Flexibility Score: 70.00
ROOT
ATOM      1  C   UNL     1      -3.786  -4.473 -15.153  1.00  0.00     0.136 C 
ATOM      2  O   UNL     1      -3.544  -3.911 -14.095  1.00  0.00    -0.299 OA
ENDROOT
BRANCH   1   3
ATOM      3  C   UNL     1      -3.924  -3.602 -16.404  1.00  0.00     0.053 C 
ATOM      4  C   UNL     1      -5.248  -3.944 -17.108  1.00  0.00     0.016 C 
BRANCH   3   5
ATOM      5  C   UNL     1      -2.776  -3.686 -17.444  1.00  0.00     0.015 C 
BRANCH   5   6
ATOM      6  C   UNL     1      -2.190  -5.079 -17.737  1.00  0.00     0.028 C 
BRANCH   6   7
ATOM      7  C   UNL     1      -3.212  -6.132 -18.091  1.00  0.00    -0.028 C 
ATOM      8  C   UNL     1      -3.262  -7.409 -17.634  1.00  0.00    -0.070 CG0
ATOM      9  C   UNL     1      -4.457  -8.233 -18.054  1.00  0.00     0.039 C 
ATOM     10  G   UNL     1      -2.166  -8.106 -16.833  1.00  0.00     0.000 G0
ENDBRANCH   6   7
ENDBRANCH   5   6
ENDBRANCH   3   5
ENDBRANCH   1   3
BRANCH   1  11
ATOM     11  C   UNL     1      -3.969  -5.971 -15.119  1.00  0.00     0.087 C 
BRANCH  11  12
ATOM     12  C   UNL     1      -2.734  -6.804 -14.650  1.00  0.00     0.066 C 
BRANCH  12  13
ATOM     13  C   UNL     1      -2.443  -8.080 -15.446  1.00  0.00     0.140 C 
ATOM     14  O   UNL     1      -2.410  -9.145 -14.847  1.00  0.00    -0.299 OA
BRANCH  13  15
ATOM     15  C   UNL     1      -2.107  -8.090 -16.920  1.00  0.00     0.106 CG0
ATOM     16  G   UNL     1      -2.975  -7.191 -17.797  1.00  0.00     0.000 G0
ENDBRANCH  13  15
ENDBRANCH  12  13
BRANCH  12  17
ATOM     17  C   UNL     1      -1.462  -5.946 -14.318  1.00  0.00    -0.006 C 
ATOM     18  C   UNL     1      -1.745  -4.447 -14.522  1.00  0.00     0.008 C 
ATOM     19  C   UNL     1      -0.879  -6.152 -12.910  1.00  0.00     0.008 C 
ENDBRANCH  12  17
ENDBRANCH  11  12
ENDBRANCH   1  11
TORSDOF 1
ENDMDL
