MODEL 1
REMARK VINA RESULT:    -3.410      0.000      0.000
REMARK INTER + INTRA:          -8.237
REMARK INTER:                  -6.300
REMARK INTRA:                  -1.936
REMARK UNBOUND:                -1.936
REMARK SMILES CCCCCCCCCCCCCCCCO
REMARK SMILES IDX 9 1 8 2 7 3 6 4 5 5 4 6 3 7 2 8 1 9 10 10 11 11 12 12 13 13
REMARK SMILES IDX 14 14 15 15 16 16 17 17
REMARK H PARENT 17 18
REMARK Flexibility Score: inf
ROOT
ATOM      1  C   UNL     1      11.056 -38.392  47.509  1.00  0.00     0.000 C 
ENDROOT
BRANCH   1   2
ATOM      2  C   UNL     1      10.885 -39.696  46.709  1.00  0.00    -0.000 C 
BRANCH   2   3
ATOM      3  C   UNL     1       9.984 -39.524  45.472  1.00  0.00    -0.000 C 
BRANCH   3   4
ATOM      4  C   UNL     1       9.047 -40.713  45.188  1.00  0.00    -0.000 C 
BRANCH   4   5
ATOM      5  C   UNL     1       7.659 -40.547  45.831  1.00  0.00    -0.000 C 
BRANCH   5   6
ATOM      6  C   UNL     1       7.262 -39.073  46.011  1.00  0.00    -0.000 C 
BRANCH   6   7
ATOM      7  C   UNL     1       6.890 -38.737  47.465  1.00  0.00    -0.000 C 
BRANCH   7   8
ATOM      8  C   UNL     1       7.518 -39.713  48.473  1.00  0.00    -0.003 C 
ATOM      9  C   UNL     1       7.590 -39.139  49.888  1.00  0.00     0.004 C 
ENDBRANCH   7   8
ENDBRANCH   6   7
ENDBRANCH   5   6
ENDBRANCH   4   5
ENDBRANCH   3   4
ENDBRANCH   2   3
ENDBRANCH   1   2
BRANCH   1  10
ATOM     10  C   UNL     1      10.361 -37.194  46.844  1.00  0.00     0.000 C 
BRANCH  10  11
ATOM     11  C   UNL     1       9.676 -36.270  47.866  1.00  0.00     0.000 C 
BRANCH  11  12
ATOM     12  C   UNL     1      10.384 -36.268  49.230  1.00  0.00     0.000 C 
BRANCH  12  13
ATOM     13  C   UNL     1       9.404 -36.177  50.409  1.00  0.00     0.000 C 
BRANCH  13  14
ATOM     14  C   UNL     1       9.479 -34.797  51.078  1.00  0.00     0.002 C 
BRANCH  14  15
ATOM     15  C   UNL     1       8.378 -34.577  52.130  1.00  0.00     0.028 C 
BRANCH  15  16
ATOM     16  C   UNL     1       8.837 -33.747  53.333  1.00  0.00     0.156 C 
BRANCH  16  17
ATOM     17  O   UNL     1       8.196 -32.501  53.338  1.00  0.00    -0.396 OA
ATOM     18  H   UNL     1       8.886 -31.835  53.083  1.00  0.00     0.210 HD
ENDBRANCH  16  17
ENDBRANCH  15  16
ENDBRANCH  14  15
ENDBRANCH  13  14
ENDBRANCH  12  13
ENDBRANCH  11  12
ENDBRANCH  10  11
ENDBRANCH   1  10
TORSDOF 15
ENDMDL
MODEL 2
REMARK VINA RESULT:    -3.376      1.109      2.099
REMARK INTER + INTRA:          -8.174
REMARK INTER:                  -6.759
REMARK INTRA:                  -1.415
REMARK UNBOUND:                -1.936
REMARK SMILES CCCCCCCCCCCCCCCCO
REMARK SMILES IDX 9 1 8 2 7 3 6 4 5 5 4 6 3 7 2 8 1 9 10 10 11 11 12 12 13 13
REMARK SMILES IDX 14 14 15 15 16 16 17 17
REMARK H PARENT 17 18
REMARK Flexibility Score: inf
ROOT
ATOM      1  C   UNL     1       9.341 -36.885  47.383  1.00  0.00     0.000 C 
ENDROOT
BRANCH   1   2
ATOM      2  C   UNL     1      10.602 -37.337  46.624  1.00  0.00    -0.000 C 
BRANCH   2   3
ATOM      3  C   UNL     1      10.691 -38.866  46.473  1.00  0.00    -0.000 C 
BRANCH   3   4
ATOM      4  C   UNL     1       9.870 -39.447  45.306  1.00  0.00    -0.000 C 
BRANCH   4   5
ATOM      5  C   UNL     1       9.393 -40.886  45.569  1.00  0.00    -0.000 C 
BRANCH   5   6
ATOM      6  C   UNL     1       7.861 -41.013  45.558  1.00  0.00    -0.000 C 
BRANCH   6   7
ATOM      7  C   UNL     1       7.177 -39.956  46.440  1.00  0.00    -0.000 C 
BRANCH   7   8
ATOM      8  C   UNL     1       6.024 -39.242  45.715  1.00  0.00    -0.003 C 
ATOM      9  C   UNL     1       6.277 -37.745  45.533  1.00  0.00     0.004 C 
ENDBRANCH   7   8
ENDBRANCH   6   7
ENDBRANCH   5   6
ENDBRANCH   4   5
ENDBRANCH   3   4
ENDBRANCH   2   3
ENDBRANCH   1   2
BRANCH   1  10
ATOM     10  C   UNL     1       9.065 -37.735  48.634  1.00  0.00     0.000 C 
BRANCH  10  11
ATOM     11  C   UNL     1       9.812 -37.215  49.875  1.00  0.00     0.000 C 
BRANCH  11  12
ATOM     12  C   UNL     1       9.920 -35.682  49.901  1.00  0.00     0.000 C 
BRANCH  12  13
ATOM     13  C   UNL     1       9.858 -35.106  51.324  1.00  0.00     0.000 C 
BRANCH  13  14
ATOM     14  C   UNL     1       8.483 -35.361  51.958  1.00  0.00     0.002 C 
BRANCH  14  15
ATOM     15  C   UNL     1       7.801 -34.073  52.453  1.00  0.00     0.028 C 
BRANCH  15  16
ATOM     16  C   UNL     1       8.744 -33.136  53.217  1.00  0.00     0.156 C 
BRANCH  16  17
ATOM     17  O   UNL     1       8.207 -31.843  53.269  1.00  0.00    -0.396 OA
ATOM     18  H   UNL     1       8.654 -31.329  52.548  1.00  0.00     0.210 HD
ENDBRANCH  16  17
ENDBRANCH  15  16
ENDBRANCH  14  15
ENDBRANCH  13  14
ENDBRANCH  12  13
ENDBRANCH  11  12
ENDBRANCH  10  11
ENDBRANCH   1  10
TORSDOF 15
ENDMDL
MODEL 3
REMARK VINA RESULT:    -3.320      0.906      3.056
REMARK INTER + INTRA:          -8.070
REMARK INTER:                  -5.876
REMARK INTRA:                  -2.194
REMARK UNBOUND:                -1.936
REMARK SMILES CCCCCCCCCCCCCCCCO
REMARK SMILES IDX 9 1 8 2 7 3 6 4 5 5 4 6 3 7 2 8 1 9 10 10 11 11 12 12 13 13
REMARK SMILES IDX 14 14 15 15 16 16 17 17
REMARK H PARENT 17 18
REMARK Flexibility Score: inf
ROOT
ATOM      1  C   UNL     1       6.711 -38.702  47.626  1.00  0.00     0.000 C 
ENDROOT
BRANCH   1   2
ATOM      2  C   UNL     1       6.877 -39.454  46.293  1.00  0.00    -0.000 C 
BRANCH   2   3
ATOM      3  C   UNL     1       7.888 -40.611  46.383  1.00  0.00    -0.000 C 
BRANCH   3   4
ATOM      4  C   UNL     1       8.742 -40.819  45.118  1.00  0.00    -0.000 C 
BRANCH   4   5
ATOM      5  C   UNL     1      10.146 -40.200  45.236  1.00  0.00    -0.000 C 
BRANCH   5   6
ATOM      6  C   UNL     1      10.618 -40.075  46.694  1.00  0.00    -0.000 C 
BRANCH   6   7
ATOM      7  C   UNL     1      11.070 -38.648  47.045  1.00  0.00    -0.000 C 
BRANCH   7   8
ATOM      8  C   UNL     1      10.131 -37.575  46.469  1.00  0.00    -0.003 C 
ATOM      9  C   UNL     1       9.897 -36.413  47.434  1.00  0.00     0.004 C 
ENDBRANCH   7   8
ENDBRANCH   6   7
ENDBRANCH   5   6
ENDBRANCH   4   5
ENDBRANCH   3   4
ENDBRANCH   2   3
ENDBRANCH   1   2
BRANCH   1  10
ATOM     10  C   UNL     1       7.490 -39.357  48.777  1.00  0.00     0.000 C 
BRANCH  10  11
ATOM     11  C   UNL     1       7.931 -38.339  49.844  1.00  0.00     0.000 C 
BRANCH  11  12
ATOM     12  C   UNL     1       9.351 -38.610  50.368  1.00  0.00     0.000 C 
BRANCH  12  13
ATOM     13  C   UNL     1       9.829 -37.545  51.367  1.00  0.00     0.000 C 
BRANCH  13  14
ATOM     14  C   UNL     1       9.082 -36.220  51.154  1.00  0.00     0.002 C 
BRANCH  14  15
ATOM     15  C   UNL     1       8.530 -35.625  52.461  1.00  0.00     0.028 C 
BRANCH  15  16
ATOM     16  C   UNL     1       7.710 -34.346  52.253  1.00  0.00     0.156 C 
BRANCH  16  17
ATOM     17  O   UNL     1       8.082 -33.373  53.189  1.00  0.00    -0.396 OA
ATOM     18  H   UNL     1       8.421 -32.602  52.666  1.00  0.00     0.210 HD
ENDBRANCH  16  17
ENDBRANCH  15  16
ENDBRANCH  14  15
ENDBRANCH  13  14
ENDBRANCH  12  13
ENDBRANCH  11  12
ENDBRANCH  10  11
ENDBRANCH   1  10
TORSDOF 15
ENDMDL
MODEL 4
REMARK VINA RESULT:    -3.288     12.018     15.260
REMARK INTER + INTRA:          -8.012
REMARK INTER:                  -5.392
REMARK INTRA:                  -2.620
REMARK UNBOUND:                -1.936
REMARK SMILES CCCCCCCCCCCCCCCCO
REMARK SMILES IDX 9 1 8 2 7 3 6 4 5 5 4 6 3 7 2 8 1 9 10 10 11 11 12 12 13 13
REMARK SMILES IDX 14 14 15 15 16 16 17 17
REMARK H PARENT 17 18
REMARK Flexibility Score: inf
ROOT
ATOM      1  C   UNL     1      16.645 -31.761  62.406  1.00  0.00     0.000 C 
ENDROOT
BRANCH   1   2
ATOM      2  C   UNL     1      17.898 -31.757  61.512  1.00  0.00    -0.000 C 
BRANCH   2   3
ATOM      3  C   UNL     1      18.617 -33.118  61.486  1.00  0.00    -0.000 C 
BRANCH   3   4
ATOM      4  C   UNL     1      17.880 -34.250  62.226  1.00  0.00    -0.000 C 
BRANCH   4   5
ATOM      5  C   UNL     1      17.410 -35.373  61.284  1.00  0.00    -0.000 C 
BRANCH   5   6
ATOM      6  C   UNL     1      17.819 -35.130  59.823  1.00  0.00    -0.000 C 
BRANCH   6   7
ATOM      7  C   UNL     1      16.609 -35.066  58.876  1.00  0.00    -0.000 C 
BRANCH   7   8
ATOM      8  C   UNL     1      15.989 -33.661  58.809  1.00  0.00    -0.003 C 
ATOM      9  C   UNL     1      14.828 -33.573  57.818  1.00  0.00     0.004 C 
ENDBRANCH   7   8
ENDBRANCH   6   7
ENDBRANCH   5   6
ENDBRANCH   4   5
ENDBRANCH   3   4
ENDBRANCH   2   3
ENDBRANCH   1   2
BRANCH   1  10
ATOM     10  C   UNL     1      15.372 -31.361  61.645  1.00  0.00     0.000 C 
BRANCH  10  11
ATOM     11  C   UNL     1      14.153 -32.210  62.047  1.00  0.00     0.000 C 
BRANCH  11  12
ATOM     12  C   UNL     1      14.498 -33.280  63.096  1.00  0.00     0.000 C 
BRANCH  12  13
ATOM     13  C   UNL     1      13.934 -34.664  62.741  1.00  0.00     0.000 C 
BRANCH  13  14
ATOM     14  C   UNL     1      13.640 -34.766  61.238  1.00  0.00     0.002 C 
BRANCH  14  15
ATOM     15  C   UNL     1      13.767 -36.201  60.697  1.00  0.00     0.028 C 
BRANCH  15  16
ATOM     16  C   UNL     1      12.766 -36.526  59.583  1.00  0.00     0.156 C 
BRANCH  16  17
ATOM     17  O   UNL     1      11.468 -36.602  60.103  1.00  0.00    -0.396 OA
ATOM     18  H   UNL     1      10.861 -36.671  59.321  1.00  0.00     0.210 HD
ENDBRANCH  16  17
ENDBRANCH  15  16
ENDBRANCH  14  15
ENDBRANCH  13  14
ENDBRANCH  12  13
ENDBRANCH  11  12
ENDBRANCH  10  11
ENDBRANCH   1  10
TORSDOF 15
ENDMDL
MODEL 5
REMARK VINA RESULT:    -3.209      2.289      4.686
REMARK INTER + INTRA:          -7.865
REMARK INTER:                  -5.575
REMARK INTRA:                  -2.290
REMARK UNBOUND:                -1.936
REMARK SMILES CCCCCCCCCCCCCCCCO
REMARK SMILES IDX 9 1 8 2 7 3 6 4 5 5 4 6 3 7 2 8 1 9 10 10 11 11 12 12 13 13
REMARK SMILES IDX 14 14 15 15 16 16 17 17
REMARK H PARENT 17 18
REMARK Flexibility Score: inf
ROOT
ATOM      1  C   UNL     1       9.954 -39.556  45.424  1.00  0.00     0.000 C 
ENDROOT
BRANCH   1   2
ATOM      2  C   UNL     1      10.804 -40.348  46.434  1.00  0.00    -0.000 C 
BRANCH   2   3
ATOM      3  C   UNL     1      11.144 -39.533  47.696  1.00  0.00    -0.000 C 
BRANCH   3   4
ATOM      4  C   UNL     1      10.547 -40.089  49.002  1.00  0.00    -0.000 C 
BRANCH   4   5
ATOM      5  C   UNL     1      10.238 -38.990  50.033  1.00  0.00    -0.000 C 
BRANCH   5   6
ATOM      6  C   UNL     1       9.689 -37.708  49.387  1.00  0.00    -0.000 C 
BRANCH   6   7
ATOM      7  C   UNL     1       9.306 -36.642  50.427  1.00  0.00    -0.000 C 
BRANCH   7   8
ATOM      8  C   UNL     1       9.632 -35.216  49.955  1.00  0.00    -0.003 C 
ATOM      9  C   UNL     1       9.992 -35.151  48.471  1.00  0.00     0.004 C 
ENDBRANCH   7   8
ENDBRANCH   6   7
ENDBRANCH   5   6
ENDBRANCH   4   5
ENDBRANCH   3   4
ENDBRANCH   2   3
ENDBRANCH   1   2
BRANCH   1  10
ATOM     10  C   UNL     1       9.915 -38.052  45.733  1.00  0.00     0.000 C 
BRANCH  10  11
ATOM     11  C   UNL     1       8.490 -37.547  46.021  1.00  0.00     0.000 C 
BRANCH  11  12
ATOM     12  C   UNL     1       7.474 -38.692  46.162  1.00  0.00     0.000 C 
BRANCH  12  13
ATOM     13  C   UNL     1       6.692 -38.633  47.483  1.00  0.00     0.000 C 
BRANCH  13  14
ATOM     14  C   UNL     1       6.878 -39.928  48.287  1.00  0.00     0.002 C 
BRANCH  14  15
ATOM     15  C   UNL     1       6.002 -39.983  49.550  1.00  0.00     0.028 C 
BRANCH  15  16
ATOM     16  C   UNL     1       6.189 -38.776  50.478  1.00  0.00     0.156 C 
BRANCH  16  17
ATOM     17  O   UNL     1       4.946 -38.236  50.829  1.00  0.00    -0.396 OA
ATOM     18  H   UNL     1       4.669 -37.662  50.068  1.00  0.00     0.210 HD
ENDBRANCH  16  17
ENDBRANCH  15  16
ENDBRANCH  14  15
ENDBRANCH  13  14
ENDBRANCH  12  13
ENDBRANCH  11  12
ENDBRANCH  10  11
ENDBRANCH   1  10
TORSDOF 15
ENDMDL
MODEL 6
REMARK VINA RESULT:    -3.174      2.753      6.183
REMARK INTER + INTRA:          -7.801
REMARK INTER:                  -6.290
REMARK INTRA:                  -1.510
REMARK UNBOUND:                -1.936
REMARK SMILES CCCCCCCCCCCCCCCCO
REMARK SMILES IDX 9 1 8 2 7 3 6 4 5 5 4 6 3 7 2 8 1 9 10 10 11 11 12 12 13 13
REMARK SMILES IDX 14 14 15 15 16 16 17 17
REMARK H PARENT 17 18
REMARK Flexibility Score: inf
ROOT
ATOM      1  C   UNL     1      10.024 -37.813  45.869  1.00  0.00     0.000 C 
ENDROOT
BRANCH   1   2
ATOM      2  C   UNL     1      10.159 -37.771  47.402  1.00  0.00    -0.000 C 
BRANCH   2   3
ATOM      3  C   UNL     1       9.233 -36.728  48.054  1.00  0.00    -0.000 C 
BRANCH   3   4
ATOM      4  C   UNL     1       9.890 -35.361  48.321  1.00  0.00    -0.000 C 
BRANCH   4   5
ATOM      5  C   UNL     1      11.202 -35.473  49.117  1.00  0.00    -0.000 C 
BRANCH   5   6
ATOM      6  C   UNL     1      11.153 -34.713  50.452  1.00  0.00    -0.000 C 
BRANCH   6   7
ATOM      7  C   UNL     1      10.219 -35.381  51.475  1.00  0.00    -0.000 C 
BRANCH   7   8
ATOM      8  C   UNL     1       8.827 -34.731  51.511  1.00  0.00    -0.003 C 
ATOM      9  C   UNL     1       8.153 -34.851  52.878  1.00  0.00     0.004 C 
ENDBRANCH   7   8
ENDBRANCH   6   7
ENDBRANCH   5   6
ENDBRANCH   4   5
ENDBRANCH   3   4
ENDBRANCH   2   3
ENDBRANCH   1   2
BRANCH   1  10
ATOM     10  C   UNL     1       9.992 -39.246  45.316  1.00  0.00     0.000 C 
BRANCH  10  11
ATOM     11  C   UNL     1       9.725 -40.294  46.411  1.00  0.00     0.000 C 
BRANCH  11  12
ATOM     12  C   UNL     1       8.305 -40.877  46.338  1.00  0.00     0.000 C 
BRANCH  12  13
ATOM     13  C   UNL     1       7.476 -40.582  47.598  1.00  0.00     0.000 C 
BRANCH  13  14
ATOM     14  C   UNL     1       6.655 -39.296  47.423  1.00  0.00     0.002 C 
BRANCH  14  15
ATOM     15  C   UNL     1       6.195 -39.068  45.973  1.00  0.00     0.028 C 
BRANCH  15  16
ATOM     16  C   UNL     1       6.383 -37.625  45.490  1.00  0.00     0.156 C 
BRANCH  16  17
ATOM     17  O   UNL     1       5.285 -37.224  44.719  1.00  0.00    -0.396 OA
ATOM     18  H   UNL     1       5.660 -36.775  43.918  1.00  0.00     0.210 HD
ENDBRANCH  16  17
ENDBRANCH  15  16
ENDBRANCH  14  15
ENDBRANCH  13  14
ENDBRANCH  12  13
ENDBRANCH  11  12
ENDBRANCH  10  11
ENDBRANCH   1  10
TORSDOF 15
ENDMDL
MODEL 7
REMARK VINA RESULT:    -3.172      2.768      6.151
REMARK INTER + INTRA:          -7.797
REMARK INTER:                  -6.111
REMARK INTRA:                  -1.686
REMARK UNBOUND:                -1.936
REMARK SMILES CCCCCCCCCCCCCCCCO
REMARK SMILES IDX 9 1 8 2 7 3 6 4 5 5 4 6 3 7 2 8 1 9 10 10 11 11 12 12 13 13
REMARK SMILES IDX 14 14 15 15 16 16 17 17
REMARK H PARENT 17 18
REMARK Flexibility Score: inf
ROOT
ATOM      1  C   UNL     1       9.828 -37.060  46.977  1.00  0.00     0.000 C 
ENDROOT
BRANCH   1   2
ATOM      2  C   UNL     1       9.272 -36.766  48.382  1.00  0.00    -0.000 C 
BRANCH   2   3
ATOM      3  C   UNL     1       9.399 -37.967  49.338  1.00  0.00    -0.000 C 
BRANCH   3   4
ATOM      4  C   UNL     1       8.060 -38.509  49.872  1.00  0.00    -0.000 C 
BRANCH   4   5
ATOM      5  C   UNL     1       7.682 -37.924  51.243  1.00  0.00    -0.000 C 
BRANCH   5   6
ATOM      6  C   UNL     1       8.794 -37.045  51.839  1.00  0.00    -0.000 C 
BRANCH   6   7
ATOM      7  C   UNL     1       8.347 -35.586  52.037  1.00  0.00    -0.000 C 
BRANCH   7   8
ATOM      8  C   UNL     1       9.511 -34.663  52.432  1.00  0.00    -0.003 C 
ATOM      9  C   UNL     1       9.419 -34.180  53.879  1.00  0.00     0.004 C 
ENDBRANCH   7   8
ENDBRANCH   6   7
ENDBRANCH   5   6
ENDBRANCH   4   5
ENDBRANCH   3   4
ENDBRANCH   2   3
ENDBRANCH   1   2
BRANCH   1  10
ATOM     10  C   UNL     1      10.399 -38.482  46.851  1.00  0.00     0.000 C 
BRANCH  10  11
ATOM     11  C   UNL     1      10.017 -39.153  45.521  1.00  0.00     0.000 C 
BRANCH  11  12
ATOM     12  C   UNL     1       9.361 -40.529  45.720  1.00  0.00     0.000 C 
BRANCH  12  13
ATOM     13  C   UNL     1       8.166 -40.484  46.685  1.00  0.00     0.000 C 
BRANCH  13  14
ATOM     14  C   UNL     1       6.904 -39.979  45.971  1.00  0.00     0.002 C 
BRANCH  14  15
ATOM     15  C   UNL     1       6.417 -38.619  46.499  1.00  0.00     0.028 C 
BRANCH  15  16
ATOM     16  C   UNL     1       6.447 -37.506  45.445  1.00  0.00     0.156 C 
BRANCH  16  17
ATOM     17  O   UNL     1       5.231 -37.460  44.752  1.00  0.00    -0.396 OA
ATOM     18  H   UNL     1       5.084 -36.507  44.516  1.00  0.00     0.210 HD
ENDBRANCH  16  17
ENDBRANCH  15  16
ENDBRANCH  14  15
ENDBRANCH  13  14
ENDBRANCH  12  13
ENDBRANCH  11  12
ENDBRANCH  10  11
ENDBRANCH   1  10
TORSDOF 15
ENDMDL
MODEL 8
REMARK VINA RESULT:    -3.160      1.365      3.686
REMARK INTER + INTRA:          -7.775
REMARK INTER:                  -5.947
REMARK INTRA:                  -1.828
REMARK UNBOUND:                -1.936
REMARK SMILES CCCCCCCCCCCCCCCCO
REMARK SMILES IDX 9 1 8 2 7 3 6 4 5 5 4 6 3 7 2 8 1 9 10 10 11 11 12 12 13 13
REMARK SMILES IDX 14 14 15 15 16 16 17 17
REMARK H PARENT 17 18
REMARK Flexibility Score: inf
ROOT
ATOM      1  C   UNL     1       6.964 -40.833  47.183  1.00  0.00     0.000 C 
ENDROOT
BRANCH   1   2
ATOM      2  C   UNL     1       6.730 -40.024  45.894  1.00  0.00    -0.000 C 
BRANCH   2   3
ATOM      3  C   UNL     1       6.355 -38.557  46.171  1.00  0.00    -0.000 C 
BRANCH   3   4
ATOM      4  C   UNL     1       7.440 -37.532  45.792  1.00  0.00    -0.000 C 
BRANCH   4   5
ATOM      5  C   UNL     1       8.602 -37.493  46.799  1.00  0.00    -0.000 C 
BRANCH   5   6
ATOM      6  C   UNL     1       9.976 -37.649  46.126  1.00  0.00    -0.000 C 
BRANCH   6   7
ATOM      7  C   UNL     1      10.875 -38.662  46.854  1.00  0.00    -0.000 C 
BRANCH   7   8
ATOM      8  C   UNL     1      10.514 -40.118  46.517  1.00  0.00    -0.003 C 
ATOM      9  C   UNL     1      10.314 -40.347  45.019  1.00  0.00     0.004 C 
ENDBRANCH   7   8
ENDBRANCH   6   7
ENDBRANCH   5   6
ENDBRANCH   4   5
ENDBRANCH   3   4
ENDBRANCH   2   3
ENDBRANCH   1   2
BRANCH   1  10
ATOM     10  C   UNL     1       6.409 -40.132  48.432  1.00  0.00     0.000 C 
BRANCH  10  11
ATOM     11  C   UNL     1       7.505 -39.818  49.466  1.00  0.00     0.000 C 
BRANCH  11  12
ATOM     12  C   UNL     1       7.142 -38.629  50.370  1.00  0.00     0.000 C 
BRANCH  12  13
ATOM     13  C   UNL     1       8.305 -37.642  50.548  1.00  0.00     0.000 C 
BRANCH  13  14
ATOM     14  C   UNL     1       8.264 -36.993  51.940  1.00  0.00     0.002 C 
BRANCH  14  15
ATOM     15  C   UNL     1       8.865 -35.577  51.960  1.00  0.00     0.028 C 
BRANCH  15  16
ATOM     16  C   UNL     1       7.855 -34.489  52.342  1.00  0.00     0.156 C 
BRANCH  16  17
ATOM     17  O   UNL     1       8.248 -33.856  53.529  1.00  0.00    -0.396 OA
ATOM     18  H   UNL     1       8.150 -34.533  54.248  1.00  0.00     0.210 HD
ENDBRANCH  16  17
ENDBRANCH  15  16
ENDBRANCH  14  15
ENDBRANCH  13  14
ENDBRANCH  12  13
ENDBRANCH  11  12
ENDBRANCH  10  11
ENDBRANCH   1  10
TORSDOF 15
ENDMDL
MODEL 9
REMARK VINA RESULT:    -3.153      3.169      6.755
REMARK INTER + INTRA:          -7.763
REMARK INTER:                  -6.186
REMARK INTRA:                  -1.577
REMARK UNBOUND:                -1.936
REMARK SMILES CCCCCCCCCCCCCCCCO
REMARK SMILES IDX 9 1 8 2 7 3 6 4 5 5 4 6 3 7 2 8 1 9 10 10 11 11 12 12 13 13
REMARK SMILES IDX 14 14 15 15 16 16 17 17
REMARK H PARENT 17 18
REMARK Flexibility Score: inf
ROOT
ATOM      1  C   UNL     1      10.439 -37.591  46.655  1.00  0.00     0.000 C 
ENDROOT
BRANCH   1   2
ATOM      2  C   UNL     1       9.479 -37.159  47.778  1.00  0.00    -0.000 C 
BRANCH   2   3
ATOM      3  C   UNL     1       9.637 -35.675  48.159  1.00  0.00    -0.000 C 
BRANCH   3   4
ATOM      4  C   UNL     1      10.013 -35.424  49.631  1.00  0.00    -0.000 C 
BRANCH   4   5
ATOM      5  C   UNL     1      11.430 -34.849  49.796  1.00  0.00    -0.000 C 
BRANCH   5   6
ATOM      6  C   UNL     1      11.904 -34.076  48.555  1.00  0.00    -0.000 C 
BRANCH   6   7
ATOM      7  C   UNL     1      13.437 -34.030  48.441  1.00  0.00    -0.000 C 
BRANCH   7   8
ATOM      8  C   UNL     1      13.955 -34.751  47.186  1.00  0.00    -0.003 C 
ATOM      9  C   UNL     1      13.778 -36.268  47.259  1.00  0.00     0.004 C 
ENDBRANCH   7   8
ENDBRANCH   6   7
ENDBRANCH   5   6
ENDBRANCH   4   5
ENDBRANCH   3   4
ENDBRANCH   2   3
ENDBRANCH   1   2
BRANCH   1  10
ATOM     10  C   UNL     1      10.657 -39.112  46.614  1.00  0.00     0.000 C 
BRANCH  10  11
ATOM     11  C   UNL     1      10.023 -39.764  45.373  1.00  0.00     0.000 C 
BRANCH  11  12
ATOM     12  C   UNL     1       9.012 -40.865  45.735  1.00  0.00     0.000 C 
BRANCH  12  13
ATOM     13  C   UNL     1       7.555 -40.419  45.544  1.00  0.00     0.000 C 
BRANCH  13  14
ATOM     14  C   UNL     1       6.943 -39.963  46.877  1.00  0.00     0.002 C 
BRANCH  14  15
ATOM     15  C   UNL     1       6.270 -38.582  46.788  1.00  0.00     0.028 C 
BRANCH  15  16
ATOM     16  C   UNL     1       6.596 -37.824  45.496  1.00  0.00     0.156 C 
BRANCH  16  17
ATOM     17  O   UNL     1       5.417 -37.511  44.805  1.00  0.00    -0.396 OA
ATOM     18  H   UNL     1       4.824 -37.063  45.462  1.00  0.00     0.210 HD
ENDBRANCH  16  17
ENDBRANCH  15  16
ENDBRANCH  14  15
ENDBRANCH  13  14
ENDBRANCH  12  13
ENDBRANCH  11  12
ENDBRANCH  10  11
ENDBRANCH   1  10
TORSDOF 15
ENDMDL
