MODEL 1
REMARK VINA RESULT:    -5.507      0.000      0.000
REMARK INTER + INTRA:         -16.747
REMARK INTER:                 -12.590
REMARK INTRA:                  -4.157
REMARK UNBOUND:                -4.157
REMARK SMILES CCCCCCCCCCCCCCCCCCCCCCCC(=O)[O-]
REMARK SMILES IDX 13 1 14 2 15 3 16 4 17 5 18 6 19 7 20 8 21 9 22 10 23 11
REMARK SMILES IDX 24 12 25 13 26 14 12 15 11 16 10 17 9 18 8 19 7 20 6 21 5 22
REMARK SMILES IDX 4 23 3 24 2 25 1 26
REMARK H PARENT
REMARK Flexibility Score: inf
ROOT
ATOM      1  C   UNL     1     -16.178   2.658 -24.708  1.00  0.00     0.000 C 
ENDROOT
BRANCH   1   2
ATOM      2  C   UNL     1     -17.496   2.460 -23.938  1.00  0.00     0.000 C 
BRANCH   2   3
ATOM      3  C   UNL     1     -17.283   2.330 -22.421  1.00  0.00     0.000 C 
BRANCH   3   4
ATOM      4  C   UNL     1     -17.851   3.526 -21.638  1.00  0.00     0.000 C 
BRANCH   4   5
ATOM      5  C   UNL     1     -17.139   3.754 -20.292  1.00  0.00     0.000 C 
BRANCH   5   6
ATOM      6  C   UNL     1     -15.688   4.257 -20.397  1.00  0.00     0.000 C 
BRANCH   6   7
ATOM      7  C   UNL     1     -14.653   3.197 -19.991  1.00  0.00     0.000 C 
BRANCH   7   8
ATOM      8  C   UNL     1     -15.326   2.010 -19.290  1.00  0.00     0.000 C 
BRANCH   8   9
ATOM      9  C   UNL     1     -14.875   0.678 -19.906  1.00  0.00     0.000 C 
BRANCH   9  10
ATOM     10  C   UNL     1     -13.865   0.856 -21.055  1.00  0.00     0.006 C 
BRANCH  10  11
ATOM     11  C   UNL     1     -14.310   0.217 -22.382  1.00  0.00     0.053 C 
BRANCH  11  12
ATOM     12  C   UNL     1     -15.090  -1.046 -22.185  1.00  0.00     0.041 C 
ATOM     13  O   UNL     1     -16.334  -1.063 -22.380  1.00  0.00    -0.550 OA
ATOM     14  O   UNL     1     -14.437  -2.217 -21.821  1.00  0.00    -0.550 OA
ENDBRANCH  11  12
ENDBRANCH  10  11
ENDBRANCH   9  10
ENDBRANCH   8   9
ENDBRANCH   7   8
ENDBRANCH   6   7
ENDBRANCH   5   6
ENDBRANCH   4   5
ENDBRANCH   3   4
ENDBRANCH   2   3
ENDBRANCH   1   2
BRANCH   1  15
ATOM     15  C   UNL     1     -15.070   3.265 -23.831  1.00  0.00     0.000 C 
BRANCH  15  16
ATOM     16  C   UNL     1     -14.983   4.796 -23.968  1.00  0.00     0.000 C 
BRANCH  16  17
ATOM     17  C   UNL     1     -15.965   5.352 -25.012  1.00  0.00     0.000 C 
BRANCH  17  18
ATOM     18  C   UNL     1     -16.385   6.801 -24.721  1.00  0.00    -0.000 C 
BRANCH  18  19
ATOM     19  C   UNL     1     -16.135   7.157 -23.247  1.00  0.00    -0.000 C 
BRANCH  19  20
ATOM     20  C   UNL     1     -17.392   7.003 -22.376  1.00  0.00    -0.000 C 
BRANCH  20  21
ATOM     21  C   UNL     1     -17.257   7.704 -21.013  1.00  0.00    -0.000 C 
BRANCH  21  22
ATOM     22  C   UNL     1     -16.779   9.159 -21.146  1.00  0.00    -0.000 C 
BRANCH  22  23
ATOM     23  C   UNL     1     -15.563   9.468 -20.254  1.00  0.00    -0.000 C 
BRANCH  23  24
ATOM     24  C   UNL     1     -14.837   8.199 -19.773  1.00  0.00    -0.000 C 
BRANCH  24  25
ATOM     25  C   UNL     1     -13.421   8.012 -20.346  1.00  0.00    -0.003 C 
ATOM     26  C   UNL     1     -13.200   6.627 -20.953  1.00  0.00     0.004 C 
ENDBRANCH  24  25
ENDBRANCH  23  24
ENDBRANCH  22  23
ENDBRANCH  21  22
ENDBRANCH  20  21
ENDBRANCH  19  20
ENDBRANCH  18  19
ENDBRANCH  17  18
ENDBRANCH  16  17
ENDBRANCH  15  16
ENDBRANCH   1  15
TORSDOF 22
ENDMDL
MODEL 2
REMARK VINA RESULT:    -5.438      1.414      4.501
REMARK INTER + INTRA:         -16.588
REMARK INTER:                 -12.788
REMARK INTRA:                  -3.800
REMARK UNBOUND:                -4.157
REMARK SMILES CCCCCCCCCCCCCCCCCCCCCCCC(=O)[O-]
REMARK SMILES IDX 13 1 14 2 15 3 16 4 17 5 18 6 19 7 20 8 21 9 22 10 23 11
REMARK SMILES IDX 24 12 25 13 26 14 12 15 11 16 10 17 9 18 8 19 7 20 6 21 5 22
REMARK SMILES IDX 4 23 3 24 2 25 1 26
REMARK H PARENT
REMARK Flexibility Score: inf
ROOT
ATOM      1  C   UNL     1     -17.539   8.642 -21.016  1.00  0.00     0.000 C 
ENDROOT
BRANCH   1   2
ATOM      2  C   UNL     1     -18.648   7.663 -21.443  1.00  0.00     0.000 C 
BRANCH   2   3
ATOM      3  C   UNL     1     -18.111   6.253 -21.741  1.00  0.00     0.000 C 
BRANCH   3   4
ATOM      4  C   UNL     1     -17.533   5.564 -20.493  1.00  0.00     0.000 C 
BRANCH   4   5
ATOM      5  C   UNL     1     -17.496   4.030 -20.618  1.00  0.00     0.000 C 
BRANCH   5   6
ATOM      6  C   UNL     1     -17.917   3.475 -21.990  1.00  0.00     0.000 C 
BRANCH   6   7
ATOM      7  C   UNL     1     -17.190   2.174 -22.362  1.00  0.00     0.000 C 
BRANCH   7   8
ATOM      8  C   UNL     1     -16.136   1.812 -21.309  1.00  0.00     0.000 C 
BRANCH   8   9
ATOM      9  C   UNL     1     -14.968   1.040 -21.942  1.00  0.00     0.000 C 
BRANCH   9  10
ATOM     10  C   UNL     1     -13.951   0.528 -20.905  1.00  0.00     0.006 C 
BRANCH  10  11
ATOM     11  C   UNL     1     -14.557  -0.414 -19.848  1.00  0.00     0.053 C 
BRANCH  11  12
ATOM     12  C   UNL     1     -14.089  -1.829 -19.996  1.00  0.00     0.041 C 
ATOM     13  O   UNL     1     -13.489  -2.403 -19.050  1.00  0.00    -0.550 OA
ATOM     14  O   UNL     1     -14.347  -2.528 -21.168  1.00  0.00    -0.550 OA
ENDBRANCH  11  12
ENDBRANCH  10  11
ENDBRANCH   9  10
ENDBRANCH   8   9
ENDBRANCH   7   8
ENDBRANCH   6   7
ENDBRANCH   5   6
ENDBRANCH   4   5
ENDBRANCH   3   4
ENDBRANCH   2   3
ENDBRANCH   1   2
BRANCH   1  15
ATOM     15  C   UNL     1     -16.606   9.017 -22.181  1.00  0.00     0.000 C 
BRANCH  15  16
ATOM     16  C   UNL     1     -15.149   9.216 -21.727  1.00  0.00     0.000 C 
BRANCH  16  17
ATOM     17  C   UNL     1     -14.795   8.372 -20.492  1.00  0.00     0.000 C 
BRANCH  17  18
ATOM     18  C   UNL     1     -13.280   8.175 -20.320  1.00  0.00    -0.000 C 
BRANCH  18  19
ATOM     19  C   UNL     1     -12.868   6.747 -20.706  1.00  0.00    -0.000 C 
BRANCH  19  20
ATOM     20  C   UNL     1     -13.894   5.691 -20.263  1.00  0.00    -0.000 C 
BRANCH  20  21
ATOM     21  C   UNL     1     -14.072   4.568 -21.300  1.00  0.00    -0.000 C 
BRANCH  21  22
ATOM     22  C   UNL     1     -13.892   5.067 -22.743  1.00  0.00    -0.000 C 
BRANCH  22  23
ATOM     23  C   UNL     1     -15.134   5.801 -23.277  1.00  0.00    -0.000 C 
BRANCH  23  24
ATOM     24  C   UNL     1     -15.807   5.062 -24.448  1.00  0.00    -0.000 C 
BRANCH  24  25
ATOM     25  C   UNL     1     -16.660   5.955 -25.367  1.00  0.00    -0.003 C 
ATOM     26  C   UNL     1     -17.546   5.156 -26.322  1.00  0.00     0.004 C 
ENDBRANCH  24  25
ENDBRANCH  23  24
ENDBRANCH  22  23
ENDBRANCH  21  22
ENDBRANCH  20  21
ENDBRANCH  19  20
ENDBRANCH  18  19
ENDBRANCH  17  18
ENDBRANCH  16  17
ENDBRANCH  15  16
ENDBRANCH   1  15
TORSDOF 22
ENDMDL
MODEL 3
REMARK VINA RESULT:    -5.393      2.057      6.734
REMARK INTER + INTRA:         -16.485
REMARK INTER:                 -12.779
REMARK INTRA:                  -3.705
REMARK UNBOUND:                -4.157
REMARK SMILES CCCCCCCCCCCCCCCCCCCCCCCC(=O)[O-]
REMARK SMILES IDX 13 1 14 2 15 3 16 4 17 5 18 6 19 7 20 8 21 9 22 10 23 11
REMARK SMILES IDX 24 12 25 13 26 14 12 15 11 16 10 17 9 18 8 19 7 20 6 21 5 22
REMARK SMILES IDX 4 23 3 24 2 25 1 26
REMARK H PARENT
REMARK Flexibility Score: inf
ROOT
ATOM      1  C   UNL     1     -15.077   7.577 -20.285  1.00  0.00     0.000 C 
ENDROOT
BRANCH   1   2
ATOM      2  C   UNL     1     -15.501   8.971 -20.779  1.00  0.00     0.000 C 
BRANCH   2   3
ATOM      3  C   UNL     1     -17.023   9.096 -20.962  1.00  0.00     0.000 C 
BRANCH   3   4
ATOM      4  C   UNL     1     -17.447   9.054 -22.440  1.00  0.00     0.000 C 
BRANCH   4   5
ATOM      5  C   UNL     1     -16.263   8.816 -23.396  1.00  0.00     0.000 C 
BRANCH   5   6
ATOM      6  C   UNL     1     -16.643   8.285 -24.790  1.00  0.00     0.000 C 
BRANCH   6   7
ATOM      7  C   UNL     1     -15.769   7.106 -25.244  1.00  0.00     0.000 C 
BRANCH   7   8
ATOM      8  C   UNL     1     -16.613   5.843 -25.455  1.00  0.00     0.000 C 
BRANCH   8   9
ATOM      9  C   UNL     1     -18.026   6.024 -24.881  1.00  0.00     0.000 C 
BRANCH   9  10
ATOM     10  C   UNL     1     -18.355   5.022 -23.758  1.00  0.00     0.006 C 
BRANCH  10  11
ATOM     11  C   UNL     1     -17.801   5.425 -22.380  1.00  0.00     0.053 C 
BRANCH  11  12
ATOM     12  C   UNL     1     -17.766   4.282 -21.413  1.00  0.00     0.041 C 
ATOM     13  O   UNL     1     -18.038   3.114 -21.797  1.00  0.00    -0.550 OA
ATOM     14  O   UNL     1     -17.396   4.500 -20.092  1.00  0.00    -0.550 OA
ENDBRANCH  11  12
ENDBRANCH  10  11
ENDBRANCH   9  10
ENDBRANCH   8   9
ENDBRANCH   7   8
ENDBRANCH   6   7
ENDBRANCH   5   6
ENDBRANCH   4   5
ENDBRANCH   3   4
ENDBRANCH   2   3
ENDBRANCH   1   2
BRANCH   1  15
ATOM     15  C   UNL     1     -13.594   7.279 -20.568  1.00  0.00     0.000 C 
BRANCH  15  16
ATOM     16  C   UNL     1     -13.378   5.875 -21.160  1.00  0.00     0.000 C 
BRANCH  16  17
ATOM     17  C   UNL     1     -14.321   5.579 -22.337  1.00  0.00     0.000 C 
BRANCH  17  18
ATOM     18  C   UNL     1     -13.861   4.379 -23.181  1.00  0.00    -0.000 C 
BRANCH  18  19
ATOM     19  C   UNL     1     -14.674   3.123 -22.831  1.00  0.00    -0.000 C 
BRANCH  19  20
ATOM     20  C   UNL     1     -13.984   2.243 -21.777  1.00  0.00    -0.000 C 
BRANCH  20  21
ATOM     21  C   UNL     1     -14.642   2.354 -20.391  1.00  0.00    -0.000 C 
BRANCH  21  22
ATOM     22  C   UNL     1     -14.918   0.980 -19.759  1.00  0.00    -0.000 C 
BRANCH  22  23
ATOM     23  C   UNL     1     -14.214  -0.168 -20.505  1.00  0.00    -0.000 C 
BRANCH  23  24
ATOM     24  C   UNL     1     -15.200  -1.211 -21.062  1.00  0.00    -0.000 C 
BRANCH  24  25
ATOM     25  C   UNL     1     -15.585  -1.008 -22.538  1.00  0.00    -0.003 C 
ATOM     26  C   UNL     1     -16.895  -0.242 -22.714  1.00  0.00     0.004 C 
ENDBRANCH  24  25
ENDBRANCH  23  24
ENDBRANCH  22  23
ENDBRANCH  21  22
ENDBRANCH  20  21
ENDBRANCH  19  20
ENDBRANCH  18  19
ENDBRANCH  17  18
ENDBRANCH  16  17
ENDBRANCH  15  16
ENDBRANCH   1  15
TORSDOF 22
ENDMDL
MODEL 4
REMARK VINA RESULT:    -5.374      3.573      7.309
REMARK INTER + INTRA:         -16.443
REMARK INTER:                 -12.438
REMARK INTRA:                  -4.005
REMARK UNBOUND:                -4.157
REMARK SMILES CCCCCCCCCCCCCCCCCCCCCCCC(=O)[O-]
REMARK SMILES IDX 13 1 14 2 15 3 16 4 17 5 18 6 19 7 20 8 21 9 22 10 23 11
REMARK SMILES IDX 24 12 25 13 26 14 12 15 11 16 10 17 9 18 8 19 7 20 6 21 5 22
REMARK SMILES IDX 4 23 3 24 2 25 1 26
REMARK H PARENT
REMARK Flexibility Score: inf
ROOT
ATOM      1  C   UNL     1     -15.797   2.812 -20.243  1.00  0.00     0.000 C 
ENDROOT
BRANCH   1   2
ATOM      2  C   UNL     1     -16.905   3.865 -20.065  1.00  0.00     0.000 C 
BRANCH   2   3
ATOM      3  C   UNL     1     -17.782   4.020 -21.319  1.00  0.00     0.000 C 
BRANCH   3   4
ATOM      4  C   UNL     1     -17.859   5.476 -21.810  1.00  0.00     0.000 C 
BRANCH   4   5
ATOM      5  C   UNL     1     -18.344   5.592 -23.267  1.00  0.00     0.000 C 
BRANCH   5   6
ATOM      6  C   UNL     1     -18.731   7.012 -23.718  1.00  0.00     0.000 C 
BRANCH   6   7
ATOM      7  C   UNL     1     -18.069   8.112 -22.876  1.00  0.00     0.000 C 
BRANCH   7   8
ATOM      8  C   UNL     1     -16.794   8.630 -23.552  1.00  0.00     0.000 C 
BRANCH   8   9
ATOM      9  C   UNL     1     -15.679   8.862 -22.522  1.00  0.00     0.000 C 
BRANCH   9  10
ATOM     10  C   UNL     1     -16.208   9.009 -21.083  1.00  0.00     0.006 C 
BRANCH  10  11
ATOM     11  C   UNL     1     -15.195   8.597 -20.000  1.00  0.00     0.053 C 
BRANCH  11  12
ATOM     12  C   UNL     1     -14.355   9.742 -19.525  1.00  0.00     0.041 C 
ATOM     13  O   UNL     1     -13.098   9.659 -19.542  1.00  0.00    -0.550 OA
ATOM     14  O   UNL     1     -14.958  10.918 -19.097  1.00  0.00    -0.550 OA
ENDBRANCH  11  12
ENDBRANCH  10  11
ENDBRANCH   9  10
ENDBRANCH   8   9
ENDBRANCH   7   8
ENDBRANCH   6   7
ENDBRANCH   5   6
ENDBRANCH   4   5
ENDBRANCH   3   4
ENDBRANCH   2   3
ENDBRANCH   1   2
BRANCH   1  15
ATOM     15  C   UNL     1     -14.395   3.441 -20.319  1.00  0.00     0.000 C 
BRANCH  15  16
ATOM     16  C   UNL     1     -14.437   4.979 -20.309  1.00  0.00     0.000 C 
BRANCH  16  17
ATOM     17  C   UNL     1     -13.905   5.593 -21.614  1.00  0.00     0.000 C 
BRANCH  17  18
ATOM     18  C   UNL     1     -13.768   4.561 -22.745  1.00  0.00    -0.000 C 
BRANCH  18  19
ATOM     19  C   UNL     1     -14.894   4.729 -23.776  1.00  0.00    -0.000 C 
BRANCH  19  20
ATOM     20  C   UNL     1     -15.564   3.396 -24.148  1.00  0.00    -0.000 C 
BRANCH  20  21
ATOM     21  C   UNL     1     -14.632   2.189 -23.947  1.00  0.00    -0.000 C 
BRANCH  21  22
ATOM     22  C   UNL     1     -15.370   0.964 -23.384  1.00  0.00    -0.000 C 
BRANCH  22  23
ATOM     23  C   UNL     1     -14.529   0.184 -22.357  1.00  0.00    -0.000 C 
BRANCH  23  24
ATOM     24  C   UNL     1     -15.385  -0.705 -21.437  1.00  0.00    -0.000 C 
BRANCH  24  25
ATOM     25  C   UNL     1     -14.587  -1.499 -20.387  1.00  0.00    -0.003 C 
ATOM     26  C   UNL     1     -14.583  -0.835 -19.011  1.00  0.00     0.004 C 
ENDBRANCH  24  25
ENDBRANCH  23  24
ENDBRANCH  22  23
ENDBRANCH  21  22
ENDBRANCH  20  21
ENDBRANCH  19  20
ENDBRANCH  18  19
ENDBRANCH  17  18
ENDBRANCH  16  17
ENDBRANCH  15  16
ENDBRANCH   1  15
TORSDOF 22
ENDMDL
MODEL 5
REMARK VINA RESULT:    -5.371      3.620      6.157
REMARK INTER + INTRA:         -16.436
REMARK INTER:                 -12.345
REMARK INTRA:                  -4.090
REMARK UNBOUND:                -4.157
REMARK SMILES CCCCCCCCCCCCCCCCCCCCCCCC(=O)[O-]
REMARK SMILES IDX 13 1 14 2 15 3 16 4 17 5 18 6 19 7 20 8 21 9 22 10 23 11
REMARK SMILES IDX 24 12 25 13 26 14 12 15 11 16 10 17 9 18 8 19 7 20 6 21 5 22
REMARK SMILES IDX 4 23 3 24 2 25 1 26
REMARK H PARENT
REMARK Flexibility Score: inf
ROOT
ATOM      1  C   UNL     1     -14.441   0.720 -20.280  1.00  0.00     0.000 C 
ENDROOT
BRANCH   1   2
ATOM      2  C   UNL     1     -15.055   0.409 -21.656  1.00  0.00     0.000 C 
BRANCH   2   3
ATOM      3  C   UNL     1     -14.440   1.254 -22.784  1.00  0.00     0.000 C 
BRANCH   3   4
ATOM      4  C   UNL     1     -15.470   2.175 -23.462  1.00  0.00     0.000 C 
BRANCH   4   5
ATOM      5  C   UNL     1     -14.916   3.584 -23.749  1.00  0.00     0.000 C 
BRANCH   5   6
ATOM      6  C   UNL     1     -13.859   4.088 -22.750  1.00  0.00     0.000 C 
BRANCH   6   7
ATOM      7  C   UNL     1     -14.087   5.544 -22.317  1.00  0.00     0.000 C 
BRANCH   7   8
ATOM      8  C   UNL     1     -13.604   5.772 -20.879  1.00  0.00     0.000 C 
BRANCH   8   9
ATOM      9  C   UNL     1     -14.166   7.084 -20.312  1.00  0.00     0.000 C 
BRANCH   9  10
ATOM     10  C   UNL     1     -13.376   8.325 -20.766  1.00  0.00     0.006 C 
BRANCH  10  11
ATOM     11  C   UNL     1     -13.118   9.347 -19.644  1.00  0.00     0.053 C 
BRANCH  11  12
ATOM     12  C   UNL     1     -14.245  10.319 -19.474  1.00  0.00     0.041 C 
ATOM     13  O   UNL     1     -15.194  10.343 -20.300  1.00  0.00    -0.550 OA
ATOM     14  O   UNL     1     -14.265  11.177 -18.382  1.00  0.00    -0.550 OA
ENDBRANCH  11  12
ENDBRANCH  10  11
ENDBRANCH   9  10
ENDBRANCH   8   9
ENDBRANCH   7   8
ENDBRANCH   6   7
ENDBRANCH   5   6
ENDBRANCH   4   5
ENDBRANCH   3   4
ENDBRANCH   2   3
ENDBRANCH   1   2
BRANCH   1  15
ATOM     15  C   UNL     1     -15.422   1.456 -19.350  1.00  0.00     0.000 C 
BRANCH  15  16
ATOM     16  C   UNL     1     -15.546   2.951 -19.690  1.00  0.00     0.000 C 
BRANCH  16  17
ATOM     17  C   UNL     1     -16.884   3.295 -20.366  1.00  0.00     0.000 C 
BRANCH  17  18
ATOM     18  C   UNL     1     -17.201   4.798 -20.329  1.00  0.00    -0.000 C 
BRANCH  18  19
ATOM     19  C   UNL     1     -17.469   5.335 -21.743  1.00  0.00    -0.000 C 
BRANCH  19  20
ATOM     20  C   UNL     1     -18.264   6.651 -21.739  1.00  0.00    -0.000 C 
BRANCH  20  21
ATOM     21  C   UNL     1     -17.407   7.858 -21.321  1.00  0.00    -0.000 C 
BRANCH  21  22
ATOM     22  C   UNL     1     -17.286   8.908 -22.437  1.00  0.00    -0.000 C 
BRANCH  22  23
ATOM     23  C   UNL     1     -16.084   8.652 -23.364  1.00  0.00    -0.000 C 
BRANCH  23  24
ATOM     24  C   UNL     1     -16.501   8.140 -24.755  1.00  0.00    -0.000 C 
BRANCH  24  25
ATOM     25  C   UNL     1     -15.762   6.873 -25.223  1.00  0.00    -0.003 C 
ATOM     26  C   UNL     1     -16.687   5.848 -25.875  1.00  0.00     0.004 C 
ENDBRANCH  24  25
ENDBRANCH  23  24
ENDBRANCH  22  23
ENDBRANCH  21  22
ENDBRANCH  20  21
ENDBRANCH  19  20
ENDBRANCH  18  19
ENDBRANCH  17  18
ENDBRANCH  16  17
ENDBRANCH  15  16
ENDBRANCH   1  15
TORSDOF 22
ENDMDL
MODEL 6
REMARK VINA RESULT:    -5.335      1.270      3.790
REMARK INTER + INTRA:         -16.354
REMARK INTER:                 -12.529
REMARK INTRA:                  -3.824
REMARK UNBOUND:                -4.157
REMARK SMILES CCCCCCCCCCCCCCCCCCCCCCCC(=O)[O-]
REMARK SMILES IDX 13 1 14 2 15 3 16 4 17 5 18 6 19 7 20 8 21 9 22 10 23 11
REMARK SMILES IDX 24 12 25 13 26 14 12 15 11 16 10 17 9 18 8 19 7 20 6 21 5 22
REMARK SMILES IDX 4 23 3 24 2 25 1 26
REMARK H PARENT
REMARK Flexibility Score: inf
ROOT
ATOM      1  C   UNL     1     -14.559   3.870 -20.286  1.00  0.00     0.000 C 
ENDROOT
BRANCH   1   2
ATOM      2  C   UNL     1     -16.037   3.455 -20.173  1.00  0.00     0.000 C 
BRANCH   2   3
ATOM      3  C   UNL     1     -16.820   3.692 -21.475  1.00  0.00     0.000 C 
BRANCH   3   4
ATOM      4  C   UNL     1     -17.284   2.382 -22.134  1.00  0.00     0.000 C 
BRANCH   4   5
ATOM      5  C   UNL     1     -17.082   2.374 -23.661  1.00  0.00     0.000 C 
BRANCH   5   6
ATOM      6  C   UNL     1     -15.709   2.876 -24.142  1.00  0.00     0.000 C 
BRANCH   6   7
ATOM      7  C   UNL     1     -14.561   1.920 -23.786  1.00  0.00     0.000 C 
BRANCH   7   8
ATOM      8  C   UNL     1     -14.938   0.466 -24.096  1.00  0.00     0.000 C 
BRANCH   8   9
ATOM      9  C   UNL     1     -14.892  -0.398 -22.827  1.00  0.00     0.000 C 
BRANCH   9  10
ATOM     10  C   UNL     1     -14.099   0.256 -21.680  1.00  0.00     0.006 C 
BRANCH  10  11
ATOM     11  C   UNL     1     -14.682  -0.016 -20.282  1.00  0.00     0.053 C 
BRANCH  11  12
ATOM     12  C   UNL     1     -14.081  -1.221 -19.627  1.00  0.00     0.041 C 
ATOM     13  O   UNL     1     -14.388  -1.522 -18.443  1.00  0.00    -0.550 OA
ATOM     14  O   UNL     1     -13.206  -2.034 -20.336  1.00  0.00    -0.550 OA
ENDBRANCH  11  12
ENDBRANCH  10  11
ENDBRANCH   9  10
ENDBRANCH   8   9
ENDBRANCH   7   8
ENDBRANCH   6   7
ENDBRANCH   5   6
ENDBRANCH   4   5
ENDBRANCH   3   4
ENDBRANCH   2   3
ENDBRANCH   1   2
BRANCH   1  15
ATOM     15  C   UNL     1     -14.343   5.362 -19.980  1.00  0.00     0.000 C 
BRANCH  15  16
ATOM     16  C   UNL     1     -13.568   6.085 -21.096  1.00  0.00     0.000 C 
BRANCH  16  17
ATOM     17  C   UNL     1     -13.064   7.472 -20.663  1.00  0.00     0.000 C 
BRANCH  17  18
ATOM     18  C   UNL     1     -14.187   8.371 -20.123  1.00  0.00    -0.000 C 
BRANCH  18  19
ATOM     19  C   UNL     1     -14.914   9.086 -21.272  1.00  0.00    -0.000 C 
BRANCH  19  20
ATOM     20  C   UNL     1     -16.441   9.090 -21.099  1.00  0.00    -0.000 C 
BRANCH  20  21
ATOM     21  C   UNL     1     -16.992   7.721 -20.663  1.00  0.00    -0.000 C 
BRANCH  21  22
ATOM     22  C   UNL     1     -18.057   7.181 -21.630  1.00  0.00    -0.000 C 
BRANCH  22  23
ATOM     23  C   UNL     1     -17.612   7.248 -23.102  1.00  0.00    -0.000 C 
BRANCH  23  24
ATOM     24  C   UNL     1     -16.375   6.379 -23.391  1.00  0.00    -0.000 C 
BRANCH  24  25
ATOM     25  C   UNL     1     -15.666   6.691 -24.722  1.00  0.00    -0.003 C 
ATOM     26  C   UNL     1     -16.361   6.066 -25.930  1.00  0.00     0.004 C 
ENDBRANCH  24  25
ENDBRANCH  23  24
ENDBRANCH  22  23
ENDBRANCH  21  22
ENDBRANCH  20  21
ENDBRANCH  19  20
ENDBRANCH  18  19
ENDBRANCH  17  18
ENDBRANCH  16  17
ENDBRANCH  15  16
ENDBRANCH   1  15
TORSDOF 22
ENDMDL
MODEL 7
REMARK VINA RESULT:    -5.328      1.572      2.949
REMARK INTER + INTRA:         -16.337
REMARK INTER:                 -12.399
REMARK INTRA:                  -3.938
REMARK UNBOUND:                -4.157
REMARK SMILES CCCCCCCCCCCCCCCCCCCCCCCC(=O)[O-]
REMARK SMILES IDX 13 1 14 2 15 3 16 4 17 5 18 6 19 7 20 8 21 9 22 10 23 11
REMARK SMILES IDX 24 12 25 13 26 14 12 15 11 16 10 17 9 18 8 19 7 20 6 21 5 22
REMARK SMILES IDX 4 23 3 24 2 25 1 26
REMARK H PARENT
REMARK Flexibility Score: inf
ROOT
ATOM      1  C   UNL     1     -17.604   3.366 -21.527  1.00  0.00     0.000 C 
ENDROOT
BRANCH   1   2
ATOM      2  C   UNL     1     -16.696   3.462 -20.288  1.00  0.00     0.000 C 
BRANCH   2   3
ATOM      3  C   UNL     1     -15.817   4.724 -20.294  1.00  0.00     0.000 C 
BRANCH   3   4
ATOM      4  C   UNL     1     -14.397   4.453 -20.819  1.00  0.00     0.000 C 
BRANCH   4   5
ATOM      5  C   UNL     1     -14.118   5.137 -22.171  1.00  0.00     0.000 C 
BRANCH   5   6
ATOM      6  C   UNL     1     -13.939   4.182 -23.364  1.00  0.00     0.000 C 
BRANCH   6   7
ATOM      7  C   UNL     1     -13.999   2.700 -22.962  1.00  0.00     0.000 C 
BRANCH   7   8
ATOM      8  C   UNL     1     -15.015   1.938 -23.821  1.00  0.00     0.000 C 
BRANCH   8   9
ATOM      9  C   UNL     1     -15.590   0.737 -23.056  1.00  0.00     0.000 C 
BRANCH   9  10
ATOM     10  C   UNL     1     -14.646   0.211 -21.959  1.00  0.00     0.006 C 
BRANCH  10  11
ATOM     11  C   UNL     1     -15.249  -0.918 -21.104  1.00  0.00     0.053 C 
BRANCH  11  12
ATOM     12  C   UNL     1     -14.395  -1.272 -19.925  1.00  0.00     0.041 C 
ATOM     13  O   UNL     1     -13.408  -2.043 -20.062  1.00  0.00    -0.550 OA
ATOM     14  O   UNL     1     -14.667  -0.723 -18.679  1.00  0.00    -0.550 OA
ENDBRANCH  11  12
ENDBRANCH  10  11
ENDBRANCH   9  10
ENDBRANCH   8   9
ENDBRANCH   7   8
ENDBRANCH   6   7
ENDBRANCH   5   6
ENDBRANCH   4   5
ENDBRANCH   3   4
ENDBRANCH   2   3
ENDBRANCH   1   2
BRANCH   1  15
ATOM     15  C   UNL     1     -17.778   4.721 -22.235  1.00  0.00     0.000 C 
BRANCH  15  16
ATOM     16  C   UNL     1     -17.883   4.577 -23.764  1.00  0.00     0.000 C 
BRANCH  16  17
ATOM     17  C   UNL     1     -18.250   5.899 -24.458  1.00  0.00     0.000 C 
BRANCH  17  18
ATOM     18  C   UNL     1     -17.210   6.331 -25.503  1.00  0.00    -0.000 C 
BRANCH  18  19
ATOM     19  C   UNL     1     -15.977   6.947 -24.825  1.00  0.00    -0.000 C 
BRANCH  19  20
ATOM     20  C   UNL     1     -16.064   8.477 -24.708  1.00  0.00    -0.000 C 
BRANCH  20  21
ATOM     21  C   UNL     1     -15.949   8.967 -23.254  1.00  0.00    -0.000 C 
BRANCH  21  22
ATOM     22  C   UNL     1     -17.313   9.041 -22.549  1.00  0.00    -0.000 C 
BRANCH  22  23
ATOM     23  C   UNL     1     -17.284   8.436 -21.134  1.00  0.00    -0.000 C 
BRANCH  23  24
ATOM     24  C   UNL     1     -15.884   7.945 -20.723  1.00  0.00    -0.000 C 
BRANCH  24  25
ATOM     25  C   UNL     1     -15.095   8.921 -19.833  1.00  0.00    -0.003 C 
ATOM     26  C   UNL     1     -13.595   8.916 -20.123  1.00  0.00     0.004 C 
ENDBRANCH  24  25
ENDBRANCH  23  24
ENDBRANCH  22  23
ENDBRANCH  21  22
ENDBRANCH  20  21
ENDBRANCH  19  20
ENDBRANCH  18  19
ENDBRANCH  17  18
ENDBRANCH  16  17
ENDBRANCH  15  16
ENDBRANCH   1  15
TORSDOF 22
ENDMDL
MODEL 8
REMARK VINA RESULT:    -5.324      4.611      7.539
REMARK INTER + INTRA:         -16.329
REMARK INTER:                 -12.595
REMARK INTRA:                  -3.734
REMARK UNBOUND:                -4.157
REMARK SMILES CCCCCCCCCCCCCCCCCCCCCCCC(=O)[O-]
REMARK SMILES IDX 13 1 14 2 15 3 16 4 17 5 18 6 19 7 20 8 21 9 22 10 23 11
REMARK SMILES IDX 24 12 25 13 26 14 12 15 11 16 10 17 9 18 8 19 7 20 6 21 5 22
REMARK SMILES IDX 4 23 3 24 2 25 1 26
REMARK H PARENT
REMARK Flexibility Score: inf
ROOT
ATOM      1  C   UNL     1     -16.347   5.544 -25.084  1.00  0.00     0.000 C 
ENDROOT
BRANCH   1   2
ATOM      2  C   UNL     1     -15.364   4.794 -24.168  1.00  0.00     0.000 C 
BRANCH   2   3
ATOM      3  C   UNL     1     -14.723   5.710 -23.111  1.00  0.00     0.000 C 
BRANCH   3   4
ATOM      4  C   UNL     1     -13.931   4.925 -22.051  1.00  0.00     0.000 C 
BRANCH   4   5
ATOM      5  C   UNL     1     -13.605   5.766 -20.802  1.00  0.00     0.000 C 
BRANCH   5   6
ATOM      6  C   UNL     1     -14.042   7.240 -20.873  1.00  0.00     0.000 C 
BRANCH   6   7
ATOM      7  C   UNL     1     -13.013   8.202 -20.262  1.00  0.00     0.000 C 
BRANCH   7   8
ATOM      8  C   UNL     1     -13.533   9.645 -20.274  1.00  0.00     0.000 C 
BRANCH   8   9
ATOM      9  C   UNL     1     -14.871   9.754 -19.529  1.00  0.00     0.000 C 
BRANCH   9  10
ATOM     10  C   UNL     1     -15.172  11.180 -19.033  1.00  0.00     0.006 C 
BRANCH  10  11
ATOM     11  C   UNL     1     -14.146  11.719 -18.019  1.00  0.00     0.053 C 
BRANCH  11  12
ATOM     12  C   UNL     1     -14.727  12.745 -17.096  1.00  0.00     0.041 C 
ATOM     13  O   UNL     1     -14.488  12.698 -15.861  1.00  0.00    -0.550 OA
ATOM     14  O   UNL     1     -15.505  13.778 -17.604  1.00  0.00    -0.550 OA
ENDBRANCH  11  12
ENDBRANCH  10  11
ENDBRANCH   9  10
ENDBRANCH   8   9
ENDBRANCH   7   8
ENDBRANCH   6   7
ENDBRANCH   5   6
ENDBRANCH   4   5
ENDBRANCH   3   4
ENDBRANCH   2   3
ENDBRANCH   1   2
BRANCH   1  15
ATOM     15  C   UNL     1     -15.893   6.984 -25.382  1.00  0.00     0.000 C 
BRANCH  15  16
ATOM     16  C   UNL     1     -16.994   8.020 -25.096  1.00  0.00     0.000 C 
BRANCH  16  17
ATOM     17  C   UNL     1     -16.480   9.221 -24.285  1.00  0.00     0.000 C 
BRANCH  17  18
ATOM     18  C   UNL     1     -16.399   8.930 -22.778  1.00  0.00    -0.000 C 
BRANCH  18  19
ATOM     19  C   UNL     1     -17.698   8.281 -22.277  1.00  0.00    -0.000 C 
BRANCH  19  20
ATOM     20  C   UNL     1     -17.470   7.333 -21.088  1.00  0.00    -0.000 C 
BRANCH  20  21
ATOM     21  C   UNL     1     -17.770   5.865 -21.435  1.00  0.00    -0.000 C 
BRANCH  21  22
ATOM     22  C   UNL     1     -17.426   4.906 -20.284  1.00  0.00    -0.000 C 
BRANCH  22  23
ATOM     23  C   UNL     1     -16.990   3.516 -20.779  1.00  0.00    -0.000 C 
BRANCH  23  24
ATOM     24  C   UNL     1     -15.991   2.830 -19.830  1.00  0.00    -0.000 C 
BRANCH  24  25
ATOM     25  C   UNL     1     -15.031   1.839 -20.512  1.00  0.00    -0.003 C 
ATOM     26  C   UNL     1     -15.668   1.106 -21.691  1.00  0.00     0.004 C 
ENDBRANCH  24  25
ENDBRANCH  23  24
ENDBRANCH  22  23
ENDBRANCH  21  22
ENDBRANCH  20  21
ENDBRANCH  19  20
ENDBRANCH  18  19
ENDBRANCH  17  18
ENDBRANCH  16  17
ENDBRANCH  15  16
ENDBRANCH   1  15
TORSDOF 22
ENDMDL
MODEL 9
REMARK VINA RESULT:    -5.322      3.466      7.159
REMARK INTER + INTRA:         -16.323
REMARK INTER:                 -12.403
REMARK INTRA:                  -3.919
REMARK UNBOUND:                -4.157
REMARK SMILES CCCCCCCCCCCCCCCCCCCCCCCC(=O)[O-]
REMARK SMILES IDX 13 1 14 2 15 3 16 4 17 5 18 6 19 7 20 8 21 9 22 10 23 11
REMARK SMILES IDX 24 12 25 13 26 14 12 15 11 16 10 17 9 18 8 19 7 20 6 21 5 22
REMARK SMILES IDX 4 23 3 24 2 25 1 26
REMARK H PARENT
REMARK Flexibility Score: inf
ROOT
ATOM      1  C   UNL     1     -15.804   5.475 -23.762  1.00  0.00     0.000 C 
ENDROOT
BRANCH   1   2
ATOM      2  C   UNL     1     -15.372   5.206 -22.309  1.00  0.00     0.000 C 
BRANCH   2   3
ATOM      3  C   UNL     1     -13.879   5.487 -22.074  1.00  0.00     0.000 C 
BRANCH   3   4
ATOM      4  C   UNL     1     -13.586   5.970 -20.643  1.00  0.00     0.000 C 
BRANCH   4   5
ATOM      5  C   UNL     1     -13.255   7.473 -20.574  1.00  0.00     0.000 C 
BRANCH   5   6
ATOM      6  C   UNL     1     -14.444   8.390 -20.233  1.00  0.00     0.000 C 
BRANCH   6   7
ATOM      7  C   UNL     1     -14.891   9.260 -21.417  1.00  0.00     0.000 C 
BRANCH   7   8
ATOM      8  C   UNL     1     -16.307   8.886 -21.871  1.00  0.00     0.000 C 
BRANCH   8   9
ATOM      9  C   UNL     1     -17.034   8.071 -20.792  1.00  0.00     0.000 C 
BRANCH   9  10
ATOM     10  C   UNL     1     -18.226   7.267 -21.343  1.00  0.00     0.006 C 
BRANCH  10  11
ATOM     11  C   UNL     1     -18.950   7.949 -22.517  1.00  0.00     0.053 C 
BRANCH  11  12
ATOM     12  C   UNL     1     -20.070   8.838 -22.071  1.00  0.00     0.041 C 
ATOM     13  O   UNL     1     -20.623   9.623 -22.885  1.00  0.00    -0.550 OA
ATOM     14  O   UNL     1     -20.528   8.776 -20.761  1.00  0.00    -0.550 OA
ENDBRANCH  11  12
ENDBRANCH  10  11
ENDBRANCH   9  10
ENDBRANCH   8   9
ENDBRANCH   7   8
ENDBRANCH   6   7
ENDBRANCH   5   6
ENDBRANCH   4   5
ENDBRANCH   3   4
ENDBRANCH   2   3
ENDBRANCH   1   2
BRANCH   1  15
ATOM     15  C   UNL     1     -16.367   4.219 -24.450  1.00  0.00     0.000 C 
BRANCH  15  16
ATOM     16  C   UNL     1     -15.399   3.025 -24.381  1.00  0.00     0.000 C 
BRANCH  16  17
ATOM     17  C   UNL     1     -16.091   1.684 -24.677  1.00  0.00     0.000 C 
BRANCH  17  18
ATOM     18  C   UNL     1     -17.511   1.606 -24.094  1.00  0.00    -0.000 C 
BRANCH  18  19
ATOM     19  C   UNL     1     -17.485   1.035 -22.668  1.00  0.00    -0.000 C 
BRANCH  19  20
ATOM     20  C   UNL     1     -17.197  -0.475 -22.637  1.00  0.00    -0.000 C 
BRANCH  20  21
ATOM     21  C   UNL     1     -16.103  -0.848 -21.622  1.00  0.00    -0.000 C 
BRANCH  21  22
ATOM     22  C   UNL     1     -14.694  -0.488 -22.118  1.00  0.00    -0.000 C 
BRANCH  22  23
ATOM     23  C   UNL     1     -13.892   0.330 -21.089  1.00  0.00    -0.000 C 
BRANCH  23  24
ATOM     24  C   UNL     1     -14.177   1.840 -21.174  1.00  0.00    -0.000 C 
BRANCH  24  25
ATOM     25  C   UNL     1     -14.642   2.482 -19.854  1.00  0.00    -0.003 C 
ATOM     26  C   UNL     1     -16.141   2.773 -19.827  1.00  0.00     0.004 C 
ENDBRANCH  24  25
ENDBRANCH  23  24
ENDBRANCH  22  23
ENDBRANCH  21  22
ENDBRANCH  20  21
ENDBRANCH  19  20
ENDBRANCH  18  19
ENDBRANCH  17  18
ENDBRANCH  16  17
ENDBRANCH  15  16
ENDBRANCH   1  15
TORSDOF 22
ENDMDL
