MODEL 1
REMARK VINA RESULT:    -5.636      0.000      0.000
REMARK INTER + INTRA:          -6.305
REMARK INTER:                  -6.130
REMARK INTRA:                  -0.175
REMARK UNBOUND:                -0.175
REMARK SMILES CC(C)c1cc2c(cc1O)[C@]1(C)CCCC(C)(C)[C@@H]1CC2=O
REMARK SMILES IDX 4 1 9 2 8 3 7 4 6 5 5 6 21 7 22 8 20 9 19 10 11 11 13 12
REMARK SMILES IDX 14 13 15 14 16 15 17 16 18 17 12 18 2 19 1 20 3 21 10 22
REMARK H PARENT 10 23
REMARK Flexibility Score: inf
ROOT
ATOM      1  C   UNL     1      -6.618  38.185  44.352  1.00  0.00    -0.003 A 
ATOM      2  C   UNL     1      -6.075  38.905  43.270  1.00  0.00     0.119 A 
ATOM      3  C   UNL     1      -4.956  38.410  42.590  1.00  0.00     0.051 A 
ATOM      4  C   UNL     1      -4.325  37.205  42.974  1.00  0.00    -0.027 A 
ATOM      5  C   UNL     1      -4.924  36.451  44.004  1.00  0.00     0.022 A 
ATOM      6  C   UNL     1      -6.039  36.954  44.697  1.00  0.00     0.020 A 
ATOM      7  C   UNL     1      -4.430  35.105  44.306  1.00  0.00     0.163 C 
ATOM      8  O   UNL     1      -4.818  34.488  45.336  1.00  0.00    -0.294 OA
ATOM      9  C   UNL     1      -3.516  34.432  43.343  1.00  0.00     0.086 C 
ATOM     10  C   UNL     1      -2.414  35.408  42.860  1.00  0.00     0.013 C 
ATOM     11  C   UNL     1      -3.057  36.721  42.217  1.00  0.00    -0.003 C 
ATOM     12  C   UNL     1      -3.504  36.425  40.753  1.00  0.00     0.012 C 
ATOM     13  C   UNL     1      -2.429  35.770  39.880  1.00  0.00     0.001 C 
ATOM     14  C   UNL     1      -1.903  34.480  40.503  1.00  0.00     0.007 C 
ATOM     15  C   UNL     1      -1.341  34.678  41.934  1.00  0.00    -0.031 C 
ATOM     16  C   UNL     1      -0.963  33.275  42.485  1.00  0.00     0.011 C 
ATOM     17  C   UNL     1      -0.004  35.466  41.879  1.00  0.00     0.011 C 
ATOM     18  C   UNL     1      -2.014  37.891  42.257  1.00  0.00     0.017 C 
ENDROOT
BRANCH   1  19
ATOM     19  C   UNL     1      -7.828  38.677  45.136  1.00  0.00     0.017 C 
ATOM     20  C   UNL     1      -7.465  39.833  46.076  1.00  0.00     0.012 C 
ATOM     21  C   UNL     1      -8.525  37.536  45.889  1.00  0.00     0.012 C 
ENDBRANCH   1  19
BRANCH   2  22
ATOM     22  O   UNL     1      -6.642  40.113  42.863  1.00  0.00    -0.508 OA
ATOM     23  H   UNL     1      -7.594  40.363  43.102  1.00  0.00     0.293 HD
ENDBRANCH   2  22
TORSDOF 2
ENDMDL
MODEL 2
REMARK VINA RESULT:    -5.421     14.004     16.594
REMARK INTER + INTRA:          -6.071
REMARK INTER:                  -5.963
REMARK INTRA:                  -0.109
REMARK UNBOUND:                -0.175
REMARK SMILES CC(C)c1cc2c(cc1O)[C@]1(C)CCCC(C)(C)[C@@H]1CC2=O
REMARK SMILES IDX 4 1 9 2 8 3 7 4 6 5 5 6 21 7 22 8 20 9 19 10 11 11 13 12
REMARK SMILES IDX 14 13 15 14 16 15 17 16 18 17 12 18 2 19 1 20 3 21 10 22
REMARK H PARENT 10 23
REMARK Flexibility Score: inf
ROOT
ATOM      1  C   UNL     1      -8.118  25.877  54.818  1.00  0.00    -0.003 A 
ATOM      2  C   UNL     1      -8.860  26.791  54.043  1.00  0.00     0.119 A 
ATOM      3  C   UNL     1      -8.987  28.120  54.460  1.00  0.00     0.051 A 
ATOM      4  C   UNL     1      -8.409  28.582  55.665  1.00  0.00    -0.027 A 
ATOM      5  C   UNL     1      -7.601  27.682  56.390  1.00  0.00     0.022 A 
ATOM      6  C   UNL     1      -7.485  26.342  55.980  1.00  0.00     0.020 A 
ATOM      7  C   UNL     1      -6.821  28.161  57.534  1.00  0.00     0.163 C 
ATOM      8  O   UNL     1      -6.244  27.349  58.310  1.00  0.00    -0.294 OA
ATOM      9  C   UNL     1      -6.649  29.625  57.736  1.00  0.00     0.086 C 
ATOM     10  C   UNL     1      -7.996  30.367  57.545  1.00  0.00     0.013 C 
ATOM     11  C   UNL     1      -8.618  30.056  56.108  1.00  0.00    -0.003 C 
ATOM     12  C   UNL     1      -7.922  30.944  55.031  1.00  0.00     0.012 C 
ATOM     13  C   UNL     1      -7.867  32.435  55.373  1.00  0.00     0.001 C 
ATOM     14  C   UNL     1      -7.195  32.682  56.722  1.00  0.00     0.007 C 
ATOM     15  C   UNL     1      -7.870  31.918  57.889  1.00  0.00    -0.031 C 
ATOM     16  C   UNL     1      -7.013  32.160  59.163  1.00  0.00     0.011 C 
ATOM     17  C   UNL     1      -9.255  32.546  58.208  1.00  0.00     0.011 C 
ATOM     18  C   UNL     1     -10.164  30.322  56.136  1.00  0.00     0.017 C 
ENDROOT
BRANCH   1  19
ATOM     19  C   UNL     1      -7.952  24.415  54.421  1.00  0.00     0.017 C 
ATOM     20  C   UNL     1      -7.430  23.565  55.586  1.00  0.00     0.012 C 
ATOM     21  C   UNL     1      -7.076  24.258  53.170  1.00  0.00     0.012 C 
ENDBRANCH   1  19
BRANCH   2  22
ATOM     22  O   UNL     1      -9.472  26.385  52.857  1.00  0.00    -0.508 OA
ATOM     23  H   UNL     1      -9.170  25.559  52.355  1.00  0.00     0.293 HD
ENDBRANCH   2  22
TORSDOF 2
ENDMDL
MODEL 3
REMARK VINA RESULT:    -5.315     14.848     16.033
REMARK INTER + INTRA:          -5.956
REMARK INTER:                  -5.712
REMARK INTRA:                  -0.244
REMARK UNBOUND:                -0.175
REMARK SMILES CC(C)c1cc2c(cc1O)[C@]1(C)CCCC(C)(C)[C@@H]1CC2=O
REMARK SMILES IDX 4 1 9 2 8 3 7 4 6 5 5 6 21 7 22 8 20 9 19 10 11 11 13 12
REMARK SMILES IDX 14 13 15 14 16 15 17 16 18 17 12 18 2 19 1 20 3 21 10 22
REMARK H PARENT 10 23
REMARK Flexibility Score: inf
ROOT
ATOM      1  C   UNL     1      -8.191  30.962  57.524  1.00  0.00    -0.003 A 
ATOM      2  C   UNL     1      -6.979  30.243  57.517  1.00  0.00     0.119 A 
ATOM      3  C   UNL     1      -6.889  29.028  56.830  1.00  0.00     0.051 A 
ATOM      4  C   UNL     1      -7.999  28.472  56.151  1.00  0.00    -0.027 A 
ATOM      5  C   UNL     1      -9.182  29.237  56.095  1.00  0.00     0.022 A 
ATOM      6  C   UNL     1      -9.278  30.452  56.798  1.00  0.00     0.020 A 
ATOM      7  C   UNL     1     -10.292  28.804  55.243  1.00  0.00     0.163 C 
ATOM      8  O   UNL     1     -11.423  29.360  55.318  1.00  0.00    -0.294 OA
ATOM      9  C   UNL     1     -10.058  27.743  54.226  1.00  0.00     0.086 C 
ATOM     10  C   UNL     1      -9.242  26.574  54.832  1.00  0.00     0.013 C 
ATOM     11  C   UNL     1      -7.862  27.097  55.442  1.00  0.00    -0.003 C 
ATOM     12  C   UNL     1      -6.822  27.293  54.297  1.00  0.00     0.012 C 
ATOM     13  C   UNL     1      -6.669  26.088  53.363  1.00  0.00     0.001 C 
ATOM     14  C   UNL     1      -8.004  25.676  52.748  1.00  0.00     0.007 C 
ATOM     15  C   UNL     1      -9.092  25.362  53.806  1.00  0.00    -0.031 C 
ATOM     16  C   UNL     1     -10.418  25.085  53.043  1.00  0.00     0.011 C 
ATOM     17  C   UNL     1      -8.760  24.033  54.537  1.00  0.00     0.011 C 
ATOM     18  C   UNL     1      -7.335  26.072  56.506  1.00  0.00     0.017 C 
ENDROOT
BRANCH   1  19
ATOM     19  C   UNL     1      -8.352  32.285  58.262  1.00  0.00     0.017 C 
ATOM     20  C   UNL     1      -9.582  32.280  59.178  1.00  0.00     0.012 C 
ATOM     21  C   UNL     1      -8.371  33.479  57.298  1.00  0.00     0.012 C 
ENDBRANCH   1  19
BRANCH   2  22
ATOM     22  O   UNL     1      -5.859  30.731  58.190  1.00  0.00    -0.508 OA
ATOM     23  H   UNL     1      -5.131  30.115  58.533  1.00  0.00     0.293 HD
ENDBRANCH   2  22
TORSDOF 2
ENDMDL
MODEL 4
REMARK VINA RESULT:    -5.310      6.287      8.482
REMARK INTER + INTRA:          -5.950
REMARK INTER:                  -5.704
REMARK INTRA:                  -0.246
REMARK UNBOUND:                -0.175
REMARK SMILES CC(C)c1cc2c(cc1O)[C@]1(C)CCCC(C)(C)[C@@H]1CC2=O
REMARK SMILES IDX 4 1 9 2 8 3 7 4 6 5 5 6 21 7 22 8 20 9 19 10 11 11 13 12
REMARK SMILES IDX 14 13 15 14 16 15 17 16 18 17 12 18 2 19 1 20 3 21 10 22
REMARK H PARENT 10 23
REMARK Flexibility Score: inf
ROOT
ATOM      1  C   UNL     1      -7.453  34.603  44.770  1.00  0.00    -0.003 A 
ATOM      2  C   UNL     1      -7.776  34.075  46.035  1.00  0.00     0.119 A 
ATOM      3  C   UNL     1      -8.595  32.944  46.134  1.00  0.00     0.051 A 
ATOM      4  C   UNL     1      -9.141  32.318  44.991  1.00  0.00    -0.027 A 
ATOM      5  C   UNL     1      -8.745  32.803  43.727  1.00  0.00     0.022 A 
ATOM      6  C   UNL     1      -7.935  33.948  43.626  1.00  0.00     0.020 A 
ATOM      7  C   UNL     1      -9.120  32.071  42.513  1.00  0.00     0.163 C 
ATOM      8  O   UNL     1      -8.945  32.579  41.371  1.00  0.00    -0.294 OA
ATOM      9  C   UNL     1      -9.644  30.684  42.633  1.00  0.00     0.086 C 
ATOM     10  C   UNL     1     -10.695  30.591  43.768  1.00  0.00     0.013 C 
ATOM     11  C   UNL     1     -10.082  31.093  45.154  1.00  0.00    -0.003 C 
ATOM     12  C   UNL     1      -9.223  29.958  45.792  1.00  0.00     0.012 C 
ATOM     13  C   UNL     1      -9.927  28.601  45.881  1.00  0.00     0.001 C 
ATOM     14  C   UNL     1     -10.426  28.132  44.516  1.00  0.00     0.007 C 
ATOM     15  C   UNL     1     -11.373  29.149  43.830  1.00  0.00    -0.031 C 
ATOM     16  C   UNL     1     -11.696  28.602  42.411  1.00  0.00     0.011 C 
ATOM     17  C   UNL     1     -12.738  29.192  44.568  1.00  0.00     0.011 C 
ATOM     18  C   UNL     1     -11.244  31.522  46.118  1.00  0.00     0.017 C 
ENDROOT
BRANCH   1  19
ATOM     19  C   UNL     1      -6.574  35.836  44.599  1.00  0.00     0.017 C 
ATOM     20  C   UNL     1      -7.408  37.096  44.334  1.00  0.00     0.012 C 
ATOM     21  C   UNL     1      -5.503  35.630  43.520  1.00  0.00     0.012 C 
ENDBRANCH   1  19
BRANCH   2  22
ATOM     22  O   UNL     1      -7.286  34.667  47.199  1.00  0.00    -0.508 OA
ATOM     23  H   UNL     1      -7.500  34.296  48.118  1.00  0.00     0.293 HD
ENDBRANCH   2  22
TORSDOF 2
ENDMDL
MODEL 5
REMARK VINA RESULT:    -5.235      1.488      2.897
REMARK INTER + INTRA:          -5.869
REMARK INTER:                  -5.845
REMARK INTRA:                  -0.024
REMARK UNBOUND:                -0.175
REMARK SMILES CC(C)c1cc2c(cc1O)[C@]1(C)CCCC(C)(C)[C@@H]1CC2=O
REMARK SMILES IDX 4 1 9 2 8 3 7 4 6 5 5 6 21 7 22 8 20 9 19 10 11 11 13 12
REMARK SMILES IDX 14 13 15 14 16 15 17 16 18 17 12 18 2 19 1 20 3 21 10 22
REMARK H PARENT 10 23
REMARK Flexibility Score: inf
ROOT
ATOM      1  C   UNL     1      -6.680  37.757  44.134  1.00  0.00    -0.003 A 
ATOM      2  C   UNL     1      -6.810  36.359  44.019  1.00  0.00     0.119 A 
ATOM      3  C   UNL     1      -5.792  35.607  43.422  1.00  0.00     0.051 A 
ATOM      4  C   UNL     1      -4.628  36.214  42.897  1.00  0.00    -0.027 A 
ATOM      5  C   UNL     1      -4.469  37.602  43.091  1.00  0.00     0.022 A 
ATOM      6  C   UNL     1      -5.498  38.360  43.677  1.00  0.00     0.020 A 
ATOM      7  C   UNL     1      -3.199  38.247  42.747  1.00  0.00     0.163 C 
ATOM      8  O   UNL     1      -3.095  39.505  42.731  1.00  0.00    -0.294 OA
ATOM      9  C   UNL     1      -2.002  37.404  42.486  1.00  0.00     0.086 C 
ATOM     10  C   UNL     1      -2.363  36.207  41.569  1.00  0.00     0.013 C 
ATOM     11  C   UNL     1      -3.546  35.342  42.202  1.00  0.00    -0.003 C 
ATOM     12  C   UNL     1      -2.975  34.391  43.298  1.00  0.00     0.012 C 
ATOM     13  C   UNL     1      -1.769  33.559  42.852  1.00  0.00     0.001 C 
ATOM     14  C   UNL     1      -0.637  34.439  42.327  1.00  0.00     0.007 C 
ATOM     15  C   UNL     1      -1.073  35.363  41.162  1.00  0.00    -0.031 C 
ATOM     16  C   UNL     1       0.132  36.282  40.818  1.00  0.00     0.011 C 
ATOM     17  C   UNL     1      -1.322  34.525  39.878  1.00  0.00     0.011 C 
ATOM     18  C   UNL     1      -4.262  34.524  41.071  1.00  0.00     0.017 C 
ENDROOT
BRANCH   1  19
ATOM     19  C   UNL     1      -7.758  38.629  44.766  1.00  0.00     0.017 C 
ATOM     20  C   UNL     1      -7.465  40.122  44.576  1.00  0.00     0.012 C 
ATOM     21  C   UNL     1      -7.982  38.281  46.243  1.00  0.00     0.012 C 
ENDBRANCH   1  19
BRANCH   2  22
ATOM     22  O   UNL     1      -7.948  35.709  44.496  1.00  0.00    -0.508 OA
ATOM     23  H   UNL     1      -8.346  34.908  44.019  1.00  0.00     0.293 HD
ENDBRANCH   2  22
TORSDOF 2
ENDMDL
MODEL 6
REMARK VINA RESULT:    -5.207     13.919     15.837
REMARK INTER + INTRA:          -5.838
REMARK INTER:                  -5.698
REMARK INTRA:                  -0.140
REMARK UNBOUND:                -0.175
REMARK SMILES CC(C)c1cc2c(cc1O)[C@]1(C)CCCC(C)(C)[C@@H]1CC2=O
REMARK SMILES IDX 4 1 9 2 8 3 7 4 6 5 5 6 21 7 22 8 20 9 19 10 11 11 13 12
REMARK SMILES IDX 14 13 15 14 16 15 17 16 18 17 12 18 2 19 1 20 3 21 10 22
REMARK H PARENT 10 23
REMARK Flexibility Score: inf
ROOT
ATOM      1  C   UNL     1      -7.760  31.028  56.522  1.00  0.00    -0.003 A 
ATOM      2  C   UNL     1      -8.266  30.954  55.209  1.00  0.00     0.119 A 
ATOM      3  C   UNL     1      -8.363  29.716  54.564  1.00  0.00     0.051 A 
ATOM      4  C   UNL     1      -7.940  28.518  55.184  1.00  0.00    -0.027 A 
ATOM      5  C   UNL     1      -7.512  28.592  56.526  1.00  0.00     0.022 A 
ATOM      6  C   UNL     1      -7.400  29.837  57.170  1.00  0.00     0.020 A 
ATOM      7  C   UNL     1      -7.252  27.361  57.278  1.00  0.00     0.163 C 
ATOM      8  O   UNL     1      -6.691  27.399  58.408  1.00  0.00    -0.294 OA
ATOM      9  C   UNL     1      -7.723  26.060  56.731  1.00  0.00     0.086 C 
ATOM     10  C   UNL     1      -7.395  25.950  55.220  1.00  0.00     0.013 C 
ATOM     11  C   UNL     1      -8.024  27.174  54.410  1.00  0.00    -0.003 C 
ATOM     12  C   UNL     1      -9.539  26.910  54.149  1.00  0.00     0.012 C 
ATOM     13  C   UNL     1      -9.850  25.539  53.541  1.00  0.00     0.001 C 
ATOM     14  C   UNL     1      -9.293  24.402  54.394  1.00  0.00     0.007 C 
ATOM     15  C   UNL     1      -7.766  24.513  54.637  1.00  0.00    -0.031 C 
ATOM     16  C   UNL     1      -7.365  23.373  55.615  1.00  0.00     0.011 C 
ATOM     17  C   UNL     1      -6.992  24.213  53.325  1.00  0.00     0.011 C 
ATOM     18  C   UNL     1      -7.250  27.363  53.059  1.00  0.00     0.017 C 
ENDROOT
BRANCH   1  19
ATOM     19  C   UNL     1      -7.622  32.347  57.271  1.00  0.00     0.017 C 
ATOM     20  C   UNL     1      -6.672  32.224  58.469  1.00  0.00     0.012 C 
ATOM     21  C   UNL     1      -8.986  32.914  57.688  1.00  0.00     0.012 C 
ENDBRANCH   1  19
BRANCH   2  22
ATOM     22  O   UNL     1      -8.676  32.107  54.539  1.00  0.00    -0.508 OA
ATOM     23  H   UNL     1      -9.487  32.638  54.836  1.00  0.00     0.293 HD
ENDBRANCH   2  22
TORSDOF 2
ENDMDL
MODEL 7
REMARK VINA RESULT:    -5.173     10.042     11.560
REMARK INTER + INTRA:          -5.802
REMARK INTER:                  -5.614
REMARK INTRA:                  -0.188
REMARK UNBOUND:                -0.175
REMARK SMILES CC(C)c1cc2c(cc1O)[C@]1(C)CCCC(C)(C)[C@@H]1CC2=O
REMARK SMILES IDX 4 1 9 2 8 3 7 4 6 5 5 6 21 7 22 8 20 9 19 10 11 11 13 12
REMARK SMILES IDX 14 13 15 14 16 15 17 16 18 17 12 18 2 19 1 20 3 21 10 22
REMARK H PARENT 10 23
REMARK Flexibility Score: inf
ROOT
ATOM      1  C   UNL     1     -10.095  31.007  43.060  1.00  0.00    -0.003 A 
ATOM      2  C   UNL     1     -11.143  30.501  43.855  1.00  0.00     0.119 A 
ATOM      3  C   UNL     1     -11.637  29.212  43.625  1.00  0.00     0.051 A 
ATOM      4  C   UNL     1     -11.130  28.394  42.589  1.00  0.00    -0.027 A 
ATOM      5  C   UNL     1     -10.027  28.876  41.855  1.00  0.00     0.022 A 
ATOM      6  C   UNL     1      -9.540  30.177  42.074  1.00  0.00     0.020 A 
ATOM      7  C   UNL     1      -9.338  27.994  40.909  1.00  0.00     0.163 C 
ATOM      8  O   UNL     1      -8.477  28.451  40.107  1.00  0.00    -0.294 OA
ATOM      9  C   UNL     1      -9.607  26.532  40.949  1.00  0.00     0.086 C 
ATOM     10  C   UNL     1     -11.128  26.257  41.065  1.00  0.00     0.013 C 
ATOM     11  C   UNL     1     -11.743  26.987  42.344  1.00  0.00    -0.003 C 
ATOM     12  C   UNL     1     -11.445  26.147  43.624  1.00  0.00     0.012 C 
ATOM     13  C   UNL     1     -11.822  24.667  43.515  1.00  0.00     0.001 C 
ATOM     14  C   UNL     1     -11.148  23.997  42.320  1.00  0.00     0.007 C 
ATOM     15  C   UNL     1     -11.456  24.699  40.973  1.00  0.00    -0.031 C 
ATOM     16  C   UNL     1     -10.611  23.995  39.875  1.00  0.00     0.011 C 
ATOM     17  C   UNL     1     -12.935  24.451  40.566  1.00  0.00     0.011 C 
ATOM     18  C   UNL     1     -13.287  27.178  42.148  1.00  0.00     0.017 C 
ENDROOT
BRANCH   1  19
ATOM     19  C   UNL     1      -9.522  32.405  43.257  1.00  0.00     0.017 C 
ATOM     20  C   UNL     1      -8.832  32.920  41.988  1.00  0.00     0.012 C 
ATOM     21  C   UNL     1      -8.591  32.476  44.474  1.00  0.00     0.012 C 
ENDBRANCH   1  19
BRANCH   2  22
ATOM     22  O   UNL     1     -11.699  31.273  44.874  1.00  0.00    -0.508 OA
ATOM     23  H   UNL     1     -12.678  31.537  44.872  1.00  0.00     0.293 HD
ENDBRANCH   2  22
TORSDOF 2
ENDMDL
MODEL 8
REMARK VINA RESULT:    -5.022      3.970      6.474
REMARK INTER + INTRA:          -5.637
REMARK INTER:                  -5.394
REMARK INTRA:                  -0.244
REMARK UNBOUND:                -0.175
REMARK SMILES CC(C)c1cc2c(cc1O)[C@]1(C)CCCC(C)(C)[C@@H]1CC2=O
REMARK SMILES IDX 4 1 9 2 8 3 7 4 6 5 5 6 21 7 22 8 20 9 19 10 11 11 13 12
REMARK SMILES IDX 14 13 15 14 16 15 17 16 18 17 12 18 2 19 1 20 3 21 10 22
REMARK H PARENT 10 23
REMARK Flexibility Score: inf
ROOT
ATOM      1  C   UNL     1      -8.185  32.687  44.494  1.00  0.00    -0.003 A 
ATOM      2  C   UNL     1      -7.751  33.500  43.428  1.00  0.00     0.119 A 
ATOM      3  C   UNL     1      -7.304  34.802  43.679  1.00  0.00     0.051 A 
ATOM      4  C   UNL     1      -7.295  35.349  44.982  1.00  0.00    -0.027 A 
ATOM      5  C   UNL     1      -7.653  34.501  46.051  1.00  0.00     0.022 A 
ATOM      6  C   UNL     1      -8.117  33.197  45.799  1.00  0.00     0.020 A 
ATOM      7  C   UNL     1      -7.472  34.952  47.433  1.00  0.00     0.163 C 
ATOM      8  O   UNL     1      -7.956  34.295  48.397  1.00  0.00    -0.294 OA
ATOM      9  C   UNL     1      -6.645  36.158  47.703  1.00  0.00     0.086 C 
ATOM     10  C   UNL     1      -7.001  37.299  46.716  1.00  0.00     0.013 C 
ATOM     11  C   UNL     1      -6.833  36.816  45.203  1.00  0.00    -0.003 C 
ATOM     12  C   UNL     1      -5.328  36.870  44.798  1.00  0.00     0.012 C 
ATOM     13  C   UNL     1      -4.634  38.200  45.104  1.00  0.00     0.001 C 
ATOM     14  C   UNL     1      -4.759  38.577  46.578  1.00  0.00     0.007 C 
ATOM     15  C   UNL     1      -6.228  38.648  47.067  1.00  0.00    -0.031 C 
ATOM     16  C   UNL     1      -6.198  38.914  48.598  1.00  0.00     0.011 C 
ATOM     17  C   UNL     1      -6.936  39.888  46.455  1.00  0.00     0.011 C 
ATOM     18  C   UNL     1      -7.698  37.725  44.262  1.00  0.00     0.017 C 
ENDROOT
BRANCH   1  19
ATOM     19  C   UNL     1      -8.692  31.265  44.282  1.00  0.00     0.017 C 
ATOM     20  C   UNL     1     -10.195  31.236  43.980  1.00  0.00     0.012 C 
ATOM     21  C   UNL     1      -8.336  30.350  45.462  1.00  0.00     0.012 C 
ENDBRANCH   1  19
BRANCH   2  22
ATOM     22  O   UNL     1      -7.761  33.022  42.118  1.00  0.00    -0.508 OA
ATOM     23  H   UNL     1      -8.172  33.552  41.359  1.00  0.00     0.293 HD
ENDBRANCH   2  22
TORSDOF 2
ENDMDL
MODEL 9
REMARK VINA RESULT:    -4.992      2.376      3.130
REMARK INTER + INTRA:          -5.605
REMARK INTER:                  -5.361
REMARK INTRA:                  -0.244
REMARK UNBOUND:                -0.175
REMARK SMILES CC(C)c1cc2c(cc1O)[C@]1(C)CCCC(C)(C)[C@@H]1CC2=O
REMARK SMILES IDX 4 1 9 2 8 3 7 4 6 5 5 6 21 7 22 8 20 9 19 10 11 11 13 12
REMARK SMILES IDX 14 13 15 14 16 15 17 16 18 17 12 18 2 19 1 20 3 21 10 22
REMARK H PARENT 10 23
REMARK Flexibility Score: inf
ROOT
ATOM      1  C   UNL     1      -6.966  34.654  43.978  1.00  0.00    -0.003 A 
ATOM      2  C   UNL     1      -6.958  36.061  43.908  1.00  0.00     0.119 A 
ATOM      3  C   UNL     1      -5.855  36.728  43.364  1.00  0.00     0.051 A 
ATOM      4  C   UNL     1      -4.717  36.030  42.897  1.00  0.00    -0.027 A 
ATOM      5  C   UNL     1      -4.770  34.620  42.896  1.00  0.00     0.022 A 
ATOM      6  C   UNL     1      -5.871  33.949  43.456  1.00  0.00     0.020 A 
ATOM      7  C   UNL     1      -3.707  33.851  42.243  1.00  0.00     0.163 C 
ATOM      8  O   UNL     1      -3.630  32.600  42.390  1.00  0.00    -0.294 OA
ATOM      9  C   UNL     1      -2.754  34.548  41.338  1.00  0.00     0.086 C 
ATOM     10  C   UNL     1      -2.265  35.874  41.974  1.00  0.00     0.013 C 
ATOM     11  C   UNL     1      -3.498  36.818  42.344  1.00  0.00    -0.003 C 
ATOM     12  C   UNL     1      -3.995  37.559  41.065  1.00  0.00     0.012 C 
ATOM     13  C   UNL     1      -2.893  38.264  40.269  1.00  0.00     0.001 C 
ATOM     14  C   UNL     1      -1.776  37.301  39.875  1.00  0.00     0.007 C 
ATOM     15  C   UNL     1      -1.140  36.575  41.088  1.00  0.00    -0.031 C 
ATOM     16  C   UNL     1      -0.117  35.545  40.532  1.00  0.00     0.011 C 
ATOM     17  C   UNL     1      -0.294  37.573  41.925  1.00  0.00     0.011 C 
ATOM     18  C   UNL     1      -3.063  37.842  43.449  1.00  0.00     0.017 C 
ENDROOT
BRANCH   1  19
ATOM     19  C   UNL     1      -8.134  33.872  44.568  1.00  0.00     0.017 C 
ATOM     20  C   UNL     1      -7.812  33.341  45.970  1.00  0.00     0.012 C 
ATOM     21  C   UNL     1      -8.601  32.749  43.632  1.00  0.00     0.012 C 
ENDBRANCH   1  19
BRANCH   2  22
ATOM     22  O   UNL     1      -8.042  36.803  44.376  1.00  0.00    -0.508 OA
ATOM     23  H   UNL     1      -8.976  36.413  44.422  1.00  0.00     0.293 HD
ENDBRANCH   2  22
TORSDOF 2
ENDMDL
