MODEL 1
REMARK VINA RESULT:    -3.030      0.000      0.000
REMARK INTER + INTRA:          -3.662
REMARK INTER:                  -3.561
REMARK INTRA:                  -0.101
REMARK UNBOUND:                -0.101
REMARK SMILES O=C([O-])CCC(=O)[O-]
REMARK SMILES IDX 4 1 2 2 1 3 3 4 5 5 6 6 7 7 8 8
REMARK H PARENT
REMARK Flexibility Score: inf
ROOT
ATOM      1  C   UNL     1       3.714   6.658  16.182  1.00  0.00     0.059 C 
ENDROOT
BRANCH   1   2
ATOM      2  C   UNL     1       4.343   8.016  16.104  1.00  0.00     0.042 C 
ATOM      3  O   UNL     1       5.143   8.291  15.171  1.00  0.00    -0.550 OA
ATOM      4  O   UNL     1       4.013   8.991  17.036  1.00  0.00    -0.550 OA
ENDBRANCH   1   2
BRANCH   1   5
ATOM      5  C   UNL     1       2.235   6.741  16.570  1.00  0.00     0.059 C 
BRANCH   5   6
ATOM      6  C   UNL     1       1.972   6.081  17.890  1.00  0.00     0.042 C 
ATOM      7  O   UNL     1       1.876   4.827  17.963  1.00  0.00    -0.550 OA
ATOM      8  O   UNL     1       1.875   6.846  19.045  1.00  0.00    -0.550 OA
ENDBRANCH   5   6
ENDBRANCH   1   5
TORSDOF 3
ENDMDL
MODEL 2
REMARK VINA RESULT:    -3.006      0.632      3.936
REMARK INTER + INTRA:          -3.634
REMARK INTER:                  -3.519
REMARK INTRA:                  -0.115
REMARK UNBOUND:                -0.101
REMARK SMILES O=C([O-])CCC(=O)[O-]
REMARK SMILES IDX 4 1 2 2 1 3 3 4 5 5 6 6 7 7 8 8
REMARK H PARENT
REMARK Flexibility Score: inf
ROOT
ATOM      1  C   UNL     1       3.149   6.050  16.607  1.00  0.00     0.059 C 
ENDROOT
BRANCH   1   2
ATOM      2  C   UNL     1       2.325   5.733  17.818  1.00  0.00     0.042 C 
ATOM      3  O   UNL     1       2.005   6.647  18.623  1.00  0.00    -0.550 OA
ATOM      4  O   UNL     1       1.875   4.437  18.034  1.00  0.00    -0.550 OA
ENDBRANCH   1   2
BRANCH   1   5
ATOM      5  C   UNL     1       4.414   6.833  16.973  1.00  0.00     0.059 C 
BRANCH   5   6
ATOM      6  C   UNL     1       4.387   8.222  16.410  1.00  0.00     0.042 C 
ATOM      7  O   UNL     1       4.881   8.454  15.275  1.00  0.00    -0.550 OA
ATOM      8  O   UNL     1       3.779   9.249  17.120  1.00  0.00    -0.550 OA
ENDBRANCH   5   6
ENDBRANCH   1   5
TORSDOF 3
ENDMDL
MODEL 3
REMARK VINA RESULT:    -2.974      1.821      2.256
REMARK INTER + INTRA:          -3.597
REMARK INTER:                  -3.445
REMARK INTRA:                  -0.152
REMARK UNBOUND:                -0.101
REMARK SMILES O=C([O-])CCC(=O)[O-]
REMARK SMILES IDX 4 1 2 2 1 3 3 4 5 5 6 6 7 7 8 8
REMARK H PARENT
REMARK Flexibility Score: inf
ROOT
ATOM      1  C   UNL     1       2.944   6.119  17.278  1.00  0.00     0.059 C 
ENDROOT
BRANCH   1   2
ATOM      2  C   UNL     1       3.993   6.768  16.428  1.00  0.00     0.042 C 
ATOM      3  O   UNL     1       3.716   7.147  15.260  1.00  0.00    -0.550 OA
ATOM      4  O   UNL     1       5.265   6.992  16.941  1.00  0.00    -0.550 OA
ENDBRANCH   1   2
BRANCH   1   5
ATOM      5  C   UNL     1       1.875   7.122  17.723  1.00  0.00     0.059 C 
BRANCH   5   6
ATOM      6  C   UNL     1       2.432   8.137  18.675  1.00  0.00     0.042 C 
ATOM      7  O   UNL     1       2.658   7.823  19.874  1.00  0.00    -0.550 OA
ATOM      8  O   UNL     1       2.740   9.415  18.229  1.00  0.00    -0.550 OA
ENDBRANCH   5   6
ENDBRANCH   1   5
TORSDOF 3
ENDMDL
MODEL 4
REMARK VINA RESULT:    -2.964      1.812      3.300
REMARK INTER + INTRA:          -3.585
REMARK INTER:                  -3.440
REMARK INTRA:                  -0.145
REMARK UNBOUND:                -0.101
REMARK SMILES O=C([O-])CCC(=O)[O-]
REMARK SMILES IDX 4 1 2 2 1 3 3 4 5 5 6 6 7 7 8 8
REMARK H PARENT
REMARK Flexibility Score: inf
ROOT
ATOM      1  C   UNL     1       1.875   7.043  17.702  1.00  0.00     0.059 C 
ENDROOT
BRANCH   1   2
ATOM      2  C   UNL     1       2.419   8.098  18.616  1.00  0.00     0.042 C 
ATOM      3  O   UNL     1       2.674   7.824  19.819  1.00  0.00    -0.550 OA
ATOM      4  O   UNL     1       2.684   9.372  18.130  1.00  0.00    -0.550 OA
ENDBRANCH   1   2
BRANCH   1   5
ATOM      5  C   UNL     1       2.966   6.066  17.252  1.00  0.00     0.059 C 
BRANCH   5   6
ATOM      6  C   UNL     1       3.991   6.741  16.391  1.00  0.00     0.042 C 
ATOM      7  O   UNL     1       3.699   7.092  15.217  1.00  0.00    -0.550 OA
ATOM      8  O   UNL     1       5.253   7.019  16.898  1.00  0.00    -0.550 OA
ENDBRANCH   5   6
ENDBRANCH   1   5
TORSDOF 3
ENDMDL
MODEL 5
REMARK VINA RESULT:    -2.875     17.444     18.602
REMARK INTER + INTRA:          -3.480
REMARK INTER:                  -3.348
REMARK INTRA:                  -0.133
REMARK UNBOUND:                -0.101
REMARK SMILES O=C([O-])CCC(=O)[O-]
REMARK SMILES IDX 4 1 2 2 1 3 3 4 5 5 6 6 7 7 8 8
REMARK H PARENT
REMARK Flexibility Score: inf
ROOT
ATOM      1  C   UNL     1       5.892  -7.917   6.258  1.00  0.00     0.059 C 
ENDROOT
BRANCH   1   2
ATOM      2  C   UNL     1       4.681  -8.742   6.571  1.00  0.00     0.042 C 
ATOM      3  O   UNL     1       4.433  -9.076   7.759  1.00  0.00    -0.550 OA
ATOM      4  O   UNL     1       3.803  -9.104   5.557  1.00  0.00    -0.550 OA
ENDBRANCH   1   2
BRANCH   1   5
ATOM      5  C   UNL     1       5.628  -6.422   6.462  1.00  0.00     0.059 C 
BRANCH   5   6
ATOM      6  C   UNL     1       4.987  -5.804   5.257  1.00  0.00     0.042 C 
ATOM      7  O   UNL     1       4.237  -4.800   5.383  1.00  0.00    -0.550 OA
ATOM      8  O   UNL     1       5.250  -6.312   3.991  1.00  0.00    -0.550 OA
ENDBRANCH   5   6
ENDBRANCH   1   5
TORSDOF 3
ENDMDL
MODEL 6
REMARK VINA RESULT:    -2.872     17.478     18.356
REMARK INTER + INTRA:          -3.476
REMARK INTER:                  -3.346
REMARK INTRA:                  -0.130
REMARK UNBOUND:                -0.101
REMARK SMILES O=C([O-])CCC(=O)[O-]
REMARK SMILES IDX 4 1 2 2 1 3 3 4 5 5 6 6 7 7 8 8
REMARK H PARENT
REMARK Flexibility Score: inf
ROOT
ATOM      1  C   UNL     1       5.635  -6.398   6.339  1.00  0.00     0.059 C 
ENDROOT
BRANCH   1   2
ATOM      2  C   UNL     1       4.957  -5.831   5.129  1.00  0.00     0.042 C 
ATOM      3  O   UNL     1       4.198  -4.833   5.238  1.00  0.00    -0.550 OA
ATOM      4  O   UNL     1       5.198  -6.379   3.875  1.00  0.00    -0.550 OA
ENDBRANCH   1   2
BRANCH   1   5
ATOM      5  C   UNL     1       5.895  -7.901   6.190  1.00  0.00     0.059 C 
BRANCH   5   6
ATOM      6  C   UNL     1       4.697  -8.710   6.584  1.00  0.00     0.042 C 
ATOM      7  O   UNL     1       4.506  -9.011   7.792  1.00  0.00    -0.550 OA
ATOM      8  O   UNL     1       3.771  -9.097   5.624  1.00  0.00    -0.550 OA
ENDBRANCH   5   6
ENDBRANCH   1   5
TORSDOF 3
ENDMDL
MODEL 7
REMARK VINA RESULT:    -2.851     17.447     18.579
REMARK INTER + INTRA:          -3.452
REMARK INTER:                  -3.322
REMARK INTRA:                  -0.130
REMARK UNBOUND:                -0.101
REMARK SMILES O=C([O-])CCC(=O)[O-]
REMARK SMILES IDX 4 1 2 2 1 3 3 4 5 5 6 6 7 7 8 8
REMARK H PARENT
REMARK Flexibility Score: inf
ROOT
ATOM      1  C   UNL     1       5.891  -7.859   6.152  1.00  0.00     0.059 C 
ENDROOT
BRANCH   1   2
ATOM      2  C   UNL     1       4.728  -8.731   6.514  1.00  0.00     0.042 C 
ATOM      3  O   UNL     1       3.983  -9.200   5.614  1.00  0.00    -0.550 OA
ATOM      4  O   UNL     1       4.491  -9.060   7.843  1.00  0.00    -0.550 OA
ENDBRANCH   1   2
BRANCH   1   5
ATOM      5  C   UNL     1       5.582  -6.377   6.387  1.00  0.00     0.059 C 
BRANCH   5   6
ATOM      6  C   UNL     1       4.895  -5.762   5.205  1.00  0.00     0.042 C 
ATOM      7  O   UNL     1       4.184  -4.733   5.352  1.00  0.00    -0.550 OA
ATOM      8  O   UNL     1       5.074  -6.300   3.938  1.00  0.00    -0.550 OA
ENDBRANCH   5   6
ENDBRANCH   1   5
TORSDOF 3
ENDMDL
MODEL 8
REMARK VINA RESULT:    -2.842     17.443     18.275
REMARK INTER + INTRA:          -3.442
REMARK INTER:                  -3.322
REMARK INTRA:                  -0.119
REMARK UNBOUND:                -0.101
REMARK SMILES O=C([O-])CCC(=O)[O-]
REMARK SMILES IDX 4 1 2 2 1 3 3 4 5 5 6 6 7 7 8 8
REMARK H PARENT
REMARK Flexibility Score: inf
ROOT
ATOM      1  C   UNL     1       5.589  -6.408   6.349  1.00  0.00     0.059 C 
ENDROOT
BRANCH   1   2
ATOM      2  C   UNL     1       4.906  -5.765   5.181  1.00  0.00     0.042 C 
ATOM      3  O   UNL     1       5.006  -6.270   4.031  1.00  0.00    -0.550 OA
ATOM      4  O   UNL     1       4.125  -4.632   5.368  1.00  0.00    -0.550 OA
ENDBRANCH   1   2
BRANCH   1   5
ATOM      5  C   UNL     1       5.855  -7.896   6.100  1.00  0.00     0.059 C 
BRANCH   5   6
ATOM      6  C   UNL     1       4.678  -8.740   6.485  1.00  0.00     0.042 C 
ATOM      7  O   UNL     1       3.894  -9.175   5.600  1.00  0.00    -0.550 OA
ATOM      8  O   UNL     1       4.469  -9.079   7.815  1.00  0.00    -0.550 OA
ENDBRANCH   5   6
ENDBRANCH   1   5
TORSDOF 3
ENDMDL
MODEL 9
REMARK VINA RESULT:    -2.471     20.291     21.563
REMARK INTER + INTRA:          -3.005
REMARK INTER:                  -2.964
REMARK INTRA:                  -0.041
REMARK UNBOUND:                -0.101
REMARK SMILES O=C([O-])CCC(=O)[O-]
REMARK SMILES IDX 4 1 2 2 1 3 3 4 5 5 6 6 7 7 8 8
REMARK H PARENT
REMARK Flexibility Score: inf
ROOT
ATOM      1  C   UNL     1      14.093  -5.238   4.946  1.00  0.00     0.059 C 
ENDROOT
BRANCH   1   2
ATOM      2  C   UNL     1      12.917  -6.002   4.418  1.00  0.00     0.042 C 
ATOM      3  O   UNL     1      12.877  -6.348   3.208  1.00  0.00    -0.550 OA
ATOM      4  O   UNL     1      11.884  -6.368   5.272  1.00  0.00    -0.550 OA
ENDBRANCH   1   2
BRANCH   1   5
ATOM      5  C   UNL     1      15.388  -5.621   4.221  1.00  0.00     0.059 C 
BRANCH   5   6
ATOM      6  C   UNL     1      16.472  -5.992   5.187  1.00  0.00     0.042 C 
ATOM      7  O   UNL     1      16.664  -5.298   6.220  1.00  0.00    -0.550 OA
ATOM      8  O   UNL     1      17.243  -7.126   4.966  1.00  0.00    -0.550 OA
ENDBRANCH   5   6
ENDBRANCH   1   5
TORSDOF 3
ENDMDL
