MODEL 1
REMARK VINA RESULT:    -5.978      0.000      0.000
REMARK INTER + INTRA:          -6.781
REMARK INTER:                  -7.202
REMARK INTRA:                   0.421
REMARK UNBOUND:                 0.421
REMARK SMILES Oc1cc(O)c2c(c1)O[C@H](c1ccc(O)c(O)c1)[C@@H](O)C2
REMARK SMILES IDX 21 1 19 2 10 3 9 4 7 5 8 6 2 7 3 8 4 9 6 10 20 11 11 13
REMARK SMILES IDX 18 14 12 15 16 16 13 17 14 18 17 19 15 21 5 23 1 25
REMARK H PARENT 20 12 17 20 15 22 5 24 1 26
REMARK Flexibility Score: inf
ROOT
ATOM      1  C   UNL     1      24.808 -18.666 -44.096  1.00  0.00     0.079 C 
ATOM      2  C   UNL     1      26.269 -18.636 -43.608  1.00  0.00     0.164 C 
ATOM      3  C   UNL     1      26.992 -19.938 -44.007  1.00  0.00     0.232 C 
ATOM      4  O   UNL     1      26.280 -21.061 -43.488  1.00  0.00    -0.482 OA
ATOM      5  C   UNL     1      24.882 -21.112 -43.455  1.00  0.00     0.131 A 
ATOM      6  C   UNL     1      24.257 -22.313 -43.110  1.00  0.00     0.093 A 
ATOM      7  C   UNL     1      22.864 -22.401 -43.083  1.00  0.00     0.122 A 
ATOM      8  C   UNL     1      22.090 -21.282 -43.412  1.00  0.00     0.092 A 
ATOM      9  C   UNL     1      22.699 -20.071 -43.761  1.00  0.00     0.126 A 
ATOM     10  C   UNL     1      24.110 -19.965 -43.748  1.00  0.00     0.039 A 
ENDROOT
BRANCH   2  11
ATOM     11  O   UNL     1      26.935 -17.504 -44.111  1.00  0.00    -0.389 OA
ATOM     12  H   UNL     1      27.798 -17.421 -43.625  1.00  0.00     0.211 HD
ENDBRANCH   2  11
BRANCH   3  13
ATOM     13  C   UNL     1      28.412 -19.953 -43.495  1.00  0.00    -0.001 A 
ATOM     14  C   UNL     1      29.039 -18.757 -43.112  1.00  0.00     0.057 A 
ATOM     15  C   UNL     1      29.104 -21.165 -43.347  1.00  0.00     0.012 A 
ATOM     16  C   UNL     1      30.346 -18.759 -42.608  1.00  0.00     0.157 A 
ATOM     17  C   UNL     1      30.408 -21.176 -42.847  1.00  0.00     0.050 A 
ATOM     18  C   UNL     1      31.041 -19.984 -42.476  1.00  0.00     0.157 A 
BRANCH  16  19
ATOM     19  O   UNL     1      30.909 -17.531 -42.251  1.00  0.00    -0.504 OA
ATOM     20  H   UNL     1      31.070 -16.775 -42.901  1.00  0.00     0.293 HD
ENDBRANCH  16  19
BRANCH  18  21
ATOM     21  O   UNL     1      32.346 -20.064 -41.986  1.00  0.00    -0.504 OA
ATOM     22  H   UNL     1      33.105 -19.479 -42.304  1.00  0.00     0.293 HD
ENDBRANCH  18  21
ENDBRANCH   3  13
BRANCH   9  23
ATOM     23  O   UNL     1      21.875 -19.003 -44.124  1.00  0.00    -0.507 OA
ATOM     24  H   UNL     1      22.195 -18.045 -44.171  1.00  0.00     0.293 HD
ENDBRANCH   9  23
BRANCH   7  25
ATOM     25  O   UNL     1      22.258 -23.606 -42.735  1.00  0.00    -0.508 OA
ATOM     26  H   UNL     1      22.082 -23.850 -41.767  1.00  0.00     0.293 HD
ENDBRANCH   7  25
TORSDOF 6
ENDMDL
MODEL 2
REMARK VINA RESULT:    -5.978      2.580      5.173
REMARK INTER + INTRA:          -6.780
REMARK INTER:                  -6.652
REMARK INTRA:                  -0.128
REMARK UNBOUND:                 0.421
REMARK SMILES Oc1cc(O)c2c(c1)O[C@H](c1ccc(O)c(O)c1)[C@@H](O)C2
REMARK SMILES IDX 21 1 19 2 10 3 9 4 7 5 8 6 2 7 3 8 4 9 6 10 20 11 11 13
REMARK SMILES IDX 18 14 12 15 16 16 13 17 14 18 17 19 15 21 5 23 1 25
REMARK H PARENT 20 12 17 20 15 22 5 24 1 26
REMARK Flexibility Score: inf
ROOT
ATOM      1  C   UNL     1      30.725 -21.036 -43.556  1.00  0.00     0.079 C 
ATOM      2  C   UNL     1      31.392 -19.651 -43.660  1.00  0.00     0.164 C 
ATOM      3  C   UNL     1      30.723 -18.662 -42.684  1.00  0.00     0.232 C 
ATOM      4  O   UNL     1      29.322 -18.600 -42.949  1.00  0.00    -0.482 OA
ATOM      5  C   UNL     1      28.574 -19.730 -43.297  1.00  0.00     0.131 A 
ATOM      6  C   UNL     1      27.182 -19.628 -43.356  1.00  0.00     0.093 A 
ATOM      7  C   UNL     1      26.406 -20.741 -43.685  1.00  0.00     0.122 A 
ATOM      8  C   UNL     1      27.027 -21.968 -43.948  1.00  0.00     0.092 A 
ATOM      9  C   UNL     1      28.420 -22.089 -43.893  1.00  0.00     0.126 A 
ATOM     10  C   UNL     1      29.213 -20.953 -43.602  1.00  0.00     0.039 A 
ENDROOT
BRANCH   2  11
ATOM     11  O   UNL     1      32.775 -19.749 -43.424  1.00  0.00    -0.389 OA
ATOM     12  H   UNL     1      33.178 -20.231 -44.193  1.00  0.00     0.211 HD
ENDBRANCH   2  11
BRANCH   3  13
ATOM     13  C   UNL     1      31.327 -17.283 -42.805  1.00  0.00    -0.001 A 
ATOM     14  C   UNL     1      31.401 -16.443 -41.684  1.00  0.00     0.057 A 
ATOM     15  C   UNL     1      31.867 -16.846 -44.024  1.00  0.00     0.012 A 
ATOM     16  C   UNL     1      31.985 -15.172 -41.774  1.00  0.00     0.157 A 
ATOM     17  C   UNL     1      32.449 -15.581 -44.124  1.00  0.00     0.050 A 
ATOM     18  C   UNL     1      32.513 -14.734 -43.011  1.00  0.00     0.157 A 
BRANCH  16  19
ATOM     19  O   UNL     1      32.020 -14.387 -40.619  1.00  0.00    -0.504 OA
ATOM     20  H   UNL     1      32.857 -14.209 -40.084  1.00  0.00     0.293 HD
ENDBRANCH  16  19
BRANCH  18  21
ATOM     21  O   UNL     1      33.106 -13.481 -43.179  1.00  0.00    -0.504 OA
ATOM     22  H   UNL     1      33.670 -13.025 -42.476  1.00  0.00     0.293 HD
ENDBRANCH  18  21
ENDBRANCH   3  13
BRANCH   9  23
ATOM     23  O   UNL     1      28.979 -23.349 -44.120  1.00  0.00    -0.507 OA
ATOM     24  H   UNL     1      28.485 -24.215 -43.949  1.00  0.00     0.293 HD
ENDBRANCH   9  23
BRANCH   7  25
ATOM     25  O   UNL     1      25.019 -20.620 -43.741  1.00  0.00    -0.508 OA
ATOM     26  H   UNL     1      24.477 -21.078 -44.464  1.00  0.00     0.293 HD
ENDBRANCH   7  25
TORSDOF 6
ENDMDL
MODEL 3
REMARK VINA RESULT:    -5.559      1.530      6.808
REMARK INTER + INTRA:          -6.276
REMARK INTER:                  -6.092
REMARK INTRA:                  -0.184
REMARK UNBOUND:                 0.421
REMARK SMILES Oc1cc(O)c2c(c1)O[C@H](c1ccc(O)c(O)c1)[C@@H](O)C2
REMARK SMILES IDX 21 1 19 2 10 3 9 4 7 5 8 6 2 7 3 8 4 9 6 10 20 11 11 13
REMARK SMILES IDX 18 14 12 15 16 16 13 17 14 18 17 19 15 21 5 23 1 25
REMARK H PARENT 20 12 17 20 15 22 5 24 1 26
REMARK Flexibility Score: inf
ROOT
ATOM      1  C   UNL     1      27.976 -17.901 -43.648  1.00  0.00     0.079 C 
ATOM      2  C   UNL     1      26.755 -18.827 -43.815  1.00  0.00     0.164 C 
ATOM      3  C   UNL     1      26.554 -19.680 -42.547  1.00  0.00     0.232 C 
ATOM      4  O   UNL     1      27.746 -20.415 -42.269  1.00  0.00    -0.482 OA
ATOM      5  C   UNL     1      29.022 -19.872 -42.456  1.00  0.00     0.131 A 
ATOM      6  C   UNL     1      30.132 -20.577 -41.987  1.00  0.00     0.093 A 
ATOM      7  C   UNL     1      31.418 -20.056 -42.145  1.00  0.00     0.122 A 
ATOM      8  C   UNL     1      31.593 -18.816 -42.769  1.00  0.00     0.092 A 
ATOM      9  C   UNL     1      30.492 -18.094 -43.245  1.00  0.00     0.126 A 
ATOM     10  C   UNL     1      29.191 -18.639 -43.125  1.00  0.00     0.039 A 
ENDROOT
BRANCH   2  11
ATOM     11  O   UNL     1      25.604 -18.078 -44.118  1.00  0.00    -0.389 OA
ATOM     12  H   UNL     1      24.867 -18.718 -44.303  1.00  0.00     0.211 HD
ENDBRANCH   2  11
BRANCH   3  13
ATOM     13  C   UNL     1      25.393 -20.632 -42.707  1.00  0.00    -0.001 A 
ATOM     14  C   UNL     1      24.558 -20.920 -41.616  1.00  0.00     0.057 A 
ATOM     15  C   UNL     1      25.104 -21.200 -43.958  1.00  0.00     0.012 A 
ATOM     16  C   UNL     1      23.460 -21.779 -41.758  1.00  0.00     0.157 A 
ATOM     17  C   UNL     1      24.014 -22.058 -44.107  1.00  0.00     0.050 A 
ATOM     18  C   UNL     1      23.186 -22.358 -43.019  1.00  0.00     0.157 A 
BRANCH  16  19
ATOM     19  O   UNL     1      22.675 -22.024 -40.629  1.00  0.00    -0.504 OA
ATOM     20  H   UNL     1      22.398 -21.311 -39.969  1.00  0.00     0.293 HD
ENDBRANCH  16  19
BRANCH  18  21
ATOM     21  O   UNL     1      22.113 -23.225 -43.235  1.00  0.00    -0.504 OA
ATOM     22  H   UNL     1      22.000 -24.111 -42.764  1.00  0.00     0.293 HD
ENDBRANCH  18  21
ENDBRANCH   3  13
BRANCH   9  23
ATOM     23  O   UNL     1      30.726 -16.842 -43.817  1.00  0.00    -0.507 OA
ATOM     24  H   UNL     1      31.538 -16.631 -44.382  1.00  0.00     0.293 HD
ENDBRANCH   9  23
BRANCH   7  25
ATOM     25  O   UNL     1      32.514 -20.775 -41.672  1.00  0.00    -0.508 OA
ATOM     26  H   UNL     1      33.221 -20.340 -41.090  1.00  0.00     0.293 HD
ENDBRANCH   7  25
TORSDOF 6
ENDMDL
MODEL 4
REMARK VINA RESULT:    -5.313      3.573      5.634
REMARK INTER + INTRA:          -5.980
REMARK INTER:                  -5.606
REMARK INTRA:                  -0.373
REMARK UNBOUND:                 0.421
REMARK SMILES Oc1cc(O)c2c(c1)O[C@H](c1ccc(O)c(O)c1)[C@@H](O)C2
REMARK SMILES IDX 21 1 19 2 10 3 9 4 7 5 8 6 2 7 3 8 4 9 6 10 20 11 11 13
REMARK SMILES IDX 18 14 12 15 16 16 13 17 14 18 17 19 15 21 5 23 1 25
REMARK H PARENT 20 12 17 20 15 22 5 24 1 26
REMARK Flexibility Score: inf
ROOT
ATOM      1  C   UNL     1      28.246 -20.140 -43.931  1.00  0.00     0.079 C 
ATOM      2  C   UNL     1      28.782 -18.805 -43.377  1.00  0.00     0.164 C 
ATOM      3  C   UNL     1      30.227 -18.569 -43.859  1.00  0.00     0.232 C 
ATOM      4  O   UNL     1      31.048 -19.673 -43.475  1.00  0.00    -0.482 OA
ATOM      5  C   UNL     1      30.589 -20.995 -43.509  1.00  0.00     0.131 A 
ATOM      6  C   UNL     1      31.502 -22.032 -43.302  1.00  0.00     0.093 A 
ATOM      7  C   UNL     1      31.080 -23.362 -43.344  1.00  0.00     0.122 A 
ATOM      8  C   UNL     1      29.737 -23.657 -43.606  1.00  0.00     0.092 A 
ATOM      9  C   UNL     1      28.809 -22.630 -43.818  1.00  0.00     0.126 A 
ATOM     10  C   UNL     1      29.224 -21.280 -43.732  1.00  0.00     0.039 A 
ENDROOT
BRANCH   2  11
ATOM     11  O   UNL     1      27.938 -17.742 -43.746  1.00  0.00    -0.389 OA
ATOM     12  H   UNL     1      27.101 -18.135 -44.110  1.00  0.00     0.211 HD
ENDBRANCH   2  11
BRANCH   3  13
ATOM     13  C   UNL     1      30.792 -17.291 -43.287  1.00  0.00    -0.001 A 
ATOM     14  C   UNL     1      31.073 -17.193 -41.916  1.00  0.00     0.057 A 
ATOM     15  C   UNL     1      31.088 -16.205 -44.125  1.00  0.00     0.012 A 
ATOM     16  C   UNL     1      31.624 -16.023 -41.376  1.00  0.00     0.157 A 
ATOM     17  C   UNL     1      31.635 -15.035 -43.595  1.00  0.00     0.050 A 
ATOM     18  C   UNL     1      31.906 -14.928 -42.227  1.00  0.00     0.157 A 
BRANCH  16  19
ATOM     19  O   UNL     1      31.874 -15.994 -40.002  1.00  0.00    -0.504 OA
ATOM     20  H   UNL     1      32.694 -16.394 -39.570  1.00  0.00     0.293 HD
ENDBRANCH  16  19
BRANCH  18  21
ATOM     21  O   UNL     1      32.451 -13.730 -41.761  1.00  0.00    -0.504 OA
ATOM     22  H   UNL     1      32.269 -12.828 -42.176  1.00  0.00     0.293 HD
ENDBRANCH  18  21
ENDBRANCH   3  13
BRANCH   9  23
ATOM     23  O   UNL     1      27.493 -22.988 -44.120  1.00  0.00    -0.507 OA
ATOM     24  H   UNL     1      26.689 -22.618 -43.628  1.00  0.00     0.293 HD
ENDBRANCH   9  23
BRANCH   7  25
ATOM     25  O   UNL     1      32.003 -24.384 -43.134  1.00  0.00    -0.508 OA
ATOM     26  H   UNL     1      31.800 -25.342 -43.392  1.00  0.00     0.293 HD
ENDBRANCH   7  25
TORSDOF 6
ENDMDL
MODEL 5
REMARK VINA RESULT:    -5.194      1.487      3.147
REMARK INTER + INTRA:          -5.835
REMARK INTER:                  -5.853
REMARK INTRA:                   0.017
REMARK UNBOUND:                 0.421
REMARK SMILES Oc1cc(O)c2c(c1)O[C@H](c1ccc(O)c(O)c1)[C@@H](O)C2
REMARK SMILES IDX 21 1 19 2 10 3 9 4 7 5 8 6 2 7 3 8 4 9 6 10 20 11 11 13
REMARK SMILES IDX 18 14 12 15 16 16 13 17 14 18 17 19 15 21 5 23 1 25
REMARK H PARENT 20 12 17 20 15 22 5 24 1 26
REMARK Flexibility Score: inf
ROOT
ATOM      1  C   UNL     1      26.551 -21.561 -43.165  1.00  0.00     0.079 C 
ATOM      2  C   UNL     1      27.907 -20.871 -43.411  1.00  0.00     0.164 C 
ATOM      3  C   UNL     1      27.946 -19.503 -42.701  1.00  0.00     0.232 C 
ATOM      4  O   UNL     1      26.853 -18.701 -43.146  1.00  0.00    -0.482 OA
ATOM      5  C   UNL     1      25.583 -19.236 -43.393  1.00  0.00     0.131 A 
ATOM      6  C   UNL     1      24.520 -18.365 -43.641  1.00  0.00     0.093 A 
ATOM      7  C   UNL     1      23.238 -18.866 -43.878  1.00  0.00     0.122 A 
ATOM      8  C   UNL     1      23.017 -20.247 -43.856  1.00  0.00     0.092 A 
ATOM      9  C   UNL     1      24.071 -21.135 -43.609  1.00  0.00     0.126 A 
ATOM     10  C   UNL     1      25.379 -20.634 -43.412  1.00  0.00     0.039 A 
ENDROOT
BRANCH   2  11
ATOM     11  O   UNL     1      28.966 -21.698 -42.992  1.00  0.00    -0.389 OA
ATOM     12  H   UNL     1      29.541 -21.875 -43.782  1.00  0.00     0.211 HD
ENDBRANCH   2  11
BRANCH   3  13
ATOM     13  C   UNL     1      29.248 -18.786 -42.971  1.00  0.00    -0.001 A 
ATOM     14  C   UNL     1      30.437 -19.231 -42.373  1.00  0.00     0.057 A 
ATOM     15  C   UNL     1      29.293 -17.700 -43.858  1.00  0.00     0.012 A 
ATOM     16  C   UNL     1      31.657 -18.593 -42.637  1.00  0.00     0.157 A 
ATOM     17  C   UNL     1      30.503 -17.057 -44.125  1.00  0.00     0.050 A 
ATOM     18  C   UNL     1      31.690 -17.490 -43.522  1.00  0.00     0.157 A 
BRANCH  16  19
ATOM     19  O   UNL     1      32.800 -19.086 -42.004  1.00  0.00    -0.504 OA
ATOM     20  H   UNL     1      33.713 -18.661 -42.077  1.00  0.00     0.293 HD
ENDBRANCH  16  19
BRANCH  18  21
ATOM     21  O   UNL     1      32.866 -16.802 -43.829  1.00  0.00    -0.504 OA
ATOM     22  H   UNL     1      33.632 -16.677 -43.184  1.00  0.00     0.293 HD
ENDBRANCH  18  21
ENDBRANCH   3  13
BRANCH   9  23
ATOM     23  O   UNL     1      23.780 -22.500 -43.555  1.00  0.00    -0.507 OA
ATOM     24  H   UNL     1      22.916 -22.899 -43.899  1.00  0.00     0.293 HD
ENDBRANCH   9  23
BRANCH   7  25
ATOM     25  O   UNL     1      22.189 -17.982 -44.125  1.00  0.00    -0.508 OA
ATOM     26  H   UNL     1      21.268 -18.314 -44.386  1.00  0.00     0.293 HD
ENDBRANCH   7  25
TORSDOF 6
ENDMDL
MODEL 6
REMARK VINA RESULT:    -4.871      1.329      7.235
REMARK INTER + INTRA:          -5.446
REMARK INTER:                  -5.750
REMARK INTRA:                   0.304
REMARK UNBOUND:                 0.421
REMARK SMILES Oc1cc(O)c2c(c1)O[C@H](c1ccc(O)c(O)c1)[C@@H](O)C2
REMARK SMILES IDX 21 1 19 2 10 3 9 4 7 5 8 6 2 7 3 8 4 9 6 10 20 11 11 13
REMARK SMILES IDX 18 14 12 15 16 16 13 17 14 18 17 19 15 21 5 23 1 25
REMARK H PARENT 20 12 17 20 15 22 5 24 1 26
REMARK Flexibility Score: inf
ROOT
ATOM      1  C   UNL     1      29.819 -21.395 -43.606  1.00  0.00     0.079 C 
ATOM      2  C   UNL     1      28.301 -21.587 -43.427  1.00  0.00     0.164 C 
ATOM      3  C   UNL     1      27.545 -20.322 -43.881  1.00  0.00     0.232 C 
ATOM      4  O   UNL     1      28.028 -19.189 -43.159  1.00  0.00    -0.482 OA
ATOM      5  C   UNL     1      29.381 -19.024 -42.841  1.00  0.00     0.131 A 
ATOM      6  C   UNL     1      29.804 -17.807 -42.302  1.00  0.00     0.093 A 
ATOM      7  C   UNL     1      31.150 -17.604 -41.988  1.00  0.00     0.122 A 
ATOM      8  C   UNL     1      32.079 -18.623 -42.224  1.00  0.00     0.092 A 
ATOM      9  C   UNL     1      31.673 -19.849 -42.764  1.00  0.00     0.126 A 
ATOM     10  C   UNL     1      30.304 -20.074 -43.043  1.00  0.00     0.039 A 
ENDROOT
BRANCH   2  11
ATOM     11  O   UNL     1      27.861 -22.726 -44.123  1.00  0.00    -0.389 OA
ATOM     12  H   UNL     1      27.309 -22.417 -44.889  1.00  0.00     0.211 HD
ENDBRANCH   2  11
BRANCH   3  13
ATOM     13  C   UNL     1      26.058 -20.468 -43.667  1.00  0.00    -0.001 A 
ATOM     14  C   UNL     1      25.192 -19.407 -43.972  1.00  0.00     0.057 A 
ATOM     15  C   UNL     1      25.519 -21.680 -43.210  1.00  0.00     0.012 A 
ATOM     16  C   UNL     1      23.806 -19.538 -43.806  1.00  0.00     0.157 A 
ATOM     17  C   UNL     1      24.140 -21.819 -43.039  1.00  0.00     0.050 A 
ATOM     18  C   UNL     1      23.274 -20.759 -43.330  1.00  0.00     0.157 A 
BRANCH  16  19
ATOM     19  O   UNL     1      23.005 -18.439 -44.125  1.00  0.00    -0.504 OA
ATOM     20  H   UNL     1      21.999 -18.432 -44.040  1.00  0.00     0.293 HD
ENDBRANCH  16  19
BRANCH  18  21
ATOM     21  O   UNL     1      21.906 -20.963 -43.136  1.00  0.00    -0.504 OA
ATOM     22  H   UNL     1      21.310 -21.453 -43.787  1.00  0.00     0.293 HD
ENDBRANCH  18  21
ENDBRANCH   3  13
BRANCH   9  23
ATOM     23  O   UNL     1      32.653 -20.811 -43.019  1.00  0.00    -0.507 OA
ATOM     24  H   UNL     1      33.169 -20.862 -43.887  1.00  0.00     0.293 HD
ENDBRANCH   9  23
BRANCH   7  25
ATOM     25  O   UNL     1      31.554 -16.384 -41.450  1.00  0.00    -0.508 OA
ATOM     26  H   UNL     1      32.070 -15.708 -42.001  1.00  0.00     0.293 HD
ENDBRANCH   7  25
TORSDOF 6
ENDMDL
MODEL 7
REMARK VINA RESULT:    -3.996      1.975      2.131
REMARK INTER + INTRA:          -4.393
REMARK INTER:                  -4.142
REMARK INTRA:                  -0.251
REMARK UNBOUND:                 0.421
REMARK SMILES Oc1cc(O)c2c(c1)O[C@H](c1ccc(O)c(O)c1)[C@@H](O)C2
REMARK SMILES IDX 21 1 19 2 10 3 9 4 7 5 8 6 2 7 3 8 4 9 6 10 20 11 11 13
REMARK SMILES IDX 18 14 12 15 16 16 13 17 14 18 17 19 15 21 5 23 1 25
REMARK H PARENT 20 12 17 20 15 22 5 24 1 26
REMARK Flexibility Score: inf
ROOT
ATOM      1  C   UNL     1      24.811 -20.307 -41.173  1.00  0.00     0.079 C 
ATOM      2  C   UNL     1      26.298 -20.039 -41.479  1.00  0.00     0.164 C 
ATOM      3  C   UNL     1      26.539 -20.044 -43.001  1.00  0.00     0.232 C 
ATOM      4  O   UNL     1      26.098 -21.284 -43.553  1.00  0.00    -0.482 OA
ATOM      5  C   UNL     1      24.942 -21.934 -43.106  1.00  0.00     0.131 A 
ATOM      6  C   UNL     1      24.471 -23.041 -43.816  1.00  0.00     0.093 A 
ATOM      7  C   UNL     1      23.313 -23.703 -43.405  1.00  0.00     0.122 A 
ATOM      8  C   UNL     1      22.615 -23.249 -42.279  1.00  0.00     0.092 A 
ATOM      9  C   UNL     1      23.073 -22.141 -41.555  1.00  0.00     0.126 A 
ATOM     10  C   UNL     1      24.270 -21.494 -41.943  1.00  0.00     0.039 A 
ENDROOT
BRANCH   2  11
ATOM     11  O   UNL     1      26.711 -18.827 -40.897  1.00  0.00    -0.389 OA
ATOM     12  H   UNL     1      27.292 -19.047 -40.122  1.00  0.00     0.211 HD
ENDBRANCH   2  11
BRANCH   3  13
ATOM     13  C   UNL     1      28.000 -19.833 -43.323  1.00  0.00    -0.001 A 
ATOM     14  C   UNL     1      28.486 -18.544 -43.589  1.00  0.00     0.057 A 
ATOM     15  C   UNL     1      28.896 -20.913 -43.311  1.00  0.00     0.012 A 
ATOM     16  C   UNL     1      29.844 -18.330 -43.860  1.00  0.00     0.157 A 
ATOM     17  C   UNL     1      30.250 -20.709 -43.582  1.00  0.00     0.050 A 
ATOM     18  C   UNL     1      30.737 -19.427 -43.860  1.00  0.00     0.157 A 
BRANCH  16  19
ATOM     19  O   UNL     1      30.258 -17.021 -44.120  1.00  0.00    -0.504 OA
ATOM     20  H   UNL     1      29.834 -16.203 -43.707  1.00  0.00     0.293 HD
ENDBRANCH  16  19
BRANCH  18  21
ATOM     21  O   UNL     1      32.101 -19.291 -44.125  1.00  0.00    -0.504 OA
ATOM     22  H   UNL     1      32.810 -19.210 -43.411  1.00  0.00     0.293 HD
ENDBRANCH  18  21
ENDBRANCH   3  13
BRANCH   9  23
ATOM     23  O   UNL     1      22.310 -21.707 -40.469  1.00  0.00    -0.507 OA
ATOM     24  H   UNL     1      21.313 -21.862 -40.392  1.00  0.00     0.293 HD
ENDBRANCH   9  23
BRANCH   7  25
ATOM     25  O   UNL     1      22.858 -24.805 -44.125  1.00  0.00    -0.508 OA
ATOM     26  H   UNL     1      22.066 -25.353 -43.810  1.00  0.00     0.293 HD
ENDBRANCH   7  25
TORSDOF 6
ENDMDL
