MODEL 1
REMARK VINA RESULT:    -5.888      0.000      0.000
REMARK INTER + INTRA:          -9.842
REMARK INTER:                  -8.297
REMARK INTRA:                  -1.545
REMARK UNBOUND:                -1.545
REMARK SMILES COc1c(O[C@H]2O[C@H](C(=O)[O-])[C@@H](O)[C@@H](O)[C@@H]2O)cc(O)c2c(=O)cc(-c3ccccc3)oc12
REMARK SMILES IDX 5 1 6 2 8 3 12 4 7 5 14 6 16 7 9 8 10 9 11 10 13 11 15 13
REMARK SMILES IDX 17 15 4 17 3 18 18 19 33 20 19 21 21 22 32 23 22 24 25 25
REMARK SMILES IDX 24 26 23 27 2 28 1 29 20 30 26 32 27 33 31 34 28 35 30 36
REMARK SMILES IDX 29 37
REMARK H PARENT 13 12 15 14 17 16 20 31
REMARK Flexibility Score: inf
ROOT
ATOM      1  O   UNL     1     -12.157  83.966  -8.311  1.00  0.00    -0.458 OA
ENDROOT
BRANCH   1   2
ATOM      2  C   UNL     1     -11.374  82.908  -8.871  1.00  0.00     0.339 C 
ATOM      3  C   UNL     1     -11.997  81.384  -7.196  1.00  0.00     0.199 C 
ATOM      4  C   UNL     1     -12.812  80.496  -8.162  1.00  0.00     0.180 C 
ATOM      5  O   UNL     1     -10.918  82.010  -7.869  1.00  0.00    -0.328 OA
ATOM      6  C   UNL     1     -13.299  81.307  -9.385  1.00  0.00     0.181 C 
ATOM      7  C   UNL     1     -12.160  82.172  -9.972  1.00  0.00     0.214 C 
BRANCH   3   8
ATOM      8  C   UNL     1     -11.437  80.545  -6.084  1.00  0.00     0.073 C 
ATOM      9  O   UNL     1     -11.000  81.089  -5.036  1.00  0.00    -0.547 OA
ATOM     10  O   UNL     1     -11.370  79.164  -6.219  1.00  0.00    -0.547 OA
ENDBRANCH   3   8
BRANCH   4  11
ATOM     11  O   UNL     1     -13.909  79.937  -7.484  1.00  0.00    -0.387 OA
ATOM     12  H   UNL     1     -14.715  80.431  -7.790  1.00  0.00     0.211 HD
ENDBRANCH   4  11
BRANCH   6  13
ATOM     13  O   UNL     1     -14.437  82.085  -9.096  1.00  0.00    -0.387 OA
ATOM     14  H   UNL     1     -15.196  81.748  -9.633  1.00  0.00     0.211 HD
ENDBRANCH   6  13
BRANCH   7  15
ATOM     15  O   UNL     1     -11.268  81.358 -10.690  1.00  0.00    -0.384 OA
ATOM     16  H   UNL     1     -11.427  81.536 -11.655  1.00  0.00     0.211 HD
ENDBRANCH   7  15
ENDBRANCH   1   2
BRANCH   1  17
ATOM     17  C   UNL     1     -12.404  85.205  -8.924  1.00  0.00     0.172 A 
ATOM     18  C   UNL     1     -13.732  85.610  -9.076  1.00  0.00     0.205 A 
ATOM     19  C   UNL     1     -11.372  86.037  -9.383  1.00  0.00     0.097 A 
ATOM     20  C   UNL     1     -14.034  86.849  -9.667  1.00  0.00     0.188 A 
ATOM     21  C   UNL     1     -11.645  87.271  -9.981  1.00  0.00     0.134 A 
ATOM     22  C   UNL     1     -12.997  87.679 -10.168  1.00  0.00     0.111 A 
ATOM     23  O   UNL     1     -15.304  87.241  -9.733  1.00  0.00    -0.452 OA
ATOM     24  C   UNL     1     -13.390  88.858 -10.845  1.00  0.00     0.197 A 
ATOM     25  C   UNL     1     -15.695  88.386 -10.287  1.00  0.00     0.138 A 
ATOM     26  C   UNL     1     -14.738  89.214 -10.889  1.00  0.00     0.100 A 
ATOM     27  O   UNL     1     -12.563  89.590 -11.446  1.00  0.00    -0.289 OA
BRANCH  18  28
ATOM     28  O   UNL     1     -14.746  84.765  -8.614  1.00  0.00    -0.490 OA
ATOM     29  C   UNL     1     -15.356  84.939  -7.342  1.00  0.00     0.278 C 
ENDBRANCH  18  28
BRANCH  21  30
ATOM     30  O   UNL     1     -10.539  88.054 -10.327  1.00  0.00    -0.507 OA
ATOM     31  H   UNL     1      -9.910  88.486  -9.668  1.00  0.00     0.293 HD
ENDBRANCH  21  30
BRANCH  25  32
ATOM     32  C   UNL     1     -17.139  88.740 -10.264  1.00  0.00     0.017 A 
ATOM     33  C   UNL     1     -17.678  89.717 -11.131  1.00  0.00     0.012 A 
ATOM     34  C   UNL     1     -17.995  88.119  -9.333  1.00  0.00     0.012 A 
ATOM     35  C   UNL     1     -19.038  90.037 -11.080  1.00  0.00     0.001 A 
ATOM     36  C   UNL     1     -19.354  88.444  -9.285  1.00  0.00     0.001 A 
ATOM     37  C   UNL     1     -19.876  89.398 -10.161  1.00  0.00     0.000 A 
ENDBRANCH  25  32
ENDBRANCH   1  17
TORSDOF 9
ENDMDL
MODEL 2
REMARK VINA RESULT:    -5.660      4.973      8.400
REMARK INTER + INTRA:          -9.521
REMARK INTER:                  -8.309
REMARK INTRA:                  -1.212
REMARK UNBOUND:                -1.545
REMARK SMILES COc1c(O[C@H]2O[C@H](C(=O)[O-])[C@@H](O)[C@@H](O)[C@@H]2O)cc(O)c2c(=O)cc(-c3ccccc3)oc12
REMARK SMILES IDX 5 1 6 2 8 3 12 4 7 5 14 6 16 7 9 8 10 9 11 10 13 11 15 13
REMARK SMILES IDX 17 15 4 17 3 18 18 19 33 20 19 21 21 22 32 23 22 24 25 25
REMARK SMILES IDX 24 26 23 27 2 28 1 29 20 30 26 32 27 33 31 34 28 35 30 36
REMARK SMILES IDX 29 37
REMARK H PARENT 13 12 15 14 17 16 20 31
REMARK Flexibility Score: inf
ROOT
ATOM      1  O   UNL     1      -9.594  83.779  -9.334  1.00  0.00    -0.458 OA
ENDROOT
BRANCH   1   2
ATOM      2  C   UNL     1     -10.454  83.209  -8.342  1.00  0.00     0.339 C 
ATOM      3  C   UNL     1     -12.404  83.751  -9.531  1.00  0.00     0.199 C 
ATOM      4  C   UNL     1     -12.755  82.278  -9.833  1.00  0.00     0.180 C 
ATOM      5  O   UNL     1     -11.711  83.868  -8.300  1.00  0.00    -0.328 OA
ATOM      6  C   UNL     1     -11.491  81.389  -9.806  1.00  0.00     0.181 C 
ATOM      7  C   UNL     1     -10.617  81.694  -8.568  1.00  0.00     0.214 C 
BRANCH   3   8
ATOM      8  C   UNL     1     -13.663  84.566  -9.443  1.00  0.00     0.073 C 
ATOM      9  O   UNL     1     -14.120  85.142 -10.466  1.00  0.00    -0.547 OA
ATOM     10  O   UNL     1     -14.314  84.713  -8.225  1.00  0.00    -0.547 OA
ENDBRANCH   3   8
BRANCH   4  11
ATOM     11  O   UNL     1     -13.387  82.185 -11.085  1.00  0.00    -0.387 OA
ATOM     12  H   UNL     1     -12.670  82.240 -11.771  1.00  0.00     0.211 HD
ENDBRANCH   4  11
BRANCH   6  13
ATOM     13  O   UNL     1     -10.744  81.483 -10.997  1.00  0.00    -0.387 OA
ATOM     14  H   UNL     1     -10.229  80.646 -11.115  1.00  0.00     0.211 HD
ENDBRANCH   6  13
BRANCH   7  15
ATOM     15  O   UNL     1     -11.206  81.133  -7.423  1.00  0.00    -0.384 OA
ATOM     16  H   UNL     1     -10.997  81.741  -6.664  1.00  0.00     0.211 HD
ENDBRANCH   7  15
ENDBRANCH   1   2
BRANCH   1  17
ATOM     17  C   UNL     1      -8.251  84.136  -9.136  1.00  0.00     0.172 A 
ATOM     18  C   UNL     1      -7.924  85.495  -9.141  1.00  0.00     0.205 A 
ATOM     19  C   UNL     1      -7.240  83.184  -8.937  1.00  0.00     0.097 A 
ATOM     20  C   UNL     1      -6.598  85.907  -8.929  1.00  0.00     0.188 A 
ATOM     21  C   UNL     1      -5.911  83.568  -8.731  1.00  0.00     0.134 A 
ATOM     22  C   UNL     1      -5.564  84.949  -8.765  1.00  0.00     0.111 A 
ATOM     23  O   UNL     1      -6.328  87.209  -8.867  1.00  0.00    -0.452 OA
ATOM     24  C   UNL     1      -4.242  85.443  -8.666  1.00  0.00     0.197 A 
ATOM     25  C   UNL     1      -5.105  87.701  -8.688  1.00  0.00     0.138 A 
ATOM     26  C   UNL     1      -4.019  86.819  -8.613  1.00  0.00     0.100 A 
ATOM     27  O   UNL     1      -3.242  84.679  -8.657  1.00  0.00    -0.289 OA
BRANCH  18  28
ATOM     28  O   UNL     1      -8.946  86.427  -9.344  1.00  0.00    -0.490 OA
ATOM     29  C   UNL     1      -9.732  86.935  -8.273  1.00  0.00     0.278 C 
ENDBRANCH  18  28
BRANCH  21  30
ATOM     30  O   UNL     1      -5.002  82.540  -8.461  1.00  0.00    -0.507 OA
ATOM     31  H   UNL     1      -5.070  81.601  -8.821  1.00  0.00     0.293 HD
ENDBRANCH  21  30
BRANCH  25  32
ATOM     32  C   UNL     1      -4.930  89.175  -8.591  1.00  0.00     0.017 A 
ATOM     33  C   UNL     1      -5.484  90.053  -9.549  1.00  0.00     0.012 A 
ATOM     34  C   UNL     1      -4.162  89.719  -7.542  1.00  0.00     0.012 A 
ATOM     35  C   UNL     1      -5.294  91.434  -9.438  1.00  0.00     0.001 A 
ATOM     36  C   UNL     1      -3.974  91.099  -7.436  1.00  0.00     0.001 A 
ATOM     37  C   UNL     1      -4.543  91.957  -8.380  1.00  0.00     0.000 A 
ENDBRANCH  25  32
ENDBRANCH   1  17
TORSDOF 9
ENDMDL
MODEL 3
REMARK VINA RESULT:    -5.655      4.222      8.503
REMARK INTER + INTRA:          -9.514
REMARK INTER:                  -8.263
REMARK INTRA:                  -1.251
REMARK UNBOUND:                -1.545
REMARK SMILES COc1c(O[C@H]2O[C@H](C(=O)[O-])[C@@H](O)[C@@H](O)[C@@H]2O)cc(O)c2c(=O)cc(-c3ccccc3)oc12
REMARK SMILES IDX 5 1 6 2 8 3 12 4 7 5 14 6 16 7 9 8 10 9 11 10 13 11 15 13
REMARK SMILES IDX 17 15 4 17 3 18 18 19 33 20 19 21 21 22 32 23 22 24 25 25
REMARK SMILES IDX 24 26 23 27 2 28 1 29 20 30 26 32 27 33 31 34 28 35 30 36
REMARK SMILES IDX 29 37
REMARK H PARENT 13 12 15 14 17 16 20 31
REMARK Flexibility Score: inf
ROOT
ATOM      1  O   UNL     1     -11.634  85.402  -8.693  1.00  0.00    -0.458 OA
ENDROOT
BRANCH   1   2
ATOM      2  C   UNL     1     -12.639  85.246  -9.699  1.00  0.00     0.339 C 
ATOM      3  C   UNL     1     -13.115  83.035  -9.066  1.00  0.00     0.199 C 
ATOM      4  C   UNL     1     -14.528  83.379  -8.545  1.00  0.00     0.180 C 
ATOM      5  O   UNL     1     -12.742  83.896 -10.129  1.00  0.00    -0.328 OA
ATOM      6  C   UNL     1     -14.621  84.865  -8.131  1.00  0.00     0.181 C 
ATOM      7  C   UNL     1     -13.995  85.785  -9.204  1.00  0.00     0.214 C 
BRANCH   3   8
ATOM      8  C   UNL     1     -13.089  81.622  -9.572  1.00  0.00     0.073 C 
ATOM      9  O   UNL     1     -13.038  81.391 -10.809  1.00  0.00    -0.547 OA
ATOM     10  O   UNL     1     -13.154  80.560  -8.678  1.00  0.00    -0.547 OA
ENDBRANCH   3   8
BRANCH   4  11
ATOM     11  O   UNL     1     -14.847  82.551  -7.454  1.00  0.00    -0.387 OA
ATOM     12  H   UNL     1     -14.567  83.038  -6.635  1.00  0.00     0.211 HD
ENDBRANCH   4  11
BRANCH   6  13
ATOM     13  O   UNL     1     -14.064  85.105  -6.860  1.00  0.00    -0.387 OA
ATOM     14  H   UNL     1     -14.567  84.578  -6.189  1.00  0.00     0.211 HD
ENDBRANCH   6  13
BRANCH   7  15
ATOM     15  O   UNL     1     -14.862  85.891 -10.304  1.00  0.00    -0.384 OA
ATOM     16  H   UNL     1     -14.721  86.793 -10.697  1.00  0.00     0.211 HD
ENDBRANCH   7  15
ENDBRANCH   1   2
BRANCH   1  17
ATOM     17  C   UNL     1     -10.314  85.822  -8.924  1.00  0.00     0.172 A 
ATOM     18  C   UNL     1      -9.284  84.903  -8.703  1.00  0.00     0.205 A 
ATOM     19  C   UNL     1     -10.001  87.117  -9.362  1.00  0.00     0.097 A 
ATOM     20  C   UNL     1      -7.947  85.265  -8.936  1.00  0.00     0.188 A 
ATOM     21  C   UNL     1      -8.678  87.505  -9.594  1.00  0.00     0.134 A 
ATOM     22  C   UNL     1      -7.619  86.585  -9.343  1.00  0.00     0.111 A 
ATOM     23  O   UNL     1      -6.994  84.348  -8.788  1.00  0.00    -0.452 OA
ATOM     24  C   UNL     1      -6.244  86.900  -9.450  1.00  0.00     0.197 A 
ATOM     25  C   UNL     1      -5.699  84.595  -8.966  1.00  0.00     0.138 A 
ATOM     26  C   UNL     1      -5.288  85.899  -9.276  1.00  0.00     0.100 A 
ATOM     27  O   UNL     1      -5.842  88.072  -9.667  1.00  0.00    -0.289 OA
BRANCH  18  28
ATOM     28  O   UNL     1      -9.618  83.618  -8.264  1.00  0.00    -0.490 OA
ATOM     29  C   UNL     1      -9.547  82.483  -9.118  1.00  0.00     0.278 C 
ENDBRANCH  18  28
BRANCH  21  30
ATOM     30  O   UNL     1      -8.487  88.792 -10.107  1.00  0.00    -0.507 OA
ATOM     31  H   UNL     1      -9.165  89.538 -10.059  1.00  0.00     0.293 HD
ENDBRANCH  21  30
BRANCH  25  32
ATOM     32  C   UNL     1      -4.726  83.480  -8.814  1.00  0.00     0.017 A 
ATOM     33  C   UNL     1      -4.269  82.737  -9.925  1.00  0.00     0.012 A 
ATOM     34  C   UNL     1      -4.271  83.121  -7.530  1.00  0.00     0.012 A 
ATOM     35  C   UNL     1      -3.363  81.687  -9.752  1.00  0.00     0.001 A 
ATOM     36  C   UNL     1      -3.365  82.070  -7.362  1.00  0.00     0.001 A 
ATOM     37  C   UNL     1      -2.908  81.356  -8.472  1.00  0.00     0.000 A 
ENDBRANCH  25  32
ENDBRANCH   1  17
TORSDOF 9
ENDMDL
MODEL 4
REMARK VINA RESULT:    -5.655      1.819      4.295
REMARK INTER + INTRA:          -9.514
REMARK INTER:                  -8.141
REMARK INTRA:                  -1.372
REMARK UNBOUND:                -1.545
REMARK SMILES COc1c(O[C@H]2O[C@H](C(=O)[O-])[C@@H](O)[C@@H](O)[C@@H]2O)cc(O)c2c(=O)cc(-c3ccccc3)oc12
REMARK SMILES IDX 5 1 6 2 8 3 12 4 7 5 14 6 16 7 9 8 10 9 11 10 13 11 15 13
REMARK SMILES IDX 17 15 4 17 3 18 18 19 33 20 19 21 21 22 32 23 22 24 25 25
REMARK SMILES IDX 24 26 23 27 2 28 1 29 20 30 26 32 27 33 31 34 28 35 30 36
REMARK SMILES IDX 29 37
REMARK H PARENT 13 12 15 14 17 16 20 31
REMARK Flexibility Score: inf
ROOT
ATOM      1  O   UNL     1     -13.129  83.394  -7.668  1.00  0.00    -0.458 OA
ENDROOT
BRANCH   1   2
ATOM      2  C   UNL     1     -13.193  81.980  -7.871  1.00  0.00     0.339 C 
ATOM      3  C   UNL     1     -12.440  82.131 -10.090  1.00  0.00     0.199 C 
ATOM      4  C   UNL     1     -11.096  81.432  -9.791  1.00  0.00     0.180 C 
ATOM      5  O   UNL     1     -13.462  81.659  -9.228  1.00  0.00    -0.328 OA
ATOM      6  C   UNL     1     -10.704  81.592  -8.304  1.00  0.00     0.181 C 
ATOM      7  C   UNL     1     -11.904  81.298  -7.375  1.00  0.00     0.214 C 
BRANCH   3   8
ATOM      8  C   UNL     1     -12.853  81.855 -11.507  1.00  0.00     0.073 C 
ATOM      9  O   UNL     1     -12.235  80.999 -12.194  1.00  0.00    -0.547 OA
ATOM     10  O   UNL     1     -13.900  82.566 -12.079  1.00  0.00    -0.547 OA
ENDBRANCH   3   8
BRANCH   4  11
ATOM     11  O   UNL     1     -10.090  81.962 -10.617  1.00  0.00    -0.387 OA
ATOM     12  H   UNL     1      -9.232  81.853 -10.128  1.00  0.00     0.211 HD
ENDBRANCH   4  11
BRANCH   6  13
ATOM     13  O   UNL     1     -10.141  82.854  -8.031  1.00  0.00    -0.387 OA
ATOM     14  H   UNL     1      -9.361  82.988  -8.626  1.00  0.00     0.211 HD
ENDBRANCH   6  13
BRANCH   7  15
ATOM     15  O   UNL     1     -12.127  79.913  -7.312  1.00  0.00    -0.384 OA
ATOM     16  H   UNL     1     -11.683  79.513  -8.106  1.00  0.00     0.211 HD
ENDBRANCH   7  15
ENDBRANCH   1   2
BRANCH   1  17
ATOM     17  C   UNL     1     -14.231  84.230  -7.423  1.00  0.00     0.172 A 
ATOM     18  C   UNL     1     -14.562  85.181  -8.391  1.00  0.00     0.205 A 
ATOM     19  C   UNL     1     -14.998  84.140  -6.252  1.00  0.00     0.097 A 
ATOM     20  C   UNL     1     -15.666  86.030  -8.204  1.00  0.00     0.188 A 
ATOM     21  C   UNL     1     -16.097  84.978  -6.038  1.00  0.00     0.134 A 
ATOM     22  C   UNL     1     -16.424  85.972  -7.005  1.00  0.00     0.111 A 
ATOM     23  O   UNL     1     -16.002  86.877  -9.175  1.00  0.00    -0.452 OA
ATOM     24  C   UNL     1     -17.451  86.933  -6.849  1.00  0.00     0.197 A 
ATOM     25  C   UNL     1     -17.017  87.733  -9.089  1.00  0.00     0.138 A 
ATOM     26  C   UNL     1     -17.753  87.801  -7.898  1.00  0.00     0.100 A 
ATOM     27  O   UNL     1     -18.089  87.059  -5.772  1.00  0.00    -0.289 OA
BRANCH  18  28
ATOM     28  O   UNL     1     -13.783  85.255  -9.550  1.00  0.00    -0.490 OA
ATOM     29  C   UNL     1     -12.687  86.154  -9.670  1.00  0.00     0.278 C 
ENDBRANCH  18  28
BRANCH  21  30
ATOM     30  O   UNL     1     -16.838  84.748  -4.875  1.00  0.00    -0.507 OA
ATOM     31  H   UNL     1     -16.701  85.229  -4.000  1.00  0.00     0.293 HD
ENDBRANCH  21  30
BRANCH  25  32
ATOM     32  C   UNL     1     -17.326  88.602 -10.255  1.00  0.00     0.017 A 
ATOM     33  C   UNL     1     -16.394  88.805 -11.298  1.00  0.00     0.012 A 
ATOM     34  C   UNL     1     -18.562  89.276 -10.315  1.00  0.00     0.012 A 
ATOM     35  C   UNL     1     -16.708  89.636 -12.377  1.00  0.00     0.001 A 
ATOM     36  C   UNL     1     -18.870  90.107 -11.396  1.00  0.00     0.001 A 
ATOM     37  C   UNL     1     -17.946  90.283 -12.428  1.00  0.00     0.000 A 
ENDBRANCH  25  32
ENDBRANCH   1  17
TORSDOF 9
ENDMDL
MODEL 5
REMARK VINA RESULT:    -5.635      4.329      6.737
REMARK INTER + INTRA:          -9.485
REMARK INTER:                  -8.259
REMARK INTRA:                  -1.227
REMARK UNBOUND:                -1.545
REMARK SMILES COc1c(O[C@H]2O[C@H](C(=O)[O-])[C@@H](O)[C@@H](O)[C@@H]2O)cc(O)c2c(=O)cc(-c3ccccc3)oc12
REMARK SMILES IDX 5 1 6 2 8 3 12 4 7 5 14 6 16 7 9 8 10 9 11 10 13 11 15 13
REMARK SMILES IDX 17 15 4 17 3 18 18 19 33 20 19 21 21 22 32 23 22 24 25 25
REMARK SMILES IDX 24 26 23 27 2 28 1 29 20 30 26 32 27 33 31 34 28 35 30 36
REMARK SMILES IDX 29 37
REMARK H PARENT 13 12 15 14 17 16 20 31
REMARK Flexibility Score: inf
ROOT
ATOM      1  O   UNL     1      -7.324  84.081  -8.530  1.00  0.00    -0.458 OA
ENDROOT
BRANCH   1   2
ATOM      2  C   UNL     1      -6.367  84.210  -9.586  1.00  0.00     0.339 C 
ATOM      3  C   UNL     1      -4.900  85.493  -8.276  1.00  0.00     0.199 C 
ATOM      4  C   UNL     1      -3.817  84.393  -8.227  1.00  0.00     0.180 C 
ATOM      5  O   UNL     1      -5.639  85.425  -9.484  1.00  0.00    -0.328 OA
ATOM      6  C   UNL     1      -4.437  82.993  -8.435  1.00  0.00     0.181 C 
ATOM      7  C   UNL     1      -5.427  82.989  -9.622  1.00  0.00     0.214 C 
BRANCH   3   8
ATOM      8  C   UNL     1      -4.255  86.846  -8.194  1.00  0.00     0.073 C 
ATOM      9  O   UNL     1      -4.956  87.890  -8.263  1.00  0.00    -0.547 OA
ATOM     10  O   UNL     1      -2.875  86.954  -8.071  1.00  0.00    -0.547 OA
ENDBRANCH   3   8
BRANCH   4  11
ATOM     11  O   UNL     1      -3.141  84.446  -6.996  1.00  0.00    -0.387 OA
ATOM     12  H   UNL     1      -3.837  84.533  -6.292  1.00  0.00     0.211 HD
ENDBRANCH   4  11
BRANCH   6  13
ATOM     13  O   UNL     1      -5.038  82.492  -7.264  1.00  0.00    -0.387 OA
ATOM     14  H   UNL     1      -5.430  83.249  -6.760  1.00  0.00     0.211 HD
ENDBRANCH   6  13
BRANCH   7  15
ATOM     15  O   UNL     1      -4.717  83.010 -10.833  1.00  0.00    -0.384 OA
ATOM     16  H   UNL     1      -4.981  82.194 -11.337  1.00  0.00     0.211 HD
ENDBRANCH   7  15
ENDBRANCH   1   2
BRANCH   1  17
ATOM     17  C   UNL     1      -8.696  83.832  -8.704  1.00  0.00     0.172 A 
ATOM     18  C   UNL     1      -9.536  84.923  -8.942  1.00  0.00     0.205 A 
ATOM     19  C   UNL     1      -9.240  82.541  -8.645  1.00  0.00     0.097 A 
ATOM     20  C   UNL     1     -10.913  84.728  -9.141  1.00  0.00     0.188 A 
ATOM     21  C   UNL     1     -10.608  82.320  -8.832  1.00  0.00     0.134 A 
ATOM     22  C   UNL     1     -11.478  83.429  -9.045  1.00  0.00     0.111 A 
ATOM     23  O   UNL     1     -11.678  85.776  -9.438  1.00  0.00    -0.452 OA
ATOM     24  C   UNL     1     -12.885  83.332  -9.149  1.00  0.00     0.197 A 
ATOM     25  C   UNL     1     -12.993  85.699  -9.627  1.00  0.00     0.138 A 
ATOM     26  C   UNL     1     -13.637  84.467  -9.455  1.00  0.00     0.100 A 
ATOM     27  O   UNL     1     -13.498  82.253  -8.942  1.00  0.00    -0.289 OA
BRANCH  18  28
ATOM     28  O   UNL     1      -8.974  86.201  -8.994  1.00  0.00    -0.490 OA
ATOM     29  C   UNL     1      -8.815  87.007  -7.833  1.00  0.00     0.278 C 
ENDBRANCH  18  28
BRANCH  21  30
ATOM     30  O   UNL     1     -11.029  80.987  -8.834  1.00  0.00    -0.507 OA
ATOM     31  H   UNL     1     -10.599  80.246  -8.302  1.00  0.00     0.293 HD
ENDBRANCH  21  30
BRANCH  25  32
ATOM     32  C   UNL     1     -13.739  86.931  -9.998  1.00  0.00     0.017 A 
ATOM     33  C   UNL     1     -13.076  88.091 -10.459  1.00  0.00     0.012 A 
ATOM     34  C   UNL     1     -15.140  86.968  -9.855  1.00  0.00     0.012 A 
ATOM     35  C   UNL     1     -13.802  89.238 -10.791  1.00  0.00     0.001 A 
ATOM     36  C   UNL     1     -15.862  88.118 -10.188  1.00  0.00     0.001 A 
ATOM     37  C   UNL     1     -15.194  89.251 -10.659  1.00  0.00     0.000 A 
ENDBRANCH  25  32
ENDBRANCH   1  17
TORSDOF 9
ENDMDL
MODEL 6
REMARK VINA RESULT:    -5.560      4.354      6.500
REMARK INTER + INTRA:          -9.380
REMARK INTER:                  -8.202
REMARK INTRA:                  -1.179
REMARK UNBOUND:                -1.545
REMARK SMILES COc1c(O[C@H]2O[C@H](C(=O)[O-])[C@@H](O)[C@@H](O)[C@@H]2O)cc(O)c2c(=O)cc(-c3ccccc3)oc12
REMARK SMILES IDX 5 1 6 2 8 3 12 4 7 5 14 6 16 7 9 8 10 9 11 10 13 11 15 13
REMARK SMILES IDX 17 15 4 17 3 18 18 19 33 20 19 21 21 22 32 23 22 24 25 25
REMARK SMILES IDX 24 26 23 27 2 28 1 29 20 30 26 32 27 33 31 34 28 35 30 36
REMARK SMILES IDX 29 37
REMARK H PARENT 13 12 15 14 17 16 20 31
REMARK Flexibility Score: inf
ROOT
ATOM      1  O   UNL     1      -7.268  84.241  -8.824  1.00  0.00    -0.458 OA
ENDROOT
BRANCH   1   2
ATOM      2  C   UNL     1      -6.516  84.708  -7.701  1.00  0.00     0.339 C 
ATOM      3  C   UNL     1      -4.831  83.099  -7.993  1.00  0.00     0.199 C 
ATOM      4  C   UNL     1      -3.762  84.140  -8.392  1.00  0.00     0.180 C 
ATOM      5  O   UNL     1      -5.775  83.658  -7.095  1.00  0.00    -0.328 OA
ATOM      6  C   UNL     1      -4.416  85.413  -8.976  1.00  0.00     0.181 C 
ATOM      7  C   UNL     1      -5.604  85.882  -8.105  1.00  0.00     0.214 C 
BRANCH   3   8
ATOM      8  C   UNL     1      -4.174  81.929  -7.319  1.00  0.00     0.073 C 
ATOM      9  O   UNL     1      -3.271  81.280  -7.909  1.00  0.00    -0.547 OA
ATOM     10  O   UNL     1      -4.583  81.536  -6.050  1.00  0.00    -0.547 OA
ENDBRANCH   3   8
BRANCH   4  11
ATOM     11  O   UNL     1      -2.876  83.578  -9.327  1.00  0.00    -0.387 OA
ATOM     12  H   UNL     1      -3.434  83.181 -10.046  1.00  0.00     0.211 HD
ENDBRANCH   4  11
BRANCH   6  13
ATOM     13  O   UNL     1      -4.799  85.250 -10.321  1.00  0.00    -0.387 OA
ATOM     14  H   UNL     1      -4.956  86.144 -10.717  1.00  0.00     0.211 HD
ENDBRANCH   6  13
BRANCH   7  15
ATOM     15  O   UNL     1      -5.122  86.496  -6.937  1.00  0.00    -0.384 OA
ATOM     16  H   UNL     1      -4.711  87.358  -7.213  1.00  0.00     0.211 HD
ENDBRANCH   7  15
ENDBRANCH   1   2
BRANCH   1  17
ATOM     17  C   UNL     1      -8.642  83.950  -8.816  1.00  0.00     0.172 A 
ATOM     18  C   UNL     1      -9.537  84.997  -9.052  1.00  0.00     0.205 A 
ATOM     19  C   UNL     1      -9.137  82.659  -8.582  1.00  0.00     0.097 A 
ATOM     20  C   UNL     1     -10.921  84.757  -9.074  1.00  0.00     0.188 A 
ATOM     21  C   UNL     1     -10.510  82.394  -8.591  1.00  0.00     0.134 A 
ATOM     22  C   UNL     1     -11.431  83.461  -8.800  1.00  0.00     0.111 A 
ATOM     23  O   UNL     1     -11.746  85.758  -9.372  1.00  0.00    -0.452 OA
ATOM     24  C   UNL     1     -12.838  83.326  -8.733  1.00  0.00     0.197 A 
ATOM     25  C   UNL     1     -13.071  85.638  -9.401  1.00  0.00     0.138 A 
ATOM     26  C   UNL     1     -13.653  84.413  -9.049  1.00  0.00     0.100 A 
ATOM     27  O   UNL     1     -13.390  82.258  -8.363  1.00  0.00    -0.289 OA
BRANCH  18  28
ATOM     28  O   UNL     1      -9.023  86.277  -9.280  1.00  0.00    -0.490 OA
ATOM     29  C   UNL     1      -9.075  87.301  -8.295  1.00  0.00     0.278 C 
ENDBRANCH  18  28
BRANCH  21  30
ATOM     30  O   UNL     1     -10.888  81.058  -8.427  1.00  0.00    -0.507 OA
ATOM     31  H   UNL     1     -10.897  80.565  -7.547  1.00  0.00     0.293 HD
ENDBRANCH  21  30
BRANCH  25  32
ATOM     32  C   UNL     1     -13.891  86.816  -9.791  1.00  0.00     0.017 A 
ATOM     33  C   UNL     1     -13.299  88.017 -10.242  1.00  0.00     0.012 A 
ATOM     34  C   UNL     1     -15.294  86.758  -9.677  1.00  0.00     0.012 A 
ATOM     35  C   UNL     1     -14.094  89.112 -10.592  1.00  0.00     0.001 A 
ATOM     36  C   UNL     1     -16.085  87.856 -10.027  1.00  0.00     0.001 A 
ATOM     37  C   UNL     1     -15.487  89.030 -10.488  1.00  0.00     0.000 A 
ENDBRANCH  25  32
ENDBRANCH   1  17
TORSDOF 9
ENDMDL
MODEL 7
REMARK VINA RESULT:    -5.433      4.317      7.806
REMARK INTER + INTRA:          -9.202
REMARK INTER:                  -8.022
REMARK INTRA:                  -1.180
REMARK UNBOUND:                -1.545
REMARK SMILES COc1c(O[C@H]2O[C@H](C(=O)[O-])[C@@H](O)[C@@H](O)[C@@H]2O)cc(O)c2c(=O)cc(-c3ccccc3)oc12
REMARK SMILES IDX 5 1 6 2 8 3 12 4 7 5 14 6 16 7 9 8 10 9 11 10 13 11 15 13
REMARK SMILES IDX 17 15 4 17 3 18 18 19 33 20 19 21 21 22 32 23 22 24 25 25
REMARK SMILES IDX 24 26 23 27 2 28 1 29 20 30 26 32 27 33 31 34 28 35 30 36
REMARK SMILES IDX 29 37
REMARK H PARENT 13 12 15 14 17 16 20 31
REMARK Flexibility Score: inf
ROOT
ATOM      1  O   UNL     1     -11.554  85.153  -8.706  1.00  0.00    -0.458 OA
ENDROOT
BRANCH   1   2
ATOM      2  C   UNL     1     -12.560  84.937  -9.699  1.00  0.00     0.339 C 
ATOM      3  C   UNL     1     -13.107  82.809  -8.871  1.00  0.00     0.199 C 
ATOM      4  C   UNL     1     -14.510  83.242  -8.392  1.00  0.00     0.180 C 
ATOM      5  O   UNL     1     -12.704  83.557 -10.005  1.00  0.00    -0.328 OA
ATOM      6  C   UNL     1     -14.559  84.762  -8.116  1.00  0.00     0.181 C 
ATOM      7  C   UNL     1     -13.900  85.561  -9.264  1.00  0.00     0.214 C 
BRANCH   3   8
ATOM      8  C   UNL     1     -13.124  81.355  -9.246  1.00  0.00     0.073 C 
ATOM      9  O   UNL     1     -12.993  81.008 -10.449  1.00  0.00    -0.547 OA
ATOM     10  O   UNL     1     -13.316  80.386  -8.269  1.00  0.00    -0.547 OA
ENDBRANCH   3   8
BRANCH   4  11
ATOM     11  O   UNL     1     -14.859  82.528  -7.232  1.00  0.00    -0.387 OA
ATOM     12  H   UNL     1     -14.117  82.656  -6.584  1.00  0.00     0.211 HD
ENDBRANCH   4  11
BRANCH   6  13
ATOM     13  O   UNL     1     -13.998  85.100  -6.869  1.00  0.00    -0.387 OA
ATOM     14  H   UNL     1     -13.112  85.515  -7.021  1.00  0.00     0.211 HD
ENDBRANCH   6  13
BRANCH   7  15
ATOM     15  O   UNL     1     -14.759  85.593 -10.374  1.00  0.00    -0.384 OA
ATOM     16  H   UNL     1     -15.062  86.534 -10.478  1.00  0.00     0.211 HD
ENDBRANCH   7  15
ENDBRANCH   1   2
BRANCH   1  17
ATOM     17  C   UNL     1     -10.168  85.092  -8.927  1.00  0.00     0.172 A 
ATOM     18  C   UNL     1      -9.428  86.269  -8.794  1.00  0.00     0.205 A 
ATOM     19  C   UNL     1      -9.514  83.901  -9.274  1.00  0.00     0.097 A 
ATOM     20  C   UNL     1      -8.037  86.259  -8.986  1.00  0.00     0.188 A 
ATOM     21  C   UNL     1      -8.131  83.865  -9.478  1.00  0.00     0.134 A 
ATOM     22  C   UNL     1      -7.372  85.067  -9.375  1.00  0.00     0.111 A 
ATOM     23  O   UNL     1      -7.348  87.380  -8.782  1.00  0.00    -0.452 OA
ATOM     24  C   UNL     1      -5.989  85.165  -9.655  1.00  0.00     0.197 A 
ATOM     25  C   UNL     1      -6.033  87.479  -8.954  1.00  0.00     0.138 A 
ATOM     26  C   UNL     1      -5.321  86.369  -9.428  1.00  0.00     0.100 A 
ATOM     27  O   UNL     1      -5.335  84.205 -10.137  1.00  0.00    -0.289 OA
BRANCH  18  28
ATOM     28  O   UNL     1     -10.101  87.446  -8.450  1.00  0.00    -0.490 OA
ATOM     29  C   UNL     1     -10.606  88.344  -9.431  1.00  0.00     0.278 C 
ENDBRANCH  18  28
BRANCH  21  30
ATOM     30  O   UNL     1      -7.572  82.610  -9.740  1.00  0.00    -0.507 OA
ATOM     31  H   UNL     1      -6.806  82.202  -9.227  1.00  0.00     0.293 HD
ENDBRANCH  21  30
BRANCH  25  32
ATOM     32  C   UNL     1      -5.363  88.772  -8.652  1.00  0.00     0.017 A 
ATOM     33  C   UNL     1      -5.488  89.890  -9.507  1.00  0.00     0.012 A 
ATOM     34  C   UNL     1      -4.549  88.887  -7.507  1.00  0.00     0.012 A 
ATOM     35  C   UNL     1      -4.839  91.091  -9.204  1.00  0.00     0.001 A 
ATOM     36  C   UNL     1      -3.901  90.089  -7.209  1.00  0.00     0.001 A 
ATOM     37  C   UNL     1      -4.049  91.191  -8.054  1.00  0.00     0.000 A 
ENDBRANCH  25  32
ENDBRANCH   1  17
TORSDOF 9
ENDMDL
MODEL 8
REMARK VINA RESULT:    -5.392      4.260      7.775
REMARK INTER + INTRA:          -9.143
REMARK INTER:                  -7.889
REMARK INTRA:                  -1.255
REMARK UNBOUND:                -1.545
REMARK SMILES COc1c(O[C@H]2O[C@H](C(=O)[O-])[C@@H](O)[C@@H](O)[C@@H]2O)cc(O)c2c(=O)cc(-c3ccccc3)oc12
REMARK SMILES IDX 5 1 6 2 8 3 12 4 7 5 14 6 16 7 9 8 10 9 11 10 13 11 15 13
REMARK SMILES IDX 17 15 4 17 3 18 18 19 33 20 19 21 21 22 32 23 22 24 25 25
REMARK SMILES IDX 24 26 23 27 2 28 1 29 20 30 26 32 27 33 31 34 28 35 30 36
REMARK SMILES IDX 29 37
REMARK H PARENT 13 12 15 14 17 16 20 31
REMARK Flexibility Score: inf
ROOT
ATOM      1  O   UNL     1      -7.705  84.608  -8.370  1.00  0.00    -0.458 OA
ENDROOT
BRANCH   1   2
ATOM      2  C   UNL     1      -6.700  84.571  -9.387  1.00  0.00     0.339 C 
ATOM      3  C   UNL     1      -5.146  85.748  -8.077  1.00  0.00     0.199 C 
ATOM      4  C   UNL     1      -4.200  84.537  -7.927  1.00  0.00     0.180 C 
ATOM      5  O   UNL     1      -5.841  85.700  -9.312  1.00  0.00    -0.328 OA
ATOM      6  C   UNL     1      -4.969  83.206  -8.094  1.00  0.00     0.181 C 
ATOM      7  C   UNL     1      -5.907  83.252  -9.322  1.00  0.00     0.214 C 
BRANCH   3   8
ATOM      8  C   UNL     1      -4.353  87.022  -8.032  1.00  0.00     0.073 C 
ATOM      9  O   UNL     1      -4.933  88.135  -8.130  1.00  0.00    -0.547 OA
ATOM     10  O   UNL     1      -2.969  86.977  -7.912  1.00  0.00    -0.547 OA
ENDBRANCH   3   8
BRANCH   4  11
ATOM     11  O   UNL     1      -3.570  84.577  -6.671  1.00  0.00    -0.387 OA
ATOM     12  H   UNL     1      -2.600  84.436  -6.833  1.00  0.00     0.211 HD
ENDBRANCH   4  11
BRANCH   6  13
ATOM     13  O   UNL     1      -5.668  82.840  -6.928  1.00  0.00    -0.387 OA
ATOM     14  H   UNL     1      -6.639  82.866  -7.119  1.00  0.00     0.211 HD
ENDBRANCH   6  13
BRANCH   7  15
ATOM     15  O   UNL     1      -5.152  83.127 -10.501  1.00  0.00    -0.384 OA
ATOM     16  H   UNL     1      -5.427  82.274 -10.930  1.00  0.00     0.211 HD
ENDBRANCH   7  15
ENDBRANCH   1   2
BRANCH   1  17
ATOM     17  C   UNL     1      -9.091  84.583  -8.597  1.00  0.00     0.172 A 
ATOM     18  C   UNL     1      -9.790  83.419  -8.268  1.00  0.00     0.205 A 
ATOM     19  C   UNL     1      -9.785  85.676  -9.137  1.00  0.00     0.097 A 
ATOM     20  C   UNL     1     -11.181  83.348  -8.457  1.00  0.00     0.188 A 
ATOM     21  C   UNL     1     -11.168  85.628  -9.342  1.00  0.00     0.134 A 
ATOM     22  C   UNL     1     -11.884  84.435  -9.039  1.00  0.00     0.111 A 
ATOM     23  O   UNL     1     -11.831  82.254  -8.068  1.00  0.00    -0.452 OA
ATOM     24  C   UNL     1     -13.262  84.243  -9.297  1.00  0.00     0.197 A 
ATOM     25  C   UNL     1     -13.141  82.082  -8.220  1.00  0.00     0.138 A 
ATOM     26  C   UNL     1     -13.889  83.071  -8.872  1.00  0.00     0.100 A 
ATOM     27  O   UNL     1     -13.947  85.085  -9.932  1.00  0.00    -0.289 OA
BRANCH  18  28
ATOM     28  O   UNL     1      -9.079  82.341  -7.733  1.00  0.00    -0.490 OA
ATOM     29  C   UNL     1      -9.013  82.096  -6.334  1.00  0.00     0.278 C 
ENDBRANCH  18  28
BRANCH  21  30
ATOM     30  O   UNL     1     -11.768  86.802  -9.809  1.00  0.00    -0.507 OA
ATOM     31  H   UNL     1     -12.740  86.890 -10.064  1.00  0.00     0.293 HD
ENDBRANCH  21  30
BRANCH  25  32
ATOM     32  C   UNL     1     -13.767  80.834  -7.706  1.00  0.00     0.017 A 
ATOM     33  C   UNL     1     -15.167  80.712  -7.556  1.00  0.00     0.012 A 
ATOM     34  C   UNL     1     -12.951  79.752  -7.318  1.00  0.00     0.012 A 
ATOM     35  C   UNL     1     -15.727  79.531  -7.060  1.00  0.00     0.001 A 
ATOM     36  C   UNL     1     -13.516  78.574  -6.823  1.00  0.00     0.001 A 
ATOM     37  C   UNL     1     -14.902  78.461  -6.697  1.00  0.00     0.000 A 
ENDBRANCH  25  32
ENDBRANCH   1  17
TORSDOF 9
ENDMDL
MODEL 9
REMARK VINA RESULT:    -5.275      7.873     11.886
REMARK INTER + INTRA:          -8.979
REMARK INTER:                  -7.700
REMARK INTRA:                  -1.279
REMARK UNBOUND:                -1.545
REMARK SMILES COc1c(O[C@H]2O[C@H](C(=O)[O-])[C@@H](O)[C@@H](O)[C@@H]2O)cc(O)c2c(=O)cc(-c3ccccc3)oc12
REMARK SMILES IDX 5 1 6 2 8 3 12 4 7 5 14 6 16 7 9 8 10 9 11 10 13 11 15 13
REMARK SMILES IDX 17 15 4 17 3 18 18 19 33 20 19 21 21 22 32 23 22 24 25 25
REMARK SMILES IDX 24 26 23 27 2 28 1 29 20 30 26 32 27 33 31 34 28 35 30 36
REMARK SMILES IDX 29 37
REMARK H PARENT 13 12 15 14 17 16 20 31
REMARK Flexibility Score: inf
ROOT
ATOM      1  O   UNL     1      -5.453  91.617 -10.800  1.00  0.00    -0.458 OA
ENDROOT
BRANCH   1   2
ATOM      2  C   UNL     1      -4.425  92.269 -11.551  1.00  0.00     0.339 C 
ATOM      3  C   UNL     1      -5.122  91.318 -13.582  1.00  0.00     0.199 C 
ATOM      4  C   UNL     1      -5.589  92.666 -14.173  1.00  0.00     0.180 C 
ATOM      5  O   UNL     1      -4.041  91.503 -12.684  1.00  0.00    -0.328 OA
ATOM      6  C   UNL     1      -5.945  93.670 -13.052  1.00  0.00     0.181 C 
ATOM      7  C   UNL     1      -4.860  93.691 -11.952  1.00  0.00     0.214 C 
BRANCH   3   8
ATOM      8  C   UNL     1      -4.668  90.408 -14.687  1.00  0.00     0.073 C 
ATOM      9  O   UNL     1      -3.448  90.339 -14.992  1.00  0.00    -0.547 OA
ATOM     10  O   UNL     1      -5.597  89.660 -15.400  1.00  0.00    -0.547 OA
ENDBRANCH   3   8
BRANCH   4  11
ATOM     11  O   UNL     1      -6.698  92.461 -15.010  1.00  0.00    -0.387 OA
ATOM     12  H   UNL     1      -7.298  91.824 -14.539  1.00  0.00     0.211 HD
ENDBRANCH   4  11
BRANCH   6  13
ATOM     13  O   UNL     1      -7.223  93.435 -12.508  1.00  0.00    -0.387 OA
ATOM     14  H   UNL     1      -7.661  94.307 -12.339  1.00  0.00     0.211 HD
ENDBRANCH   6  13
BRANCH   7  15
ATOM     15  O   UNL     1      -3.731  94.390 -12.412  1.00  0.00    -0.384 OA
ATOM     16  H   UNL     1      -2.951  93.783 -12.302  1.00  0.00     0.211 HD
ENDBRANCH   7  15
ENDBRANCH   1   2
BRANCH   1  17
ATOM     17  C   UNL     1      -5.241  90.683  -9.774  1.00  0.00     0.172 A 
ATOM     18  C   UNL     1      -6.007  89.514  -9.780  1.00  0.00     0.205 A 
ATOM     19  C   UNL     1      -4.297  90.884  -8.756  1.00  0.00     0.097 A 
ATOM     20  C   UNL     1      -5.822  88.538  -8.786  1.00  0.00     0.188 A 
ATOM     21  C   UNL     1      -4.098  89.931  -7.752  1.00  0.00     0.134 A 
ATOM     22  C   UNL     1      -4.896  88.751  -7.732  1.00  0.00     0.111 A 
ATOM     23  O   UNL     1      -6.514  87.403  -8.858  1.00  0.00    -0.452 OA
ATOM     24  C   UNL     1      -4.848  87.770  -6.713  1.00  0.00     0.197 A 
ATOM     25  C   UNL     1      -6.424  86.427  -7.959  1.00  0.00     0.138 A 
ATOM     26  C   UNL     1      -5.602  86.604  -6.839  1.00  0.00     0.100 A 
ATOM     27  O   UNL     1      -4.166  87.927  -5.667  1.00  0.00    -0.289 OA
BRANCH  18  28
ATOM     28  O   UNL     1      -6.945  89.335 -10.801  1.00  0.00    -0.490 OA
ATOM     29  C   UNL     1      -6.667  88.551 -11.955  1.00  0.00     0.278 C 
ENDBRANCH  18  28
BRANCH  21  30
ATOM     30  O   UNL     1      -3.075  90.197  -6.835  1.00  0.00    -0.507 OA
ATOM     31  H   UNL     1      -2.877  91.103  -6.441  1.00  0.00     0.293 HD
ENDBRANCH  21  30
BRANCH  25  32
ATOM     32  C   UNL     1      -7.214  85.184  -8.167  1.00  0.00     0.017 A 
ATOM     33  C   UNL     1      -7.626  84.771  -9.454  1.00  0.00     0.012 A 
ATOM     34  C   UNL     1      -7.601  84.409  -7.055  1.00  0.00     0.012 A 
ATOM     35  C   UNL     1      -8.377  83.603  -9.618  1.00  0.00     0.001 A 
ATOM     36  C   UNL     1      -8.352  83.243  -7.224  1.00  0.00     0.001 A 
ATOM     37  C   UNL     1      -8.737  82.838  -8.504  1.00  0.00     0.000 A 
ENDBRANCH  25  32
ENDBRANCH   1  17
TORSDOF 9
ENDMDL
