MODEL 1
REMARK VINA RESULT:    -4.215      0.000      0.000
REMARK INTER + INTRA:          -8.712
REMARK INTER:                  -7.418
REMARK INTRA:                  -1.294
REMARK UNBOUND:                -1.294
REMARK SMILES CCCCCCCCCCCCCCC(=O)[O-]
REMARK SMILES IDX 9 1 10 2 11 3 12 4 13 5 14 6 15 7 16 8 17 9 8 10 7 11 6 12
REMARK SMILES IDX 5 13 4 14 3 15 2 16 1 17
REMARK H PARENT
REMARK Flexibility Score: inf
ROOT
ATOM      1  C   UNL     1      13.277  33.924  20.769  1.00  0.00     0.000 C 
ENDROOT
BRANCH   1   2
ATOM      2  C   UNL     1      14.352  32.942  20.275  1.00  0.00     0.000 C 
BRANCH   2   3
ATOM      3  C   UNL     1      15.773  33.526  20.368  1.00  0.00     0.000 C 
BRANCH   3   4
ATOM      4  C   UNL     1      16.749  32.602  21.117  1.00  0.00     0.000 C 
BRANCH   4   5
ATOM      5  C   UNL     1      16.082  31.566  22.039  1.00  0.00     0.006 C 
BRANCH   5   6
ATOM      6  C   UNL     1      17.083  30.580  22.656  1.00  0.00     0.053 C 
BRANCH   6   7
ATOM      7  C   UNL     1      17.208  30.816  24.128  1.00  0.00     0.041 C 
ATOM      8  O   UNL     1      16.370  30.315  24.924  1.00  0.00    -0.550 OA
ATOM      9  O   UNL     1      18.277  31.550  24.626  1.00  0.00    -0.550 OA
ENDBRANCH   6   7
ENDBRANCH   5   6
ENDBRANCH   4   5
ENDBRANCH   3   4
ENDBRANCH   2   3
ENDBRANCH   1   2
BRANCH   1  10
ATOM     10  C   UNL     1      13.756  35.383  20.747  1.00  0.00     0.000 C 
BRANCH  10  11
ATOM     11  C   UNL     1      13.009  36.192  19.678  1.00  0.00    -0.000 C 
BRANCH  11  12
ATOM     12  C   UNL     1      11.707  35.489  19.267  1.00  0.00    -0.000 C 
BRANCH  12  13
ATOM     13  C   UNL     1      10.453  36.287  19.659  1.00  0.00    -0.000 C 
BRANCH  13  14
ATOM     14  C   UNL     1       9.770  35.734  20.919  1.00  0.00    -0.000 C 
BRANCH  14  15
ATOM     15  C   UNL     1      10.239  36.483  22.171  1.00  0.00    -0.000 C 
BRANCH  15  16
ATOM     16  C   UNL     1      10.978  35.543  23.132  1.00  0.00    -0.003 C 
ATOM     17  C   UNL     1      11.129  36.173  24.513  1.00  0.00     0.004 C 
ENDBRANCH  15  16
ENDBRANCH  14  15
ENDBRANCH  13  14
ENDBRANCH  12  13
ENDBRANCH  11  12
ENDBRANCH  10  11
ENDBRANCH   1  10
TORSDOF 13
ENDMDL
MODEL 2
REMARK VINA RESULT:    -4.176      4.666      7.522
REMARK INTER + INTRA:          -8.644
REMARK INTER:                  -7.113
REMARK INTRA:                  -1.531
REMARK UNBOUND:                -1.294
REMARK SMILES CCCCCCCCCCCCCCC(=O)[O-]
REMARK SMILES IDX 9 1 10 2 11 3 12 4 13 5 14 6 15 7 16 8 17 9 8 10 7 11 6 12
REMARK SMILES IDX 5 13 4 14 3 15 2 16 1 17
REMARK H PARENT
REMARK Flexibility Score: inf
ROOT
ATOM      1  C   UNL     1      11.198  35.351  22.083  1.00  0.00     0.000 C 
ENDROOT
BRANCH   1   2
ATOM      2  C   UNL     1      10.016  36.298  21.823  1.00  0.00     0.000 C 
BRANCH   2   3
ATOM      3  C   UNL     1       9.076  35.780  20.719  1.00  0.00     0.000 C 
BRANCH   3   4
ATOM      4  C   UNL     1       9.385  34.330  20.305  1.00  0.00     0.000 C 
BRANCH   4   5
ATOM      5  C   UNL     1       8.197  33.563  19.699  1.00  0.00     0.006 C 
BRANCH   5   6
ATOM      6  C   UNL     1       6.857  33.919  20.356  1.00  0.00     0.053 C 
BRANCH   6   7
ATOM      7  C   UNL     1       5.956  32.725  20.386  1.00  0.00     0.041 C 
ATOM      8  O   UNL     1       5.995  31.878  19.455  1.00  0.00    -0.550 OA
ATOM      9  O   UNL     1       5.107  32.522  21.466  1.00  0.00    -0.550 OA
ENDBRANCH   6   7
ENDBRANCH   5   6
ENDBRANCH   4   5
ENDBRANCH   3   4
ENDBRANCH   2   3
ENDBRANCH   1   2
BRANCH   1  10
ATOM     10  C   UNL     1      12.543  35.953  21.653  1.00  0.00     0.000 C 
BRANCH  10  11
ATOM     11  C   UNL     1      12.653  36.019  20.124  1.00  0.00    -0.000 C 
BRANCH  11  12
ATOM     12  C   UNL     1      13.812  35.147  19.618  1.00  0.00    -0.000 C 
BRANCH  12  13
ATOM     13  C   UNL     1      14.564  34.442  20.758  1.00  0.00    -0.000 C 
BRANCH  13  14
ATOM     14  C   UNL     1      14.884  32.974  20.437  1.00  0.00    -0.000 C 
BRANCH  14  15
ATOM     15  C   UNL     1      14.412  32.051  21.567  1.00  0.00    -0.000 C 
BRANCH  15  16
ATOM     16  C   UNL     1      12.915  32.238  21.844  1.00  0.00    -0.003 C 
ATOM     17  C   UNL     1      12.073  31.753  20.668  1.00  0.00     0.004 C 
ENDBRANCH  15  16
ENDBRANCH  14  15
ENDBRANCH  13  14
ENDBRANCH  12  13
ENDBRANCH  11  12
ENDBRANCH  10  11
ENDBRANCH   1  10
TORSDOF 13
ENDMDL
MODEL 3
REMARK VINA RESULT:    -4.108      1.443      2.138
REMARK INTER + INTRA:          -8.524
REMARK INTER:                  -7.097
REMARK INTRA:                  -1.427
REMARK UNBOUND:                -1.294
REMARK SMILES CCCCCCCCCCCCCCC(=O)[O-]
REMARK SMILES IDX 9 1 10 2 11 3 12 4 13 5 14 6 15 7 16 8 17 9 8 10 7 11 6 12
REMARK SMILES IDX 5 13 4 14 3 15 2 16 1 17
REMARK H PARENT
REMARK Flexibility Score: inf
ROOT
ATOM      1  C   UNL     1      13.744  35.639  20.527  1.00  0.00     0.000 C 
ENDROOT
BRANCH   1   2
ATOM      2  C   UNL     1      14.128  34.156  20.401  1.00  0.00     0.000 C 
BRANCH   2   3
ATOM      3  C   UNL     1      13.124  33.224  21.102  1.00  0.00     0.000 C 
BRANCH   3   4
ATOM      4  C   UNL     1      13.807  32.052  21.829  1.00  0.00     0.000 C 
BRANCH   4   5
ATOM      5  C   UNL     1      15.143  31.598  21.214  1.00  0.00     0.006 C 
BRANCH   5   6
ATOM      6  C   UNL     1      16.195  31.234  22.271  1.00  0.00     0.053 C 
BRANCH   6   7
ATOM      7  C   UNL     1      17.526  31.807  21.902  1.00  0.00     0.041 C 
ATOM      8  O   UNL     1      18.580  31.346  22.416  1.00  0.00    -0.550 OA
ATOM      9  O   UNL     1      17.609  32.819  20.954  1.00  0.00    -0.550 OA
ENDBRANCH   6   7
ENDBRANCH   5   6
ENDBRANCH   4   5
ENDBRANCH   3   4
ENDBRANCH   2   3
ENDBRANCH   1   2
BRANCH   1  10
ATOM     10  C   UNL     1      13.062  36.182  19.263  1.00  0.00     0.000 C 
BRANCH  10  11
ATOM     11  C   UNL     1      11.645  36.682  19.573  1.00  0.00    -0.000 C 
BRANCH  11  12
ATOM     12  C   UNL     1      10.630  35.531  19.513  1.00  0.00    -0.000 C 
BRANCH  12  13
ATOM     13  C   UNL     1       9.931  35.288  20.860  1.00  0.00    -0.000 C 
BRANCH  13  14
ATOM     14  C   UNL     1      10.371  36.285  21.943  1.00  0.00    -0.000 C 
BRANCH  14  15
ATOM     15  C   UNL     1      11.054  35.560  23.110  1.00  0.00    -0.000 C 
BRANCH  15  16
ATOM     16  C   UNL     1      10.891  36.346  24.417  1.00  0.00    -0.003 C 
ATOM     17  C   UNL     1       9.616  37.183  24.402  1.00  0.00     0.004 C 
ENDBRANCH  15  16
ENDBRANCH  14  15
ENDBRANCH  13  14
ENDBRANCH  12  13
ENDBRANCH  11  12
ENDBRANCH  10  11
ENDBRANCH   1  10
TORSDOF 13
ENDMDL
MODEL 4
REMARK VINA RESULT:    -4.037      2.699      6.882
REMARK INTER + INTRA:          -8.399
REMARK INTER:                  -7.257
REMARK INTRA:                  -1.142
REMARK UNBOUND:                -1.294
REMARK SMILES CCCCCCCCCCCCCCC(=O)[O-]
REMARK SMILES IDX 9 1 10 2 11 3 12 4 13 5 14 6 15 7 16 8 17 9 8 10 7 11 6 12
REMARK SMILES IDX 5 13 4 14 3 15 2 16 1 17
REMARK H PARENT
REMARK Flexibility Score: inf
ROOT
ATOM      1  C   UNL     1      13.668  35.890  20.188  1.00  0.00     0.000 C 
ENDROOT
BRANCH   1   2
ATOM      2  C   UNL     1      12.888  36.534  19.031  1.00  0.00     0.000 C 
BRANCH   2   3
ATOM      3  C   UNL     1      11.458  36.935  19.435  1.00  0.00     0.000 C 
BRANCH   3   4
ATOM      4  C   UNL     1      10.485  35.742  19.445  1.00  0.00     0.000 C 
BRANCH   4   5
ATOM      5  C   UNL     1       9.977  35.331  20.839  1.00  0.00     0.006 C 
BRANCH   5   6
ATOM      6  C   UNL     1      10.342  36.346  21.930  1.00  0.00     0.053 C 
BRANCH   6   7
ATOM      7  C   UNL     1      10.964  35.652  23.101  1.00  0.00     0.041 C 
ATOM      8  O   UNL     1      11.415  34.482  22.978  1.00  0.00    -0.550 OA
ATOM      9  O   UNL     1      11.089  36.314  24.315  1.00  0.00    -0.550 OA
ENDBRANCH   6   7
ENDBRANCH   5   6
ENDBRANCH   4   5
ENDBRANCH   3   4
ENDBRANCH   2   3
ENDBRANCH   1   2
BRANCH   1  10
ATOM     10  C   UNL     1      14.241  34.513  19.819  1.00  0.00     0.000 C 
BRANCH  10  11
ATOM     11  C   UNL     1      13.678  33.419  20.735  1.00  0.00    -0.000 C 
BRANCH  11  12
ATOM     12  C   UNL     1      14.789  32.466  21.199  1.00  0.00    -0.000 C 
BRANCH  12  13
ATOM     13  C   UNL     1      16.190  32.942  20.785  1.00  0.00    -0.000 C 
BRANCH  13  14
ATOM     14  C   UNL     1      17.309  32.069  21.373  1.00  0.00    -0.000 C 
BRANCH  14  15
ATOM     15  C   UNL     1      16.798  31.252  22.566  1.00  0.00    -0.000 C 
BRANCH  15  16
ATOM     16  C   UNL     1      17.879  31.117  23.645  1.00  0.00    -0.003 C 
ATOM     17  C   UNL     1      19.178  30.571  23.060  1.00  0.00     0.004 C 
ENDBRANCH  15  16
ENDBRANCH  14  15
ENDBRANCH  13  14
ENDBRANCH  12  13
ENDBRANCH  11  12
ENDBRANCH  10  11
ENDBRANCH   1  10
TORSDOF 13
ENDMDL
MODEL 5
REMARK VINA RESULT:    -4.010     18.836     21.099
REMARK INTER + INTRA:          -8.352
REMARK INTER:                  -6.612
REMARK INTRA:                  -1.740
REMARK UNBOUND:                -1.294
REMARK SMILES CCCCCCCCCCCCCCC(=O)[O-]
REMARK SMILES IDX 9 1 10 2 11 3 12 4 13 5 14 6 15 7 16 8 17 9 8 10 7 11 6 12
REMARK SMILES IDX 5 13 4 14 3 15 2 16 1 17
REMARK H PARENT
REMARK Flexibility Score: inf
ROOT
ATOM      1  C   UNL     1       7.970  47.762  33.843  1.00  0.00     0.000 C 
ENDROOT
BRANCH   1   2
ATOM      2  C   UNL     1       8.925  48.876  33.384  1.00  0.00     0.000 C 
BRANCH   2   3
ATOM      3  C   UNL     1       9.501  48.619  31.980  1.00  0.00     0.000 C 
BRANCH   3   4
ATOM      4  C   UNL     1       9.322  49.820  31.034  1.00  0.00     0.000 C 
BRANCH   4   5
ATOM      5  C   UNL     1       8.160  49.689  30.034  1.00  0.00     0.006 C 
BRANCH   5   6
ATOM      6  C   UNL     1       6.787  49.928  30.677  1.00  0.00     0.053 C 
BRANCH   6   7
ATOM      7  C   UNL     1       5.916  48.724  30.511  1.00  0.00     0.041 C 
ATOM      8  O   UNL     1       6.251  47.803  29.720  1.00  0.00    -0.550 OA
ATOM      9  O   UNL     1       4.757  48.595  31.265  1.00  0.00    -0.550 OA
ENDBRANCH   6   7
ENDBRANCH   5   6
ENDBRANCH   4   5
ENDBRANCH   3   4
ENDBRANCH   2   3
ENDBRANCH   1   2
BRANCH   1  10
ATOM     10  C   UNL     1       6.575  48.292  34.203  1.00  0.00     0.000 C 
BRANCH  10  11
ATOM     11  C   UNL     1       6.613  49.800  34.482  1.00  0.00    -0.000 C 
BRANCH  11  12
ATOM     12  C   UNL     1       6.082  50.113  35.889  1.00  0.00    -0.000 C 
BRANCH  12  13
ATOM     13  C   UNL     1       4.754  49.402  36.193  1.00  0.00    -0.000 C 
BRANCH  13  14
ATOM     14  C   UNL     1       4.701  48.830  37.618  1.00  0.00    -0.000 C 
BRANCH  14  15
ATOM     15  C   UNL     1       6.106  48.741  38.226  1.00  0.00    -0.000 C 
BRANCH  15  16
ATOM     16  C   UNL     1       6.505  47.282  38.482  1.00  0.00    -0.003 C 
ATOM     17  C   UNL     1       7.535  46.805  37.463  1.00  0.00     0.004 C 
ENDBRANCH  15  16
ENDBRANCH  14  15
ENDBRANCH  13  14
ENDBRANCH  12  13
ENDBRANCH  11  12
ENDBRANCH  10  11
ENDBRANCH   1  10
TORSDOF 13
ENDMDL
MODEL 6
REMARK VINA RESULT:    -3.989      1.361      2.472
REMARK INTER + INTRA:          -8.314
REMARK INTER:                  -7.126
REMARK INTRA:                  -1.189
REMARK UNBOUND:                -1.294
REMARK SMILES CCCCCCCCCCCCCCC(=O)[O-]
REMARK SMILES IDX 9 1 10 2 11 3 12 4 13 5 14 6 15 7 16 8 17 9 8 10 7 11 6 12
REMARK SMILES IDX 5 13 4 14 3 15 2 16 1 17
REMARK H PARENT
REMARK Flexibility Score: inf
ROOT
ATOM      1  C   UNL     1      15.383  33.673  20.442  1.00  0.00     0.000 C 
ENDROOT
BRANCH   1   2
ATOM      2  C   UNL     1      15.424  32.184  20.819  1.00  0.00     0.000 C 
BRANCH   2   3
ATOM      3  C   UNL     1      14.447  31.836  21.956  1.00  0.00     0.000 C 
BRANCH   3   4
ATOM      4  C   UNL     1      14.603  30.387  22.454  1.00  0.00     0.000 C 
BRANCH   4   5
ATOM      5  C   UNL     1      16.047  29.968  22.785  1.00  0.00     0.006 C 
BRANCH   5   6
ATOM      6  C   UNL     1      16.575  30.611  24.075  1.00  0.00     0.053 C 
BRANCH   6   7
ATOM      7  C   UNL     1      17.905  31.251  23.832  1.00  0.00     0.041 C 
ATOM      8  O   UNL     1      18.346  31.372  22.658  1.00  0.00    -0.550 OA
ATOM      9  O   UNL     1      18.638  31.756  24.898  1.00  0.00    -0.550 OA
ENDBRANCH   6   7
ENDBRANCH   5   6
ENDBRANCH   4   5
ENDBRANCH   3   4
ENDBRANCH   2   3
ENDBRANCH   1   2
BRANCH   1  10
ATOM     10  C   UNL     1      14.652  33.926  19.115  1.00  0.00     0.000 C 
BRANCH  10  11
ATOM     11  C   UNL     1      13.380  34.754  19.337  1.00  0.00    -0.000 C 
BRANCH  11  12
ATOM     12  C   UNL     1      13.386  35.411  20.725  1.00  0.00    -0.000 C 
BRANCH  12  13
ATOM     13  C   UNL     1      12.172  35.009  21.577  1.00  0.00    -0.000 C 
BRANCH  13  14
ATOM     14  C   UNL     1      11.511  36.211  22.269  1.00  0.00    -0.000 C 
BRANCH  14  15
ATOM     15  C   UNL     1      10.008  36.259  21.968  1.00  0.00    -0.000 C 
BRANCH  15  16
ATOM     16  C   UNL     1       9.711  35.730  20.559  1.00  0.00    -0.003 C 
ATOM     17  C   UNL     1       9.388  36.871  19.599  1.00  0.00     0.004 C 
ENDBRANCH  15  16
ENDBRANCH  14  15
ENDBRANCH  13  14
ENDBRANCH  12  13
ENDBRANCH  11  12
ENDBRANCH  10  11
ENDBRANCH   1  10
TORSDOF 13
ENDMDL
MODEL 7
REMARK VINA RESULT:    -3.953      4.199      7.835
REMARK INTER + INTRA:          -8.251
REMARK INTER:                  -7.540
REMARK INTRA:                  -0.711
REMARK UNBOUND:                -1.294
REMARK SMILES CCCCCCCCCCCCCCC(=O)[O-]
REMARK SMILES IDX 9 1 10 2 11 3 12 4 13 5 14 6 15 7 16 8 17 9 8 10 7 11 6 12
REMARK SMILES IDX 5 13 4 14 3 15 2 16 1 17
REMARK H PARENT
REMARK Flexibility Score: inf
ROOT
ATOM      1  C   UNL     1      11.465  35.675  22.570  1.00  0.00     0.000 C 
ENDROOT
BRANCH   1   2
ATOM      2  C   UNL     1      10.136  36.360  22.214  1.00  0.00     0.000 C 
BRANCH   2   3
ATOM      3  C   UNL     1       9.764  36.192  20.730  1.00  0.00     0.000 C 
BRANCH   3   4
ATOM      4  C   UNL     1       9.165  34.808  20.418  1.00  0.00     0.000 C 
BRANCH   4   5
ATOM      5  C   UNL     1       7.642  34.796  20.201  1.00  0.00     0.006 C 
BRANCH   5   6
ATOM      6  C   UNL     1       7.164  33.586  19.387  1.00  0.00     0.053 C 
BRANCH   6   7
ATOM      7  C   UNL     1       6.576  32.548  20.291  1.00  0.00     0.041 C 
ATOM      8  O   UNL     1       7.069  31.390  20.331  1.00  0.00    -0.550 OA
ATOM      9  O   UNL     1       5.513  32.873  21.123  1.00  0.00    -0.550 OA
ENDBRANCH   6   7
ENDBRANCH   5   6
ENDBRANCH   4   5
ENDBRANCH   3   4
ENDBRANCH   2   3
ENDBRANCH   1   2
BRANCH   1  10
ATOM     10  C   UNL     1      12.548  35.900  21.505  1.00  0.00     0.000 C 
BRANCH  10  11
ATOM     11  C   UNL     1      13.084  34.564  20.974  1.00  0.00    -0.000 C 
BRANCH  11  12
ATOM     12  C   UNL     1      14.499  34.728  20.401  1.00  0.00    -0.000 C 
BRANCH  12  13
ATOM     13  C   UNL     1      15.266  33.398  20.327  1.00  0.00    -0.000 C 
BRANCH  13  14
ATOM     14  C   UNL     1      14.932  32.457  21.495  1.00  0.00    -0.000 C 
BRANCH  14  15
ATOM     15  C   UNL     1      15.941  31.305  21.577  1.00  0.00    -0.000 C 
BRANCH  15  16
ATOM     16  C   UNL     1      17.367  31.833  21.775  1.00  0.00    -0.003 C 
ATOM     17  C   UNL     1      17.981  31.293  23.062  1.00  0.00     0.004 C 
ENDBRANCH  15  16
ENDBRANCH  14  15
ENDBRANCH  13  14
ENDBRANCH  12  13
ENDBRANCH  11  12
ENDBRANCH  10  11
ENDBRANCH   1  10
TORSDOF 13
ENDMDL
MODEL 8
REMARK VINA RESULT:    -3.948      2.924      4.335
REMARK INTER + INTRA:          -8.242
REMARK INTER:                  -7.497
REMARK INTRA:                  -0.745
REMARK UNBOUND:                -1.294
REMARK SMILES CCCCCCCCCCCCCCC(=O)[O-]
REMARK SMILES IDX 9 1 10 2 11 3 12 4 13 5 14 6 15 7 16 8 17 9 8 10 7 11 6 12
REMARK SMILES IDX 5 13 4 14 3 15 2 16 1 17
REMARK H PARENT
REMARK Flexibility Score: inf
ROOT
ATOM      1  C   UNL     1      12.428  35.880  21.786  1.00  0.00     0.000 C 
ENDROOT
BRANCH   1   2
ATOM      2  C   UNL     1      12.634  36.297  20.321  1.00  0.00     0.000 C 
BRANCH   2   3
ATOM      3  C   UNL     1      13.668  35.417  19.596  1.00  0.00     0.000 C 
BRANCH   3   4
ATOM      4  C   UNL     1      14.598  34.668  20.568  1.00  0.00     0.000 C 
BRANCH   4   5
ATOM      5  C   UNL     1      15.001  33.253  20.117  1.00  0.00     0.006 C 
BRANCH   5   6
ATOM      6  C   UNL     1      13.881  32.222  20.309  1.00  0.00     0.053 C 
BRANCH   6   7
ATOM      7  C   UNL     1      13.860  31.731  21.721  1.00  0.00     0.041 C 
ATOM      8  O   UNL     1      14.938  31.579  22.356  1.00  0.00    -0.550 OA
ATOM      9  O   UNL     1      12.649  31.485  22.354  1.00  0.00    -0.550 OA
ENDBRANCH   6   7
ENDBRANCH   5   6
ENDBRANCH   4   5
ENDBRANCH   3   4
ENDBRANCH   2   3
ENDBRANCH   1   2
BRANCH   1  10
ATOM     10  C   UNL     1      11.000  36.150  22.281  1.00  0.00     0.000 C 
BRANCH  10  11
ATOM     11  C   UNL     1      10.020  36.255  21.106  1.00  0.00    -0.000 C 
BRANCH  11  12
ATOM     12  C   UNL     1       9.523  34.866  20.678  1.00  0.00    -0.000 C 
BRANCH  12  13
ATOM     13  C   UNL     1       8.354  34.935  19.682  1.00  0.00    -0.000 C 
BRANCH  13  14
ATOM     14  C   UNL     1       7.010  34.549  20.319  1.00  0.00    -0.000 C 
BRANCH  14  15
ATOM     15  C   UNL     1       6.604  33.125  19.921  1.00  0.00    -0.000 C 
BRANCH  15  16
ATOM     16  C   UNL     1       5.532  32.573  20.869  1.00  0.00    -0.003 C 
ATOM     17  C   UNL     1       5.397  31.060  20.726  1.00  0.00     0.004 C 
ENDBRANCH  15  16
ENDBRANCH  14  15
ENDBRANCH  13  14
ENDBRANCH  12  13
ENDBRANCH  11  12
ENDBRANCH  10  11
ENDBRANCH   1  10
TORSDOF 13
ENDMDL
MODEL 9
REMARK VINA RESULT:    -3.868     18.691     20.743
REMARK INTER + INTRA:          -8.101
REMARK INTER:                  -6.776
REMARK INTRA:                  -1.325
REMARK UNBOUND:                -1.294
REMARK SMILES CCCCCCCCCCCCCCC(=O)[O-]
REMARK SMILES IDX 9 1 10 2 11 3 12 4 13 5 14 6 15 7 16 8 17 9 8 10 7 11 6 12
REMARK SMILES IDX 5 13 4 14 3 15 2 16 1 17
REMARK H PARENT
REMARK Flexibility Score: inf
ROOT
ATOM      1  C   UNL     1       6.630  48.204  34.245  1.00  0.00     0.000 C 
ENDROOT
BRANCH   1   2
ATOM      2  C   UNL     1       6.608  49.161  35.447  1.00  0.00     0.000 C 
BRANCH   2   3
ATOM      3  C   UNL     1       5.338  49.006  36.302  1.00  0.00     0.000 C 
BRANCH   3   4
ATOM      4  C   UNL     1       5.647  48.808  37.797  1.00  0.00     0.000 C 
BRANCH   4   5
ATOM      5  C   UNL     1       6.989  48.115  38.095  1.00  0.00     0.006 C 
BRANCH   5   6
ATOM      6  C   UNL     1       6.820  46.746  38.767  1.00  0.00     0.053 C 
BRANCH   6   7
ATOM      7  C   UNL     1       7.762  45.750  38.168  1.00  0.00     0.041 C 
ATOM      8  O   UNL     1       8.186  44.785  38.857  1.00  0.00    -0.550 OA
ATOM      9  O   UNL     1       8.134  45.860  36.835  1.00  0.00    -0.550 OA
ENDBRANCH   6   7
ENDBRANCH   5   6
ENDBRANCH   4   5
ENDBRANCH   3   4
ENDBRANCH   2   3
ENDBRANCH   1   2
BRANCH   1  10
ATOM     10  C   UNL     1       8.055  47.812  33.827  1.00  0.00     0.000 C 
BRANCH  10  11
ATOM     11  C   UNL     1       8.829  49.028  33.304  1.00  0.00    -0.000 C 
BRANCH  11  12
ATOM     12  C   UNL     1       9.595  48.681  32.018  1.00  0.00    -0.000 C 
BRANCH  12  13
ATOM     13  C   UNL     1       9.225  49.598  30.842  1.00  0.00    -0.000 C 
BRANCH  13  14
ATOM     14  C   UNL     1       7.767  50.082  30.905  1.00  0.00    -0.000 C 
BRANCH  14  15
ATOM     15  C   UNL     1       6.947  49.504  29.746  1.00  0.00    -0.000 C 
BRANCH  15  16
ATOM     16  C   UNL     1       6.182  48.249  30.184  1.00  0.00    -0.003 C 
ATOM     17  C   UNL     1       5.070  48.598  31.168  1.00  0.00     0.004 C 
ENDBRANCH  15  16
ENDBRANCH  14  15
ENDBRANCH  13  14
ENDBRANCH  12  13
ENDBRANCH  11  12
ENDBRANCH  10  11
ENDBRANCH   1  10
TORSDOF 13
ENDMDL
