MODEL 1
REMARK VINA RESULT:    -5.219      0.000      0.000
REMARK INTER + INTRA:         -15.878
REMARK INTER:                 -13.152
REMARK INTRA:                  -2.725
REMARK UNBOUND:                -2.725
REMARK SMILES CCCCCCCCCCCCCCCCCCCCCCCCCCCC(=O)[O-]
REMARK SMILES IDX 15 1 16 2 17 3 18 4 19 5 20 6 21 7 22 8 23 9 24 10 25 11
REMARK SMILES IDX 26 12 27 13 28 14 29 15 30 16 14 17 13 18 12 19 11 20 10 21
REMARK SMILES IDX 9 22 8 23 7 24 6 25 5 26 4 27 3 28 2 29 1 30
REMARK H PARENT
REMARK Flexibility Score: inf
ROOT
ATOM      1  C   UNL     1      14.925 -25.868  20.862  1.00  0.00     0.000 C 
ENDROOT
BRANCH   1   2
ATOM      2  C   UNL     1      14.946 -24.893  19.674  1.00  0.00     0.000 C 
BRANCH   2   3
ATOM      3  C   UNL     1      14.548 -23.464  20.091  1.00  0.00     0.000 C 
BRANCH   3   4
ATOM      4  C   UNL     1      13.051 -23.346  20.412  1.00  0.00     0.000 C 
BRANCH   4   5
ATOM      5  C   UNL     1      12.816 -22.902  21.868  1.00  0.00     0.000 C 
BRANCH   5   6
ATOM      6  C   UNL     1      14.031 -22.183  22.477  1.00  0.00     0.000 C 
BRANCH   6   7
ATOM      7  C   UNL     1      14.039 -22.226  24.015  1.00  0.00     0.000 C 
BRANCH   7   8
ATOM      8  C   UNL     1      12.639 -22.508  24.597  1.00  0.00     0.000 C 
BRANCH   8   9
ATOM      9  C   UNL     1      12.678 -23.050  26.036  1.00  0.00     0.000 C 
BRANCH   9  10
ATOM     10  C   UNL     1      11.533 -24.032  26.339  1.00  0.00     0.000 C 
BRANCH  10  11
ATOM     11  C   UNL     1      10.173 -23.509  25.827  1.00  0.00     0.000 C 
BRANCH  11  12
ATOM     12  C   UNL     1       9.514 -24.433  24.788  1.00  0.00     0.006 C 
BRANCH  12  13
ATOM     13  C   UNL     1       9.562 -23.865  23.364  1.00  0.00     0.053 C 
BRANCH  13  14
ATOM     14  C   UNL     1       9.274 -24.936  22.361  1.00  0.00     0.041 C 
ATOM     15  O   UNL     1      10.210 -25.636  21.889  1.00  0.00    -0.550 OA
ATOM     16  O   UNL     1       7.977 -25.127  21.904  1.00  0.00    -0.550 OA
ENDBRANCH  13  14
ENDBRANCH  12  13
ENDBRANCH  11  12
ENDBRANCH  10  11
ENDBRANCH   9  10
ENDBRANCH   8   9
ENDBRANCH   7   8
ENDBRANCH   6   7
ENDBRANCH   5   6
ENDBRANCH   4   5
ENDBRANCH   3   4
ENDBRANCH   2   3
ENDBRANCH   1   2
BRANCH   1  17
ATOM     17  C   UNL     1      15.833 -25.393  22.009  1.00  0.00     0.000 C 
BRANCH  17  18
ATOM     18  C   UNL     1      16.746 -26.505  22.559  1.00  0.00     0.000 C 
BRANCH  18  19
ATOM     19  C   UNL     1      16.088 -27.895  22.639  1.00  0.00     0.000 C 
BRANCH  19  20
ATOM     20  C   UNL     1      16.174 -28.513  24.045  1.00  0.00     0.000 C 
BRANCH  20  21
ATOM     21  C   UNL     1      17.394 -29.434  24.221  1.00  0.00     0.000 C 
BRANCH  21  22
ATOM     22  C   UNL     1      18.417 -28.954  25.265  1.00  0.00    -0.000 C 
BRANCH  22  23
ATOM     23  C   UNL     1      19.408 -27.920  24.702  1.00  0.00    -0.000 C 
BRANCH  23  24
ATOM     24  C   UNL     1      19.638 -26.741  25.661  1.00  0.00    -0.000 C 
BRANCH  24  25
ATOM     25  C   UNL     1      19.197 -27.057  27.099  1.00  0.00    -0.000 C 
BRANCH  25  26
ATOM     26  C   UNL     1      19.912 -26.177  28.140  1.00  0.00    -0.000 C 
BRANCH  26  27
ATOM     27  C   UNL     1      20.837 -26.987  29.061  1.00  0.00    -0.000 C 
BRANCH  27  28
ATOM     28  C   UNL     1      22.265 -26.420  29.053  1.00  0.00    -0.000 C 
BRANCH  28  29
ATOM     29  C   UNL     1      22.745 -26.046  27.641  1.00  0.00    -0.003 C 
ATOM     30  C   UNL     1      23.836 -26.984  27.117  1.00  0.00     0.004 C 
ENDBRANCH  28  29
ENDBRANCH  27  28
ENDBRANCH  26  27
ENDBRANCH  25  26
ENDBRANCH  24  25
ENDBRANCH  23  24
ENDBRANCH  22  23
ENDBRANCH  21  22
ENDBRANCH  20  21
ENDBRANCH  19  20
ENDBRANCH  18  19
ENDBRANCH  17  18
ENDBRANCH   1  17
TORSDOF 26
ENDMDL
MODEL 2
REMARK VINA RESULT:    -5.218      4.024      9.215
REMARK INTER + INTRA:         -15.875
REMARK INTER:                 -13.158
REMARK INTRA:                  -2.717
REMARK UNBOUND:                -2.725
REMARK SMILES CCCCCCCCCCCCCCCCCCCCCCCCCCCC(=O)[O-]
REMARK SMILES IDX 15 1 16 2 17 3 18 4 19 5 20 6 21 7 22 8 23 9 24 10 25 11
REMARK SMILES IDX 26 12 27 13 28 14 29 15 30 16 14 17 13 18 12 19 11 20 10 21
REMARK SMILES IDX 9 22 8 23 7 24 6 25 5 26 4 27 3 28 2 29 1 30
REMARK H PARENT
REMARK Flexibility Score: inf
ROOT
ATOM      1  C   UNL     1      14.702 -23.052  20.238  1.00  0.00     0.000 C 
ENDROOT
BRANCH   1   2
ATOM      2  C   UNL     1      15.316 -24.348  19.683  1.00  0.00     0.000 C 
BRANCH   2   3
ATOM      3  C   UNL     1      14.475 -25.587  20.043  1.00  0.00     0.000 C 
BRANCH   3   4
ATOM      4  C   UNL     1      15.223 -26.549  20.978  1.00  0.00     0.000 C 
BRANCH   4   5
ATOM      5  C   UNL     1      16.076 -25.789  22.011  1.00  0.00     0.000 C 
BRANCH   5   6
ATOM      6  C   UNL     1      17.099 -26.691  22.721  1.00  0.00     0.000 C 
BRANCH   6   7
ATOM      7  C   UNL     1      18.366 -25.931  23.149  1.00  0.00     0.000 C 
BRANCH   7   8
ATOM      8  C   UNL     1      19.405 -26.857  23.813  1.00  0.00     0.000 C 
BRANCH   8   9
ATOM      9  C   UNL     1      19.789 -26.418  25.236  1.00  0.00     0.000 C 
BRANCH   9  10
ATOM     10  C   UNL     1      19.671 -27.554  26.267  1.00  0.00     0.000 C 
BRANCH  10  11
ATOM     11  C   UNL     1      19.037 -27.071  27.589  1.00  0.00     0.000 C 
BRANCH  11  12
ATOM     12  C   UNL     1      20.030 -26.351  28.518  1.00  0.00     0.006 C 
BRANCH  12  13
ATOM     13  C   UNL     1      21.431 -26.974  28.496  1.00  0.00     0.053 C 
BRANCH  13  14
ATOM     14  C   UNL     1      21.599 -27.928  29.637  1.00  0.00     0.041 C 
ATOM     15  O   UNL     1      22.229 -27.579  30.671  1.00  0.00    -0.550 OA
ATOM     16  O   UNL     1      21.109 -29.222  29.536  1.00  0.00    -0.550 OA
ENDBRANCH  13  14
ENDBRANCH  12  13
ENDBRANCH  11  12
ENDBRANCH  10  11
ENDBRANCH   9  10
ENDBRANCH   8   9
ENDBRANCH   7   8
ENDBRANCH   6   7
ENDBRANCH   5   6
ENDBRANCH   4   5
ENDBRANCH   3   4
ENDBRANCH   2   3
ENDBRANCH   1   2
BRANCH   1  17
ATOM     17  C   UNL     1      13.187 -22.983  19.982  1.00  0.00     0.000 C 
BRANCH  17  18
ATOM     18  C   UNL     1      12.363 -22.799  21.271  1.00  0.00     0.000 C 
BRANCH  18  19
ATOM     19  C   UNL     1      11.941 -24.111  21.957  1.00  0.00     0.000 C 
BRANCH  19  20
ATOM     20  C   UNL     1      10.838 -24.857  21.188  1.00  0.00     0.000 C 
BRANCH  20  21
ATOM     21  C   UNL     1       9.738 -25.413  22.109  1.00  0.00     0.000 C 
BRANCH  21  22
ATOM     22  C   UNL     1       9.114 -24.379  23.062  1.00  0.00    -0.000 C 
BRANCH  22  23
ATOM     23  C   UNL     1       9.355 -24.710  24.546  1.00  0.00    -0.000 C 
BRANCH  23  24
ATOM     24  C   UNL     1       9.776 -23.478  25.363  1.00  0.00    -0.000 C 
BRANCH  24  25
ATOM     25  C   UNL     1      10.649 -23.845  26.574  1.00  0.00    -0.000 C 
BRANCH  25  26
ATOM     26  C   UNL     1      11.956 -23.034  26.624  1.00  0.00    -0.000 C 
BRANCH  26  27
ATOM     27  C   UNL     1      12.771 -23.150  25.328  1.00  0.00    -0.000 C 
BRANCH  27  28
ATOM     28  C   UNL     1      12.766 -21.826  24.547  1.00  0.00    -0.000 C 
BRANCH  28  29
ATOM     29  C   UNL     1      14.177 -21.377  24.134  1.00  0.00    -0.003 C 
ATOM     30  C   UNL     1      15.082 -22.548  23.743  1.00  0.00     0.004 C 
ENDBRANCH  28  29
ENDBRANCH  27  28
ENDBRANCH  26  27
ENDBRANCH  25  26
ENDBRANCH  24  25
ENDBRANCH  23  24
ENDBRANCH  22  23
ENDBRANCH  21  22
ENDBRANCH  20  21
ENDBRANCH  19  20
ENDBRANCH  18  19
ENDBRANCH  17  18
ENDBRANCH   1  17
TORSDOF 26
ENDMDL
MODEL 3
REMARK VINA RESULT:    -5.201      3.354      8.892
REMARK INTER + INTRA:         -15.832
REMARK INTER:                 -12.487
REMARK INTRA:                  -3.345
REMARK UNBOUND:                -2.725
REMARK SMILES CCCCCCCCCCCCCCCCCCCCCCCCCCCC(=O)[O-]
REMARK SMILES IDX 15 1 16 2 17 3 18 4 19 5 20 6 21 7 22 8 23 9 24 10 25 11
REMARK SMILES IDX 26 12 27 13 28 14 29 15 30 16 14 17 13 18 12 19 11 20 10 21
REMARK SMILES IDX 9 22 8 23 7 24 6 25 5 26 4 27 3 28 2 29 1 30
REMARK H PARENT
REMARK Flexibility Score: inf
ROOT
ATOM      1  C   UNL     1      14.793 -24.829  19.573  1.00  0.00     0.000 C 
ENDROOT
BRANCH   1   2
ATOM      2  C   UNL     1      15.255 -26.014  20.436  1.00  0.00     0.000 C 
BRANCH   2   3
ATOM      3  C   UNL     1      15.748 -25.563  21.823  1.00  0.00     0.000 C 
BRANCH   3   4
ATOM      4  C   UNL     1      16.407 -26.706  22.610  1.00  0.00     0.000 C 
BRANCH   4   5
ATOM      5  C   UNL     1      15.668 -28.040  22.399  1.00  0.00     0.000 C 
BRANCH   5   6
ATOM      6  C   UNL     1      16.088 -29.121  23.408  1.00  0.00     0.000 C 
BRANCH   6   7
ATOM      7  C   UNL     1      15.746 -30.544  22.932  1.00  0.00     0.000 C 
BRANCH   7   8
ATOM      8  C   UNL     1      16.823 -31.570  23.340  1.00  0.00     0.000 C 
BRANCH   8   9
ATOM      9  C   UNL     1      18.156 -30.921  23.749  1.00  0.00     0.000 C 
BRANCH   9  10
ATOM     10  C   UNL     1      18.509 -31.154  25.228  1.00  0.00     0.000 C 
BRANCH  10  11
ATOM     11  C   UNL     1      19.349 -29.997  25.810  1.00  0.00     0.000 C 
BRANCH  11  12
ATOM     12  C   UNL     1      19.720 -28.925  24.771  1.00  0.00     0.006 C 
BRANCH  12  13
ATOM     13  C   UNL     1      19.102 -27.555  25.076  1.00  0.00     0.053 C 
BRANCH  13  14
ATOM     14  C   UNL     1      19.920 -26.462  24.464  1.00  0.00     0.041 C 
ATOM     15  O   UNL     1      21.152 -26.373  24.714  1.00  0.00    -0.550 OA
ATOM     16  O   UNL     1      19.312 -25.507  23.663  1.00  0.00    -0.550 OA
ENDBRANCH  13  14
ENDBRANCH  12  13
ENDBRANCH  11  12
ENDBRANCH  10  11
ENDBRANCH   9  10
ENDBRANCH   8   9
ENDBRANCH   7   8
ENDBRANCH   6   7
ENDBRANCH   5   6
ENDBRANCH   4   5
ENDBRANCH   3   4
ENDBRANCH   2   3
ENDBRANCH   1   2
BRANCH   1  17
ATOM     17  C   UNL     1      14.597 -23.554  20.411  1.00  0.00     0.000 C 
BRANCH  17  18
ATOM     18  C   UNL     1      13.152 -23.021  20.373  1.00  0.00     0.000 C 
BRANCH  18  19
ATOM     19  C   UNL     1      12.213 -23.630  21.431  1.00  0.00     0.000 C 
BRANCH  19  20
ATOM     20  C   UNL     1      11.454 -24.864  20.913  1.00  0.00     0.000 C 
BRANCH  20  21
ATOM     21  C   UNL     1      10.315 -25.302  21.850  1.00  0.00     0.000 C 
BRANCH  21  22
ATOM     22  C   UNL     1       9.708 -24.170  22.697  1.00  0.00    -0.000 C 
BRANCH  22  23
ATOM     23  C   UNL     1       9.675 -24.498  24.201  1.00  0.00    -0.000 C 
BRANCH  23  24
ATOM     24  C   UNL     1       9.313 -23.278  25.062  1.00  0.00    -0.000 C 
BRANCH  24  25
ATOM     25  C   UNL     1      10.547 -22.628  25.711  1.00  0.00    -0.000 C 
BRANCH  25  26
ATOM     26  C   UNL     1      11.723 -23.612  25.853  1.00  0.00    -0.000 C 
BRANCH  26  27
ATOM     27  C   UNL     1      13.061 -22.995  25.418  1.00  0.00    -0.000 C 
BRANCH  27  28
ATOM     28  C   UNL     1      12.851 -21.899  24.361  1.00  0.00    -0.000 C 
BRANCH  28  29
ATOM     29  C   UNL     1      14.175 -21.310  23.849  1.00  0.00    -0.003 C 
ATOM     30  C   UNL     1      15.318 -22.328  23.850  1.00  0.00     0.004 C 
ENDBRANCH  28  29
ENDBRANCH  27  28
ENDBRANCH  26  27
ENDBRANCH  25  26
ENDBRANCH  24  25
ENDBRANCH  23  24
ENDBRANCH  22  23
ENDBRANCH  21  22
ENDBRANCH  20  21
ENDBRANCH  19  20
ENDBRANCH  18  19
ENDBRANCH  17  18
ENDBRANCH   1  17
TORSDOF 26
ENDMDL
MODEL 4
REMARK VINA RESULT:    -5.190      1.898      3.775
REMARK INTER + INTRA:         -15.803
REMARK INTER:                 -13.067
REMARK INTRA:                  -2.736
REMARK UNBOUND:                -2.725
REMARK SMILES CCCCCCCCCCCCCCCCCCCCCCCCCCCC(=O)[O-]
REMARK SMILES IDX 15 1 16 2 17 3 18 4 19 5 20 6 21 7 22 8 23 9 24 10 25 11
REMARK SMILES IDX 26 12 27 13 28 14 29 15 30 16 14 17 13 18 12 19 11 20 10 21
REMARK SMILES IDX 9 22 8 23 7 24 6 25 5 26 4 27 3 28 2 29 1 30
REMARK H PARENT
REMARK Flexibility Score: inf
ROOT
ATOM      1  C   UNL     1      15.946 -27.960  22.756  1.00  0.00     0.000 C 
ENDROOT
BRANCH   1   2
ATOM      2  C   UNL     1      16.495 -26.606  22.277  1.00  0.00     0.000 C 
BRANCH   2   3
ATOM      3  C   UNL     1      15.390 -25.712  21.682  1.00  0.00     0.000 C 
BRANCH   3   4
ATOM      4  C   UNL     1      15.179 -25.966  20.182  1.00  0.00     0.000 C 
BRANCH   4   5
ATOM      5  C   UNL     1      15.240 -24.659  19.371  1.00  0.00     0.000 C 
BRANCH   5   6
ATOM      6  C   UNL     1      14.898 -23.418  20.211  1.00  0.00     0.000 C 
BRANCH   6   7
ATOM      7  C   UNL     1      13.444 -22.953  20.021  1.00  0.00     0.000 C 
BRANCH   7   8
ATOM      8  C   UNL     1      12.524 -23.429  21.163  1.00  0.00     0.000 C 
BRANCH   8   9
ATOM      9  C   UNL     1      11.703 -24.678  20.802  1.00  0.00     0.000 C 
BRANCH   9  10
ATOM     10  C   UNL     1      10.516 -24.912  21.752  1.00  0.00     0.000 C 
BRANCH  10  11
ATOM     11  C   UNL     1      10.626 -24.060  23.035  1.00  0.00     0.000 C 
BRANCH  11  12
ATOM     12  C   UNL     1       9.445 -24.253  24.002  1.00  0.00     0.006 C 
BRANCH  12  13
ATOM     13  C   UNL     1       9.543 -23.370  25.251  1.00  0.00     0.053 C 
BRANCH  13  14
ATOM     14  C   UNL     1      10.174 -24.124  26.379  1.00  0.00     0.041 C 
ATOM     15  O   UNL     1      11.158 -23.638  26.999  1.00  0.00    -0.550 OA
ATOM     16  O   UNL     1       9.712 -25.389  26.711  1.00  0.00    -0.550 OA
ENDBRANCH  13  14
ENDBRANCH  12  13
ENDBRANCH  11  12
ENDBRANCH  10  11
ENDBRANCH   9  10
ENDBRANCH   8   9
ENDBRANCH   7   8
ENDBRANCH   6   7
ENDBRANCH   5   6
ENDBRANCH   4   5
ENDBRANCH   3   4
ENDBRANCH   2   3
ENDBRANCH   1   2
BRANCH   1  17
ATOM     17  C   UNL     1      16.491 -28.339  24.144  1.00  0.00     0.000 C 
BRANCH  17  18
ATOM     18  C   UNL     1      18.028 -28.432  24.186  1.00  0.00     0.000 C 
BRANCH  18  19
ATOM     19  C   UNL     1      18.587 -29.317  25.315  1.00  0.00     0.000 C 
BRANCH  19  20
ATOM     20  C   UNL     1      19.084 -28.500  26.520  1.00  0.00     0.000 C 
BRANCH  20  21
ATOM     21  C   UNL     1      20.014 -29.305  27.446  1.00  0.00     0.000 C 
BRANCH  21  22
ATOM     22  C   UNL     1      20.548 -28.522  28.658  1.00  0.00    -0.000 C 
BRANCH  22  23
ATOM     23  C   UNL     1      20.065 -27.061  28.688  1.00  0.00    -0.000 C 
BRANCH  23  24
ATOM     24  C   UNL     1      21.167 -26.085  29.129  1.00  0.00    -0.000 C 
BRANCH  24  25
ATOM     25  C   UNL     1      22.579 -26.636  28.871  1.00  0.00    -0.000 C 
BRANCH  25  26
ATOM     26  C   UNL     1      23.421 -25.701  27.984  1.00  0.00    -0.000 C 
BRANCH  26  27
ATOM     27  C   UNL     1      22.932 -25.672  26.528  1.00  0.00    -0.000 C 
BRANCH  27  28
ATOM     28  C   UNL     1      22.752 -27.095  25.975  1.00  0.00    -0.000 C 
BRANCH  28  29
ATOM     29  C   UNL     1      21.831 -27.138  24.744  1.00  0.00    -0.003 C 
ATOM     30  C   UNL     1      22.050 -28.384  23.882  1.00  0.00     0.004 C 
ENDBRANCH  28  29
ENDBRANCH  27  28
ENDBRANCH  26  27
ENDBRANCH  25  26
ENDBRANCH  24  25
ENDBRANCH  23  24
ENDBRANCH  22  23
ENDBRANCH  21  22
ENDBRANCH  20  21
ENDBRANCH  19  20
ENDBRANCH  18  19
ENDBRANCH  17  18
ENDBRANCH   1  17
TORSDOF 26
ENDMDL
MODEL 5
REMARK VINA RESULT:    -5.175      2.020      3.288
REMARK INTER + INTRA:         -15.766
REMARK INTER:                 -12.641
REMARK INTRA:                  -3.125
REMARK UNBOUND:                -2.725
REMARK SMILES CCCCCCCCCCCCCCCCCCCCCCCCCCCC(=O)[O-]
REMARK SMILES IDX 15 1 16 2 17 3 18 4 19 5 20 6 21 7 22 8 23 9 24 10 25 11
REMARK SMILES IDX 26 12 27 13 28 14 29 15 30 16 14 17 13 18 12 19 11 20 10 21
REMARK SMILES IDX 9 22 8 23 7 24 6 25 5 26 4 27 3 28 2 29 1 30
REMARK H PARENT
REMARK Flexibility Score: inf
ROOT
ATOM      1  C   UNL     1      15.753 -25.406  22.004  1.00  0.00     0.000 C 
ENDROOT
BRANCH   1   2
ATOM      2  C   UNL     1      15.044 -25.962  20.758  1.00  0.00     0.000 C 
BRANCH   2   3
ATOM      3  C   UNL     1      14.950 -24.916  19.631  1.00  0.00     0.000 C 
BRANCH   3   4
ATOM      4  C   UNL     1      14.931 -23.478  20.170  1.00  0.00     0.000 C 
BRANCH   4   5
ATOM      5  C   UNL     1      13.516 -22.874  20.124  1.00  0.00     0.000 C 
BRANCH   5   6
ATOM      6  C   UNL     1      12.417 -23.898  20.452  1.00  0.00     0.000 C 
BRANCH   6   7
ATOM      7  C   UNL     1      11.900 -23.775  21.896  1.00  0.00     0.000 C 
BRANCH   7   8
ATOM      8  C   UNL     1      12.623 -22.662  22.681  1.00  0.00     0.000 C 
BRANCH   8   9
ATOM      9  C   UNL     1      13.394 -23.184  23.905  1.00  0.00     0.000 C 
BRANCH   9  10
ATOM     10  C   UNL     1      12.814 -22.681  25.238  1.00  0.00     0.000 C 
BRANCH  10  11
ATOM     11  C   UNL     1      11.593 -21.760  25.027  1.00  0.00     0.000 C 
BRANCH  11  12
ATOM     12  C   UNL     1      10.285 -22.338  25.592  1.00  0.00     0.006 C 
BRANCH  12  13
ATOM     13  C   UNL     1      10.505 -23.583  26.460  1.00  0.00     0.053 C 
BRANCH  13  14
ATOM     14  C   UNL     1       9.684 -24.727  25.954  1.00  0.00     0.041 C 
ATOM     15  O   UNL     1       9.318 -24.764  24.749  1.00  0.00    -0.550 OA
ATOM     16  O   UNL     1       9.276 -25.726  26.827  1.00  0.00    -0.550 OA
ENDBRANCH  13  14
ENDBRANCH  12  13
ENDBRANCH  11  12
ENDBRANCH  10  11
ENDBRANCH   9  10
ENDBRANCH   8   9
ENDBRANCH   7   8
ENDBRANCH   6   7
ENDBRANCH   5   6
ENDBRANCH   4   5
ENDBRANCH   3   4
ENDBRANCH   2   3
ENDBRANCH   1   2
BRANCH   1  17
ATOM     17  C   UNL     1      16.741 -26.423  22.601  1.00  0.00     0.000 C 
BRANCH  17  18
ATOM     18  C   UNL     1      16.146 -27.837  22.739  1.00  0.00     0.000 C 
BRANCH  18  19
ATOM     19  C   UNL     1      16.218 -28.428  24.160  1.00  0.00     0.000 C 
BRANCH  19  20
ATOM     20  C   UNL     1      15.486 -29.776  24.280  1.00  0.00     0.000 C 
BRANCH  20  21
ATOM     21  C   UNL     1      15.179 -30.414  22.914  1.00  0.00     0.000 C 
BRANCH  21  22
ATOM     22  C   UNL     1      16.144 -31.537  22.498  1.00  0.00    -0.000 C 
BRANCH  22  23
ATOM     23  C   UNL     1      16.990 -32.065  23.670  1.00  0.00    -0.000 C 
BRANCH  23  24
ATOM     24  C   UNL     1      18.499 -31.895  23.431  1.00  0.00    -0.000 C 
BRANCH  24  25
ATOM     25  C   UNL     1      19.068 -30.646  24.126  1.00  0.00    -0.000 C 
BRANCH  25  26
ATOM     26  C   UNL     1      18.861 -30.676  25.651  1.00  0.00    -0.000 C 
BRANCH  26  27
ATOM     27  C   UNL     1      19.407 -29.419  26.344  1.00  0.00    -0.000 C 
BRANCH  27  28
ATOM     28  C   UNL     1      19.690 -28.302  25.326  1.00  0.00    -0.000 C 
BRANCH  28  29
ATOM     29  C   UNL     1      21.155 -27.837  25.351  1.00  0.00    -0.003 C 
ATOM     30  C   UNL     1      21.330 -26.397  24.861  1.00  0.00     0.004 C 
ENDBRANCH  28  29
ENDBRANCH  27  28
ENDBRANCH  26  27
ENDBRANCH  25  26
ENDBRANCH  24  25
ENDBRANCH  23  24
ENDBRANCH  22  23
ENDBRANCH  21  22
ENDBRANCH  20  21
ENDBRANCH  19  20
ENDBRANCH  18  19
ENDBRANCH  17  18
ENDBRANCH   1  17
TORSDOF 26
ENDMDL
MODEL 6
REMARK VINA RESULT:    -5.175      3.241      9.512
REMARK INTER + INTRA:         -15.765
REMARK INTER:                 -12.702
REMARK INTRA:                  -3.063
REMARK UNBOUND:                -2.725
REMARK SMILES CCCCCCCCCCCCCCCCCCCCCCCCCCCC(=O)[O-]
REMARK SMILES IDX 15 1 16 2 17 3 18 4 19 5 20 6 21 7 22 8 23 9 24 10 25 11
REMARK SMILES IDX 26 12 27 13 28 14 29 15 30 16 14 17 13 18 12 19 11 20 10 21
REMARK SMILES IDX 9 22 8 23 7 24 6 25 5 26 4 27 3 28 2 29 1 30
REMARK H PARENT
REMARK Flexibility Score: inf
ROOT
ATOM      1  C   UNL     1      14.981 -25.103  19.604  1.00  0.00     0.000 C 
ENDROOT
BRANCH   1   2
ATOM      2  C   UNL     1      15.071 -26.266  20.606  1.00  0.00     0.000 C 
BRANCH   2   3
ATOM      3  C   UNL     1      15.715 -25.834  21.937  1.00  0.00     0.000 C 
BRANCH   3   4
ATOM      4  C   UNL     1      16.445 -26.991  22.634  1.00  0.00     0.000 C 
BRANCH   4   5
ATOM      5  C   UNL     1      15.624 -28.292  22.586  1.00  0.00     0.000 C 
BRANCH   5   6
ATOM      6  C   UNL     1      15.811 -29.164  23.839  1.00  0.00     0.000 C 
BRANCH   6   7
ATOM      7  C   UNL     1      16.190 -30.617  23.502  1.00  0.00     0.000 C 
BRANCH   7   8
ATOM      8  C   UNL     1      16.458 -31.458  24.766  1.00  0.00     0.000 C 
BRANCH   8   9
ATOM      9  C   UNL     1      17.920 -31.394  25.239  1.00  0.00     0.000 C 
BRANCH   9  10
ATOM     10  C   UNL     1      18.893 -30.969  24.126  1.00  0.00     0.000 C 
BRANCH  10  11
ATOM     11  C   UNL     1      19.732 -29.738  24.530  1.00  0.00     0.000 C 
BRANCH  11  12
ATOM     12  C   UNL     1      18.911 -28.638  25.225  1.00  0.00     0.006 C 
BRANCH  12  13
ATOM     13  C   UNL     1      19.783 -27.609  25.954  1.00  0.00     0.053 C 
BRANCH  13  14
ATOM     14  C   UNL     1      20.285 -26.574  24.998  1.00  0.00     0.041 C 
ATOM     15  O   UNL     1      19.506 -26.057  24.152  1.00  0.00    -0.550 OA
ATOM     16  O   UNL     1      21.626 -26.219  25.001  1.00  0.00    -0.550 OA
ENDBRANCH  13  14
ENDBRANCH  12  13
ENDBRANCH  11  12
ENDBRANCH  10  11
ENDBRANCH   9  10
ENDBRANCH   8   9
ENDBRANCH   7   8
ENDBRANCH   6   7
ENDBRANCH   5   6
ENDBRANCH   4   5
ENDBRANCH   3   4
ENDBRANCH   2   3
ENDBRANCH   1   2
BRANCH   1  17
ATOM     17  C   UNL     1      14.903 -23.741  20.314  1.00  0.00     0.000 C 
BRANCH  17  18
ATOM     18  C   UNL     1      13.557 -23.023  20.100  1.00  0.00     0.000 C 
BRANCH  18  19
ATOM     19  C   UNL     1      12.335 -23.763  20.677  1.00  0.00     0.000 C 
BRANCH  19  20
ATOM     20  C   UNL     1      12.257 -23.678  22.210  1.00  0.00     0.000 C 
BRANCH  20  21
ATOM     21  C   UNL     1      12.383 -22.237  22.737  1.00  0.00     0.000 C 
BRANCH  21  22
ATOM     22  C   UNL     1      13.293 -22.080  23.969  1.00  0.00    -0.000 C 
BRANCH  22  23
ATOM     23  C   UNL     1      13.214 -23.282  24.927  1.00  0.00    -0.000 C 
BRANCH  23  24
ATOM     24  C   UNL     1      12.399 -22.973  26.193  1.00  0.00    -0.000 C 
BRANCH  24  25
ATOM     25  C   UNL     1      11.631 -24.200  26.713  1.00  0.00    -0.000 C 
BRANCH  25  26
ATOM     26  C   UNL     1      10.110 -24.065  26.522  1.00  0.00    -0.000 C 
BRANCH  26  27
ATOM     27  C   UNL     1       9.738 -23.456  25.162  1.00  0.00    -0.000 C 
BRANCH  27  28
ATOM     28  C   UNL     1       9.234 -24.533  24.189  1.00  0.00    -0.000 C 
BRANCH  28  29
ATOM     29  C   UNL     1       8.227 -23.982  23.167  1.00  0.00    -0.003 C 
ATOM     30  C   UNL     1       8.267 -24.730  21.831  1.00  0.00     0.004 C 
ENDBRANCH  28  29
ENDBRANCH  27  28
ENDBRANCH  26  27
ENDBRANCH  25  26
ENDBRANCH  24  25
ENDBRANCH  23  24
ENDBRANCH  22  23
ENDBRANCH  21  22
ENDBRANCH  20  21
ENDBRANCH  19  20
ENDBRANCH  18  19
ENDBRANCH  17  18
ENDBRANCH   1  17
TORSDOF 26
ENDMDL
MODEL 7
REMARK VINA RESULT:    -5.168      1.602      3.638
REMARK INTER + INTRA:         -15.747
REMARK INTER:                 -12.625
REMARK INTRA:                  -3.122
REMARK UNBOUND:                -2.725
REMARK SMILES CCCCCCCCCCCCCCCCCCCCCCCCCCCC(=O)[O-]
REMARK SMILES IDX 15 1 16 2 17 3 18 4 19 5 20 6 21 7 22 8 23 9 24 10 25 11
REMARK SMILES IDX 26 12 27 13 28 14 29 15 30 16 14 17 13 18 12 19 11 20 10 21
REMARK SMILES IDX 9 22 8 23 7 24 6 25 5 26 4 27 3 28 2 29 1 30
REMARK H PARENT
REMARK Flexibility Score: inf
ROOT
ATOM      1  C   UNL     1      17.464 -26.767  22.965  1.00  0.00     0.000 C 
ENDROOT
BRANCH   1   2
ATOM      2  C   UNL     1      16.144 -26.759  22.178  1.00  0.00     0.000 C 
BRANCH   2   3
ATOM      3  C   UNL     1      15.641 -25.329  21.905  1.00  0.00     0.000 C 
BRANCH   3   4
ATOM      4  C   UNL     1      14.706 -25.260  20.689  1.00  0.00     0.000 C 
BRANCH   4   5
ATOM      5  C   UNL     1      14.872 -23.938  19.918  1.00  0.00     0.000 C 
BRANCH   5   6
ATOM      6  C   UNL     1      14.292 -22.730  20.672  1.00  0.00     0.000 C 
BRANCH   6   7
ATOM      7  C   UNL     1      12.791 -22.883  20.974  1.00  0.00     0.000 C 
BRANCH   7   8
ATOM      8  C   UNL     1      12.484 -22.756  22.480  1.00  0.00     0.000 C 
BRANCH   8   9
ATOM      9  C   UNL     1      13.590 -22.034  23.267  1.00  0.00     0.000 C 
BRANCH   9  10
ATOM     10  C   UNL     1      13.826 -22.637  24.662  1.00  0.00     0.000 C 
BRANCH  10  11
ATOM     11  C   UNL     1      12.670 -23.564  25.095  1.00  0.00     0.000 C 
BRANCH  11  12
ATOM     12  C   UNL     1      11.989 -23.125  26.403  1.00  0.00     0.006 C 
BRANCH  12  13
ATOM     13  C   UNL     1      10.478 -22.912  26.251  1.00  0.00     0.053 C 
BRANCH  13  14
ATOM     14  C   UNL     1       9.826 -24.145  25.710  1.00  0.00     0.041 C 
ATOM     15  O   UNL     1       9.326 -24.145  24.553  1.00  0.00    -0.550 OA
ATOM     16  O   UNL     1       9.721 -25.278  26.503  1.00  0.00    -0.550 OA
ENDBRANCH  13  14
ENDBRANCH  12  13
ENDBRANCH  11  12
ENDBRANCH  10  11
ENDBRANCH   9  10
ENDBRANCH   8   9
ENDBRANCH   7   8
ENDBRANCH   6   7
ENDBRANCH   5   6
ENDBRANCH   4   5
ENDBRANCH   3   4
ENDBRANCH   2   3
ENDBRANCH   1   2
BRANCH   1  17
ATOM     17  C   UNL     1      17.620 -28.044  23.808  1.00  0.00     0.000 C 
BRANCH  17  18
ATOM     18  C   UNL     1      18.873 -28.029  24.704  1.00  0.00     0.000 C 
BRANCH  18  19
ATOM     19  C   UNL     1      19.440 -26.626  24.992  1.00  0.00     0.000 C 
BRANCH  19  20
ATOM     20  C   UNL     1      20.854 -26.427  24.419  1.00  0.00     0.000 C 
BRANCH  20  21
ATOM     21  C   UNL     1      21.931 -27.198  25.201  1.00  0.00     0.000 C 
BRANCH  21  22
ATOM     22  C   UNL     1      23.127 -26.345  25.659  1.00  0.00    -0.000 C 
BRANCH  22  23
ATOM     23  C   UNL     1      24.091 -27.112  26.582  1.00  0.00    -0.000 C 
BRANCH  23  24
ATOM     24  C   UNL     1      23.520 -27.313  27.994  1.00  0.00    -0.000 C 
BRANCH  24  25
ATOM     25  C   UNL     1      22.919 -26.022  28.576  1.00  0.00    -0.000 C 
BRANCH  25  26
ATOM     26  C   UNL     1      21.658 -26.288  29.417  1.00  0.00    -0.000 C 
BRANCH  26  27
ATOM     27  C   UNL     1      20.441 -26.654  28.554  1.00  0.00    -0.000 C 
BRANCH  27  28
ATOM     28  C   UNL     1      19.899 -28.045  28.918  1.00  0.00    -0.000 C 
BRANCH  28  29
ATOM     29  C   UNL     1      20.353 -29.133  27.932  1.00  0.00    -0.003 C 
ATOM     30  C   UNL     1      21.191 -30.227  28.600  1.00  0.00     0.004 C 
ENDBRANCH  28  29
ENDBRANCH  27  28
ENDBRANCH  26  27
ENDBRANCH  25  26
ENDBRANCH  24  25
ENDBRANCH  23  24
ENDBRANCH  22  23
ENDBRANCH  21  22
ENDBRANCH  20  21
ENDBRANCH  19  20
ENDBRANCH  18  19
ENDBRANCH  17  18
ENDBRANCH   1  17
TORSDOF 26
ENDMDL
MODEL 8
REMARK VINA RESULT:    -5.109      3.523      9.907
REMARK INTER + INTRA:         -15.600
REMARK INTER:                 -12.222
REMARK INTRA:                  -3.378
REMARK UNBOUND:                -2.725
REMARK SMILES CCCCCCCCCCCCCCCCCCCCCCCCCCCC(=O)[O-]
REMARK SMILES IDX 15 1 16 2 17 3 18 4 19 5 20 6 21 7 22 8 23 9 24 10 25 11
REMARK SMILES IDX 26 12 27 13 28 14 29 15 30 16 14 17 13 18 12 19 11 20 10 21
REMARK SMILES IDX 9 22 8 23 7 24 6 25 5 26 4 27 3 28 2 29 1 30
REMARK H PARENT
REMARK Flexibility Score: inf
ROOT
ATOM      1  C   UNL     1      16.730 -26.616  22.586  1.00  0.00     0.000 C 
ENDROOT
BRANCH   1   2
ATOM      2  C   UNL     1      16.087 -28.010  22.656  1.00  0.00     0.000 C 
BRANCH   2   3
ATOM      3  C   UNL     1      16.071 -28.568  24.092  1.00  0.00     0.000 C 
BRANCH   3   4
ATOM      4  C   UNL     1      15.652 -30.045  24.140  1.00  0.00     0.000 C 
BRANCH   4   5
ATOM      5  C   UNL     1      15.824 -30.729  22.772  1.00  0.00     0.000 C 
BRANCH   5   6
ATOM      6  C   UNL     1      15.994 -32.253  22.883  1.00  0.00     0.000 C 
BRANCH   6   7
ATOM      7  C   UNL     1      17.324 -32.657  23.542  1.00  0.00     0.000 C 
BRANCH   7   8
ATOM      8  C   UNL     1      18.537 -31.983  22.869  1.00  0.00     0.000 C 
BRANCH   8   9
ATOM      9  C   UNL     1      19.204 -30.913  23.749  1.00  0.00     0.000 C 
BRANCH   9  10
ATOM     10  C   UNL     1      19.398 -31.369  25.205  1.00  0.00     0.000 C 
BRANCH  10  11
ATOM     11  C   UNL     1      19.021 -30.261  26.213  1.00  0.00     0.000 C 
BRANCH  11  12
ATOM     12  C   UNL     1      19.418 -28.850  25.748  1.00  0.00     0.006 C 
BRANCH  12  13
ATOM     13  C   UNL     1      18.747 -27.739  26.565  1.00  0.00     0.053 C 
BRANCH  13  14
ATOM     14  C   UNL     1      19.770 -26.778  27.083  1.00  0.00     0.041 C 
ATOM     15  O   UNL     1      19.502 -26.028  28.061  1.00  0.00    -0.550 OA
ATOM     16  O   UNL     1      21.000 -26.668  26.452  1.00  0.00    -0.550 OA
ENDBRANCH  13  14
ENDBRANCH  12  13
ENDBRANCH  11  12
ENDBRANCH  10  11
ENDBRANCH   9  10
ENDBRANCH   8   9
ENDBRANCH   7   8
ENDBRANCH   6   7
ENDBRANCH   5   6
ENDBRANCH   4   5
ENDBRANCH   3   4
ENDBRANCH   2   3
ENDBRANCH   1   2
BRANCH   1  17
ATOM     17  C   UNL     1      15.753 -25.563  22.036  1.00  0.00     0.000 C 
BRANCH  17  18
ATOM     18  C   UNL     1      15.021 -26.023  20.761  1.00  0.00     0.000 C 
BRANCH  18  19
ATOM     19  C   UNL     1      14.991 -24.982  19.626  1.00  0.00     0.000 C 
BRANCH  19  20
ATOM     20  C   UNL     1      14.884 -23.538  20.146  1.00  0.00     0.000 C 
BRANCH  20  21
ATOM     21  C   UNL     1      13.455 -22.973  20.054  1.00  0.00     0.000 C 
BRANCH  21  22
ATOM     22  C   UNL     1      12.825 -22.595  21.406  1.00  0.00    -0.000 C 
BRANCH  22  23
ATOM     23  C   UNL     1      12.235 -23.805  22.151  1.00  0.00    -0.000 C 
BRANCH  23  24
ATOM     24  C   UNL     1      11.357 -24.684  21.245  1.00  0.00    -0.000 C 
BRANCH  24  25
ATOM     25  C   UNL     1      10.113 -25.220  21.971  1.00  0.00    -0.000 C 
BRANCH  25  26
ATOM     26  C   UNL     1       9.539 -24.209  22.980  1.00  0.00    -0.000 C 
BRANCH  26  27
ATOM     27  C   UNL     1       9.340 -24.818  24.376  1.00  0.00    -0.000 C 
BRANCH  27  28
ATOM     28  C   UNL     1       9.921 -23.907  25.468  1.00  0.00    -0.000 C 
BRANCH  28  29
ATOM     29  C   UNL     1       9.856 -22.418  25.093  1.00  0.00    -0.003 C 
ATOM     30  C   UNL     1      11.237 -21.760  25.027  1.00  0.00     0.004 C 
ENDBRANCH  28  29
ENDBRANCH  27  28
ENDBRANCH  26  27
ENDBRANCH  25  26
ENDBRANCH  24  25
ENDBRANCH  23  24
ENDBRANCH  22  23
ENDBRANCH  21  22
ENDBRANCH  20  21
ENDBRANCH  19  20
ENDBRANCH  18  19
ENDBRANCH  17  18
ENDBRANCH   1  17
TORSDOF 26
ENDMDL
MODEL 9
REMARK VINA RESULT:    -5.085      1.152      3.508
REMARK INTER + INTRA:         -15.540
REMARK INTER:                 -12.329
REMARK INTRA:                  -3.212
REMARK UNBOUND:                -2.725
REMARK SMILES CCCCCCCCCCCCCCCCCCCCCCCCCCCC(=O)[O-]
REMARK SMILES IDX 15 1 16 2 17 3 18 4 19 5 20 6 21 7 22 8 23 9 24 10 25 11
REMARK SMILES IDX 26 12 27 13 28 14 29 15 30 16 14 17 13 18 12 19 11 20 10 21
REMARK SMILES IDX 9 22 8 23 7 24 6 25 5 26 4 27 3 28 2 29 1 30
REMARK H PARENT
REMARK Flexibility Score: inf
ROOT
ATOM      1  C   UNL     1      16.181 -28.091  23.015  1.00  0.00     0.000 C 
ENDROOT
BRANCH   1   2
ATOM      2  C   UNL     1      16.853 -26.765  22.622  1.00  0.00     0.000 C 
BRANCH   2   3
ATOM      3  C   UNL     1      15.859 -25.783  21.974  1.00  0.00     0.000 C 
BRANCH   3   4
ATOM      4  C   UNL     1      15.163 -26.383  20.743  1.00  0.00     0.000 C 
BRANCH   4   5
ATOM      5  C   UNL     1      14.134 -25.409  20.142  1.00  0.00     0.000 C 
BRANCH   5   6
ATOM      6  C   UNL     1      14.705 -23.999  19.920  1.00  0.00     0.000 C 
BRANCH   6   7
ATOM      7  C   UNL     1      13.779 -22.892  20.453  1.00  0.00     0.000 C 
BRANCH   7   8
ATOM      8  C   UNL     1      14.346 -22.216  21.718  1.00  0.00     0.000 C 
BRANCH   8   9
ATOM      9  C   UNL     1      14.015 -22.977  23.013  1.00  0.00     0.000 C 
BRANCH   9  10
ATOM     10  C   UNL     1      13.519 -22.057  24.141  1.00  0.00     0.000 C 
BRANCH  10  11
ATOM     11  C   UNL     1      12.079 -22.403  24.578  1.00  0.00     0.000 C 
BRANCH  11  12
ATOM     12  C   UNL     1      11.200 -22.930  23.430  1.00  0.00     0.006 C 
BRANCH  12  13
ATOM     13  C   UNL     1      10.188 -23.988  23.887  1.00  0.00     0.053 C 
BRANCH  13  14
ATOM     14  C   UNL     1       9.516 -24.615  22.707  1.00  0.00     0.041 C 
ATOM     15  O   UNL     1       8.320 -24.330  22.429  1.00  0.00    -0.550 OA
ATOM     16  O   UNL     1      10.191 -25.558  21.945  1.00  0.00    -0.550 OA
ENDBRANCH  13  14
ENDBRANCH  12  13
ENDBRANCH  11  12
ENDBRANCH  10  11
ENDBRANCH   9  10
ENDBRANCH   8   9
ENDBRANCH   7   8
ENDBRANCH   6   7
ENDBRANCH   5   6
ENDBRANCH   4   5
ENDBRANCH   3   4
ENDBRANCH   2   3
ENDBRANCH   1   2
BRANCH   1  17
ATOM     17  C   UNL     1      16.998 -28.856  24.069  1.00  0.00     0.000 C 
BRANCH  17  18
ATOM     18  C   UNL     1      18.354 -28.196  24.381  1.00  0.00     0.000 C 
BRANCH  18  19
ATOM     19  C   UNL     1      18.631 -27.972  25.879  1.00  0.00     0.000 C 
BRANCH  19  20
ATOM     20  C   UNL     1      19.236 -26.588  26.172  1.00  0.00     0.000 C 
BRANCH  20  21
ATOM     21  C   UNL     1      19.663 -26.421  27.641  1.00  0.00     0.000 C 
BRANCH  21  22
ATOM     22  C   UNL     1      19.924 -27.741  28.388  1.00  0.00    -0.000 C 
BRANCH  22  23
ATOM     23  C   UNL     1      21.118 -27.655  29.357  1.00  0.00    -0.000 C 
BRANCH  23  24
ATOM     24  C   UNL     1      21.902 -26.342  29.209  1.00  0.00    -0.000 C 
BRANCH  24  25
ATOM     25  C   UNL     1      23.283 -26.550  28.566  1.00  0.00    -0.000 C 
BRANCH  25  26
ATOM     26  C   UNL     1      23.643 -25.431  27.571  1.00  0.00    -0.000 C 
BRANCH  26  27
ATOM     27  C   UNL     1      23.003 -25.642  26.191  1.00  0.00    -0.000 C 
BRANCH  27  28
ATOM     28  C   UNL     1      23.491 -26.948  25.546  1.00  0.00    -0.000 C 
BRANCH  28  29
ATOM     29  C   UNL     1      22.340 -27.910  25.212  1.00  0.00    -0.003 C 
ATOM     30  C   UNL     1      22.410 -29.219  26.004  1.00  0.00     0.004 C 
ENDBRANCH  28  29
ENDBRANCH  27  28
ENDBRANCH  26  27
ENDBRANCH  25  26
ENDBRANCH  24  25
ENDBRANCH  23  24
ENDBRANCH  22  23
ENDBRANCH  21  22
ENDBRANCH  20  21
ENDBRANCH  19  20
ENDBRANCH  18  19
ENDBRANCH  17  18
ENDBRANCH   1  17
TORSDOF 26
ENDMDL
