MODEL 1
REMARK VINA RESULT:    -7.188      0.000      0.000
REMARK INTER + INTRA:         -10.832
REMARK INTER:                  -9.499
REMARK INTRA:                  -1.333
REMARK UNBOUND:                -1.333
REMARK SMILES CC[C@H](C=C[C@H](C)[C@H]1CC[C@@H]2[C@@H]3CC=C4C[C@@H](O)CC[C@]4(C)[C@H]3CC[C@]21C)C(C)C
REMARK SMILES IDX 6 1 7 2 5 3 4 4 3 5 2 6 1 7 28 8 29 9 30 10 8 11 9 12 26 13
REMARK SMILES IDX 10 14 11 15 25 16 27 17 12 18 24 19 23 20 13 21 21 22 14 23
REMARK SMILES IDX 15 24 20 25 22 26 16 27 19 28 17 29 18 30
REMARK H PARENT 18 31
REMARK Flexibility Score: inf
ROOT
ATOM      1  C   UNL     1     166.911 177.925 178.389  1.00  0.00     0.012 C 
ATOM      2  C   UNL     1     166.885 176.676 177.483  1.00  0.00     0.012 C 
ENDROOT
BRANCH   1   3
ATOM      3  C   UNL     1     165.481 178.418 178.504  1.00  0.00    -0.028 C 
ATOM      4  C   UNL     1     165.082 179.142 179.562  1.00  0.00    -0.027 C 
BRANCH   4   5
ATOM      5  C   UNL     1     163.664 179.669 179.677  1.00  0.00     0.014 C 
BRANCH   5   6
ATOM      6  C   UNL     1     162.937 179.471 178.313  1.00  0.00     0.004 C 
ATOM      7  C   UNL     1     161.763 178.494 178.414  1.00  0.00     0.004 C 
ENDBRANCH   5   6
BRANCH   5   8
ATOM      8  C   UNL     1     162.922 178.972 180.862  1.00  0.00    -0.011 C 
ATOM      9  C   UNL     1     163.914 178.264 181.808  1.00  0.00     0.008 C 
ATOM     10  C   UNL     1     162.082 179.961 181.687  1.00  0.00     0.008 C 
ENDBRANCH   5   8
ENDBRANCH   4   5
ENDBRANCH   1   3
BRANCH   1  11
ATOM     11  C   UNL     1     167.512 177.616 179.798  1.00  0.00     0.002 C 
ATOM     12  C   UNL     1     167.454 176.099 180.155  1.00  0.00     0.005 C 
ATOM     13  C   UNL     1     169.016 178.040 180.071  1.00  0.00    -0.026 C 
ATOM     14  C   UNL     1     168.826 175.692 180.688  1.00  0.00     0.005 C 
ATOM     15  C   UNL     1     169.744 176.688 180.018  1.00  0.00    -0.001 C 
ATOM     16  C   UNL     1     169.736 179.000 179.049  1.00  0.00     0.007 C 
ATOM     17  C   UNL     1     169.016 178.688 181.494  1.00  0.00     0.012 C 
ATOM     18  C   UNL     1     171.259 176.694 180.379  1.00  0.00     0.000 C 
ATOM     19  C   UNL     1     171.257 178.717 178.826  1.00  0.00     0.005 C 
ATOM     20  C   UNL     1     171.932 178.056 180.049  1.00  0.00     0.003 C 
ATOM     21  C   UNL     1     171.630 176.299 181.809  1.00  0.00     0.031 C 
ATOM     22  C   UNL     1     173.495 177.902 180.000  1.00  0.00    -0.008 C 
ATOM     23  C   UNL     1     173.131 176.340 181.989  1.00  0.00    -0.027 C 
ATOM     24  C   UNL     1     173.969 177.091 181.225  1.00  0.00    -0.065 C 
ATOM     25  C   UNL     1     174.151 179.319 180.068  1.00  0.00     0.014 C 
ATOM     26  C   UNL     1     173.953 177.193 178.697  1.00  0.00     0.016 C 
ATOM     27  C   UNL     1     175.452 177.083 181.545  1.00  0.00     0.063 C 
ATOM     28  C   UNL     1     175.665 179.288 180.336  1.00  0.00     0.033 C 
ATOM     29  C   UNL     1     175.992 178.517 181.622  1.00  0.00     0.118 C 
BRANCH  29  30
ATOM     30  O   UNL     1     177.385 178.494 181.799  1.00  0.00    -0.393 OA
ATOM     31  H   UNL     1     177.787 178.365 180.900  1.00  0.00     0.210 HD
ENDBRANCH  29  30
ENDBRANCH   1  11
TORSDOF 6
ENDMDL
MODEL 2
REMARK VINA RESULT:    -6.760      8.185     12.042
REMARK INTER + INTRA:         -10.266
REMARK INTER:                  -9.048
REMARK INTRA:                  -1.218
REMARK UNBOUND:                -1.333
REMARK SMILES CC[C@H](C=C[C@H](C)[C@H]1CC[C@@H]2[C@@H]3CC=C4C[C@@H](O)CC[C@]4(C)[C@H]3CC[C@]21C)C(C)C
REMARK SMILES IDX 6 1 7 2 5 3 4 4 3 5 2 6 1 7 28 8 29 9 30 10 8 11 9 12 26 13
REMARK SMILES IDX 10 14 11 15 25 16 27 17 12 18 24 19 23 20 13 21 21 22 14 23
REMARK SMILES IDX 15 24 20 25 22 26 16 27 19 28 17 29 18 30
REMARK H PARENT 18 31
REMARK Flexibility Score: inf
ROOT
ATOM      1  C   UNL     1     177.843 174.282 179.626  1.00  0.00     0.012 C 
ATOM      2  C   UNL     1     176.746 174.352 178.544  1.00  0.00     0.012 C 
ENDROOT
BRANCH   1   3
ATOM      3  C   UNL     1     178.014 175.687 180.174  1.00  0.00    -0.028 C 
ATOM      4  C   UNL     1     177.472 176.744 179.549  1.00  0.00    -0.027 C 
BRANCH   4   5
ATOM      5  C   UNL     1     177.606 178.151 180.102  1.00  0.00     0.014 C 
BRANCH   5   6
ATOM      6  C   UNL     1     177.166 179.169 179.008  1.00  0.00     0.004 C 
ATOM      7  C   UNL     1     176.617 178.481 177.756  1.00  0.00     0.004 C 
ENDBRANCH   5   6
BRANCH   5   8
ATOM      8  C   UNL     1     176.785 178.293 181.424  1.00  0.00    -0.011 C 
ATOM      9  C   UNL     1     176.832 179.736 181.963  1.00  0.00     0.008 C 
ATOM     10  C   UNL     1     175.313 177.886 181.241  1.00  0.00     0.008 C 
ENDBRANCH   5   8
ENDBRANCH   4   5
ENDBRANCH   1   3
BRANCH   1  11
ATOM     11  C   UNL     1     177.480 173.277 180.766  1.00  0.00     0.002 C 
ATOM     12  C   UNL     1     175.940 173.116 180.957  1.00  0.00     0.005 C 
ATOM     13  C   UNL     1     178.032 171.795 180.650  1.00  0.00    -0.026 C 
ATOM     14  C   UNL     1     175.633 171.623 181.035  1.00  0.00     0.005 C 
ATOM     15  C   UNL     1     176.771 171.015 180.247  1.00  0.00    -0.001 C 
ATOM     16  C   UNL     1     179.143 171.475 179.579  1.00  0.00     0.007 C 
ATOM     17  C   UNL     1     178.555 171.430 182.079  1.00  0.00     0.012 C 
ATOM     18  C   UNL     1     176.903 169.465 180.166  1.00  0.00     0.000 C 
ATOM     19  C   UNL     1     179.038 170.068 178.908  1.00  0.00     0.005 C 
ATOM     20  C   UNL     1     178.349 169.020 179.812  1.00  0.00     0.003 C 
ATOM     21  C   UNL     1     176.429 168.667 181.381  1.00  0.00     0.031 C 
ATOM     22  C   UNL     1     178.361 167.532 179.308  1.00  0.00    -0.008 C 
ATOM     23  C   UNL     1     176.609 167.186 181.135  1.00  0.00    -0.027 C 
ATOM     24  C   UNL     1     177.503 166.664 180.253  1.00  0.00    -0.065 C 
ATOM     25  C   UNL     1     179.827 166.991 179.345  1.00  0.00     0.014 C 
ATOM     26  C   UNL     1     177.815 167.420 177.859  1.00  0.00     0.016 C 
ATOM     27  C   UNL     1     177.621 165.156 180.141  1.00  0.00     0.063 C 
ATOM     28  C   UNL     1     179.930 165.467 179.171  1.00  0.00     0.033 C 
ATOM     29  C   UNL     1     179.091 164.724 180.220  1.00  0.00     0.118 C 
BRANCH  29  30
ATOM     30  O   UNL     1     179.197 163.342 179.994  1.00  0.00    -0.393 OA
ATOM     31  H   UNL     1     179.340 163.221 179.019  1.00  0.00     0.210 HD
ENDBRANCH  29  30
ENDBRANCH   1  11
TORSDOF 6
ENDMDL
MODEL 3
REMARK VINA RESULT:    -6.608      1.971      2.890
REMARK INTER + INTRA:         -10.066
REMARK INTER:                  -9.028
REMARK INTRA:                  -1.037
REMARK UNBOUND:                -1.333
REMARK SMILES CC[C@H](C=C[C@H](C)[C@H]1CC[C@@H]2[C@@H]3CC=C4C[C@@H](O)CC[C@]4(C)[C@H]3CC[C@]21C)C(C)C
REMARK SMILES IDX 6 1 7 2 5 3 4 4 3 5 2 6 1 7 28 8 29 9 30 10 8 11 9 12 26 13
REMARK SMILES IDX 10 14 11 15 25 16 27 17 12 18 24 19 23 20 13 21 21 22 14 23
REMARK SMILES IDX 15 24 20 25 22 26 16 27 19 28 17 29 18 30
REMARK H PARENT 18 31
REMARK Flexibility Score: inf
ROOT
ATOM      1  C   UNL     1     167.966 178.046 179.719  1.00  0.00     0.012 C 
ATOM      2  C   UNL     1     167.595 176.744 180.460  1.00  0.00     0.012 C 
ENDROOT
BRANCH   1   3
ATOM      3  C   UNL     1     166.811 179.011 179.914  1.00  0.00    -0.028 C 
ATOM      4  C   UNL     1     165.540 178.606 179.770  1.00  0.00    -0.027 C 
BRANCH   4   5
ATOM      5  C   UNL     1     164.373 179.550 179.994  1.00  0.00     0.014 C 
BRANCH   5   6
ATOM      6  C   UNL     1     163.342 179.364 178.840  1.00  0.00     0.004 C 
ATOM      7  C   UNL     1     164.016 179.081 177.495  1.00  0.00     0.004 C 
ENDBRANCH   5   6
BRANCH   5   8
ATOM      8  C   UNL     1     163.747 179.310 181.406  1.00  0.00    -0.011 C 
ATOM      9  C   UNL     1     162.277 179.774 181.456  1.00  0.00     0.008 C 
ATOM     10  C   UNL     1     163.807 177.832 181.826  1.00  0.00     0.008 C 
ENDBRANCH   5   8
ENDBRANCH   4   5
ENDBRANCH   1   3
BRANCH   1  11
ATOM     11  C   UNL     1     169.303 178.660 180.246  1.00  0.00     0.002 C 
ATOM     12  C   UNL     1     169.396 178.653 181.803  1.00  0.00     0.005 C 
ATOM     13  C   UNL     1     170.662 178.006 179.755  1.00  0.00    -0.026 C 
ATOM     14  C   UNL     1     170.768 178.105 182.186  1.00  0.00     0.005 C 
ATOM     15  C   UNL     1     171.112 177.230 181.003  1.00  0.00    -0.001 C 
ATOM     16  C   UNL     1     170.629 176.985 178.555  1.00  0.00     0.007 C 
ATOM     17  C   UNL     1     171.601 179.206 179.401  1.00  0.00     0.012 C 
ATOM     18  C   UNL     1     172.511 176.549 180.936  1.00  0.00     0.000 C 
ATOM     19  C   UNL     1     171.645 175.803 178.656  1.00  0.00     0.005 C 
ATOM     20  C   UNL     1     172.902 176.159 179.484  1.00  0.00     0.003 C 
ATOM     21  C   UNL     1     173.678 177.306 181.571  1.00  0.00     0.031 C 
ATOM     22  C   UNL     1     174.069 175.106 179.490  1.00  0.00    -0.008 C 
ATOM     23  C   UNL     1     174.954 176.505 181.436  1.00  0.00    -0.027 C 
ATOM     24  C   UNL     1     175.162 175.559 180.481  1.00  0.00    -0.065 C 
ATOM     25  C   UNL     1     174.702 175.037 178.062  1.00  0.00     0.014 C 
ATOM     26  C   UNL     1     173.557 173.696 179.887  1.00  0.00     0.016 C 
ATOM     27  C   UNL     1     176.510 174.865 180.423  1.00  0.00     0.063 C 
ATOM     28  C   UNL     1     176.039 174.279 178.014  1.00  0.00     0.033 C 
ATOM     29  C   UNL     1     177.060 174.878 178.991  1.00  0.00     0.118 C 
BRANCH  29  30
ATOM     30  O   UNL     1     178.246 174.129 178.927  1.00  0.00    -0.393 OA
ATOM     31  H   UNL     1     178.346 173.674 179.804  1.00  0.00     0.210 HD
ENDBRANCH  29  30
ENDBRANCH   1  11
TORSDOF 6
ENDMDL
MODEL 4
REMARK VINA RESULT:    -6.587      5.931      9.789
REMARK INTER + INTRA:         -10.038
REMARK INTER:                  -8.565
REMARK INTRA:                  -1.473
REMARK UNBOUND:                -1.333
REMARK SMILES CC[C@H](C=C[C@H](C)[C@H]1CC[C@@H]2[C@@H]3CC=C4C[C@@H](O)CC[C@]4(C)[C@H]3CC[C@]21C)C(C)C
REMARK SMILES IDX 6 1 7 2 5 3 4 4 3 5 2 6 1 7 28 8 29 9 30 10 8 11 9 12 26 13
REMARK SMILES IDX 10 14 11 15 25 16 27 17 12 18 24 19 23 20 13 21 21 22 14 23
REMARK SMILES IDX 15 24 20 25 22 26 16 27 19 28 17 29 18 30
REMARK H PARENT 18 31
REMARK Flexibility Score: inf
ROOT
ATOM      1  C   UNL     1     164.337 175.464 181.453  1.00  0.00     0.012 C 
ATOM      2  C   UNL     1     165.686 175.286 180.726  1.00  0.00     0.012 C 
ENDROOT
BRANCH   1   3
ATOM      3  C   UNL     1     164.122 176.956 181.627  1.00  0.00    -0.028 C 
ATOM      4  C   UNL     1     164.688 177.839 180.790  1.00  0.00    -0.027 C 
BRANCH   4   5
ATOM      5  C   UNL     1     164.457 179.332 180.930  1.00  0.00     0.014 C 
BRANCH   5   6
ATOM      6  C   UNL     1     165.781 180.084 180.602  1.00  0.00     0.004 C 
ATOM      7  C   UNL     1     166.903 179.133 180.177  1.00  0.00     0.004 C 
ENDBRANCH   5   6
BRANCH   5   8
ATOM      8  C   UNL     1     163.267 179.781 180.022  1.00  0.00    -0.011 C 
ATOM      9  C   UNL     1     163.447 179.287 178.573  1.00  0.00     0.008 C 
ATOM     10  C   UNL     1     161.912 179.277 180.546  1.00  0.00     0.008 C 
ENDBRANCH   5   8
ENDBRANCH   4   5
ENDBRANCH   1   3
BRANCH   1  11
ATOM     11  C   UNL     1     163.154 174.816 180.664  1.00  0.00     0.002 C 
ATOM     12  C   UNL     1     161.768 175.405 181.068  1.00  0.00     0.005 C 
ATOM     13  C   UNL     1     163.186 174.902 179.080  1.00  0.00    -0.026 C 
ATOM     14  C   UNL     1     161.007 175.731 179.785  1.00  0.00     0.005 C 
ATOM     15  C   UNL     1     162.125 175.976 178.797  1.00  0.00    -0.001 C 
ATOM     16  C   UNL     1     164.515 175.357 178.367  1.00  0.00     0.007 C 
ATOM     17  C   UNL     1     162.776 173.479 178.576  1.00  0.00     0.012 C 
ATOM     18  C   UNL     1     161.779 176.242 177.302  1.00  0.00     0.000 C 
ATOM     19  C   UNL     1     164.320 176.221 177.080  1.00  0.00     0.005 C 
ATOM     20  C   UNL     1     162.979 175.939 176.363  1.00  0.00     0.003 C 
ATOM     21  C   UNL     1     160.535 175.547 176.747  1.00  0.00     0.031 C 
ATOM     22  C   UNL     1     162.768 176.616 174.961  1.00  0.00    -0.008 C 
ATOM     23  C   UNL     1     160.333 175.920 175.296  1.00  0.00    -0.027 C 
ATOM     24  C   UNL     1     161.329 176.347 174.473  1.00  0.00    -0.065 C 
ATOM     25  C   UNL     1     163.759 175.981 173.932  1.00  0.00     0.014 C 
ATOM     26  C   UNL     1     163.019 178.147 175.028  1.00  0.00     0.016 C 
ATOM     27  C   UNL     1     161.000 176.640 173.022  1.00  0.00     0.063 C 
ATOM     28  C   UNL     1     163.444 176.337 172.469  1.00  0.00     0.033 C 
ATOM     29  C   UNL     1     162.007 175.948 172.094  1.00  0.00     0.118 C 
BRANCH  29  30
ATOM     30  O   UNL     1     161.767 176.323 170.762  1.00  0.00    -0.393 OA
ATOM     31  H   UNL     1     162.039 177.274 170.677  1.00  0.00     0.210 HD
ENDBRANCH  29  30
ENDBRANCH   1  11
TORSDOF 6
ENDMDL
MODEL 5
REMARK VINA RESULT:    -6.559      3.299      9.559
REMARK INTER + INTRA:         -10.001
REMARK INTER:                  -8.699
REMARK INTRA:                  -1.302
REMARK UNBOUND:                -1.333
REMARK SMILES CC[C@H](C=C[C@H](C)[C@H]1CC[C@@H]2[C@@H]3CC=C4C[C@@H](O)CC[C@]4(C)[C@H]3CC[C@]21C)C(C)C
REMARK SMILES IDX 6 1 7 2 5 3 4 4 3 5 2 6 1 7 28 8 29 9 30 10 8 11 9 12 26 13
REMARK SMILES IDX 10 14 11 15 25 16 27 17 12 18 24 19 23 20 13 21 21 22 14 23
REMARK SMILES IDX 15 24 20 25 22 26 16 27 19 28 17 29 18 30
REMARK H PARENT 18 31
REMARK Flexibility Score: inf
ROOT
ATOM      1  C   UNL     1     173.093 176.378 181.107  1.00  0.00     0.012 C 
ATOM      2  C   UNL     1     173.133 176.144 179.582  1.00  0.00     0.012 C 
ENDROOT
BRANCH   1   3
ATOM      3  C   UNL     1     174.502 176.739 181.537  1.00  0.00    -0.028 C 
ATOM      4  C   UNL     1     175.454 177.009 180.630  1.00  0.00    -0.027 C 
BRANCH   4   5
ATOM      5  C   UNL     1     176.860 177.403 181.044  1.00  0.00     0.014 C 
BRANCH   5   6
ATOM      6  C   UNL     1     177.867 176.356 180.482  1.00  0.00     0.004 C 
ATOM      7  C   UNL     1     177.251 175.482 179.387  1.00  0.00     0.004 C 
ENDBRANCH   5   6
BRANCH   5   8
ATOM      8  C   UNL     1     177.175 178.858 180.568  1.00  0.00    -0.011 C 
ATOM      9  C   UNL     1     176.180 179.324 179.486  1.00  0.00     0.008 C 
ATOM     10  C   UNL     1     177.146 179.869 181.727  1.00  0.00     0.008 C 
ENDBRANCH   5   8
ENDBRANCH   4   5
ENDBRANCH   1   3
BRANCH   1  11
ATOM     11  C   UNL     1     172.082 177.503 181.501  1.00  0.00     0.002 C 
ATOM     12  C   UNL     1     172.160 178.740 180.554  1.00  0.00     0.005 C 
ATOM     13  C   UNL     1     170.541 177.129 181.553  1.00  0.00    -0.026 C 
ATOM     14  C   UNL     1     170.735 179.112 180.153  1.00  0.00     0.005 C 
ATOM     15  C   UNL     1     170.007 177.793 180.274  1.00  0.00    -0.001 C 
ATOM     16  C   UNL     1     170.122 175.610 181.503  1.00  0.00     0.007 C 
ATOM     17  C   UNL     1     169.996 177.784 182.864  1.00  0.00     0.012 C 
ATOM     18  C   UNL     1     168.467 177.746 180.052  1.00  0.00     0.000 C 
ATOM     19  C   UNL     1     168.802 175.308 180.723  1.00  0.00     0.005 C 
ATOM     20  C   UNL     1     167.818 176.501 180.719  1.00  0.00     0.003 C 
ATOM     21  C   UNL     1     167.673 178.988 180.457  1.00  0.00     0.031 C 
ATOM     22  C   UNL     1     166.388 176.239 180.125  1.00  0.00    -0.008 C 
ATOM     23  C   UNL     1     166.203 178.786 180.163  1.00  0.00    -0.027 C 
ATOM     24  C   UNL     1     165.606 177.569 180.065  1.00  0.00    -0.065 C 
ATOM     25  C   UNL     1     165.614 175.260 181.067  1.00  0.00     0.014 C 
ATOM     26  C   UNL     1     166.469 175.617 178.705  1.00  0.00     0.016 C 
ATOM     27  C   UNL     1     164.111 177.507 179.817  1.00  0.00     0.063 C 
ATOM     28  C   UNL     1     164.110 175.168 180.763  1.00  0.00     0.033 C 
ATOM     29  C   UNL     1     163.441 176.548 180.810  1.00  0.00     0.118 C 
BRANCH  29  30
ATOM     30  O   UNL     1     162.080 176.407 180.496  1.00  0.00    -0.393 OA
ATOM     31  H   UNL     1     161.934 175.449 180.277  1.00  0.00     0.210 HD
ENDBRANCH  29  30
ENDBRANCH   1  11
TORSDOF 6
ENDMDL
MODEL 6
REMARK VINA RESULT:    -6.497      2.154      3.207
REMARK INTER + INTRA:          -9.920
REMARK INTER:                  -8.789
REMARK INTRA:                  -1.130
REMARK UNBOUND:                -1.333
REMARK SMILES CC[C@H](C=C[C@H](C)[C@H]1CC[C@@H]2[C@@H]3CC=C4C[C@@H](O)CC[C@]4(C)[C@H]3CC[C@]21C)C(C)C
REMARK SMILES IDX 6 1 7 2 5 3 4 4 3 5 2 6 1 7 28 8 29 9 30 10 8 11 9 12 26 13
REMARK SMILES IDX 10 14 11 15 25 16 27 17 12 18 24 19 23 20 13 21 21 22 14 23
REMARK SMILES IDX 15 24 20 25 22 26 16 27 19 28 17 29 18 30
REMARK H PARENT 18 31
REMARK Flexibility Score: inf
ROOT
ATOM      1  C   UNL     1     168.334 177.695 180.311  1.00  0.00     0.012 C 
ATOM      2  C   UNL     1     167.996 176.265 180.781  1.00  0.00     0.012 C 
ENDROOT
BRANCH   1   3
ATOM      3  C   UNL     1     167.182 178.585 180.737  1.00  0.00    -0.028 C 
ATOM      4  C   UNL     1     165.918 178.295 180.390  1.00  0.00    -0.027 C 
BRANCH   4   5
ATOM      5  C   UNL     1     164.751 179.157 180.836  1.00  0.00     0.014 C 
BRANCH   5   6
ATOM      6  C   UNL     1     164.049 179.750 179.579  1.00  0.00     0.004 C 
ATOM      7  C   UNL     1     164.390 178.979 178.301  1.00  0.00     0.004 C 
ENDBRANCH   5   6
BRANCH   5   8
ATOM      8  C   UNL     1     163.779 178.326 181.734  1.00  0.00    -0.011 C 
ATOM      9  C   UNL     1     162.305 178.668 181.434  1.00  0.00     0.008 C 
ATOM     10  C   UNL     1     163.975 176.811 181.560  1.00  0.00     0.008 C 
ENDBRANCH   5   8
ENDBRANCH   4   5
ENDBRANCH   1   3
BRANCH   1  11
ATOM     11  C   UNL     1     169.686 178.205 180.907  1.00  0.00     0.002 C 
ATOM     12  C   UNL     1     170.267 177.241 181.988  1.00  0.00     0.005 C 
ATOM     13  C   UNL     1     170.887 178.463 179.904  1.00  0.00    -0.026 C 
ATOM     14  C   UNL     1     171.745 177.026 181.674  1.00  0.00     0.005 C 
ATOM     15  C   UNL     1     171.799 177.257 180.181  1.00  0.00    -0.001 C 
ATOM     16  C   UNL     1     170.597 178.485 178.356  1.00  0.00     0.007 C 
ATOM     17  C   UNL     1     171.515 179.826 180.345  1.00  0.00     0.012 C 
ATOM     18  C   UNL     1     173.175 177.238 179.453  1.00  0.00     0.000 C 
ATOM     19  C   UNL     1     171.727 177.889 177.456  1.00  0.00     0.005 C 
ATOM     20  C   UNL     1     173.130 177.999 178.099  1.00  0.00     0.003 C 
ATOM     21  C   UNL     1     174.384 177.729 180.250  1.00  0.00     0.031 C 
ATOM     22  C   UNL     1     174.355 177.601 177.200  1.00  0.00    -0.008 C 
ATOM     23  C   UNL     1     175.638 177.632 179.410  1.00  0.00    -0.027 C 
ATOM     24  C   UNL     1     175.644 177.628 178.050  1.00  0.00    -0.065 C 
ATOM     25  C   UNL     1     174.507 178.648 176.049  1.00  0.00     0.014 C 
ATOM     26  C   UNL     1     174.168 176.190 176.581  1.00  0.00     0.016 C 
ATOM     27  C   UNL     1     176.977 177.579 177.327  1.00  0.00     0.063 C 
ATOM     28  C   UNL     1     175.841 178.544 175.291  1.00  0.00     0.033 C 
ATOM     29  C   UNL     1     177.039 178.662 176.242  1.00  0.00     0.118 C 
BRANCH  29  30
ATOM     30  O   UNL     1     178.225 178.530 175.502  1.00  0.00    -0.393 OA
ATOM     31  H   UNL     1     178.867 178.032 176.073  1.00  0.00     0.210 HD
ENDBRANCH  29  30
ENDBRANCH   1  11
TORSDOF 6
ENDMDL
MODEL 7
REMARK VINA RESULT:    -6.463      3.173      9.577
REMARK INTER + INTRA:          -9.875
REMARK INTER:                  -8.727
REMARK INTRA:                  -1.148
REMARK UNBOUND:                -1.333
REMARK SMILES CC[C@H](C=C[C@H](C)[C@H]1CC[C@@H]2[C@@H]3CC=C4C[C@@H](O)CC[C@]4(C)[C@H]3CC[C@]21C)C(C)C
REMARK SMILES IDX 6 1 7 2 5 3 4 4 3 5 2 6 1 7 28 8 29 9 30 10 8 11 9 12 26 13
REMARK SMILES IDX 10 14 11 15 25 16 27 17 12 18 24 19 23 20 13 21 21 22 14 23
REMARK SMILES IDX 15 24 20 25 22 26 16 27 19 28 17 29 18 30
REMARK H PARENT 18 31
REMARK Flexibility Score: inf
ROOT
ATOM      1  C   UNL     1     172.443 177.319 181.122  1.00  0.00     0.012 C 
ATOM      2  C   UNL     1     172.522 175.829 181.519  1.00  0.00     0.012 C 
ENDROOT
BRANCH   1   3
ATOM      3  C   UNL     1     173.860 177.861 181.158  1.00  0.00    -0.028 C 
ATOM      4  C   UNL     1     174.918 177.036 181.132  1.00  0.00    -0.027 C 
BRANCH   4   5
ATOM      5  C   UNL     1     176.341 177.563 181.135  1.00  0.00     0.014 C 
BRANCH   5   6
ATOM      6  C   UNL     1     177.194 176.728 180.135  1.00  0.00     0.004 C 
ATOM      7  C   UNL     1     178.521 176.268 180.741  1.00  0.00     0.004 C 
ENDBRANCH   5   6
BRANCH   5   8
ATOM      8  C   UNL     1     176.351 179.091 180.806  1.00  0.00    -0.011 C 
ATOM      9  C   UNL     1     177.206 179.879 181.818  1.00  0.00     0.008 C 
ATOM     10  C   UNL     1     176.879 179.378 179.391  1.00  0.00     0.008 C 
ENDBRANCH   5   8
ENDBRANCH   4   5
ENDBRANCH   1   3
BRANCH   1  11
ATOM     11  C   UNL     1     171.804 177.517 179.710  1.00  0.00     0.002 C 
ATOM     12  C   UNL     1     171.757 176.196 178.881  1.00  0.00     0.005 C 
ATOM     13  C   UNL     1     170.328 178.093 179.640  1.00  0.00    -0.026 C 
ATOM     14  C   UNL     1     170.355 176.064 178.293  1.00  0.00     0.005 C 
ATOM     15  C   UNL     1     169.513 176.841 179.279  1.00  0.00    -0.001 C 
ATOM     16  C   UNL     1     169.687 178.711 180.940  1.00  0.00     0.007 C 
ATOM     17  C   UNL     1     170.351 179.165 178.501  1.00  0.00     0.012 C 
ATOM     18  C   UNL     1     167.997 177.051 178.992  1.00  0.00     0.000 C 
ATOM     19  C   UNL     1     168.154 178.460 181.113  1.00  0.00     0.005 C 
ATOM     20  C   UNL     1     167.420 178.270 179.765  1.00  0.00     0.003 C 
ATOM     21  C   UNL     1     167.581 177.162 177.524  1.00  0.00     0.031 C 
ATOM     22  C   UNL     1     165.851 178.199 179.816  1.00  0.00    -0.008 C 
ATOM     23  C   UNL     1     166.084 177.346 177.419  1.00  0.00    -0.027 C 
ATOM     24  C   UNL     1     165.308 177.857 178.412  1.00  0.00    -0.065 C 
ATOM     25  C   UNL     1     165.289 179.598 180.229  1.00  0.00     0.014 C 
ATOM     26  C   UNL     1     165.365 177.135 180.836  1.00  0.00     0.016 C 
ATOM     27  C   UNL     1     163.824 178.039 178.157  1.00  0.00     0.063 C 
ATOM     28  C   UNL     1     163.773 179.743 180.018  1.00  0.00     0.033 C 
ATOM     29  C   UNL     1     163.378 179.449 178.564  1.00  0.00     0.118 C 
BRANCH  29  30
ATOM     30  O   UNL     1     161.984 179.566 178.437  1.00  0.00    -0.393 OA
ATOM     31  H   UNL     1     161.700 180.292 179.053  1.00  0.00     0.210 HD
ENDBRANCH  29  30
ENDBRANCH   1  11
TORSDOF 6
ENDMDL
MODEL 8
REMARK VINA RESULT:    -6.413      7.931     11.820
REMARK INTER + INTRA:          -9.808
REMARK INTER:                  -8.722
REMARK INTRA:                  -1.086
REMARK UNBOUND:                -1.333
REMARK SMILES CC[C@H](C=C[C@H](C)[C@H]1CC[C@@H]2[C@@H]3CC=C4C[C@@H](O)CC[C@]4(C)[C@H]3CC[C@]21C)C(C)C
REMARK SMILES IDX 6 1 7 2 5 3 4 4 3 5 2 6 1 7 28 8 29 9 30 10 8 11 9 12 26 13
REMARK SMILES IDX 10 14 11 15 25 16 27 17 12 18 24 19 23 20 13 21 21 22 14 23
REMARK SMILES IDX 15 24 20 25 22 26 16 27 19 28 17 29 18 30
REMARK H PARENT 18 31
REMARK Flexibility Score: inf
ROOT
ATOM      1  C   UNL     1     175.906 173.731 179.505  1.00  0.00     0.012 C 
ATOM      2  C   UNL     1     174.972 173.393 180.686  1.00  0.00     0.012 C 
ENDROOT
BRANCH   1   3
ATOM      3  C   UNL     1     175.927 175.243 179.377  1.00  0.00    -0.028 C 
ATOM      4  C   UNL     1     175.239 176.019 180.229  1.00  0.00    -0.027 C 
BRANCH   4   5
ATOM      5  C   UNL     1     175.276 177.533 180.134  1.00  0.00     0.014 C 
BRANCH   5   6
ATOM      6  C   UNL     1     174.192 178.128 181.081  1.00  0.00     0.004 C 
ATOM      7  C   UNL     1     173.394 179.255 180.421  1.00  0.00     0.004 C 
ENDBRANCH   5   6
BRANCH   5   8
ATOM      8  C   UNL     1     176.712 178.060 180.457  1.00  0.00    -0.011 C 
ATOM      9  C   UNL     1     177.174 179.105 179.422  1.00  0.00     0.008 C 
ATOM     10  C   UNL     1     176.802 178.686 181.858  1.00  0.00     0.008 C 
ENDBRANCH   5   8
ENDBRANCH   4   5
ENDBRANCH   1   3
BRANCH   1  11
ATOM     11  C   UNL     1     177.348 173.167 179.717  1.00  0.00     0.002 C 
ATOM     12  C   UNL     1     177.859 173.358 181.179  1.00  0.00     0.005 C 
ATOM     13  C   UNL     1     177.598 171.634 179.396  1.00  0.00    -0.026 C 
ATOM     14  C   UNL     1     178.450 172.029 181.643  1.00  0.00     0.005 C 
ATOM     15  C   UNL     1     177.695 171.025 180.804  1.00  0.00    -0.001 C 
ATOM     16  C   UNL     1     176.493 170.828 178.612  1.00  0.00     0.007 C 
ATOM     17  C   UNL     1     178.947 171.586 178.607  1.00  0.00     0.012 C 
ATOM     18  C   UNL     1     178.075 169.517 180.889  1.00  0.00     0.000 C 
ATOM     19  C   UNL     1     176.322 169.336 179.045  1.00  0.00     0.005 C 
ATOM     20  C   UNL     1     177.617 168.727 179.631  1.00  0.00     0.003 C 
ATOM     21  C   UNL     1     179.543 169.190 181.165  1.00  0.00     0.031 C 
ATOM     22  C   UNL     1     177.606 167.183 179.922  1.00  0.00    -0.008 C 
ATOM     23  C   UNL     1     179.740 167.691 181.232  1.00  0.00    -0.027 C 
ATOM     24  C   UNL     1     178.915 166.788 180.639  1.00  0.00    -0.065 C 
ATOM     25  C   UNL     1     177.539 166.408 178.566  1.00  0.00     0.014 C 
ATOM     26  C   UNL     1     176.390 166.781 180.798  1.00  0.00     0.016 C 
ATOM     27  C   UNL     1     179.256 165.313 180.740  1.00  0.00     0.063 C 
ATOM     28  C   UNL     1     177.830 164.904 178.698  1.00  0.00     0.033 C 
ATOM     29  C   UNL     1     179.193 164.652 179.357  1.00  0.00     0.118 C 
BRANCH  29  30
ATOM     30  O   UNL     1     179.391 163.267 179.479  1.00  0.00    -0.393 OA
ATOM     31  H   UNL     1     179.844 162.967 178.647  1.00  0.00     0.210 HD
ENDBRANCH  29  30
ENDBRANCH   1  11
TORSDOF 6
ENDMDL
MODEL 9
REMARK VINA RESULT:    -6.396      3.400      9.446
REMARK INTER + INTRA:          -9.785
REMARK INTER:                  -8.875
REMARK INTRA:                  -0.910
REMARK UNBOUND:                -1.333
REMARK SMILES CC[C@H](C=C[C@H](C)[C@H]1CC[C@@H]2[C@@H]3CC=C4C[C@@H](O)CC[C@]4(C)[C@H]3CC[C@]21C)C(C)C
REMARK SMILES IDX 6 1 7 2 5 3 4 4 3 5 2 6 1 7 28 8 29 9 30 10 8 11 9 12 26 13
REMARK SMILES IDX 10 14 11 15 25 16 27 17 12 18 24 19 23 20 13 21 21 22 14 23
REMARK SMILES IDX 15 24 20 25 22 26 16 27 19 28 17 29 18 30
REMARK H PARENT 18 31
REMARK Flexibility Score: inf
ROOT
ATOM      1  C   UNL     1     171.740 178.690 180.535  1.00  0.00     0.012 C 
ATOM      2  C   UNL     1     171.288 179.337 181.861  1.00  0.00     0.012 C 
ENDROOT
BRANCH   1   3
ATOM      3  C   UNL     1     173.240 178.487 180.631  1.00  0.00    -0.028 C 
ATOM      4  C   UNL     1     174.075 179.070 179.755  1.00  0.00    -0.027 C 
BRANCH   4   5
ATOM      5  C   UNL     1     175.579 178.903 179.857  1.00  0.00     0.014 C 
BRANCH   5   6
ATOM      6  C   UNL     1     176.268 179.909 178.887  1.00  0.00     0.004 C 
ATOM      7  C   UNL     1     176.533 179.302 177.507  1.00  0.00     0.004 C 
ENDBRANCH   5   6
BRANCH   5   8
ATOM      8  C   UNL     1     176.044 179.079 181.338  1.00  0.00    -0.011 C 
ATOM      9  C   UNL     1     176.539 177.747 181.935  1.00  0.00     0.008 C 
ATOM     10  C   UNL     1     177.164 180.124 181.477  1.00  0.00     0.008 C 
ENDBRANCH   5   8
ENDBRANCH   4   5
ENDBRANCH   1   3
BRANCH   1  11
ATOM     11  C   UNL     1     171.007 177.337 180.263  1.00  0.00     0.002 C 
ATOM     12  C   UNL     1     170.962 176.415 181.521  1.00  0.00     0.005 C 
ATOM     13  C   UNL     1     169.508 177.396 179.749  1.00  0.00    -0.026 C 
ATOM     14  C   UNL     1     169.533 175.901 181.672  1.00  0.00     0.005 C 
ATOM     15  C   UNL     1     168.723 176.990 181.007  1.00  0.00    -0.001 C 
ATOM     16  C   UNL     1     168.924 178.774 179.257  1.00  0.00     0.007 C 
ATOM     17  C   UNL     1     169.419 176.342 178.597  1.00  0.00     0.012 C 
ATOM     18  C   UNL     1     167.185 176.808 180.843  1.00  0.00     0.000 C 
ATOM     19  C   UNL     1     167.416 179.016 179.587  1.00  0.00     0.005 C 
ATOM     20  C   UNL     1     166.609 177.703 179.711  1.00  0.00     0.003 C 
ATOM     21  C   UNL     1     166.676 175.380 180.645  1.00  0.00     0.031 C 
ATOM     22  C   UNL     1     165.050 177.840 179.855  1.00  0.00    -0.008 C 
ATOM     23  C   UNL     1     165.169 175.376 180.519  1.00  0.00    -0.027 C 
ATOM     24  C   UNL     1     164.436 176.448 180.117  1.00  0.00    -0.065 C 
ATOM     25  C   UNL     1     164.459 178.390 178.516  1.00  0.00     0.014 C 
ATOM     26  C   UNL     1     164.670 178.804 181.010  1.00  0.00     0.016 C 
ATOM     27  C   UNL     1     162.932 176.295 179.983  1.00  0.00     0.063 C 
ATOM     28  C   UNL     1     162.928 178.278 178.423  1.00  0.00     0.033 C 
ATOM     29  C   UNL     1     162.457 176.832 178.627  1.00  0.00     0.118 C 
BRANCH  29  30
ATOM     30  O   UNL     1     161.055 176.796 178.563  1.00  0.00    -0.393 OA
ATOM     31  H   UNL     1     160.724 177.593 179.056  1.00  0.00     0.210 HD
ENDBRANCH  29  30
ENDBRANCH   1  11
TORSDOF 6
ENDMDL
