MODEL 1
REMARK VINA RESULT:    11.200      0.000      0.000
REMARK INTER + INTRA:          13.081
REMARK INTER:                  12.182
REMARK INTRA:                   0.898
REMARK UNBOUND:                 0.898
REMARK SMILES C[C@@H]1[C@H]2C3=CC[C@H]4[C@@]5(C)CC[C@@H](O)C(C)(C)[C@H]5CC[C@]4(C)[C@@]3(C)CC[C@@]2(C(=O)[O-])CC[C@@H]1C
REMARK SMILES IDX 26 1 30 2 25 3 3 4 31 5 24 6 4 7 2 8 32 9 22 10 5 11 1 12
REMARK SMILES IDX 33 13 23 14 20 15 6 16 7 17 19 18 21 19 8 20 18 21 17 22
REMARK SMILES IDX 10 23 9 24 14 25 11 26 12 27 15 28 16 29 27 30 28 31 29 32
REMARK SMILES IDX 13 33
REMARK H PARENT 13 34
REMARK Flexibility Score: inf
ROOT
ATOM      1  C   UNL     1       0.267  69.155 165.044  1.00  0.00     0.017 C 
ATOM      2  C   UNL     1      -0.103  70.613 165.448  1.00  0.00     0.014 C 
ATOM      3  C   UNL     1      -0.688  68.738 163.873  1.00  0.00     0.014 C 
ATOM      4  C   UNL     1       0.119  68.198 166.291  1.00  0.00     0.030 C 
ATOM      5  C   UNL     1       0.692  71.125 166.650  1.00  0.00     0.004 C 
ATOM      6  C   UNL     1      -1.089  67.249 163.875  1.00  0.00     0.013 C 
ATOM      7  C   UNL     1      -1.312  67.635 166.386  1.00  0.00    -0.063 C 
ATOM      8  C   UNL     1       0.758  68.755 167.619  1.00  0.00    -0.003 C 
ATOM      9  C   UNL     1       0.405  70.255 167.878  1.00  0.00    -0.011 C 
ATOM     10  C   UNL     1      -1.762  66.729 165.212  1.00  0.00    -0.006 C 
ATOM     11  C   UNL     1      -2.145  67.925 167.429  1.00  0.00    -0.027 C 
ATOM     12  C   UNL     1       2.283  68.497 167.660  1.00  0.00     0.008 C 
ATOM     13  C   UNL     1       1.092  70.832 169.125  1.00  0.00     0.008 C 
ATOM     14  C   UNL     1      -1.154  65.311 165.458  1.00  0.00     0.017 C 
ATOM     15  C   UNL     1      -3.374  66.696 165.126  1.00  0.00    -0.020 C 
ATOM     16  C   UNL     1      -3.599  67.512 167.529  1.00  0.00     0.032 C 
ATOM     17  C   UNL     1      -3.937  66.363 166.563  1.00  0.00     0.006 C 
ATOM     18  C   UNL     1      -3.933  65.635 164.115  1.00  0.00     0.008 C 
ATOM     19  C   UNL     1      -3.836  68.120 164.647  1.00  0.00     0.012 C 
ATOM     20  C   UNL     1      -5.397  65.719 166.648  1.00  0.00    -0.025 C 
ATOM     21  C   UNL     1      -4.288  64.279 164.753  1.00  0.00     0.005 C 
ATOM     22  C   UNL     1      -5.409  64.330 165.857  1.00  0.00     0.003 C 
ATOM     23  C   UNL     1      -6.491  66.671 166.096  1.00  0.00     0.010 C 
ATOM     24  C   UNL     1      -5.691  65.464 168.159  1.00  0.00     0.012 C 
ATOM     25  C   UNL     1      -6.853  63.744 165.435  1.00  0.00    -0.006 C 
ATOM     26  C   UNL     1      -7.875  66.034 166.010  1.00  0.00     0.033 C 
ATOM     27  C   UNL     1      -7.858  64.862 165.015  1.00  0.00     0.120 C 
ATOM     28  C   UNL     1      -6.764  62.713 164.270  1.00  0.00     0.014 C 
ATOM     29  C   UNL     1      -7.482  62.929 166.610  1.00  0.00     0.014 C 
ENDROOT
BRANCH   1  30
ATOM     30  C   UNL     1       1.693  69.091 164.498  1.00  0.00     0.048 C 
ATOM     31  O   UNL     1       2.649  69.628 165.120  1.00  0.00    -0.550 OA
ATOM     32  O   UNL     1       1.942  68.539 163.247  1.00  0.00    -0.550 OA
ENDBRANCH   1  30
BRANCH  27  33
ATOM     33  O   UNL     1      -7.552  65.340 163.727  1.00  0.00    -0.393 OA
ATOM     34  H   UNL     1      -8.113  66.146 163.575  1.00  0.00     0.210 HD
ENDBRANCH  27  33
TORSDOF 2
ENDMDL
MODEL 2
REMARK VINA RESULT:    13.411      4.324      6.486
REMARK INTER + INTRA:          15.485
REMARK INTER:                  15.400
REMARK INTRA:                   0.085
REMARK UNBOUND:                 0.898
REMARK SMILES C[C@@H]1[C@H]2C3=CC[C@H]4[C@@]5(C)CC[C@@H](O)C(C)(C)[C@H]5CC[C@]4(C)[C@@]3(C)CC[C@@]2(C(=O)[O-])CC[C@@H]1C
REMARK SMILES IDX 26 1 30 2 25 3 3 4 31 5 24 6 4 7 2 8 32 9 22 10 5 11 1 12
REMARK SMILES IDX 33 13 23 14 20 15 6 16 7 17 19 18 21 19 8 20 18 21 17 22
REMARK SMILES IDX 10 23 9 24 14 25 11 26 12 27 15 28 16 29 27 30 28 31 29 32
REMARK SMILES IDX 13 33
REMARK H PARENT 13 34
REMARK Flexibility Score: inf
ROOT
ATOM      1  C   UNL     1       0.757  68.505 166.747  1.00  0.00     0.017 C 
ATOM      2  C   UNL     1       1.890  67.449 166.580  1.00  0.00     0.014 C 
ATOM      3  C   UNL     1      -0.567  67.859 166.211  1.00  0.00     0.014 C 
ATOM      4  C   UNL     1       1.128  69.821 165.959  1.00  0.00     0.030 C 
ATOM      5  C   UNL     1       3.268  67.978 166.980  1.00  0.00     0.004 C 
ATOM      6  C   UNL     1      -1.529  68.849 165.526  1.00  0.00     0.013 C 
ATOM      7  C   UNL     1       0.626  69.752 164.504  1.00  0.00    -0.063 C 
ATOM      8  C   UNL     1       2.607  70.319 166.181  1.00  0.00    -0.003 C 
ATOM      9  C   UNL     1       3.654  69.164 166.091  1.00  0.00    -0.011 C 
ATOM     10  C   UNL     1      -0.912  69.674 164.322  1.00  0.00    -0.006 C 
ATOM     11  C   UNL     1       1.476  69.743 163.435  1.00  0.00    -0.027 C 
ATOM     12  C   UNL     1       2.735  71.125 167.496  1.00  0.00     0.008 C 
ATOM     13  C   UNL     1       5.089  69.624 166.391  1.00  0.00     0.008 C 
ATOM     14  C   UNL     1      -1.474  71.123 164.481  1.00  0.00     0.017 C 
ATOM     15  C   UNL     1      -1.266  69.035 162.883  1.00  0.00    -0.020 C 
ATOM     16  C   UNL     1       1.063  69.552 161.990  1.00  0.00     0.032 C 
ATOM     17  C   UNL     1      -0.439  69.809 161.784  1.00  0.00     0.006 C 
ATOM     18  C   UNL     1      -2.788  69.117 162.510  1.00  0.00     0.008 C 
ATOM     19  C   UNL     1      -0.858  67.518 162.942  1.00  0.00     0.012 C 
ATOM     20  C   UNL     1      -1.004  69.786 160.288  1.00  0.00    -0.025 C 
ATOM     21  C   UNL     1      -3.166  70.348 161.667  1.00  0.00     0.005 C 
ATOM     22  C   UNL     1      -2.461  70.443 160.263  1.00  0.00     0.003 C 
ATOM     23  C   UNL     1      -1.042  68.351 159.698  1.00  0.00     0.010 C 
ATOM     24  C   UNL     1      -0.027  70.643 159.424  1.00  0.00     0.012 C 
ATOM     25  C   UNL     1      -3.383  70.122 158.977  1.00  0.00    -0.006 C 
ATOM     26  C   UNL     1      -1.723  68.264 158.335  1.00  0.00     0.033 C 
ATOM     27  C   UNL     1      -3.203  68.662 158.456  1.00  0.00     0.120 C 
ATOM     28  C   UNL     1      -4.899  70.351 159.255  1.00  0.00     0.014 C 
ATOM     29  C   UNL     1      -3.061  71.107 157.808  1.00  0.00     0.014 C 
ENDROOT
BRANCH   1  30
ATOM     30  C   UNL     1       0.529  68.823 168.224  1.00  0.00     0.048 C 
ATOM     31  O   UNL     1       1.198  68.245 169.122  1.00  0.00    -0.550 OA
ATOM     32  O   UNL     1      -0.502  69.672 168.610  1.00  0.00    -0.550 OA
ENDBRANCH   1  30
BRANCH  27  33
ATOM     33  O   UNL     1      -3.868  67.753 159.300  1.00  0.00    -0.393 OA
ATOM     34  H   UNL     1      -3.412  67.786 160.182  1.00  0.00     0.210 HD
ENDBRANCH  27  33
TORSDOF 2
ENDMDL
