MODEL 1
REMARK VINA RESULT:    -7.406      0.000      0.000
REMARK INTER + INTRA:         -22.201
REMARK INTER:                 -19.528
REMARK INTRA:                  -2.673
REMARK UNBOUND:                -2.673
REMARK SMILES CCCCCCCCCCCCCCCCCCCCCCCCCCCCCC(=O)[O-]
REMARK SMILES IDX 16 1 17 2 18 3 19 4 20 5 21 6 22 7 23 8 24 9 25 10 26 11
REMARK SMILES IDX 27 12 28 13 29 14 30 15 31 16 32 17 15 18 14 19 13 20 12 21
REMARK SMILES IDX 11 22 10 23 9 24 8 25 7 26 6 27 5 28 4 29 3 30 2 31 1 32
REMARK H PARENT
REMARK Flexibility Score: inf
ROOT
ATOM      1  C   UNL     1      -3.248  -1.216   6.535  1.00  0.00     0.000 C 
ENDROOT
BRANCH   1   2
ATOM      2  C   UNL     1      -3.446  -2.593   5.887  1.00  0.00     0.000 C 
BRANCH   2   3
ATOM      3  C   UNL     1      -4.541  -2.542   4.814  1.00  0.00     0.000 C 
BRANCH   3   4
ATOM      4  C   UNL     1      -5.665  -1.567   5.203  1.00  0.00     0.000 C 
BRANCH   4   5
ATOM      5  C   UNL     1      -6.711  -1.461   4.081  1.00  0.00     0.000 C 
BRANCH   5   6
ATOM      6  C   UNL     1      -6.531  -0.207   3.199  1.00  0.00     0.000 C 
BRANCH   6   7
ATOM      7  C   UNL     1      -5.205   0.562   3.417  1.00  0.00     0.000 C 
BRANCH   7   8
ATOM      8  C   UNL     1      -4.223   0.505   2.232  1.00  0.00     0.000 C 
BRANCH   8   9
ATOM      9  C   UNL     1      -4.941   0.490   0.870  1.00  0.00     0.000 C 
BRANCH   9  10
ATOM     10  C   UNL     1      -4.040  -0.051  -0.253  1.00  0.00     0.000 C 
BRANCH  10  11
ATOM     11  C   UNL     1      -4.702   0.065  -1.650  1.00  0.00     0.000 C 
BRANCH  11  12
ATOM     12  C   UNL     1      -3.692   0.306  -2.789  1.00  0.00     0.000 C 
BRANCH  12  13
ATOM     13  C   UNL     1      -3.506  -0.888  -3.746  1.00  0.00     0.006 C 
BRANCH  13  14
ATOM     14  C   UNL     1      -4.754  -1.786  -3.831  1.00  0.00     0.053 C 
BRANCH  14  15
ATOM     15  C   UNL     1      -4.408  -3.202  -3.482  1.00  0.00     0.041 C 
ATOM     16  O   UNL     1      -5.190  -4.142  -3.789  1.00  0.00    -0.550 OA
ATOM     17  O   UNL     1      -3.231  -3.482  -2.794  1.00  0.00    -0.550 OA
ENDBRANCH  14  15
ENDBRANCH  13  14
ENDBRANCH  12  13
ENDBRANCH  11  12
ENDBRANCH  10  11
ENDBRANCH   9  10
ENDBRANCH   8   9
ENDBRANCH   7   8
ENDBRANCH   6   7
ENDBRANCH   5   6
ENDBRANCH   4   5
ENDBRANCH   3   4
ENDBRANCH   2   3
ENDBRANCH   1   2
BRANCH   1  18
ATOM     18  C   UNL     1      -2.453  -1.282   7.851  1.00  0.00     0.000 C 
BRANCH  18  19
ATOM     19  C   UNL     1      -1.368  -0.201   8.013  1.00  0.00     0.000 C 
BRANCH  19  20
ATOM     20  C   UNL     1      -1.517   0.606   9.314  1.00  0.00     0.000 C 
BRANCH  20  21
ATOM     21  C   UNL     1      -1.675   2.113   9.062  1.00  0.00     0.000 C 
BRANCH  21  22
ATOM     22  C   UNL     1      -3.132   2.535   8.829  1.00  0.00     0.000 C 
BRANCH  22  23
ATOM     23  C   UNL     1      -3.250   3.413   7.574  1.00  0.00     0.000 C 
BRANCH  23  24
ATOM     24  C   UNL     1      -2.977   2.637   6.277  1.00  0.00    -0.000 C 
BRANCH  24  25
ATOM     25  C   UNL     1      -3.106   3.518   5.022  1.00  0.00    -0.000 C 
BRANCH  25  26
ATOM     26  C   UNL     1      -4.388   4.371   5.041  1.00  0.00    -0.000 C 
BRANCH  26  27
ATOM     27  C   UNL     1      -4.130   5.814   4.573  1.00  0.00    -0.000 C 
BRANCH  27  28
ATOM     28  C   UNL     1      -5.390   6.492   4.006  1.00  0.00    -0.000 C 
BRANCH  28  29
ATOM     29  C   UNL     1      -5.447   6.581   2.470  1.00  0.00    -0.000 C 
BRANCH  29  30
ATOM     30  C   UNL     1      -6.873   6.431   1.920  1.00  0.00    -0.000 C 
BRANCH  30  31
ATOM     31  C   UNL     1      -7.752   5.625   2.881  1.00  0.00    -0.003 C 
ATOM     32  C   UNL     1      -9.226   5.748   2.506  1.00  0.00     0.004 C 
ENDBRANCH  30  31
ENDBRANCH  29  30
ENDBRANCH  28  29
ENDBRANCH  27  28
ENDBRANCH  26  27
ENDBRANCH  25  26
ENDBRANCH  24  25
ENDBRANCH  23  24
ENDBRANCH  22  23
ENDBRANCH  21  22
ENDBRANCH  20  21
ENDBRANCH  19  20
ENDBRANCH  18  19
ENDBRANCH   1  18
TORSDOF 28
ENDMDL
MODEL 2
REMARK VINA RESULT:    -7.356      1.251      1.910
REMARK INTER + INTRA:         -22.070
REMARK INTER:                 -20.194
REMARK INTRA:                  -1.876
REMARK UNBOUND:                -2.673
REMARK SMILES CCCCCCCCCCCCCCCCCCCCCCCCCCCCCC(=O)[O-]
REMARK SMILES IDX 16 1 17 2 18 3 19 4 20 5 21 6 22 7 23 8 24 9 25 10 26 11
REMARK SMILES IDX 27 12 28 13 29 14 30 15 31 16 32 17 15 18 14 19 13 20 12 21
REMARK SMILES IDX 11 22 10 23 9 24 8 25 7 26 6 27 5 28 4 29 3 30 2 31 1 32
REMARK H PARENT
REMARK Flexibility Score: inf
ROOT
ATOM      1  C   UNL     1      -3.040  -0.882   6.981  1.00  0.00     0.000 C 
ENDROOT
BRANCH   1   2
ATOM      2  C   UNL     1      -2.934  -2.224   6.243  1.00  0.00     0.000 C 
BRANCH   2   3
ATOM      3  C   UNL     1      -4.188  -2.488   5.400  1.00  0.00     0.000 C 
BRANCH   3   4
ATOM      4  C   UNL     1      -4.974  -1.192   5.140  1.00  0.00     0.000 C 
BRANCH   4   5
ATOM      5  C   UNL     1      -6.246  -1.477   4.324  1.00  0.00     0.000 C 
BRANCH   5   6
ATOM      6  C   UNL     1      -6.521  -0.418   3.237  1.00  0.00     0.000 C 
BRANCH   6   7
ATOM      7  C   UNL     1      -5.388   0.617   3.030  1.00  0.00     0.000 C 
BRANCH   7   8
ATOM      8  C   UNL     1      -4.389   0.268   1.912  1.00  0.00     0.000 C 
BRANCH   8   9
ATOM      9  C   UNL     1      -5.019   0.354   0.509  1.00  0.00     0.000 C 
BRANCH   9  10
ATOM     10  C   UNL     1      -4.066  -0.157  -0.585  1.00  0.00     0.000 C 
BRANCH  10  11
ATOM     11  C   UNL     1      -4.600   0.126  -2.013  1.00  0.00     0.000 C 
BRANCH  11  12
ATOM     12  C   UNL     1      -3.484   0.390  -3.043  1.00  0.00     0.000 C 
BRANCH  12  13
ATOM     13  C   UNL     1      -3.134  -0.817  -3.934  1.00  0.00     0.006 C 
BRANCH  13  14
ATOM     14  C   UNL     1      -1.664  -0.816  -4.392  1.00  0.00     0.053 C 
BRANCH  14  15
ATOM     15  C   UNL     1      -1.188  -2.215  -4.640  1.00  0.00     0.041 C 
ATOM     16  O   UNL     1      -0.482  -2.478  -5.651  1.00  0.00    -0.550 OA
ATOM     17  O   UNL     1      -1.545  -3.237  -3.765  1.00  0.00    -0.550 OA
ENDBRANCH  14  15
ENDBRANCH  13  14
ENDBRANCH  12  13
ENDBRANCH  11  12
ENDBRANCH  10  11
ENDBRANCH   9  10
ENDBRANCH   8   9
ENDBRANCH   7   8
ENDBRANCH   6   7
ENDBRANCH   5   6
ENDBRANCH   4   5
ENDBRANCH   3   4
ENDBRANCH   2   3
ENDBRANCH   1   2
BRANCH   1  18
ATOM     18  C   UNL     1      -1.966  -0.710   8.069  1.00  0.00     0.000 C 
BRANCH  18  19
ATOM     19  C   UNL     1      -1.498   0.740   8.298  1.00  0.00     0.000 C 
BRANCH  19  20
ATOM     20  C   UNL     1      -2.377   1.499   9.306  1.00  0.00     0.000 C 
BRANCH  20  21
ATOM     21  C   UNL     1      -2.875   2.846   8.762  1.00  0.00     0.000 C 
BRANCH  21  22
ATOM     22  C   UNL     1      -2.901   2.903   7.228  1.00  0.00     0.000 C 
BRANCH  22  23
ATOM     23  C   UNL     1      -4.073   3.766   6.736  1.00  0.00     0.000 C 
BRANCH  23  24
ATOM     24  C   UNL     1      -3.853   4.317   5.319  1.00  0.00    -0.000 C 
BRANCH  24  25
ATOM     25  C   UNL     1      -5.138   4.895   4.702  1.00  0.00    -0.000 C 
BRANCH  25  26
ATOM     26  C   UNL     1      -5.018   6.404   4.420  1.00  0.00    -0.000 C 
BRANCH  26  27
ATOM     27  C   UNL     1      -5.570   6.780   3.033  1.00  0.00    -0.000 C 
BRANCH  27  28
ATOM     28  C   UNL     1      -6.416   5.660   2.404  1.00  0.00    -0.000 C 
BRANCH  28  29
ATOM     29  C   UNL     1      -7.815   6.090   1.926  1.00  0.00    -0.000 C 
BRANCH  29  30
ATOM     30  C   UNL     1      -8.929   5.667   2.894  1.00  0.00    -0.000 C 
BRANCH  30  31
ATOM     31  C   UNL     1     -10.297   5.699   2.207  1.00  0.00    -0.003 C 
ATOM     32  C   UNL     1     -10.154   5.999   0.718  1.00  0.00     0.004 C 
ENDBRANCH  30  31
ENDBRANCH  29  30
ENDBRANCH  28  29
ENDBRANCH  27  28
ENDBRANCH  26  27
ENDBRANCH  25  26
ENDBRANCH  24  25
ENDBRANCH  23  24
ENDBRANCH  22  23
ENDBRANCH  21  22
ENDBRANCH  20  21
ENDBRANCH  19  20
ENDBRANCH  18  19
ENDBRANCH   1  18
TORSDOF 28
ENDMDL
MODEL 3
REMARK VINA RESULT:    -7.143      1.529      2.123
REMARK INTER + INTRA:         -21.509
REMARK INTER:                 -19.179
REMARK INTRA:                  -2.330
REMARK UNBOUND:                -2.673
REMARK SMILES CCCCCCCCCCCCCCCCCCCCCCCCCCCCCC(=O)[O-]
REMARK SMILES IDX 16 1 17 2 18 3 19 4 20 5 21 6 22 7 23 8 24 9 25 10 26 11
REMARK SMILES IDX 27 12 28 13 29 14 30 15 31 16 32 17 15 18 14 19 13 20 12 21
REMARK SMILES IDX 11 22 10 23 9 24 8 25 7 26 6 27 5 28 4 29 3 30 2 31 1 32
REMARK H PARENT
REMARK Flexibility Score: inf
ROOT
ATOM      1  C   UNL     1      -3.698  -1.226   5.800  1.00  0.00     0.000 C 
ENDROOT
BRANCH   1   2
ATOM      2  C   UNL     1      -4.747  -2.195   5.236  1.00  0.00     0.000 C 
BRANCH   2   3
ATOM      3  C   UNL     1      -6.108  -1.503   5.086  1.00  0.00     0.000 C 
BRANCH   3   4
ATOM      4  C   UNL     1      -6.536  -1.418   3.612  1.00  0.00     0.000 C 
BRANCH   4   5
ATOM      5  C   UNL     1      -6.518   0.038   3.119  1.00  0.00     0.000 C 
BRANCH   5   6
ATOM      6  C   UNL     1      -5.103   0.654   3.095  1.00  0.00     0.000 C 
BRANCH   6   7
ATOM      7  C   UNL     1      -4.298   0.395   1.798  1.00  0.00     0.000 C 
BRANCH   7   8
ATOM      8  C   UNL     1      -5.148   0.304   0.517  1.00  0.00     0.000 C 
BRANCH   8   9
ATOM      9  C   UNL     1      -4.292   0.116  -0.748  1.00  0.00     0.000 C 
BRANCH   9  10
ATOM     10  C   UNL     1      -5.146  -0.234  -1.979  1.00  0.00     0.000 C 
BRANCH  10  11
ATOM     11  C   UNL     1      -4.567  -1.428  -2.780  1.00  0.00     0.000 C 
BRANCH  11  12
ATOM     12  C   UNL     1      -3.434  -1.027  -3.745  1.00  0.00     0.000 C 
BRANCH  12  13
ATOM     13  C   UNL     1      -2.178  -1.918  -3.666  1.00  0.00     0.006 C 
BRANCH  13  14
ATOM     14  C   UNL     1      -1.202  -1.680  -4.833  1.00  0.00     0.053 C 
BRANCH  14  15
ATOM     15  C   UNL     1      -0.514  -2.956  -5.213  1.00  0.00     0.041 C 
ATOM     16  O   UNL     1       0.211  -3.006  -6.243  1.00  0.00    -0.550 OA
ATOM     17  O   UNL     1      -0.695  -4.100  -4.442  1.00  0.00    -0.550 OA
ENDBRANCH  14  15
ENDBRANCH  13  14
ENDBRANCH  12  13
ENDBRANCH  11  12
ENDBRANCH  10  11
ENDBRANCH   9  10
ENDBRANCH   8   9
ENDBRANCH   7   8
ENDBRANCH   6   7
ENDBRANCH   5   6
ENDBRANCH   4   5
ENDBRANCH   3   4
ENDBRANCH   2   3
ENDBRANCH   1   2
BRANCH   1  18
ATOM     18  C   UNL     1      -2.671  -1.920   6.712  1.00  0.00     0.000 C 
BRANCH  18  19
ATOM     19  C   UNL     1      -2.028  -1.011   7.778  1.00  0.00     0.000 C 
BRANCH  19  20
ATOM     20  C   UNL     1      -2.825   0.281   8.021  1.00  0.00     0.000 C 
BRANCH  20  21
ATOM     21  C   UNL     1      -1.923   1.516   8.164  1.00  0.00     0.000 C 
BRANCH  21  22
ATOM     22  C   UNL     1      -2.503   2.767   7.489  1.00  0.00     0.000 C 
BRANCH  22  23
ATOM     23  C   UNL     1      -3.247   2.393   6.199  1.00  0.00     0.000 C 
BRANCH  23  24
ATOM     24  C   UNL     1      -2.950   3.355   5.039  1.00  0.00    -0.000 C 
BRANCH  24  25
ATOM     25  C   UNL     1      -4.201   4.109   4.558  1.00  0.00    -0.000 C 
BRANCH  25  26
ATOM     26  C   UNL     1      -4.061   5.634   4.728  1.00  0.00    -0.000 C 
BRANCH  26  27
ATOM     27  C   UNL     1      -5.416   6.356   4.615  1.00  0.00    -0.000 C 
BRANCH  27  28
ATOM     28  C   UNL     1      -6.349   5.714   3.575  1.00  0.00    -0.000 C 
BRANCH  28  29
ATOM     29  C   UNL     1      -6.155   6.208   2.130  1.00  0.00    -0.000 C 
BRANCH  29  30
ATOM     30  C   UNL     1      -7.481   6.354   1.370  1.00  0.00    -0.000 C 
BRANCH  30  31
ATOM     31  C   UNL     1      -8.661   5.881   2.224  1.00  0.00    -0.003 C 
ATOM     32  C   UNL     1      -9.944   5.824   1.401  1.00  0.00     0.004 C 
ENDBRANCH  30  31
ENDBRANCH  29  30
ENDBRANCH  28  29
ENDBRANCH  27  28
ENDBRANCH  26  27
ENDBRANCH  25  26
ENDBRANCH  24  25
ENDBRANCH  23  24
ENDBRANCH  22  23
ENDBRANCH  21  22
ENDBRANCH  20  21
ENDBRANCH  19  20
ENDBRANCH  18  19
ENDBRANCH   1  18
TORSDOF 28
ENDMDL
MODEL 4
REMARK VINA RESULT:    -7.109      5.084      8.045
REMARK INTER + INTRA:         -21.420
REMARK INTER:                 -19.923
REMARK INTRA:                  -1.497
REMARK UNBOUND:                -2.673
REMARK SMILES CCCCCCCCCCCCCCCCCCCCCCCCCCCCCC(=O)[O-]
REMARK SMILES IDX 16 1 17 2 18 3 19 4 20 5 21 6 22 7 23 8 24 9 25 10 26 11
REMARK SMILES IDX 27 12 28 13 29 14 30 15 31 16 32 17 15 18 14 19 13 20 12 21
REMARK SMILES IDX 11 22 10 23 9 24 8 25 7 26 6 27 5 28 4 29 3 30 2 31 1 32
REMARK H PARENT
REMARK Flexibility Score: inf
ROOT
ATOM      1  C   UNL     1      -4.279   0.217  -1.534  1.00  0.00     0.000 C 
ENDROOT
BRANCH   1   2
ATOM      2  C   UNL     1      -4.896  -0.679  -2.616  1.00  0.00     0.000 C 
BRANCH   2   3
ATOM      3  C   UNL     1      -3.976  -1.864  -2.938  1.00  0.00     0.000 C 
BRANCH   3   4
ATOM      4  C   UNL     1      -2.605  -1.390  -3.447  1.00  0.00     0.000 C 
BRANCH   4   5
ATOM      5  C   UNL     1      -1.721  -2.586  -3.835  1.00  0.00     0.000 C 
BRANCH   5   6
ATOM      6  C   UNL     1      -1.001  -2.397  -5.187  1.00  0.00     0.000 C 
BRANCH   6   7
ATOM      7  C   UNL     1      -0.065  -3.560  -5.598  1.00  0.00     0.000 C 
BRANCH   7   8
ATOM      8  C   UNL     1      -0.218  -4.028  -7.057  1.00  0.00     0.000 C 
BRANCH   8   9
ATOM      9  C   UNL     1       0.883  -3.469  -7.976  1.00  0.00     0.000 C 
BRANCH   9  10
ATOM     10  C   UNL     1       2.273  -4.024  -7.620  1.00  0.00     0.000 C 
BRANCH  10  11
ATOM     11  C   UNL     1       3.420  -3.193  -8.249  1.00  0.00     0.000 C 
BRANCH  11  12
ATOM     12  C   UNL     1       4.812  -3.829  -8.061  1.00  0.00     0.000 C 
BRANCH  12  13
ATOM     13  C   UNL     1       5.712  -3.112  -7.035  1.00  0.00     0.006 C 
BRANCH  13  14
ATOM     14  C   UNL     1       4.937  -2.119  -6.150  1.00  0.00     0.053 C 
BRANCH  14  15
ATOM     15  C   UNL     1       5.794  -1.642  -5.017  1.00  0.00     0.041 C 
ATOM     16  O   UNL     1       6.971  -2.073  -4.885  1.00  0.00    -0.550 OA
ATOM     17  O   UNL     1       5.284  -0.737  -4.091  1.00  0.00    -0.550 OA
ENDBRANCH  14  15
ENDBRANCH  13  14
ENDBRANCH  12  13
ENDBRANCH  11  12
ENDBRANCH  10  11
ENDBRANCH   9  10
ENDBRANCH   8   9
ENDBRANCH   7   8
ENDBRANCH   6   7
ENDBRANCH   5   6
ENDBRANCH   4   5
ENDBRANCH   3   4
ENDBRANCH   2   3
ENDBRANCH   1   2
BRANCH   1  18
ATOM     18  C   UNL     1      -5.094   0.227  -0.228  1.00  0.00     0.000 C 
BRANCH  18  19
ATOM     19  C   UNL     1      -4.266   0.431   1.055  1.00  0.00     0.000 C 
BRANCH  19  20
ATOM     20  C   UNL     1      -5.123   0.394   2.331  1.00  0.00     0.000 C 
BRANCH  20  21
ATOM     21  C   UNL     1      -4.992   1.674   3.171  1.00  0.00     0.000 C 
BRANCH  21  22
ATOM     22  C   UNL     1      -3.547   1.964   3.604  1.00  0.00     0.000 C 
BRANCH  22  23
ATOM     23  C   UNL     1      -3.514   2.566   5.016  1.00  0.00     0.000 C 
BRANCH  23  24
ATOM     24  C   UNL     1      -3.339   4.092   5.009  1.00  0.00    -0.000 C 
BRANCH  24  25
ATOM     25  C   UNL     1      -4.631   4.839   5.380  1.00  0.00    -0.000 C 
BRANCH  25  26
ATOM     26  C   UNL     1      -5.002   5.911   4.338  1.00  0.00    -0.000 C 
BRANCH  26  27
ATOM     27  C   UNL     1      -5.957   5.367   3.262  1.00  0.00    -0.000 C 
BRANCH  27  28
ATOM     28  C   UNL     1      -6.459   6.459   2.301  1.00  0.00    -0.000 C 
BRANCH  28  29
ATOM     29  C   UNL     1      -7.831   6.183   1.660  1.00  0.00    -0.000 C 
BRANCH  29  30
ATOM     30  C   UNL     1      -8.851   5.623   2.661  1.00  0.00    -0.000 C 
BRANCH  30  31
ATOM     31  C   UNL     1     -10.258   5.591   2.055  1.00  0.00    -0.003 C 
ATOM     32  C   UNL     1     -10.212   5.869   0.555  1.00  0.00     0.004 C 
ENDBRANCH  30  31
ENDBRANCH  29  30
ENDBRANCH  28  29
ENDBRANCH  27  28
ENDBRANCH  26  27
ENDBRANCH  25  26
ENDBRANCH  24  25
ENDBRANCH  23  24
ENDBRANCH  22  23
ENDBRANCH  21  22
ENDBRANCH  20  21
ENDBRANCH  19  20
ENDBRANCH  18  19
ENDBRANCH   1  18
TORSDOF 28
ENDMDL
MODEL 5
REMARK VINA RESULT:    -6.915      5.310      9.078
REMARK INTER + INTRA:         -20.907
REMARK INTER:                 -19.225
REMARK INTRA:                  -1.682
REMARK UNBOUND:                -2.673
REMARK SMILES CCCCCCCCCCCCCCCCCCCCCCCCCCCCCC(=O)[O-]
REMARK SMILES IDX 16 1 17 2 18 3 19 4 20 5 21 6 22 7 23 8 24 9 25 10 26 11
REMARK SMILES IDX 27 12 28 13 29 14 30 15 31 16 32 17 15 18 14 19 13 20 12 21
REMARK SMILES IDX 11 22 10 23 9 24 8 25 7 26 6 27 5 28 4 29 3 30 2 31 1 32
REMARK H PARENT
REMARK Flexibility Score: inf
ROOT
ATOM      1  C   UNL     1      -2.526  -0.897  -2.741  1.00  0.00     0.000 C 
ENDROOT
BRANCH   1   2
ATOM      2  C   UNL     1      -1.839  -0.870  -4.113  1.00  0.00     0.000 C 
BRANCH   2   3
ATOM      3  C   UNL     1      -1.736  -2.282  -4.704  1.00  0.00     0.000 C 
BRANCH   3   4
ATOM      4  C   UNL     1      -0.381  -2.506  -5.394  1.00  0.00     0.000 C 
BRANCH   4   5
ATOM      5  C   UNL     1       0.043  -3.982  -5.305  1.00  0.00     0.000 C 
BRANCH   5   6
ATOM      6  C   UNL     1       0.126  -4.675  -6.681  1.00  0.00     0.000 C 
BRANCH   6   7
ATOM      7  C   UNL     1      -0.297  -3.796  -7.883  1.00  0.00     0.000 C 
BRANCH   7   8
ATOM      8  C   UNL     1       0.869  -3.269  -8.740  1.00  0.00     0.000 C 
BRANCH   8   9
ATOM      9  C   UNL     1       2.243  -3.549  -8.105  1.00  0.00     0.000 C 
BRANCH   9  10
ATOM     10  C   UNL     1       3.402  -3.083  -9.002  1.00  0.00     0.000 C 
BRANCH  10  11
ATOM     11  C   UNL     1       4.788  -3.328  -8.353  1.00  0.00     0.000 C 
BRANCH  11  12
ATOM     12  C   UNL     1       4.810  -3.059  -6.836  1.00  0.00     0.000 C 
BRANCH  12  13
ATOM     13  C   UNL     1       4.603  -1.584  -6.441  1.00  0.00     0.006 C 
BRANCH  13  14
ATOM     14  C   UNL     1       4.235  -1.408  -4.956  1.00  0.00     0.053 C 
BRANCH  14  15
ATOM     15  C   UNL     1       5.468  -1.409  -4.104  1.00  0.00     0.041 C 
ATOM     16  O   UNL     1       6.584  -1.094  -4.599  1.00  0.00    -0.550 OA
ATOM     17  O   UNL     1       5.389  -1.784  -2.766  1.00  0.00    -0.550 OA
ENDBRANCH  14  15
ENDBRANCH  13  14
ENDBRANCH  12  13
ENDBRANCH  11  12
ENDBRANCH  10  11
ENDBRANCH   9  10
ENDBRANCH   8   9
ENDBRANCH   7   8
ENDBRANCH   6   7
ENDBRANCH   5   6
ENDBRANCH   4   5
ENDBRANCH   3   4
ENDBRANCH   2   3
ENDBRANCH   1   2
BRANCH   1  18
ATOM     18  C   UNL     1      -3.653   0.143  -2.615  1.00  0.00     0.000 C 
BRANCH  18  19
ATOM     19  C   UNL     1      -4.934  -0.365  -1.927  1.00  0.00     0.000 C 
BRANCH  19  20
ATOM     20  C   UNL     1      -5.331   0.480  -0.705  1.00  0.00     0.000 C 
BRANCH  20  21
ATOM     21  C   UNL     1      -4.369   0.299   0.479  1.00  0.00     0.000 C 
BRANCH  21  22
ATOM     22  C   UNL     1      -5.049   0.488   1.842  1.00  0.00     0.000 C 
BRANCH  22  23
ATOM     23  C   UNL     1      -4.030   0.937   2.900  1.00  0.00     0.000 C 
BRANCH  23  24
ATOM     24  C   UNL     1      -4.446   2.231   3.616  1.00  0.00    -0.000 C 
BRANCH  24  25
ATOM     25  C   UNL     1      -3.425   2.674   4.678  1.00  0.00    -0.000 C 
BRANCH  25  26
ATOM     26  C   UNL     1      -3.279   4.207   4.738  1.00  0.00    -0.000 C 
BRANCH  26  27
ATOM     27  C   UNL     1      -4.529   4.886   5.325  1.00  0.00    -0.000 C 
BRANCH  27  28
ATOM     28  C   UNL     1      -5.116   5.961   4.396  1.00  0.00    -0.000 C 
BRANCH  28  29
ATOM     29  C   UNL     1      -6.570   5.716   3.952  1.00  0.00    -0.000 C 
BRANCH  29  30
ATOM     30  C   UNL     1      -6.791   6.002   2.460  1.00  0.00    -0.000 C 
BRANCH  30  31
ATOM     31  C   UNL     1      -5.765   7.011   1.935  1.00  0.00    -0.003 C 
ATOM     32  C   UNL     1      -5.595   6.881   0.424  1.00  0.00     0.004 C 
ENDBRANCH  30  31
ENDBRANCH  29  30
ENDBRANCH  28  29
ENDBRANCH  27  28
ENDBRANCH  26  27
ENDBRANCH  25  26
ENDBRANCH  24  25
ENDBRANCH  23  24
ENDBRANCH  22  23
ENDBRANCH  21  22
ENDBRANCH  20  21
ENDBRANCH  19  20
ENDBRANCH  18  19
ENDBRANCH   1  18
TORSDOF 28
ENDMDL
MODEL 6
REMARK VINA RESULT:    -6.766      4.444     10.912
REMARK INTER + INTRA:         -20.513
REMARK INTER:                 -18.806
REMARK INTRA:                  -1.707
REMARK UNBOUND:                -2.673
REMARK SMILES CCCCCCCCCCCCCCCCCCCCCCCCCCCCCC(=O)[O-]
REMARK SMILES IDX 16 1 17 2 18 3 19 4 20 5 21 6 22 7 23 8 24 9 25 10 26 11
REMARK SMILES IDX 27 12 28 13 29 14 30 15 31 16 32 17 15 18 14 19 13 20 12 21
REMARK SMILES IDX 11 22 10 23 9 24 8 25 7 26 6 27 5 28 4 29 3 30 2 31 1 32
REMARK H PARENT
REMARK Flexibility Score: inf
ROOT
ATOM      1  C   UNL     1      -6.188  -0.044   2.917  1.00  0.00     0.000 C 
ENDROOT
BRANCH   1   2
ATOM      2  C   UNL     1      -5.859  -1.087   3.994  1.00  0.00     0.000 C 
BRANCH   2   3
ATOM      3  C   UNL     1      -4.457  -0.855   4.572  1.00  0.00     0.000 C 
BRANCH   3   4
ATOM      4  C   UNL     1      -3.910  -2.122   5.249  1.00  0.00     0.000 C 
BRANCH   4   5
ATOM      5  C   UNL     1      -3.231  -1.781   6.586  1.00  0.00     0.000 C 
BRANCH   5   6
ATOM      6  C   UNL     1      -3.238  -0.271   6.903  1.00  0.00     0.000 C 
BRANCH   6   7
ATOM      7  C   UNL     1      -2.369   0.146   8.115  1.00  0.00     0.000 C 
BRANCH   7   8
ATOM      8  C   UNL     1      -1.870   1.602   8.082  1.00  0.00     0.000 C 
BRANCH   8   9
ATOM      9  C   UNL     1      -2.920   2.599   8.605  1.00  0.00     0.000 C 
BRANCH   9  10
ATOM     10  C   UNL     1      -3.596   3.381   7.465  1.00  0.00     0.000 C 
BRANCH  10  11
ATOM     11  C   UNL     1      -2.931   3.113   6.090  1.00  0.00     0.000 C 
BRANCH  11  12
ATOM     12  C   UNL     1      -3.680   3.764   4.910  1.00  0.00     0.000 C 
BRANCH  12  13
ATOM     13  C   UNL     1      -4.686   4.860   5.314  1.00  0.00     0.006 C 
BRANCH  13  14
ATOM     14  C   UNL     1      -4.822   5.966   4.251  1.00  0.00     0.053 C 
BRANCH  14  15
ATOM     15  C   UNL     1      -6.235   6.052   3.759  1.00  0.00     0.041 C 
ATOM     16  O   UNL     1      -7.197   5.872   4.553  1.00  0.00    -0.550 OA
ATOM     17  O   UNL     1      -6.489   6.308   2.415  1.00  0.00    -0.550 OA
ENDBRANCH  14  15
ENDBRANCH  13  14
ENDBRANCH  12  13
ENDBRANCH  11  12
ENDBRANCH  10  11
ENDBRANCH   9  10
ENDBRANCH   8   9
ENDBRANCH   7   8
ENDBRANCH   6   7
ENDBRANCH   5   6
ENDBRANCH   4   5
ENDBRANCH   3   4
ENDBRANCH   2   3
ENDBRANCH   1   2
BRANCH   1  18
ATOM     18  C   UNL     1      -4.972   0.809   2.518  1.00  0.00     0.000 C 
BRANCH  18  19
ATOM     19  C   UNL     1      -4.201   0.308   1.282  1.00  0.00     0.000 C 
BRANCH  19  20
ATOM     20  C   UNL     1      -5.080   0.229   0.022  1.00  0.00     0.000 C 
BRANCH  20  21
ATOM     21  C   UNL     1      -4.255   0.128  -1.270  1.00  0.00     0.000 C 
BRANCH  21  22
ATOM     22  C   UNL     1      -4.809  -0.908  -2.259  1.00  0.00     0.000 C 
BRANCH  22  23
ATOM     23  C   UNL     1      -3.946  -0.963  -3.528  1.00  0.00     0.000 C 
BRANCH  23  24
ATOM     24  C   UNL     1      -2.475  -1.292  -3.235  1.00  0.00    -0.000 C 
BRANCH  24  25
ATOM     25  C   UNL     1      -1.610  -1.323  -4.506  1.00  0.00    -0.000 C 
BRANCH  25  26
ATOM     26  C   UNL     1      -1.000  -2.715  -4.760  1.00  0.00    -0.000 C 
BRANCH  26  27
ATOM     27  C   UNL     1      -0.261  -2.787  -6.108  1.00  0.00    -0.000 C 
BRANCH  27  28
ATOM     28  C   UNL     1      -0.316  -4.186  -6.745  1.00  0.00    -0.000 C 
BRANCH  28  29
ATOM     29  C   UNL     1       1.022  -4.699  -7.308  1.00  0.00    -0.000 C 
BRANCH  29  30
ATOM     30  C   UNL     1       1.793  -3.620  -8.082  1.00  0.00    -0.000 C 
BRANCH  30  31
ATOM     31  C   UNL     1       3.290  -3.677  -7.764  1.00  0.00    -0.003 C 
ATOM     32  C   UNL     1       4.120  -3.201  -8.952  1.00  0.00     0.004 C 
ENDBRANCH  30  31
ENDBRANCH  29  30
ENDBRANCH  28  29
ENDBRANCH  27  28
ENDBRANCH  26  27
ENDBRANCH  25  26
ENDBRANCH  24  25
ENDBRANCH  23  24
ENDBRANCH  22  23
ENDBRANCH  21  22
ENDBRANCH  20  21
ENDBRANCH  19  20
ENDBRANCH  18  19
ENDBRANCH   1  18
TORSDOF 28
ENDMDL
MODEL 7
REMARK VINA RESULT:    -6.759      3.417      7.356
REMARK INTER + INTRA:         -20.496
REMARK INTER:                 -18.144
REMARK INTRA:                  -2.352
REMARK UNBOUND:                -2.673
REMARK SMILES CCCCCCCCCCCCCCCCCCCCCCCCCCCCCC(=O)[O-]
REMARK SMILES IDX 16 1 17 2 18 3 19 4 20 5 21 6 22 7 23 8 24 9 25 10 26 11
REMARK SMILES IDX 27 12 28 13 29 14 30 15 31 16 32 17 15 18 14 19 13 20 12 21
REMARK SMILES IDX 11 22 10 23 9 24 8 25 7 26 6 27 5 28 4 29 3 30 2 31 1 32
REMARK H PARENT
REMARK Flexibility Score: inf
ROOT
ATOM      1  C   UNL     1      -1.191   2.165   9.590  1.00  0.00     0.000 C 
ENDROOT
BRANCH   1   2
ATOM      2  C   UNL     1      -2.715   2.054   9.449  1.00  0.00     0.000 C 
BRANCH   2   3
ATOM      3  C   UNL     1      -3.237   3.008   8.367  1.00  0.00     0.000 C 
BRANCH   3   4
ATOM      4  C   UNL     1      -2.995   2.447   6.957  1.00  0.00     0.000 C 
BRANCH   4   5
ATOM      5  C   UNL     1      -2.783   3.583   5.943  1.00  0.00     0.000 C 
BRANCH   5   6
ATOM      6  C   UNL     1      -3.440   3.307   4.574  1.00  0.00     0.000 C 
BRANCH   6   7
ATOM      7  C   UNL     1      -4.886   3.840   4.424  1.00  0.00     0.000 C 
BRANCH   7   8
ATOM      8  C   UNL     1      -5.102   5.276   4.935  1.00  0.00     0.000 C 
BRANCH   8   9
ATOM      9  C   UNL     1      -6.237   6.004   4.191  1.00  0.00     0.000 C 
BRANCH   9  10
ATOM     10  C   UNL     1      -5.767   6.588   2.848  1.00  0.00     0.000 C 
BRANCH  10  11
ATOM     11  C   UNL     1      -6.800   6.365   1.713  1.00  0.00     0.000 C 
BRANCH  11  12
ATOM     12  C   UNL     1      -8.205   5.994   2.228  1.00  0.00     0.000 C 
BRANCH  12  13
ATOM     13  C   UNL     1      -9.299   5.964   1.143  1.00  0.00     0.006 C 
BRANCH  13  14
ATOM     14  C   UNL     1     -10.720   5.874   1.729  1.00  0.00     0.053 C 
BRANCH  14  15
ATOM     15  C   UNL     1     -10.671   5.452   3.166  1.00  0.00     0.041 C 
ATOM     16  O   UNL     1     -10.555   6.313   4.079  1.00  0.00    -0.550 OA
ATOM     17  O   UNL     1     -10.729   4.101   3.497  1.00  0.00    -0.550 OA
ENDBRANCH  14  15
ENDBRANCH  13  14
ENDBRANCH  12  13
ENDBRANCH  11  12
ENDBRANCH  10  11
ENDBRANCH   9  10
ENDBRANCH   8   9
ENDBRANCH   7   8
ENDBRANCH   6   7
ENDBRANCH   5   6
ENDBRANCH   4   5
ENDBRANCH   3   4
ENDBRANCH   2   3
ENDBRANCH   1   2
BRANCH   1  18
ATOM     18  C   UNL     1      -0.446   0.938   9.034  1.00  0.00     0.000 C 
BRANCH  18  19
ATOM     19  C   UNL     1      -1.194  -0.400   9.185  1.00  0.00     0.000 C 
BRANCH  19  20
ATOM     20  C   UNL     1      -1.411  -1.118   7.843  1.00  0.00     0.000 C 
BRANCH  20  21
ATOM     21  C   UNL     1      -2.857  -1.004   7.337  1.00  0.00     0.000 C 
BRANCH  21  22
ATOM     22  C   UNL     1      -3.167  -1.964   6.179  1.00  0.00     0.000 C 
BRANCH  22  23
ATOM     23  C   UNL     1      -4.682  -2.054   5.939  1.00  0.00     0.000 C 
BRANCH  23  24
ATOM     24  C   UNL     1      -5.049  -2.058   4.448  1.00  0.00    -0.000 C 
BRANCH  24  25
ATOM     25  C   UNL     1      -6.463  -1.513   4.185  1.00  0.00    -0.000 C 
BRANCH  25  26
ATOM     26  C   UNL     1      -6.455  -0.332   3.195  1.00  0.00    -0.000 C 
BRANCH  26  27
ATOM     27  C   UNL     1      -5.081   0.359   3.129  1.00  0.00    -0.000 C 
BRANCH  27  28
ATOM     28  C   UNL     1      -4.798   0.996   1.758  1.00  0.00    -0.000 C 
BRANCH  28  29
ATOM     29  C   UNL     1      -4.497  -0.002   0.625  1.00  0.00    -0.000 C 
BRANCH  29  30
ATOM     30  C   UNL     1      -4.948   0.510  -0.750  1.00  0.00    -0.000 C 
BRANCH  30  31
ATOM     31  C   UNL     1      -4.718  -0.548  -1.834  1.00  0.00    -0.003 C 
ATOM     32  C   UNL     1      -3.578  -0.141  -2.763  1.00  0.00     0.004 C 
ENDBRANCH  30  31
ENDBRANCH  29  30
ENDBRANCH  28  29
ENDBRANCH  27  28
ENDBRANCH  26  27
ENDBRANCH  25  26
ENDBRANCH  24  25
ENDBRANCH  23  24
ENDBRANCH  22  23
ENDBRANCH  21  22
ENDBRANCH  20  21
ENDBRANCH  19  20
ENDBRANCH  18  19
ENDBRANCH   1  18
TORSDOF 28
ENDMDL
MODEL 8
REMARK VINA RESULT:    -6.724      1.217      3.233
REMARK INTER + INTRA:         -20.405
REMARK INTER:                 -18.150
REMARK INTRA:                  -2.255
REMARK UNBOUND:                -2.673
REMARK SMILES CCCCCCCCCCCCCCCCCCCCCCCCCCCCCC(=O)[O-]
REMARK SMILES IDX 16 1 17 2 18 3 19 4 20 5 21 6 22 7 23 8 24 9 25 10 26 11
REMARK SMILES IDX 27 12 28 13 29 14 30 15 31 16 32 17 15 18 14 19 13 20 12 21
REMARK SMILES IDX 11 22 10 23 9 24 8 25 7 26 6 27 5 28 4 29 3 30 2 31 1 32
REMARK H PARENT
REMARK Flexibility Score: inf
ROOT
ATOM      1  C   UNL     1      -2.218   0.632   9.004  1.00  0.00     0.000 C 
ENDROOT
BRANCH   1   2
ATOM      2  C   UNL     1      -1.141  -0.303   8.437  1.00  0.00     0.000 C 
BRANCH   2   3
ATOM      3  C   UNL     1      -1.776  -1.509   7.733  1.00  0.00     0.000 C 
BRANCH   3   4
ATOM      4  C   UNL     1      -2.885  -1.073   6.762  1.00  0.00     0.000 C 
BRANCH   4   5
ATOM      5  C   UNL     1      -3.322  -2.245   5.867  1.00  0.00     0.000 C 
BRANCH   5   6
ATOM      6  C   UNL     1      -4.848  -2.471   5.863  1.00  0.00     0.000 C 
BRANCH   6   7
ATOM      7  C   UNL     1      -5.643  -1.554   4.901  1.00  0.00     0.000 C 
BRANCH   7   8
ATOM      8  C   UNL     1      -4.865  -1.100   3.651  1.00  0.00     0.000 C 
BRANCH   8   9
ATOM      9  C   UNL     1      -5.435   0.192   3.038  1.00  0.00     0.000 C 
BRANCH   9  10
ATOM     10  C   UNL     1      -4.465   0.832   2.030  1.00  0.00     0.000 C 
BRANCH  10  11
ATOM     11  C   UNL     1      -4.292  -0.025   0.750  1.00  0.00     0.000 C 
BRANCH  11  12
ATOM     12  C   UNL     1      -5.100   0.499  -0.453  1.00  0.00     0.000 C 
BRANCH  12  13
ATOM     13  C   UNL     1      -4.468   0.206  -1.828  1.00  0.00     0.006 C 
BRANCH  13  14
ATOM     14  C   UNL     1      -4.779  -1.213  -2.338  1.00  0.00     0.053 C 
BRANCH  14  15
ATOM     15  C   UNL     1      -3.748  -1.653  -3.333  1.00  0.00     0.041 C 
ATOM     16  O   UNL     1      -3.648  -2.868  -3.650  1.00  0.00    -0.550 OA
ATOM     17  O   UNL     1      -2.880  -0.721  -3.893  1.00  0.00    -0.550 OA
ENDBRANCH  14  15
ENDBRANCH  13  14
ENDBRANCH  12  13
ENDBRANCH  11  12
ENDBRANCH  10  11
ENDBRANCH   9  10
ENDBRANCH   8   9
ENDBRANCH   7   8
ENDBRANCH   6   7
ENDBRANCH   5   6
ENDBRANCH   4   5
ENDBRANCH   3   4
ENDBRANCH   2   3
ENDBRANCH   1   2
BRANCH   1  18
ATOM     18  C   UNL     1      -1.979   2.109   8.642  1.00  0.00     0.000 C 
BRANCH  18  19
ATOM     19  C   UNL     1      -3.228   3.007   8.714  1.00  0.00     0.000 C 
BRANCH  19  20
ATOM     20  C   UNL     1      -3.623   3.592   7.347  1.00  0.00     0.000 C 
BRANCH  20  21
ATOM     21  C   UNL     1      -2.988   2.832   6.172  1.00  0.00     0.000 C 
BRANCH  21  22
ATOM     22  C   UNL     1      -3.357   3.423   4.803  1.00  0.00     0.000 C 
BRANCH  22  23
ATOM     23  C   UNL     1      -2.923   4.893   4.712  1.00  0.00     0.000 C 
BRANCH  23  24
ATOM     24  C   UNL     1      -4.089   5.839   4.385  1.00  0.00    -0.000 C 
BRANCH  24  25
ATOM     25  C   UNL     1      -5.461   5.215   4.689  1.00  0.00    -0.000 C 
BRANCH  25  26
ATOM     26  C   UNL     1      -6.618   6.039   4.094  1.00  0.00    -0.000 C 
BRANCH  26  27
ATOM     27  C   UNL     1      -6.657   5.958   2.558  1.00  0.00    -0.000 C 
BRANCH  27  28
ATOM     28  C   UNL     1      -8.078   6.106   1.988  1.00  0.00    -0.000 C 
BRANCH  28  29
ATOM     29  C   UNL     1      -9.205   5.598   2.905  1.00  0.00    -0.000 C 
BRANCH  29  30
ATOM     30  C   UNL     1     -10.586   5.655   2.235  1.00  0.00    -0.000 C 
BRANCH  30  31
ATOM     31  C   UNL     1     -10.455   5.835   0.720  1.00  0.00    -0.003 C 
ATOM     32  C   UNL     1     -10.998   7.192   0.282  1.00  0.00     0.004 C 
ENDBRANCH  30  31
ENDBRANCH  29  30
ENDBRANCH  28  29
ENDBRANCH  27  28
ENDBRANCH  26  27
ENDBRANCH  25  26
ENDBRANCH  24  25
ENDBRANCH  23  24
ENDBRANCH  22  23
ENDBRANCH  21  22
ENDBRANCH  20  21
ENDBRANCH  19  20
ENDBRANCH  18  19
ENDBRANCH   1  18
TORSDOF 28
ENDMDL
MODEL 9
REMARK VINA RESULT:    -6.510      5.309     12.034
REMARK INTER + INTRA:         -19.839
REMARK INTER:                 -18.174
REMARK INTRA:                  -1.665
REMARK UNBOUND:                -2.673
REMARK SMILES CCCCCCCCCCCCCCCCCCCCCCCCCCCCCC(=O)[O-]
REMARK SMILES IDX 16 1 17 2 18 3 19 4 20 5 21 6 22 7 23 8 24 9 25 10 26 11
REMARK SMILES IDX 27 12 28 13 29 14 30 15 31 16 32 17 15 18 14 19 13 20 12 21
REMARK SMILES IDX 11 22 10 23 9 24 8 25 7 26 6 27 5 28 4 29 3 30 2 31 1 32
REMARK H PARENT
REMARK Flexibility Score: inf
ROOT
ATOM      1  C   UNL     1      -4.317   0.364   0.978  1.00  0.00     0.000 C 
ENDROOT
BRANCH   1   2
ATOM      2  C   UNL     1      -5.222   0.462   2.214  1.00  0.00     0.000 C 
BRANCH   2   3
ATOM      3  C   UNL     1      -4.438   0.152   3.495  1.00  0.00     0.000 C 
BRANCH   3   4
ATOM      4  C   UNL     1      -5.119  -0.954   4.318  1.00  0.00     0.000 C 
BRANCH   4   5
ATOM      5  C   UNL     1      -4.103  -2.029   4.740  1.00  0.00     0.000 C 
BRANCH   5   6
ATOM      6  C   UNL     1      -3.772  -1.994   6.246  1.00  0.00     0.000 C 
BRANCH   6   7
ATOM      7  C   UNL     1      -2.267  -2.127   6.589  1.00  0.00     0.000 C 
BRANCH   7   8
ATOM      8  C   UNL     1      -1.728  -1.059   7.558  1.00  0.00     0.000 C 
BRANCH   8   9
ATOM      9  C   UNL     1      -2.796  -0.020   7.945  1.00  0.00     0.000 C 
BRANCH   9  10
ATOM     10  C   UNL     1      -2.179   1.228   8.600  1.00  0.00     0.000 C 
BRANCH  10  11
ATOM     11  C   UNL     1      -2.309   2.489   7.709  1.00  0.00     0.000 C 
BRANCH  11  12
ATOM     12  C   UNL     1      -3.176   2.266   6.454  1.00  0.00     0.000 C 
BRANCH  12  13
ATOM     13  C   UNL     1      -3.154   3.429   5.443  1.00  0.00     0.006 C 
BRANCH  13  14
ATOM     14  C   UNL     1      -4.354   4.382   5.601  1.00  0.00     0.053 C 
BRANCH  14  15
ATOM     15  C   UNL     1      -4.162   5.613   4.768  1.00  0.00     0.041 C 
ATOM     16  O   UNL     1      -5.160   6.254   4.342  1.00  0.00    -0.550 OA
ATOM     17  O   UNL     1      -2.878   6.038   4.440  1.00  0.00    -0.550 OA
ENDBRANCH  14  15
ENDBRANCH  13  14
ENDBRANCH  12  13
ENDBRANCH  11  12
ENDBRANCH  10  11
ENDBRANCH   9  10
ENDBRANCH   8   9
ENDBRANCH   7   8
ENDBRANCH   6   7
ENDBRANCH   5   6
ENDBRANCH   4   5
ENDBRANCH   3   4
ENDBRANCH   2   3
ENDBRANCH   1   2
BRANCH   1  18
ATOM     18  C   UNL     1      -5.106   0.350  -0.343  1.00  0.00     0.000 C 
BRANCH  18  19
ATOM     19  C   UNL     1      -4.287  -0.046  -1.586  1.00  0.00     0.000 C 
BRANCH  19  20
ATOM     20  C   UNL     1      -5.030  -1.033  -2.502  1.00  0.00     0.000 C 
BRANCH  20  21
ATOM     21  C   UNL     1      -4.175  -1.497  -3.691  1.00  0.00     0.000 C 
BRANCH  21  22
ATOM     22  C   UNL     1      -2.702  -1.082  -3.572  1.00  0.00     0.000 C 
BRANCH  22  23
ATOM     23  C   UNL     1      -1.778  -2.289  -3.789  1.00  0.00     0.000 C 
BRANCH  23  24
ATOM     24  C   UNL     1      -0.888  -2.142  -5.032  1.00  0.00    -0.000 C 
BRANCH  24  25
ATOM     25  C   UNL     1      -0.349  -3.491  -5.538  1.00  0.00    -0.000 C 
BRANCH  25  26
ATOM     26  C   UNL     1      -0.037  -3.463  -7.046  1.00  0.00    -0.000 C 
BRANCH  26  27
ATOM     27  C   UNL     1       1.220  -4.281  -7.393  1.00  0.00    -0.000 C 
BRANCH  27  28
ATOM     28  C   UNL     1       2.178  -3.532  -8.335  1.00  0.00    -0.000 C 
BRANCH  28  29
ATOM     29  C   UNL     1       3.456  -2.989  -7.669  1.00  0.00    -0.000 C 
BRANCH  29  30
ATOM     30  C   UNL     1       4.715  -3.234  -8.513  1.00  0.00    -0.000 C 
BRANCH  30  31
ATOM     31  C   UNL     1       5.909  -3.599  -7.627  1.00  0.00    -0.003 C 
ATOM     32  C   UNL     1       7.147  -3.890  -8.470  1.00  0.00     0.004 C 
ENDBRANCH  30  31
ENDBRANCH  29  30
ENDBRANCH  28  29
ENDBRANCH  27  28
ENDBRANCH  26  27
ENDBRANCH  25  26
ENDBRANCH  24  25
ENDBRANCH  23  24
ENDBRANCH  22  23
ENDBRANCH  21  22
ENDBRANCH  20  21
ENDBRANCH  19  20
ENDBRANCH  18  19
ENDBRANCH   1  18
TORSDOF 28
ENDMDL
