MODEL 1
REMARK VINA RESULT:    -5.349      0.000      0.000
REMARK INTER + INTRA:          -6.945
REMARK INTER:                  -6.444
REMARK INTRA:                  -0.502
REMARK UNBOUND:                -0.502
REMARK SMILES CCCCc1oc(O)c2ccccc12
REMARK SMILES IDX 4 1 5 2 7 3 6 4 9 5 14 6 10 7 13 8 11 9 12 10 8 11 3 13 2 14
REMARK SMILES IDX 1 15
REMARK H PARENT 8 12
REMARK Flexibility Score: inf
ROOT
ATOM      1  C   UNL     1       9.423 -13.487  -5.021  1.00  0.00     0.076 C 
ENDROOT
BRANCH   1   2
ATOM      2  C   UNL     1       8.238 -14.070  -5.731  1.00  0.00     0.116 A 
ATOM      3  C   UNL     1       7.015 -14.815  -7.330  1.00  0.00     0.290 A 
ATOM      4  O   UNL     1       8.179 -14.266  -7.036  1.00  0.00    -0.430 OA
ATOM      5  C   UNL     1       6.282 -14.991  -6.175  1.00  0.00     0.066 A 
ATOM      6  C   UNL     1       7.061 -14.517  -5.154  1.00  0.00     0.027 A 
ATOM      7  C   UNL     1       5.014 -15.527  -5.947  1.00  0.00     0.016 A 
ATOM      8  C   UNL     1       6.631 -14.546  -3.827  1.00  0.00     0.012 A 
ATOM      9  C   UNL     1       4.551 -15.568  -4.619  1.00  0.00     0.001 A 
ATOM     10  C   UNL     1       5.356 -15.080  -3.564  1.00  0.00     0.001 A 
BRANCH   3  11
ATOM     11  O   UNL     1       6.622 -15.155  -8.620  1.00  0.00    -0.480 OA
ATOM     12  H   UNL     1       7.245 -15.649  -9.245  1.00  0.00     0.297 HD
ENDBRANCH   3  11
ENDBRANCH   1   2
BRANCH   1  13
ATOM     13  C   UNL     1      10.509 -14.541  -4.767  1.00  0.00     0.008 C 
BRANCH  13  14
ATOM     14  C   UNL     1      10.276 -15.312  -3.460  1.00  0.00    -0.003 C 
ATOM     15  C   UNL     1       9.911 -14.364  -2.322  1.00  0.00     0.004 C 
ENDBRANCH  13  14
ENDBRANCH   1  13
TORSDOF 4
ENDMDL
MODEL 2
REMARK VINA RESULT:    -5.214      2.272      4.957
REMARK INTER + INTRA:          -6.783
REMARK INTER:                  -6.274
REMARK INTRA:                  -0.508
REMARK UNBOUND:                -0.502
REMARK SMILES CCCCc1oc(O)c2ccccc12
REMARK SMILES IDX 4 1 5 2 7 3 6 4 9 5 14 6 10 7 13 8 11 9 12 10 8 11 3 13 2 14
REMARK SMILES IDX 1 15
REMARK H PARENT 8 12
REMARK Flexibility Score: inf
ROOT
ATOM      1  C   UNL     1       5.974 -12.875  -4.486  1.00  0.00     0.076 C 
ENDROOT
BRANCH   1   2
ATOM      2  C   UNL     1       7.378 -13.308  -4.180  1.00  0.00     0.116 A 
ATOM      3  C   UNL     1       9.126 -13.808  -3.043  1.00  0.00     0.290 A 
ATOM      4  O   UNL     1       7.886 -13.365  -2.962  1.00  0.00    -0.430 OA
ATOM      5  C   UNL     1       9.446 -14.055  -4.361  1.00  0.00     0.066 A 
ATOM      6  C   UNL     1       8.330 -13.738  -5.088  1.00  0.00     0.027 A 
ATOM      7  C   UNL     1      10.609 -14.532  -4.966  1.00  0.00     0.016 A 
ATOM      8  C   UNL     1       8.294 -13.875  -6.476  1.00  0.00     0.012 A 
ATOM      9  C   UNL     1      10.604 -14.680  -6.365  1.00  0.00     0.001 A 
ATOM     10  C   UNL     1       9.452 -14.353  -7.117  1.00  0.00     0.001 A 
BRANCH   3  11
ATOM     11  O   UNL     1       9.957 -13.989  -1.942  1.00  0.00    -0.480 OA
ATOM     12  H   UNL     1      10.136 -14.911  -1.565  1.00  0.00     0.297 HD
ENDBRANCH   3  11
ENDBRANCH   1   2
BRANCH   1  13
ATOM     13  C   UNL     1       4.941 -13.715  -3.723  1.00  0.00     0.008 C 
BRANCH  13  14
ATOM     14  C   UNL     1       5.053 -15.211  -4.050  1.00  0.00    -0.003 C 
ATOM     15  C   UNL     1       4.701 -15.482  -5.509  1.00  0.00     0.004 C 
ENDBRANCH  13  14
ENDBRANCH   1  13
TORSDOF 4
ENDMDL
MODEL 3
REMARK VINA RESULT:    -5.185      1.869      4.562
REMARK INTER + INTRA:          -6.748
REMARK INTER:                  -6.451
REMARK INTRA:                  -0.297
REMARK UNBOUND:                -0.502
REMARK SMILES CCCCc1oc(O)c2ccccc12
REMARK SMILES IDX 4 1 5 2 7 3 6 4 9 5 14 6 10 7 13 8 11 9 12 10 8 11 3 13 2 14
REMARK SMILES IDX 1 15
REMARK H PARENT 8 12
REMARK Flexibility Score: inf
ROOT
ATOM      1  C   UNL     1       5.537 -13.056  -4.470  1.00  0.00     0.076 C 
ENDROOT
BRANCH   1   2
ATOM      2  C   UNL     1       6.537 -14.151  -4.696  1.00  0.00     0.116 A 
ATOM      3  C   UNL     1       7.450 -15.898  -5.542  1.00  0.00     0.290 A 
ATOM      4  O   UNL     1       6.383 -15.122  -5.578  1.00  0.00    -0.430 OA
ATOM      5  C   UNL     1       8.341 -15.418  -4.605  1.00  0.00     0.066 A 
ATOM      6  C   UNL     1       7.760 -14.302  -4.065  1.00  0.00     0.027 A 
ATOM      7  C   UNL     1       9.598 -15.865  -4.197  1.00  0.00     0.016 A 
ATOM      8  C   UNL     1       8.394 -13.549  -3.077  1.00  0.00     0.012 A 
ATOM      9  C   UNL     1      10.262 -15.127  -3.200  1.00  0.00     0.001 A 
ATOM     10  C   UNL     1       9.663 -13.975  -2.642  1.00  0.00     0.001 A 
BRANCH   3  11
ATOM     11  O   UNL     1       7.619 -17.021  -6.345  1.00  0.00    -0.480 OA
ATOM     12  H   UNL     1       7.425 -17.951  -5.996  1.00  0.00     0.297 HD
ENDBRANCH   3  11
ENDBRANCH   1   2
BRANCH   1  13
ATOM     13  C   UNL     1       4.306 -13.557  -3.703  1.00  0.00     0.008 C 
BRANCH  13  14
ATOM     14  C   UNL     1       3.006 -13.349  -4.492  1.00  0.00    -0.003 C 
ATOM     15  C   UNL     1       2.894 -14.347  -5.640  1.00  0.00     0.004 C 
ENDBRANCH  13  14
ENDBRANCH   1  13
TORSDOF 4
ENDMDL
MODEL 4
REMARK VINA RESULT:    -5.170      1.501      4.507
REMARK INTER + INTRA:          -6.730
REMARK INTER:                  -6.462
REMARK INTRA:                  -0.268
REMARK UNBOUND:                -0.502
REMARK SMILES CCCCc1oc(O)c2ccccc12
REMARK SMILES IDX 4 1 5 2 7 3 6 4 9 5 14 6 10 7 13 8 11 9 12 10 8 11 3 13 2 14
REMARK SMILES IDX 1 15
REMARK H PARENT 8 12
REMARK Flexibility Score: inf
ROOT
ATOM      1  C   UNL     1       5.375 -15.395  -3.826  1.00  0.00     0.076 C 
ENDROOT
BRANCH   1   2
ATOM      2  C   UNL     1       6.226 -15.347  -5.060  1.00  0.00     0.116 A 
ATOM      3  C   UNL     1       6.756 -15.251  -7.137  1.00  0.00     0.290 A 
ATOM      4  O   UNL     1       5.746 -15.317  -6.290  1.00  0.00    -0.430 OA
ATOM      5  C   UNL     1       7.945 -15.233  -6.439  1.00  0.00     0.066 A 
ATOM      6  C   UNL     1       7.608 -15.293  -5.113  1.00  0.00     0.027 A 
ATOM      7  C   UNL     1       9.273 -15.164  -6.859  1.00  0.00     0.016 A 
ATOM      8  C   UNL     1       8.577 -15.288  -4.108  1.00  0.00     0.012 A 
ATOM      9  C   UNL     1      10.273 -15.158  -5.869  1.00  0.00     0.001 A 
ATOM     10  C   UNL     1       9.926 -15.220  -4.500  1.00  0.00     0.001 A 
BRANCH   3  11
ATOM     11  O   UNL     1       6.607 -15.204  -8.519  1.00  0.00    -0.480 OA
ATOM     12  H   UNL     1       6.170 -14.412  -8.973  1.00  0.00     0.297 HD
ENDBRANCH   3  11
ENDBRANCH   1   2
BRANCH   1  13
ATOM     13  C   UNL     1       3.916 -15.739  -4.154  1.00  0.00     0.008 C 
BRANCH  13  14
ATOM     14  C   UNL     1       3.021 -14.492  -4.198  1.00  0.00    -0.003 C 
ATOM     15  C   UNL     1       2.469 -14.261  -5.601  1.00  0.00     0.004 C 
ENDBRANCH  13  14
ENDBRANCH   1  13
TORSDOF 4
ENDMDL
MODEL 5
REMARK VINA RESULT:    -5.115      2.066      4.675
REMARK INTER + INTRA:          -6.664
REMARK INTER:                  -6.160
REMARK INTRA:                  -0.504
REMARK UNBOUND:                -0.502
REMARK SMILES CCCCc1oc(O)c2ccccc12
REMARK SMILES IDX 4 1 5 2 7 3 6 4 9 5 14 6 10 7 13 8 11 9 12 10 8 11 3 13 2 14
REMARK SMILES IDX 1 15
REMARK H PARENT 8 12
REMARK Flexibility Score: inf
ROOT
ATOM      1  C   UNL     1       6.094 -14.277  -3.922  1.00  0.00     0.076 C 
ENDROOT
BRANCH   1   2
ATOM      2  C   UNL     1       7.424 -14.738  -4.442  1.00  0.00     0.116 A 
ATOM      3  C   UNL     1       9.401 -15.571  -4.453  1.00  0.00     0.290 A 
ATOM      4  O   UNL     1       8.379 -15.245  -3.684  1.00  0.00    -0.430 OA
ATOM      5  C   UNL     1       9.106 -15.272  -5.766  1.00  0.00     0.066 A 
ATOM      6  C   UNL     1       7.844 -14.742  -5.761  1.00  0.00     0.027 A 
ATOM      7  C   UNL     1       9.834 -15.428  -6.946  1.00  0.00     0.016 A 
ATOM      8  C   UNL     1       7.215 -14.328  -6.936  1.00  0.00     0.012 A 
ATOM      9  C   UNL     1       9.228 -15.020  -8.147  1.00  0.00     0.001 A 
ATOM     10  C   UNL     1       7.924 -14.472  -8.143  1.00  0.00     0.001 A 
BRANCH   3  11
ATOM     11  O   UNL     1      10.581 -16.134  -3.977  1.00  0.00    -0.480 OA
ATOM     12  H   UNL     1      11.310 -16.437  -4.610  1.00  0.00     0.297 HD
ENDBRANCH   3  11
ENDBRANCH   1   2
BRANCH   1  13
ATOM     13  C   UNL     1       5.091 -15.434  -3.821  1.00  0.00     0.008 C 
BRANCH  13  14
ATOM     14  C   UNL     1       4.315 -15.645  -5.129  1.00  0.00    -0.003 C 
ATOM     15  C   UNL     1       3.668 -14.347  -5.600  1.00  0.00     0.004 C 
ENDBRANCH  13  14
ENDBRANCH   1  13
TORSDOF 4
ENDMDL
MODEL 6
REMARK VINA RESULT:    -5.110      1.499      2.148
REMARK INTER + INTRA:          -6.658
REMARK INTER:                  -6.337
REMARK INTRA:                  -0.321
REMARK UNBOUND:                -0.502
REMARK SMILES CCCCc1oc(O)c2ccccc12
REMARK SMILES IDX 4 1 5 2 7 3 6 4 9 5 14 6 10 7 13 8 11 9 12 10 8 11 3 13 2 14
REMARK SMILES IDX 1 15
REMARK H PARENT 8 12
REMARK Flexibility Score: inf
ROOT
ATOM      1  C   UNL     1       9.546 -15.491  -4.180  1.00  0.00     0.076 C 
ENDROOT
BRANCH   1   2
ATOM      2  C   UNL     1       8.180 -15.418  -4.794  1.00  0.00     0.116 A 
ATOM      3  C   UNL     1       6.531 -15.863  -6.093  1.00  0.00     0.290 A 
ATOM      4  O   UNL     1       7.790 -16.151  -5.821  1.00  0.00    -0.430 OA
ATOM      5  C   UNL     1       6.074 -14.907  -5.210  1.00  0.00     0.066 A 
ATOM      6  C   UNL     1       7.125 -14.623  -4.380  1.00  0.00     0.027 A 
ATOM      7  C   UNL     1       4.836 -14.279  -5.072  1.00  0.00     0.016 A 
ATOM      8  C   UNL     1       7.015 -13.691  -3.347  1.00  0.00     0.012 A 
ATOM      9  C   UNL     1       4.694 -13.333  -4.041  1.00  0.00     0.001 A 
ATOM     10  C   UNL     1       5.778 -13.040  -3.183  1.00  0.00     0.001 A 
BRANCH   3  11
ATOM     11  O   UNL     1       5.804 -16.455  -7.120  1.00  0.00    -0.480 OA
ATOM     12  H   UNL     1       5.595 -15.953  -7.973  1.00  0.00     0.297 HD
ENDBRANCH   3  11
ENDBRANCH   1   2
BRANCH   1  13
ATOM     13  C   UNL     1      10.321 -14.178  -4.357  1.00  0.00     0.008 C 
BRANCH  13  14
ATOM     14  C   UNL     1      10.186 -13.612  -5.777  1.00  0.00    -0.003 C 
ATOM     15  C   UNL     1      11.068 -14.376  -6.759  1.00  0.00     0.004 C 
ENDBRANCH  13  14
ENDBRANCH   1  13
TORSDOF 4
ENDMDL
MODEL 7
REMARK VINA RESULT:    -4.941     10.418     12.120
REMARK INTER + INTRA:          -6.454
REMARK INTER:                  -6.221
REMARK INTRA:                  -0.233
REMARK UNBOUND:                -0.502
REMARK SMILES CCCCc1oc(O)c2ccccc12
REMARK SMILES IDX 4 1 5 2 7 3 6 4 9 5 14 6 10 7 13 8 11 9 12 10 8 11 3 13 2 14
REMARK SMILES IDX 1 15
REMARK H PARENT 8 12
REMARK Flexibility Score: inf
ROOT
ATOM      1  C   UNL     1       2.504 -22.931   1.939  1.00  0.00     0.076 C 
ENDROOT
BRANCH   1   2
ATOM      2  C   UNL     1       2.314 -23.820   0.746  1.00  0.00     0.116 A 
ATOM      3  C   UNL     1       1.917 -25.588  -0.403  1.00  0.00     0.290 A 
ATOM      4  O   UNL     1       2.052 -25.113   0.821  1.00  0.00    -0.430 OA
ATOM      5  C   UNL     1       2.092 -24.571  -1.317  1.00  0.00     0.066 A 
ATOM      6  C   UNL     1       2.344 -23.441  -0.585  1.00  0.00     0.027 A 
ATOM      7  C   UNL     1       2.045 -24.550  -2.711  1.00  0.00     0.016 A 
ATOM      8  C   UNL     1       2.566 -22.205  -1.193  1.00  0.00     0.012 A 
ATOM      9  C   UNL     1       2.266 -23.318  -3.354  1.00  0.00     0.001 A 
ATOM     10  C   UNL     1       2.526 -22.151  -2.599  1.00  0.00     0.001 A 
BRANCH   3  11
ATOM     11  O   UNL     1       1.637 -26.920  -0.691  1.00  0.00    -0.480 OA
ATOM     12  H   UNL     1       0.716 -27.308  -0.534  1.00  0.00     0.297 HD
ENDBRANCH   3  11
ENDBRANCH   1   2
BRANCH   1  13
ATOM     13  C   UNL     1       1.243 -22.112   2.246  1.00  0.00     0.008 C 
BRANCH  13  14
ATOM     14  C   UNL     1       1.338 -21.384   3.594  1.00  0.00    -0.003 C 
ATOM     15  C   UNL     1       1.038 -19.896   3.437  1.00  0.00     0.004 C 
ENDBRANCH  13  14
ENDBRANCH   1  13
TORSDOF 4
ENDMDL
MODEL 8
REMARK VINA RESULT:    -4.916      1.987      3.856
REMARK INTER + INTRA:          -6.423
REMARK INTER:                  -5.913
REMARK INTRA:                  -0.510
REMARK UNBOUND:                -0.502
REMARK SMILES CCCCc1oc(O)c2ccccc12
REMARK SMILES IDX 4 1 5 2 7 3 6 4 9 5 14 6 10 7 13 8 11 9 12 10 8 11 3 13 2 14
REMARK SMILES IDX 1 15
REMARK H PARENT 8 12
REMARK Flexibility Score: inf
ROOT
ATOM      1  C   UNL     1       8.262 -15.538  -4.473  1.00  0.00     0.076 C 
ENDROOT
BRANCH   1   2
ATOM      2  C   UNL     1       8.226 -15.252  -5.945  1.00  0.00     0.116 A 
ATOM      3  C   UNL     1       7.445 -14.997  -7.926  1.00  0.00     0.290 A 
ATOM      4  O   UNL     1       7.138 -15.338  -6.689  1.00  0.00    -0.430 OA
ATOM      5  C   UNL     1       8.782 -14.670  -7.999  1.00  0.00     0.066 A 
ATOM      6  C   UNL     1       9.282 -14.832  -6.735  1.00  0.00     0.027 A 
ATOM      7  C   UNL     1       9.583 -14.246  -9.060  1.00  0.00     0.016 A 
ATOM      8  C   UNL     1      10.622 -14.579  -6.437  1.00  0.00     0.012 A 
ATOM      9  C   UNL     1      10.939 -13.984  -8.790  1.00  0.00     0.001 A 
ATOM     10  C   UNL     1      11.456 -14.150  -7.485  1.00  0.00     0.001 A 
BRANCH   3  11
ATOM     11  O   UNL     1       6.530 -14.977  -8.974  1.00  0.00    -0.480 OA
ATOM     12  H   UNL     1       5.537 -15.078  -8.806  1.00  0.00     0.297 HD
ENDBRANCH   3  11
ENDBRANCH   1   2
BRANCH   1  13
ATOM     13  C   UNL     1       8.049 -14.267  -3.640  1.00  0.00     0.008 C 
BRANCH  13  14
ATOM     14  C   UNL     1       9.322 -13.840  -2.896  1.00  0.00    -0.003 C 
ATOM     15  C   UNL     1      10.224 -15.039  -2.620  1.00  0.00     0.004 C 
ENDBRANCH  13  14
ENDBRANCH   1  13
TORSDOF 4
ENDMDL
MODEL 9
REMARK VINA RESULT:    -4.856      2.676      4.186
REMARK INTER + INTRA:          -6.351
REMARK INTER:                  -6.054
REMARK INTRA:                  -0.297
REMARK UNBOUND:                -0.502
REMARK SMILES CCCCc1oc(O)c2ccccc12
REMARK SMILES IDX 4 1 5 2 7 3 6 4 9 5 14 6 10 7 13 8 11 9 12 10 8 11 3 13 2 14
REMARK SMILES IDX 1 15
REMARK H PARENT 8 12
REMARK Flexibility Score: inf
ROOT
ATOM      1  C   UNL     1      10.504 -15.085  -6.536  1.00  0.00     0.076 C 
ENDROOT
BRANCH   1   2
ATOM      2  C   UNL     1       9.835 -14.638  -5.270  1.00  0.00     0.116 A 
ATOM      3  C   UNL     1       9.568 -14.165  -3.194  1.00  0.00     0.290 A 
ATOM      4  O   UNL     1      10.418 -14.642  -4.084  1.00  0.00    -0.430 OA
ATOM      5  C   UNL     1       8.384 -13.831  -3.816  1.00  0.00     0.066 A 
ATOM      6  C   UNL     1       8.554 -14.130  -5.142  1.00  0.00     0.027 A 
ATOM      7  C   UNL     1       7.194 -13.290  -3.330  1.00  0.00     0.016 A 
ATOM      8  C   UNL     1       7.545 -13.910  -6.080  1.00  0.00     0.012 A 
ATOM      9  C   UNL     1       6.157 -13.057  -4.252  1.00  0.00     0.001 A 
ATOM     10  C   UNL     1       6.331 -13.366  -5.620  1.00  0.00     0.001 A 
BRANCH   3  11
ATOM     11  O   UNL     1       9.858 -14.031  -1.840  1.00  0.00    -0.480 OA
ATOM     12  H   UNL     1       9.121 -13.963  -1.150  1.00  0.00     0.297 HD
ENDBRANCH   3  11
ENDBRANCH   1   2
BRANCH   1  13
ATOM     13  C   UNL     1      11.328 -13.958  -7.173  1.00  0.00     0.008 C 
BRANCH  13  14
ATOM     14  C   UNL     1      11.774 -14.302  -8.601  1.00  0.00    -0.003 C 
ATOM     15  C   UNL     1      10.707 -15.112  -9.330  1.00  0.00     0.004 C 
ENDBRANCH  13  14
ENDBRANCH   1  13
TORSDOF 4
ENDMDL
