MODEL 1
REMARK VINA RESULT:    -3.424      0.000      0.000
REMARK INTER + INTRA:          -6.052
REMARK INTER:                  -4.625
REMARK INTRA:                  -1.426
REMARK UNBOUND:                -1.426
REMARK SMILES CC(=O)CCC=C(C)CCC=C(C)C
REMARK SMILES IDX 7 1 6 2 8 3 9 4 10 5 11 6 13 7 12 8 14 9 5 10 4 11 2 12 3 13
REMARK SMILES IDX 1 14
REMARK H PARENT
REMARK Flexibility Score: inf
ROOT
ATOM      1  C   UNL     1      26.205 -10.083   6.418  1.00  0.00    -0.077 C 
ATOM      2  C   UNL     1      26.134 -11.367   6.834  1.00  0.00    -0.028 C 
ATOM      3  C   UNL     1      25.403  -8.984   7.075  1.00  0.00     0.039 C 
ENDROOT
BRANCH   1   4
ATOM      4  C   UNL     1      27.125  -9.739   5.267  1.00  0.00     0.034 C 
BRANCH   4   5
ATOM      5  C   UNL     1      26.978 -10.761   4.133  1.00  0.00     0.032 C 
BRANCH   5   6
ATOM      6  C   UNL     1      25.726 -10.500   3.337  1.00  0.00    -0.028 C 
ATOM      7  C   UNL     1      24.887 -12.845   3.594  1.00  0.00     0.039 C 
ATOM      8  C   UNL     1      24.787 -11.433   3.064  1.00  0.00    -0.080 C 
ATOM      9  C   UNL     1      23.603 -11.038   2.222  1.00  0.00     0.039 C 
ENDBRANCH   5   6
ENDBRANCH   4   5
ENDBRANCH   1   4
BRANCH   2  10
ATOM     10  C   UNL     1      25.193 -11.871   7.904  1.00  0.00     0.035 C 
BRANCH  10  11
ATOM     11  C   UNL     1      24.092 -12.758   7.310  1.00  0.00     0.079 C 
BRANCH  11  12
ATOM     12  C   UNL     1      22.801 -11.998   7.138  1.00  0.00     0.130 C 
ATOM     13  O   UNL     1      21.877 -12.200   7.910  1.00  0.00    -0.300 OA
ATOM     14  C   UNL     1      22.626 -11.001   6.031  1.00  0.00     0.087 C 
ENDBRANCH  11  12
ENDBRANCH  10  11
ENDBRANCH   2  10
TORSDOF 6
ENDMDL
MODEL 2
REMARK VINA RESULT:    -3.172      1.288      3.922
REMARK INTER + INTRA:          -5.711
REMARK INTER:                  -4.794
REMARK INTRA:                  -0.917
REMARK UNBOUND:                -1.426
REMARK SMILES CC(=O)CCC=C(C)CCC=C(C)C
REMARK SMILES IDX 7 1 6 2 8 3 9 4 10 5 11 6 13 7 12 8 14 9 5 10 4 11 2 12 3 13
REMARK SMILES IDX 1 14
REMARK H PARENT
REMARK Flexibility Score: inf
ROOT
ATOM      1  C   UNL     1      25.453 -11.092   4.527  1.00  0.00    -0.077 C 
ATOM      2  C   UNL     1      24.352 -10.663   5.184  1.00  0.00    -0.028 C 
ATOM      3  C   UNL     1      25.470 -12.393   3.760  1.00  0.00     0.039 C 
ENDROOT
BRANCH   1   4
ATOM      4  C   UNL     1      26.699 -10.233   4.554  1.00  0.00     0.034 C 
BRANCH   4   5
ATOM      5  C   UNL     1      26.893  -9.607   5.939  1.00  0.00     0.032 C 
BRANCH   5   6
ATOM      6  C   UNL     1      27.125 -10.671   6.980  1.00  0.00    -0.028 C 
ATOM      7  C   UNL     1      26.001  -9.360   8.794  1.00  0.00     0.039 C 
ATOM      8  C   UNL     1      26.751 -10.565   8.275  1.00  0.00    -0.080 C 
ATOM      9  C   UNL     1      27.082 -11.695   9.215  1.00  0.00     0.039 C 
ENDBRANCH   5   6
ENDBRANCH   4   5
ENDBRANCH   1   4
BRANCH   2  10
ATOM     10  C   UNL     1      23.073 -11.455   5.321  1.00  0.00     0.035 C 
BRANCH  10  11
ATOM     11  C   UNL     1      22.351 -11.130   6.635  1.00  0.00     0.079 C 
BRANCH  11  12
ATOM     12  C   UNL     1      22.537 -12.225   7.655  1.00  0.00     0.130 C 
ATOM     13  O   UNL     1      21.576 -12.620   8.296  1.00  0.00    -0.300 OA
ATOM     14  C   UNL     1      23.884 -12.838   7.903  1.00  0.00     0.087 C 
ENDBRANCH  11  12
ENDBRANCH  10  11
ENDBRANCH   2  10
TORSDOF 6
ENDMDL
MODEL 3
REMARK VINA RESULT:    -3.169      1.700      3.213
REMARK INTER + INTRA:          -5.707
REMARK INTER:                  -4.505
REMARK INTRA:                  -1.202
REMARK UNBOUND:                -1.426
REMARK SMILES CC(=O)CCC=C(C)CCC=C(C)C
REMARK SMILES IDX 7 1 6 2 8 3 9 4 10 5 11 6 13 7 12 8 14 9 5 10 4 11 2 12 3 13
REMARK SMILES IDX 1 14
REMARK H PARENT
REMARK Flexibility Score: inf
ROOT
ATOM      1  C   UNL     1      23.700 -12.228   6.019  1.00  0.00    -0.077 C 
ATOM      2  C   UNL     1      24.897 -12.505   6.582  1.00  0.00    -0.028 C 
ATOM      3  C   UNL     1      22.650 -11.412   6.736  1.00  0.00     0.039 C 
ENDROOT
BRANCH   1   4
ATOM      4  C   UNL     1      23.412 -12.742   4.626  1.00  0.00     0.034 C 
BRANCH   4   5
ATOM      5  C   UNL     1      24.717 -13.008   3.867  1.00  0.00     0.032 C 
BRANCH   5   6
ATOM      6  C   UNL     1      24.977 -11.924   2.853  1.00  0.00    -0.028 C 
ATOM      7  C   UNL     1      26.964 -11.030   4.087  1.00  0.00     0.039 C 
ATOM      8  C   UNL     1      25.969 -11.011   2.950  1.00  0.00    -0.080 C 
ATOM      9  C   UNL     1      26.087  -9.960   1.878  1.00  0.00     0.039 C 
ENDBRANCH   5   6
ENDBRANCH   4   5
ENDBRANCH   1   4
BRANCH   2  10
ATOM     10  C   UNL     1      25.286 -12.139   7.995  1.00  0.00     0.035 C 
BRANCH  10  11
ATOM     11  C   UNL     1      26.429 -11.117   8.015  1.00  0.00     0.079 C 
BRANCH  11  12
ATOM     12  C   UNL     1      25.908  -9.703   8.068  1.00  0.00     0.130 C 
ATOM     13  O   UNL     1      25.805  -9.140   9.146  1.00  0.00    -0.300 OA
ATOM     14  C   UNL     1      25.506  -8.974   6.819  1.00  0.00     0.087 C 
ENDBRANCH  11  12
ENDBRANCH  10  11
ENDBRANCH   2  10
TORSDOF 6
ENDMDL
MODEL 4
REMARK VINA RESULT:    -3.082      1.967      4.580
REMARK INTER + INTRA:          -5.589
REMARK INTER:                  -4.829
REMARK INTRA:                  -0.761
REMARK UNBOUND:                -1.426
REMARK SMILES CC(=O)CCC=C(C)CCC=C(C)C
REMARK SMILES IDX 7 1 6 2 8 3 9 4 10 5 11 6 13 7 12 8 14 9 5 10 4 11 2 12 3 13
REMARK SMILES IDX 1 14
REMARK H PARENT
REMARK Flexibility Score: inf
ROOT
ATOM      1  C   UNL     1      23.742 -12.295   6.633  1.00  0.00    -0.077 C 
ATOM      2  C   UNL     1      24.068 -12.713   5.389  1.00  0.00    -0.028 C 
ATOM      3  C   UNL     1      22.608 -11.328   6.880  1.00  0.00     0.039 C 
ENDROOT
BRANCH   1   4
ATOM      4  C   UNL     1      24.532 -12.824   7.810  1.00  0.00     0.034 C 
BRANCH   4   5
ATOM      5  C   UNL     1      25.598 -11.812   8.244  1.00  0.00     0.032 C 
BRANCH   5   6
ATOM      6  C   UNL     1      26.375 -11.310   7.055  1.00  0.00    -0.028 C 
ATOM      7  C   UNL     1      25.496  -8.975   7.270  1.00  0.00     0.039 C 
ATOM      8  C   UNL     1      26.321 -10.042   6.589  1.00  0.00    -0.080 C 
ATOM      9  C   UNL     1      27.125  -9.690   5.365  1.00  0.00     0.039 C 
ENDBRANCH   5   6
ENDBRANCH   4   5
ENDBRANCH   1   4
BRANCH   2  10
ATOM     10  C   UNL     1      23.432 -12.200   4.119  1.00  0.00     0.035 C 
BRANCH  10  11
ATOM     11  C   UNL     1      24.433 -12.183   2.957  1.00  0.00     0.079 C 
BRANCH  11  12
ATOM     12  C   UNL     1      24.404 -10.869   2.219  1.00  0.00     0.130 C 
ATOM     13  O   UNL     1      23.332 -10.396   1.875  1.00  0.00    -0.300 OA
ATOM     14  C   UNL     1      25.668 -10.131   1.891  1.00  0.00     0.087 C 
ENDBRANCH  11  12
ENDBRANCH  10  11
ENDBRANCH   2  10
TORSDOF 6
ENDMDL
MODEL 5
REMARK VINA RESULT:    -3.076      1.908      3.480
REMARK INTER + INTRA:          -5.581
REMARK INTER:                  -4.407
REMARK INTRA:                  -1.174
REMARK UNBOUND:                -1.426
REMARK SMILES CC(=O)CCC=C(C)CCC=C(C)C
REMARK SMILES IDX 7 1 6 2 8 3 9 4 10 5 11 6 13 7 12 8 14 9 5 10 4 11 2 12 3 13
REMARK SMILES IDX 1 14
REMARK H PARENT
REMARK Flexibility Score: inf
ROOT
ATOM      1  C   UNL     1      23.758 -10.902   6.420  1.00  0.00    -0.077 C 
ATOM      2  C   UNL     1      24.647  -9.893   6.556  1.00  0.00    -0.028 C 
ATOM      3  C   UNL     1      23.556 -11.940   7.499  1.00  0.00     0.039 C 
ENDROOT
BRANCH   1   4
ATOM      4  C   UNL     1      22.934 -10.983   5.154  1.00  0.00     0.034 C 
BRANCH   4   5
ATOM      5  C   UNL     1      23.620 -11.884   4.120  1.00  0.00     0.032 C 
BRANCH   5   6
ATOM      6  C   UNL     1      24.319 -11.058   3.071  1.00  0.00    -0.028 C 
ATOM      7  C   UNL     1      26.605 -11.694   3.871  1.00  0.00     0.039 C 
ATOM      8  C   UNL     1      25.661 -10.943   2.960  1.00  0.00    -0.080 C 
ATOM      9  C   UNL     1      26.220 -10.050   1.884  1.00  0.00     0.039 C 
ENDBRANCH   5   6
ENDBRANCH   4   5
ENDBRANCH   1   4
BRANCH   2  10
ATOM     10  C   UNL     1      25.599  -9.740   7.719  1.00  0.00     0.035 C 
BRANCH  10  11
ATOM     11  C   UNL     1      26.971 -10.351   7.404  1.00  0.00     0.079 C 
BRANCH  11  12
ATOM     12  C   UNL     1      27.079 -11.765   7.917  1.00  0.00     0.130 C 
ATOM     13  O   UNL     1      27.125 -12.691   7.123  1.00  0.00    -0.300 OA
ATOM     14  C   UNL     1      27.125 -12.058   9.388  1.00  0.00     0.087 C 
ENDBRANCH  11  12
ENDBRANCH  10  11
ENDBRANCH   2  10
TORSDOF 6
ENDMDL
MODEL 6
REMARK VINA RESULT:    -2.989      2.067      3.278
REMARK INTER + INTRA:          -5.464
REMARK INTER:                  -4.604
REMARK INTRA:                  -0.860
REMARK UNBOUND:                -1.426
REMARK SMILES CC(=O)CCC=C(C)CCC=C(C)C
REMARK SMILES IDX 7 1 6 2 8 3 9 4 10 5 11 6 13 7 12 8 14 9 5 10 4 11 2 12 3 13
REMARK SMILES IDX 1 14
REMARK H PARENT
REMARK Flexibility Score: inf
ROOT
ATOM      1  C   UNL     1      25.175 -12.771   6.146  1.00  0.00    -0.077 C 
ATOM      2  C   UNL     1      25.086 -12.288   7.405  1.00  0.00    -0.028 C 
ATOM      3  C   UNL     1      26.503 -13.125   5.519  1.00  0.00     0.039 C 
ENDROOT
BRANCH   1   4
ATOM      4  C   UNL     1      23.905 -12.972   5.349  1.00  0.00     0.034 C 
BRANCH   4   5
ATOM      5  C   UNL     1      23.243 -11.624   5.039  1.00  0.00     0.032 C 
BRANCH   5   6
ATOM      6  C   UNL     1      24.076 -10.830   4.066  1.00  0.00    -0.028 C 
ATOM      7  C   UNL     1      23.300 -12.150   2.084  1.00  0.00     0.039 C 
ATOM      8  C   UNL     1      24.132 -11.069   2.737  1.00  0.00    -0.080 C 
ATOM      9  C   UNL     1      25.039 -10.217   1.890  1.00  0.00     0.039 C 
ENDBRANCH   5   6
ENDBRANCH   4   5
ENDBRANCH   1   4
BRANCH   2  10
ATOM     10  C   UNL     1      26.270 -11.949   8.280  1.00  0.00     0.035 C 
BRANCH  10  11
ATOM     11  C   UNL     1      26.935 -10.639   7.840  1.00  0.00     0.079 C 
BRANCH  11  12
ATOM     12  C   UNL     1      25.997  -9.467   7.982  1.00  0.00     0.130 C 
ATOM     13  O   UNL     1      25.646  -9.108   9.095  1.00  0.00    -0.300 OA
ATOM     14  C   UNL     1      25.479  -8.734   6.780  1.00  0.00     0.087 C 
ENDBRANCH  11  12
ENDBRANCH  10  11
ENDBRANCH   2  10
TORSDOF 6
ENDMDL
MODEL 7
REMARK VINA RESULT:    -2.812      1.597      4.144
REMARK INTER + INTRA:          -5.224
REMARK INTER:                  -4.458
REMARK INTRA:                  -0.766
REMARK UNBOUND:                -1.426
REMARK SMILES CC(=O)CCC=C(C)CCC=C(C)C
REMARK SMILES IDX 7 1 6 2 8 3 9 4 10 5 11 6 13 7 12 8 14 9 5 10 4 11 2 12 3 13
REMARK SMILES IDX 1 14
REMARK H PARENT
REMARK Flexibility Score: inf
ROOT
ATOM      1  C   UNL     1      25.633 -10.760   3.438  1.00  0.00    -0.077 C 
ATOM      2  C   UNL     1      25.874 -10.450   4.731  1.00  0.00    -0.028 C 
ATOM      3  C   UNL     1      26.662 -10.530   2.357  1.00  0.00     0.039 C 
ENDROOT
BRANCH   1   4
ATOM      4  C   UNL     1      24.297 -11.366   3.069  1.00  0.00     0.034 C 
BRANCH   4   5
ATOM      5  C   UNL     1      23.889 -12.435   4.090  1.00  0.00     0.032 C 
BRANCH   5   6
ATOM      6  C   UNL     1      22.975 -11.854   5.137  1.00  0.00    -0.028 C 
ATOM      7  C   UNL     1      24.332 -12.750   7.042  1.00  0.00     0.039 C 
ATOM      8  C   UNL     1      23.147 -12.007   6.469  1.00  0.00    -0.080 C 
ATOM      9  C   UNL     1      22.131 -11.400   7.401  1.00  0.00     0.039 C 
ENDBRANCH   5   6
ENDBRANCH   4   5
ENDBRANCH   1   4
BRANCH   2  10
ATOM     10  C   UNL     1      27.120  -9.756   5.229  1.00  0.00     0.035 C 
BRANCH  10  11
ATOM     11  C   UNL     1      26.802  -8.786   6.374  1.00  0.00     0.079 C 
BRANCH  11  12
ATOM     12  C   UNL     1      26.288  -9.514   7.590  1.00  0.00     0.130 C 
ATOM     13  O   UNL     1      25.208  -9.202   8.067  1.00  0.00    -0.300 OA
ATOM     14  C   UNL     1      27.080 -10.614   8.233  1.00  0.00     0.087 C 
ENDBRANCH  11  12
ENDBRANCH  10  11
ENDBRANCH   2  10
TORSDOF 6
ENDMDL
MODEL 8
REMARK VINA RESULT:    -2.698     22.189     23.681
REMARK INTER + INTRA:          -5.071
REMARK INTER:                  -4.704
REMARK INTRA:                  -0.367
REMARK UNBOUND:                -1.426
REMARK SMILES CC(=O)CCC=C(C)CCC=C(C)C
REMARK SMILES IDX 7 1 6 2 8 3 9 4 10 5 11 6 13 7 12 8 14 9 5 10 4 11 2 12 3 13
REMARK SMILES IDX 1 14
REMARK H PARENT
REMARK Flexibility Score: inf
ROOT
ATOM      1  C   UNL     1      23.054   6.283  21.211  1.00  0.00    -0.077 C 
ATOM      2  C   UNL     1      23.520   6.618  19.987  1.00  0.00    -0.028 C 
ATOM      3  C   UNL     1      23.797   5.328  22.115  1.00  0.00     0.039 C 
ENDROOT
BRANCH   1   4
ATOM      4  C   UNL     1      21.755   6.895  21.690  1.00  0.00     0.034 C 
BRANCH   4   5
ATOM      5  C   UNL     1      20.586   6.440  20.809  1.00  0.00     0.032 C 
BRANCH   5   6
ATOM      6  C   UNL     1      19.328   6.290  21.624  1.00  0.00    -0.028 C 
ATOM      7  C   UNL     1      18.197   4.865  19.902  1.00  0.00     0.039 C 
ATOM      8  C   UNL     1      18.235   5.605  21.220  1.00  0.00    -0.080 C 
ATOM      9  C   UNL     1      17.032   5.571  22.125  1.00  0.00     0.039 C 
ENDBRANCH   5   6
ENDBRANCH   4   5
ENDBRANCH   1   4
BRANCH   2  10
ATOM     10  C   UNL     1      24.747   6.018  19.343  1.00  0.00     0.035 C 
BRANCH  10  11
ATOM     11  C   UNL     1      26.021   6.760  19.764  1.00  0.00     0.079 C 
BRANCH  11  12
ATOM     12  C   UNL     1      26.778   6.002  20.825  1.00  0.00     0.130 C 
ATOM     13  O   UNL     1      27.122   6.578  21.846  1.00  0.00    -0.300 OA
ATOM     14  C   UNL     1      27.123   4.552  20.651  1.00  0.00     0.087 C 
ENDBRANCH  11  12
ENDBRANCH  10  11
ENDBRANCH   2  10
TORSDOF 6
ENDMDL
