MODEL 1
REMARK VINA RESULT:    -4.491      0.000      0.000
REMARK INTER + INTRA:          -6.936
REMARK INTER:                  -6.592
REMARK INTRA:                  -0.345
REMARK UNBOUND:                -0.345
REMARK SMILES O=C([O-])CCCCCCCC(=O)[O-]
REMARK SMILES IDX 7 1 6 2 5 3 4 4 2 5 1 6 3 7 8 8 9 9 10 10 11 11 12 12 13 13
REMARK H PARENT
REMARK Flexibility Score: inf
ROOT
ATOM      1  C   UNL     1      -0.396  -1.148  -1.115  1.00  0.00     0.000 C 
ENDROOT
BRANCH   1   2
ATOM      2  C   UNL     1       0.067  -0.051  -0.138  1.00  0.00     0.000 C 
BRANCH   2   3
ATOM      3  C   UNL     1       0.472   1.281  -0.795  1.00  0.00     0.006 C 
BRANCH   3   4
ATOM      4  C   UNL     1       1.804   1.197  -1.552  1.00  0.00     0.053 C 
BRANCH   4   5
ATOM      5  C   UNL     1       2.885   1.893  -0.786  1.00  0.00     0.041 C 
ATOM      6  O   UNL     1       3.821   1.229  -0.268  1.00  0.00    -0.550 OA
ATOM      7  O   UNL     1       2.885   3.278  -0.687  1.00  0.00    -0.550 OA
ENDBRANCH   4   5
ENDBRANCH   3   4
ENDBRANCH   2   3
ENDBRANCH   1   2
BRANCH   1   8
ATOM      8  C   UNL     1      -1.809  -0.897  -1.670  1.00  0.00     0.000 C 
BRANCH   8   9
ATOM      9  C   UNL     1      -2.902  -1.628  -0.866  1.00  0.00     0.006 C 
BRANCH   9  10
ATOM     10  C   UNL     1      -3.322  -2.985  -1.454  1.00  0.00     0.053 C 
BRANCH  10  11
ATOM     11  C   UNL     1      -2.902  -4.128  -0.581  1.00  0.00     0.041 C 
ATOM     12  O   UNL     1      -3.768  -4.878  -0.060  1.00  0.00    -0.550 OA
ATOM     13  O   UNL     1      -1.553  -4.382  -0.370  1.00  0.00    -0.550 OA
ENDBRANCH  10  11
ENDBRANCH   9  10
ENDBRANCH   8   9
ENDBRANCH   1   8
TORSDOF 8
ENDMDL
MODEL 2
REMARK VINA RESULT:    -4.468      0.153      6.945
REMARK INTER + INTRA:          -6.902
REMARK INTER:                  -6.578
REMARK INTRA:                  -0.324
REMARK UNBOUND:                -0.345
REMARK SMILES O=C([O-])CCCCCCCC(=O)[O-]
REMARK SMILES IDX 7 1 6 2 5 3 4 4 2 5 1 6 3 7 8 8 9 9 10 10 11 11 12 12 13 13
REMARK H PARENT
REMARK Flexibility Score: inf
ROOT
ATOM      1  C   UNL     1      -0.427  -1.291  -1.002  1.00  0.00     0.000 C 
ENDROOT
BRANCH   1   2
ATOM      2  C   UNL     1      -1.836  -0.917  -1.500  1.00  0.00     0.000 C 
BRANCH   2   3
ATOM      3  C   UNL     1      -2.992  -1.680  -0.826  1.00  0.00     0.006 C 
BRANCH   3   4
ATOM      4  C   UNL     1      -3.271  -3.042  -1.475  1.00  0.00     0.053 C 
BRANCH   4   5
ATOM      5  C   UNL     1      -2.899  -4.151  -0.543  1.00  0.00     0.041 C 
ATOM      6  O   UNL     1      -3.795  -4.845   0.004  1.00  0.00    -0.550 OA
ATOM      7  O   UNL     1      -1.561  -4.450  -0.317  1.00  0.00    -0.550 OA
ENDBRANCH   4   5
ENDBRANCH   3   4
ENDBRANCH   2   3
ENDBRANCH   1   2
BRANCH   1   8
ATOM      8  C   UNL     1       0.248  -0.157  -0.212  1.00  0.00     0.000 C 
BRANCH   8   9
ATOM      9  C   UNL     1       0.507   1.095  -1.071  1.00  0.00     0.006 C 
BRANCH   9  10
ATOM     10  C   UNL     1       1.912   1.157  -1.695  1.00  0.00     0.053 C 
BRANCH  10  11
ATOM     11  C   UNL     1       2.889   1.863  -0.807  1.00  0.00     0.041 C 
ATOM     12  O   UNL     1       3.799   1.216  -0.226  1.00  0.00    -0.550 OA
ATOM     13  O   UNL     1       2.813   3.240  -0.645  1.00  0.00    -0.550 OA
ENDBRANCH  10  11
ENDBRANCH   9  10
ENDBRANCH   8   9
ENDBRANCH   1   8
TORSDOF 8
ENDMDL
MODEL 3
REMARK VINA RESULT:    -4.465      1.551      7.436
REMARK INTER + INTRA:          -6.897
REMARK INTER:                  -6.626
REMARK INTRA:                  -0.271
REMARK UNBOUND:                -0.345
REMARK SMILES O=C([O-])CCCCCCCC(=O)[O-]
REMARK SMILES IDX 7 1 6 2 5 3 4 4 2 5 1 6 3 7 8 8 9 9 10 10 11 11 12 12 13 13
REMARK H PARENT
REMARK Flexibility Score: inf
ROOT
ATOM      1  C   UNL     1       0.497   0.953  -0.987  1.00  0.00     0.000 C 
ENDROOT
BRANCH   1   2
ATOM      2  C   UNL     1       0.029  -0.294  -0.214  1.00  0.00     0.000 C 
BRANCH   2   3
ATOM      3  C   UNL     1      -0.516  -1.439  -1.086  1.00  0.00     0.006 C 
BRANCH   3   4
ATOM      4  C   UNL     1      -1.944  -1.184  -1.587  1.00  0.00     0.053 C 
BRANCH   4   5
ATOM      5  C   UNL     1      -2.904  -2.128  -0.935  1.00  0.00     0.041 C 
ATOM      6  O   UNL     1      -3.943  -1.690  -0.377  1.00  0.00    -0.550 OA
ATOM      7  O   UNL     1      -2.674  -3.497  -0.986  1.00  0.00    -0.550 OA
ENDBRANCH   4   5
ENDBRANCH   3   4
ENDBRANCH   2   3
ENDBRANCH   1   2
BRANCH   1   8
ATOM      8  C   UNL     1       1.926   0.813  -1.538  1.00  0.00     0.000 C 
BRANCH   8   9
ATOM      9  C   UNL     1       2.754   2.103  -1.379  1.00  0.00     0.006 C 
BRANCH   9  10
ATOM     10  C   UNL     1       2.327   2.989  -0.197  1.00  0.00     0.053 C 
BRANCH  10  11
ATOM     11  C   UNL     1       2.775   4.408  -0.369  1.00  0.00     0.041 C 
ATOM     12  O   UNL     1       2.032   5.241  -0.951  1.00  0.00    -0.550 OA
ATOM     13  O   UNL     1       4.001   4.817   0.140  1.00  0.00    -0.550 OA
ENDBRANCH  10  11
ENDBRANCH   9  10
ENDBRANCH   8   9
ENDBRANCH   1   8
TORSDOF 8
ENDMDL
MODEL 4
REMARK VINA RESULT:    -4.462      1.571      2.590
REMARK INTER + INTRA:          -6.894
REMARK INTER:                  -6.612
REMARK INTRA:                  -0.282
REMARK UNBOUND:                -0.345
REMARK SMILES O=C([O-])CCCCCCCC(=O)[O-]
REMARK SMILES IDX 7 1 6 2 5 3 4 4 2 5 1 6 3 7 8 8 9 9 10 10 11 11 12 12 13 13
REMARK H PARENT
REMARK Flexibility Score: inf
ROOT
ATOM      1  C   UNL     1       0.435   0.929  -1.152  1.00  0.00     0.000 C 
ENDROOT
BRANCH   1   2
ATOM      2  C   UNL     1       1.913   0.807  -1.565  1.00  0.00     0.000 C 
BRANCH   2   3
ATOM      3  C   UNL     1       2.786   2.033  -1.240  1.00  0.00     0.006 C 
BRANCH   3   4
ATOM      4  C   UNL     1       2.118   3.002  -0.255  1.00  0.00     0.053 C 
BRANCH   4   5
ATOM      5  C   UNL     1       2.686   4.377  -0.408  1.00  0.00     0.041 C 
ATOM      6  O   UNL     1       1.994   5.295  -0.920  1.00  0.00    -0.550 OA
ATOM      7  O   UNL     1       3.963   4.657   0.061  1.00  0.00    -0.550 OA
ENDBRANCH   4   5
ENDBRANCH   3   4
ENDBRANCH   2   3
ENDBRANCH   1   2
BRANCH   1   8
ATOM      8  C   UNL     1      -0.015  -0.194  -0.201  1.00  0.00     0.000 C 
BRANCH   8   9
ATOM      9  C   UNL     1      -0.511  -1.445  -0.950  1.00  0.00     0.006 C 
BRANCH   9  10
ATOM     10  C   UNL     1      -1.894  -1.288  -1.603  1.00  0.00     0.053 C 
BRANCH  10  11
ATOM     11  C   UNL     1      -2.934  -2.125  -0.923  1.00  0.00     0.041 C 
ATOM     12  O   UNL     1      -3.879  -1.578  -0.298  1.00  0.00    -0.550 OA
ATOM     13  O   UNL     1      -2.874  -3.510  -1.007  1.00  0.00    -0.550 OA
ENDBRANCH  10  11
ENDBRANCH   9  10
ENDBRANCH   8   9
ENDBRANCH   1   8
TORSDOF 8
ENDMDL
MODEL 5
REMARK VINA RESULT:    -2.905     12.832     14.150
REMARK INTER + INTRA:          -4.608
REMARK INTER:                  -4.273
REMARK INTRA:                  -0.335
REMARK UNBOUND:                -0.345
REMARK SMILES O=C([O-])CCCCCCCC(=O)[O-]
REMARK SMILES IDX 7 1 6 2 5 3 4 4 2 5 1 6 3 7 8 8 9 9 10 10 11 11 12 12 13 13
REMARK H PARENT
REMARK Flexibility Score: inf
ROOT
ATOM      1  C   UNL     1      -8.769  -4.822   8.193  1.00  0.00     0.000 C 
ENDROOT
BRANCH   1   2
ATOM      2  C   UNL     1      -9.001  -3.537   7.377  1.00  0.00     0.000 C 
BRANCH   2   3
ATOM      3  C   UNL     1     -10.026  -2.557   7.976  1.00  0.00     0.006 C 
BRANCH   3   4
ATOM      4  C   UNL     1      -9.708  -2.168   9.426  1.00  0.00     0.053 C 
BRANCH   4   5
ATOM      5  C   UNL     1      -9.282  -0.736   9.501  1.00  0.00     0.041 C 
ATOM      6  O   UNL     1     -10.125   0.162   9.761  1.00  0.00    -0.550 OA
ATOM      7  O   UNL     1      -7.945  -0.399   9.333  1.00  0.00    -0.550 OA
ENDBRANCH   4   5
ENDBRANCH   3   4
ENDBRANCH   2   3
ENDBRANCH   1   2
BRANCH   1   8
ATOM      8  C   UNL     1     -10.053  -5.644   8.394  1.00  0.00     0.000 C 
BRANCH   8   9
ATOM      9  C   UNL     1     -10.048  -6.444   9.710  1.00  0.00     0.006 C 
BRANCH   9  10
ATOM     10  C   UNL     1      -8.793  -7.306   9.924  1.00  0.00     0.053 C 
BRANCH  10  11
ATOM     11  C   UNL     1      -9.005  -8.723   9.488  1.00  0.00     0.041 C 
ATOM     12  O   UNL     1      -9.778  -8.982   8.529  1.00  0.00    -0.550 OA
ATOM     13  O   UNL     1      -8.324  -9.755  10.121  1.00  0.00    -0.550 OA
ENDBRANCH  10  11
ENDBRANCH   9  10
ENDBRANCH   8   9
ENDBRANCH   1   8
TORSDOF 8
ENDMDL
MODEL 6
REMARK VINA RESULT:    -2.738     12.607     14.992
REMARK INTER + INTRA:          -4.364
REMARK INTER:                  -4.017
REMARK INTRA:                  -0.346
REMARK UNBOUND:                -0.345
REMARK SMILES O=C([O-])CCCCCCCC(=O)[O-]
REMARK SMILES IDX 7 1 6 2 5 3 4 4 2 5 1 6 3 7 8 8 9 9 10 10 11 11 12 12 13 13
REMARK H PARENT
REMARK Flexibility Score: inf
ROOT
ATOM      1  C   UNL     1      -8.579  -4.746   7.969  1.00  0.00     0.000 C 
ENDROOT
BRANCH   1   2
ATOM      2  C   UNL     1      -9.826  -5.595   8.279  1.00  0.00     0.000 C 
BRANCH   2   3
ATOM      3  C   UNL     1      -9.992  -5.998   9.756  1.00  0.00     0.006 C 
BRANCH   3   4
ATOM      4  C   UNL     1     -10.125  -7.515   9.953  1.00  0.00     0.053 C 
BRANCH   4   5
ATOM      5  C   UNL     1      -8.776  -8.161   9.964  1.00  0.00     0.041 C 
ATOM      6  O   UNL     1      -8.667  -9.403   9.790  1.00  0.00    -0.550 OA
ATOM      7  O   UNL     1      -7.635  -7.384  10.119  1.00  0.00    -0.550 OA
ENDBRANCH   4   5
ENDBRANCH   3   4
ENDBRANCH   2   3
ENDBRANCH   1   2
BRANCH   1   8
ATOM      8  C   UNL     1      -8.907  -3.470   7.175  1.00  0.00     0.000 C 
BRANCH   8   9
ATOM      9  C   UNL     1     -10.081  -2.677   7.782  1.00  0.00     0.006 C 
BRANCH   9  10
ATOM     10  C   UNL     1      -9.871  -2.252   9.245  1.00  0.00     0.053 C 
BRANCH  10  11
ATOM     11  C   UNL     1      -9.263  -0.887   9.350  1.00  0.00     0.041 C 
ATOM     12  O   UNL     1      -9.948   0.080   9.772  1.00  0.00    -0.550 OA
ATOM     13  O   UNL     1      -7.931  -0.692   9.011  1.00  0.00    -0.550 OA
ENDBRANCH  10  11
ENDBRANCH   9  10
ENDBRANCH   8   9
ENDBRANCH   1   8
TORSDOF 8
ENDMDL
MODEL 7
REMARK VINA RESULT:    -2.437      1.523      6.613
REMARK INTER + INTRA:          -3.922
REMARK INTER:                  -4.010
REMARK INTRA:                   0.089
REMARK UNBOUND:                -0.345
REMARK SMILES O=C([O-])CCCCCCCC(=O)[O-]
REMARK SMILES IDX 7 1 6 2 5 3 4 4 2 5 1 6 3 7 8 8 9 9 10 10 11 11 12 12 13 13
REMARK H PARENT
REMARK Flexibility Score: inf
ROOT
ATOM      1  C   UNL     1      -0.186   0.905  -0.121  1.00  0.00     0.000 C 
ENDROOT
BRANCH   1   2
ATOM      2  C   UNL     1       0.456  -0.332  -0.777  1.00  0.00     0.000 C 
BRANCH   2   3
ATOM      3  C   UNL     1      -0.487  -1.533  -0.972  1.00  0.00     0.006 C 
BRANCH   3   4
ATOM      4  C   UNL     1      -1.860  -1.134  -1.531  1.00  0.00     0.053 C 
BRANCH   4   5
ATOM      5  C   UNL     1      -2.925  -2.036  -0.994  1.00  0.00     0.041 C 
ATOM      6  O   UNL     1      -2.811  -3.285  -1.102  1.00  0.00    -0.550 OA
ATOM      7  O   UNL     1      -4.021  -1.500  -0.330  1.00  0.00    -0.550 OA
ENDBRANCH   4   5
ENDBRANCH   3   4
ENDBRANCH   2   3
ENDBRANCH   1   2
BRANCH   1   8
ATOM      8  C   UNL     1       0.029   2.193  -0.933  1.00  0.00     0.000 C 
BRANCH   8   9
ATOM      9  C   UNL     1       0.776   3.281  -0.137  1.00  0.00     0.006 C 
BRANCH   9  10
ATOM     10  C   UNL     1       2.249   3.461  -0.537  1.00  0.00     0.053 C 
BRANCH  10  11
ATOM     11  C   UNL     1       2.857   2.183  -1.028  1.00  0.00     0.041 C 
ATOM     12  O   UNL     1       2.677   1.812  -2.217  1.00  0.00    -0.550 OA
ATOM     13  O   UNL     1       3.648   1.419  -0.180  1.00  0.00    -0.550 OA
ENDBRANCH  10  11
ENDBRANCH   9  10
ENDBRANCH   8   9
ENDBRANCH   1   8
TORSDOF 8
ENDMDL
