MODEL 1
REMARK VINA RESULT:    -4.713      0.000      0.000
REMARK INTER + INTRA:          -4.713
REMARK INTER:                  -4.713
REMARK INTRA:                   0.000
REMARK UNBOUND:                 0.000
REMARK SMILES CC1(C)[C@H]2CC[C@]1(C)C(=O)C2
REMARK SMILES IDX 1 1 2 2 4 3 5 4 6 5 7 6 9 7 10 8 11 9 8 10 3 11
REMARK H PARENT
REMARK Flexibility Score: inf
ROOT
ATOM      1  C   UNL     1       2.654  43.529  -0.833  1.00  0.00     0.012 C 
ATOM      2  C   UNL     1       1.165  43.072  -0.889  1.00  0.00    -0.020 C 
ATOM      3  C   UNL     1       0.635  42.501   0.448  1.00  0.00     0.003 C 
ATOM      4  C   UNL     1       0.703  43.731   1.396  1.00  0.00     0.005 C 
ATOM      5  C   UNL     1       0.339  44.911   0.461  1.00  0.00     0.015 C 
ATOM      6  C   UNL     1       0.120  44.208  -0.901  1.00  0.00     0.032 C 
ATOM      7  C   UNL     1      -1.154  43.419  -0.727  1.00  0.00     0.139 C 
ATOM      8  O   UNL     1      -2.253  43.723  -1.165  1.00  0.00    -0.299 OA
ATOM      9  C   UNL     1      -0.872  42.249   0.166  1.00  0.00     0.080 C 
ATOM     10  C   UNL     1       0.141  45.143  -2.116  1.00  0.00     0.020 C 
ATOM     11  C   UNL     1       1.054  42.072  -2.082  1.00  0.00     0.012 C 
ENDROOT
TORSDOF 0
ENDMDL
MODEL 2
REMARK VINA RESULT:    -4.710      1.018      2.826
REMARK INTER + INTRA:          -4.710
REMARK INTER:                  -4.710
REMARK INTRA:                   0.000
REMARK UNBOUND:                 0.000
REMARK SMILES CC1(C)[C@H]2CC[C@]1(C)C(=O)C2
REMARK SMILES IDX 1 1 2 2 4 3 5 4 6 5 7 6 9 7 10 8 11 9 8 10 3 11
REMARK H PARENT
REMARK Flexibility Score: inf
ROOT
ATOM      1  C   UNL     1       2.037  42.639   0.945  1.00  0.00     0.012 C 
ATOM      2  C   UNL     1       0.983  43.578   0.285  1.00  0.00    -0.020 C 
ATOM      3  C   UNL     1       1.537  44.404  -0.902  1.00  0.00     0.003 C 
ATOM      4  C   UNL     1       1.892  43.308  -1.945  1.00  0.00     0.005 C 
ATOM      5  C   UNL     1       0.773  42.256  -1.739  1.00  0.00     0.015 C 
ATOM      6  C   UNL     1      -0.071  42.878  -0.600  1.00  0.00     0.032 C 
ATOM      7  C   UNL     1      -0.745  44.072  -1.229  1.00  0.00     0.139 C 
ATOM      8  O   UNL     1      -1.913  44.134  -1.581  1.00  0.00    -0.299 OA
ATOM      9  C   UNL     1       0.283  45.139  -1.451  1.00  0.00     0.080 C 
ATOM     10  C   UNL     1      -1.015  41.900   0.107  1.00  0.00     0.020 C 
ATOM     11  C   UNL     1       0.392  44.455   1.433  1.00  0.00     0.012 C 
ENDROOT
TORSDOF 0
ENDMDL
MODEL 3
REMARK VINA RESULT:    -4.587      1.841      3.191
REMARK INTER + INTRA:          -4.587
REMARK INTER:                  -4.587
REMARK INTRA:                   0.000
REMARK UNBOUND:                 0.000
REMARK SMILES CC1(C)[C@H]2CC[C@]1(C)C(=O)C2
REMARK SMILES IDX 1 1 2 2 4 3 5 4 6 5 7 6 9 7 10 8 11 9 8 10 3 11
REMARK H PARENT
REMARK Flexibility Score: inf
ROOT
ATOM      1  C   UNL     1      -1.604  43.708  -1.011  1.00  0.00     0.012 C 
ATOM      2  C   UNL     1      -0.107  43.994  -0.684  1.00  0.00    -0.020 C 
ATOM      3  C   UNL     1       0.156  44.327   0.804  1.00  0.00     0.003 C 
ATOM      4  C   UNL     1      -0.227  43.003   1.523  1.00  0.00     0.005 C 
ATOM      5  C   UNL     1       0.236  41.916   0.521  1.00  0.00     0.015 C 
ATOM      6  C   UNL     1       0.813  42.755  -0.645  1.00  0.00     0.032 C 
ATOM      7  C   UNL     1       2.078  43.364  -0.092  1.00  0.00     0.139 C 
ATOM      8  O   UNL     1       3.217  42.993  -0.329  1.00  0.00    -0.299 OA
ATOM      9  C   UNL     1       1.704  44.436   0.885  1.00  0.00     0.080 C 
ATOM     10  C   UNL     1       0.986  41.990  -1.962  1.00  0.00     0.020 C 
ATOM     11  C   UNL     1       0.353  45.117  -1.666  1.00  0.00     0.012 C 
ENDROOT
TORSDOF 0
ENDMDL
MODEL 4
REMARK VINA RESULT:    -4.587      1.456      3.013
REMARK INTER + INTRA:          -4.587
REMARK INTER:                  -4.587
REMARK INTRA:                   0.000
REMARK UNBOUND:                 0.000
REMARK SMILES CC1(C)[C@H]2CC[C@]1(C)C(=O)C2
REMARK SMILES IDX 1 1 2 2 4 3 5 4 6 5 7 6 9 7 10 8 11 9 8 10 3 11
REMARK H PARENT
REMARK Flexibility Score: inf
ROOT
ATOM      1  C   UNL     1       1.038  42.074  -1.986  1.00  0.00     0.012 C 
ATOM      2  C   UNL     1       1.103  43.245  -0.960  1.00  0.00    -0.020 C 
ATOM      3  C   UNL     1       0.248  44.472  -1.357  1.00  0.00     0.003 C 
ATOM      4  C   UNL     1      -1.199  43.907  -1.318  1.00  0.00     0.005 C 
ATOM      5  C   UNL     1      -1.153  42.912  -0.132  1.00  0.00     0.015 C 
ATOM      6  C   UNL     1       0.314  43.027   0.349  1.00  0.00     0.032 C 
ATOM      7  C   UNL     1       0.411  44.401   0.966  1.00  0.00     0.139 C 
ATOM      8  O   UNL     1       0.425  44.652   2.161  1.00  0.00    -0.299 OA
ATOM      9  C   UNL     1       0.380  45.420  -0.132  1.00  0.00     0.080 C 
ATOM     10  C   UNL     1       0.787  41.880   1.249  1.00  0.00     0.020 C 
ATOM     11  C   UNL     1       2.616  43.575  -0.762  1.00  0.00     0.012 C 
ENDROOT
TORSDOF 0
ENDMDL
MODEL 5
REMARK VINA RESULT:    -4.566      1.950      3.221
REMARK INTER + INTRA:          -4.566
REMARK INTER:                  -4.566
REMARK INTRA:                   0.000
REMARK UNBOUND:                 0.000
REMARK SMILES CC1(C)[C@H]2CC[C@]1(C)C(=O)C2
REMARK SMILES IDX 1 1 2 2 4 3 5 4 6 5 7 6 9 7 10 8 11 9 8 10 3 11
REMARK H PARENT
REMARK Flexibility Score: inf
ROOT
ATOM      1  C   UNL     1      -0.766  44.632  -1.392  1.00  0.00     0.012 C 
ATOM      2  C   UNL     1       0.077  44.159  -0.171  1.00  0.00    -0.020 C 
ATOM      3  C   UNL     1      -0.675  43.187   0.771  1.00  0.00     0.003 C 
ATOM      4  C   UNL     1      -0.909  41.946  -0.135  1.00  0.00     0.005 C 
ATOM      5  C   UNL     1       0.378  41.897  -0.997  1.00  0.00     0.015 C 
ATOM      6  C   UNL     1       1.176  43.120  -0.483  1.00  0.00     0.032 C 
ATOM      7  C   UNL     1       1.606  42.740   0.913  1.00  0.00     0.139 C 
ATOM      8  O   UNL     1       2.725  42.379   1.246  1.00  0.00    -0.299 OA
ATOM      9  C   UNL     1       0.406  42.774   1.808  1.00  0.00     0.080 C 
ATOM     10  C   UNL     1       2.310  43.581  -1.406  1.00  0.00     0.020 C 
ATOM     11  C   UNL     1       0.586  45.450   0.543  1.00  0.00     0.012 C 
ENDROOT
TORSDOF 0
ENDMDL
MODEL 6
REMARK VINA RESULT:    -4.506      1.379      2.669
REMARK INTER + INTRA:          -4.506
REMARK INTER:                  -4.506
REMARK INTRA:                   0.000
REMARK UNBOUND:                 0.000
REMARK SMILES CC1(C)[C@H]2CC[C@]1(C)C(=O)C2
REMARK SMILES IDX 1 1 2 2 4 3 5 4 6 5 7 6 9 7 10 8 11 9 8 10 3 11
REMARK H PARENT
REMARK Flexibility Score: inf
ROOT
ATOM      1  C   UNL     1       1.802  45.715  -0.429  1.00  0.00     0.012 C 
ATOM      2  C   UNL     1       0.928  44.470  -0.768  1.00  0.00    -0.020 C 
ATOM      3  C   UNL     1       1.636  43.440  -1.681  1.00  0.00     0.003 C 
ATOM      4  C   UNL     1       2.812  42.947  -0.793  1.00  0.00     0.005 C 
ATOM      5  C   UNL     1       2.198  42.946   0.629  1.00  0.00     0.015 C 
ATOM      6  C   UNL     1       0.755  43.447   0.375  1.00  0.00     0.032 C 
ATOM      7  C   UNL     1       0.080  42.316  -0.362  1.00  0.00     0.139 C 
ATOM      8  O   UNL     1      -0.713  41.520   0.117  1.00  0.00    -0.299 OA
ATOM      9  C   UNL     1       0.623  42.263  -1.756  1.00  0.00     0.080 C 
ATOM     10  C   UNL     1       0.017  43.938   1.625  1.00  0.00     0.020 C 
ATOM     11  C   UNL     1      -0.408  45.016  -1.362  1.00  0.00     0.012 C 
ENDROOT
TORSDOF 0
ENDMDL
MODEL 7
REMARK VINA RESULT:    -4.319      1.997      3.147
REMARK INTER + INTRA:          -4.319
REMARK INTER:                  -4.319
REMARK INTRA:                   0.000
REMARK UNBOUND:                 0.000
REMARK SMILES CC1(C)[C@H]2CC[C@]1(C)C(=O)C2
REMARK SMILES IDX 1 1 2 2 4 3 5 4 6 5 7 6 9 7 10 8 11 9 8 10 3 11
REMARK H PARENT
REMARK Flexibility Score: inf
ROOT
ATOM      1  C   UNL     1      -0.614  44.246  -1.604  1.00  0.00     0.012 C 
ATOM      2  C   UNL     1       0.594  43.460  -1.011  1.00  0.00    -0.020 C 
ATOM      3  C   UNL     1       1.954  44.179  -1.185  1.00  0.00     0.003 C 
ATOM      4  C   UNL     1       1.775  45.462  -0.327  1.00  0.00     0.005 C 
ATOM      5  C   UNL     1       0.914  44.968   0.863  1.00  0.00     0.015 C 
ATOM      6  C   UNL     1       0.703  43.471   0.529  1.00  0.00     0.032 C 
ATOM      7  C   UNL     1       2.060  42.839   0.718  1.00  0.00     0.139 C 
ATOM      8  O   UNL     1       2.409  42.161   1.671  1.00  0.00    -0.299 OA
ATOM      9  C   UNL     1       2.948  43.270  -0.409  1.00  0.00     0.080 C 
ATOM     10  C   UNL     1      -0.438  42.797   1.300  1.00  0.00     0.020 C 
ATOM     11  C   UNL     1       0.553  42.038  -1.651  1.00  0.00     0.012 C 
ENDROOT
TORSDOF 0
ENDMDL
MODEL 8
REMARK VINA RESULT:    -4.282      1.786      2.968
REMARK INTER + INTRA:          -4.282
REMARK INTER:                  -4.282
REMARK INTRA:                   0.000
REMARK UNBOUND:                 0.000
REMARK SMILES CC1(C)[C@H]2CC[C@]1(C)C(=O)C2
REMARK SMILES IDX 1 1 2 2 4 3 5 4 6 5 7 6 9 7 10 8 11 9 8 10 3 11
REMARK H PARENT
REMARK Flexibility Score: inf
ROOT
ATOM      1  C   UNL     1      -0.362  43.020   2.231  1.00  0.00     0.012 C 
ATOM      2  C   UNL     1       0.445  42.614   0.962  1.00  0.00    -0.020 C 
ATOM      3  C   UNL     1      -0.440  42.185  -0.233  1.00  0.00     0.003 C 
ATOM      4  C   UNL     1      -1.209  43.492  -0.575  1.00  0.00     0.005 C 
ATOM      5  C   UNL     1      -0.157  44.596  -0.302  1.00  0.00     0.015 C 
ATOM      6  C   UNL     1       1.073  43.782   0.171  1.00  0.00     0.032 C 
ATOM      7  C   UNL     1       1.553  43.059  -1.063  1.00  0.00     0.139 C 
ATOM      8  O   UNL     1       2.522  43.363  -1.742  1.00  0.00    -0.299 OA
ATOM      9  C   UNL     1       0.581  41.965  -1.384  1.00  0.00     0.080 C 
ATOM     10  C   UNL     1       2.144  44.602   0.898  1.00  0.00     0.020 C 
ATOM     11  C   UNL     1       1.458  41.516   1.414  1.00  0.00     0.012 C 
ENDROOT
TORSDOF 0
ENDMDL
MODEL 9
REMARK VINA RESULT:    -4.170      1.387      2.570
REMARK INTER + INTRA:          -4.170
REMARK INTER:                  -4.170
REMARK INTRA:                   0.000
REMARK UNBOUND:                 0.000
REMARK SMILES CC1(C)[C@H]2CC[C@]1(C)C(=O)C2
REMARK SMILES IDX 1 1 2 2 4 3 5 4 6 5 7 6 9 7 10 8 11 9 8 10 3 11
REMARK H PARENT
REMARK Flexibility Score: inf
ROOT
ATOM      1  C   UNL     1       1.926  41.877   1.544  1.00  0.00     0.012 C 
ATOM      2  C   UNL     1       1.602  42.890   0.405  1.00  0.00    -0.020 C 
ATOM      3  C   UNL     1       0.787  42.282  -0.761  1.00  0.00     0.003 C 
ATOM      4  C   UNL     1      -0.560  41.910  -0.080  1.00  0.00     0.005 C 
ATOM      5  C   UNL     1      -0.758  43.054   0.946  1.00  0.00     0.015 C 
ATOM      6  C   UNL     1       0.503  43.925   0.729  1.00  0.00     0.032 C 
ATOM      7  C   UNL     1       0.306  44.557  -0.628  1.00  0.00     0.139 C 
ATOM      8  O   UNL     1      -0.034  45.710  -0.840  1.00  0.00    -0.299 OA
ATOM      9  C   UNL     1       0.492  43.503  -1.676  1.00  0.00     0.080 C 
ATOM     10  C   UNL     1       0.805  44.911   1.862  1.00  0.00     0.020 C 
ATOM     11  C   UNL     1       2.966  43.505  -0.040  1.00  0.00     0.012 C 
ENDROOT
TORSDOF 0
ENDMDL
