MODEL 1
REMARK VINA RESULT:     8.582      0.000      0.000
REMARK INTER + INTRA:          11.349
REMARK INTER:                  10.589
REMARK INTRA:                   0.759
REMARK UNBOUND:                 0.759
REMARK SMILES CC1=CC=CC(C)(C)CC1=O
REMARK SMILES IDX 1 1 2 2 3 3 10 4 11 5 9 6 4 8 5 9 6 10 7 11 8 12
REMARK H PARENT
REMARK Flexibility Score: 80.00
ROOT
ATOM      1  C   UNL     1      35.689  13.600  42.855  1.00  0.00     0.048 C 
ATOM      2  C   UNL     1      34.694  12.900  41.960  1.00  0.00    -0.008 C 
ATOM      3  C   UNL     1      34.506  13.400  40.721  1.00  0.00     0.007 C 
ENDROOT
BRANCH   2   4
ATOM      4  C   UNL     1      34.057  11.669  42.492  1.00  0.00     0.159 C 
ATOM      5  O   UNL     1      34.508  11.161  43.556  1.00  0.00    -0.295 OA
BRANCH   4   6
ATOM      6  C   UNL     1      32.890  10.995  41.840  1.00  0.00     0.091 CG0
ATOM      7  G   UNL     1      33.180  10.541  40.392  1.00  0.00     0.000 G0
ENDBRANCH   4   6
ENDBRANCH   2   4
BRANCH   3   8
ATOM      8  C   UNL     1      33.630  12.923  39.625  1.00  0.00    -0.003 C 
ATOM      9  C   UNL     1      33.068  11.719  39.457  1.00  0.00    -0.020 C 
BRANCH   9  10
ATOM     10  C   UNL     1      33.178  10.539  40.393  1.00  0.00    -0.010 CG0
ATOM     11  C   UNL     1      34.562   9.869  40.238  1.00  0.00     0.016 C 
ATOM     12  C   UNL     1      32.100   9.503  39.997  1.00  0.00     0.016 C 
ATOM     13  G   UNL     1      32.896  10.996  41.842  1.00  0.00     0.000 G0
ENDBRANCH   9  10
ENDBRANCH   3   8
TORSDOF 0
ENDMDL
MODEL 2
REMARK VINA RESULT:     8.940      1.392      2.344
REMARK INTER + INTRA:          11.790
REMARK INTER:                  10.738
REMARK INTRA:                   1.052
REMARK UNBOUND:                 0.759
REMARK SMILES CC1=CC=CC(C)(C)CC1=O
REMARK SMILES IDX 1 1 2 2 3 3 10 4 11 5 9 6 4 8 5 9 6 10 7 11 8 12
REMARK H PARENT
REMARK Flexibility Score: 80.00
ROOT
ATOM      1  C   UNL     1      35.725  13.626  42.679  1.00  0.00     0.048 C 
ATOM      2  C   UNL     1      34.676  12.732  42.060  1.00  0.00    -0.008 C 
ATOM      3  C   UNL     1      33.779  12.153  42.888  1.00  0.00     0.007 C 
ENDROOT
BRANCH   2   4
ATOM      4  C   UNL     1      34.669  12.623  40.580  1.00  0.00     0.159 C 
ATOM      5  O   UNL     1      35.683  13.012  39.937  1.00  0.00    -0.295 OA
BRANCH   4   6
ATOM      6  C   UNL     1      33.523  12.060  39.798  1.00  0.00     0.091 CG0
ATOM      7  G   UNL     1      33.184  10.602  40.179  1.00  0.00     0.000 G0
ENDBRANCH   4   6
ENDBRANCH   2   4
BRANCH   3   8
ATOM      8  C   UNL     1      32.637  11.262  42.579  1.00  0.00    -0.003 C 
ATOM      9  C   UNL     1      32.358  10.611  41.442  1.00  0.00    -0.020 C 
BRANCH   9  10
ATOM     10  C   UNL     1      33.187  10.612  40.180  1.00  0.00    -0.010 CG0
ATOM     11  C   UNL     1      32.441   9.855  39.057  1.00  0.00     0.016 C 
ATOM     12  C   UNL     1      34.507   9.858  40.466  1.00  0.00     0.016 C 
ATOM     13  G   UNL     1      33.538  12.065  39.789  1.00  0.00     0.000 G0
ENDBRANCH   9  10
ENDBRANCH   3   8
TORSDOF 0
ENDMDL
MODEL 3
REMARK VINA RESULT:     9.681      1.451      3.581
REMARK INTER + INTRA:          12.704
REMARK INTER:                  11.945
REMARK INTRA:                   0.759
REMARK UNBOUND:                 0.759
REMARK SMILES CC1=CC=CC(C)(C)CC1=O
REMARK SMILES IDX 1 1 2 2 3 3 10 4 11 5 9 6 4 8 5 9 6 10 7 11 8 12
REMARK H PARENT
REMARK Flexibility Score: 80.00
ROOT
ATOM      1  C   UNL     1      31.788   9.259  39.952  1.00  0.00     0.048 C 
ATOM      2  C   UNL     1      32.999  10.029  40.424  1.00  0.00    -0.008 C 
ATOM      3  C   UNL     1      34.164   9.825  39.772  1.00  0.00     0.007 C 
ENDROOT
BRANCH   2   4
ATOM      4  C   UNL     1      32.792  11.006  41.522  1.00  0.00     0.159 C 
ATOM      5  O   UNL     1      31.612  11.305  41.856  1.00  0.00    -0.295 OA
BRANCH   4   6
ATOM      6  C   UNL     1      33.913  11.657  42.271  1.00  0.00     0.091 CG0
ATOM      7  G   UNL     1      34.846  12.493  41.367  1.00  0.00     0.000 G0
ENDBRANCH   4   6
ENDBRANCH   2   4
BRANCH   3   8
ATOM      8  C   UNL     1      35.493  10.444  39.985  1.00  0.00    -0.003 C 
ATOM      9  C   UNL     1      35.805  11.571  40.637  1.00  0.00    -0.020 C 
BRANCH   9  10
ATOM     10  C   UNL     1      34.844  12.488  41.354  1.00  0.00    -0.010 CG0
ATOM     11  C   UNL     1      34.065  13.344  40.329  1.00  0.00     0.016 C 
ATOM     12  C   UNL     1      35.663  13.446  42.250  1.00  0.00     0.016 C 
ATOM     13  G   UNL     1      33.913  11.657  42.265  1.00  0.00     0.000 G0
ENDBRANCH   9  10
ENDBRANCH   3   8
TORSDOF 0
ENDMDL
MODEL 4
REMARK VINA RESULT:    10.815      1.817      3.697
REMARK INTER + INTRA:          14.103
REMARK INTER:                  13.065
REMARK INTRA:                   1.038
REMARK UNBOUND:                 0.759
REMARK SMILES CC1=CC=CC(C)(C)CC1=O
REMARK SMILES IDX 1 1 2 2 3 3 10 4 11 5 9 6 4 8 5 9 6 10 7 11 8 12
REMARK H PARENT
REMARK Flexibility Score: 80.00
ROOT
ATOM      1  C   UNL     1      33.664   8.444  39.007  1.00  0.00     0.048 C 
ATOM      2  C   UNL     1      33.702   9.597  39.982  1.00  0.00    -0.008 C 
ATOM      3  C   UNL     1      32.536   9.981  40.543  1.00  0.00     0.007 C 
ENDROOT
BRANCH   2   4
ATOM      4  C   UNL     1      35.035  10.164  40.304  1.00  0.00     0.159 C 
ATOM      5  O   UNL     1      36.008   9.903  39.543  1.00  0.00    -0.295 OA
BRANCH   4   6
ATOM      6  C   UNL     1      35.293  11.049  41.484  1.00  0.00     0.091 CG0
ATOM      7  G   UNL     1      34.452  12.345  41.470  1.00  0.00     0.000 G0
ENDBRANCH   4   6
ENDBRANCH   2   4
BRANCH   3   8
ATOM      8  C   UNL     1      32.264  11.045  41.538  1.00  0.00    -0.003 C 
ATOM      9  C   UNL     1      33.062  12.039  41.950  1.00  0.00    -0.020 C 
BRANCH   9  10
ATOM     10  C   UNL     1      34.459  12.332  41.457  1.00  0.00    -0.010 CG0
ATOM     11  C   UNL     1      35.093  13.458  42.305  1.00  0.00     0.016 C 
ATOM     12  C   UNL     1      34.364  12.831  39.997  1.00  0.00     0.016 C 
ATOM     13  G   UNL     1      35.297  11.034  41.469  1.00  0.00     0.000 G0
ENDBRANCH   9  10
ENDBRANCH   3   8
TORSDOF 0
ENDMDL
MODEL 5
REMARK VINA RESULT:    10.971      1.703      3.026
REMARK INTER + INTRA:          14.296
REMARK INTER:                  13.523
REMARK INTRA:                   0.773
REMARK UNBOUND:                 0.759
REMARK SMILES CC1=CC=CC(C)(C)CC1=O
REMARK SMILES IDX 1 1 2 2 3 3 10 4 11 5 9 6 4 8 5 9 6 10 7 11 8 12
REMARK H PARENT
REMARK Flexibility Score: 80.00
ROOT
ATOM      1  C   UNL     1      37.063  10.298  39.574  1.00  0.00     0.048 C 
ATOM      2  C   UNL     1      35.581  10.430  39.842  1.00  0.00    -0.008 C 
ATOM      3  C   UNL     1      34.825   9.317  39.738  1.00  0.00     0.007 C 
ENDROOT
BRANCH   2   4
ATOM      4  C   UNL     1      35.090  11.763  40.272  1.00  0.00     0.159 C 
ATOM      5  O   UNL     1      35.931  12.647  40.595  1.00  0.00    -0.295 OA
BRANCH   4   6
ATOM      6  C   UNL     1      33.639  12.128  40.334  1.00  0.00     0.091 CG0
ATOM      7  G   UNL     1      32.823  11.223  41.284  1.00  0.00     0.000 G0
ENDBRANCH   4   6
ENDBRANCH   2   4
BRANCH   3   8
ATOM      8  C   UNL     1      33.372   9.131  39.962  1.00  0.00    -0.003 C 
ATOM      9  C   UNL     1      32.512   9.916  40.624  1.00  0.00    -0.020 C 
BRANCH   9  10
ATOM     10  C   UNL     1      32.831  11.231  41.293  1.00  0.00    -0.010 CG0
ATOM     11  C   UNL     1      33.579  10.981  42.623  1.00  0.00     0.016 C 
ATOM     12  C   UNL     1      31.499  11.944  41.623  1.00  0.00     0.016 C 
ATOM     13  G   UNL     1      33.629  12.130  40.322  1.00  0.00     0.000 G0
ENDBRANCH   9  10
ENDBRANCH   3   8
TORSDOF 0
ENDMDL
MODEL 6
REMARK VINA RESULT:    11.474      1.346      3.328
REMARK INTER + INTRA:          14.916
REMARK INTER:                  13.876
REMARK INTRA:                   1.040
REMARK UNBOUND:                 0.759
REMARK SMILES CC1=CC=CC(C)(C)CC1=O
REMARK SMILES IDX 1 1 2 2 3 3 10 4 11 5 9 6 4 8 5 9 6 10 7 11 8 12
REMARK H PARENT
REMARK Flexibility Score: 80.00
ROOT
ATOM      1  C   UNL     1      32.740   9.655  39.884  1.00  0.00     0.048 C 
ATOM      2  C   UNL     1      33.322  10.945  40.413  1.00  0.00    -0.008 C 
ATOM      3  C   UNL     1      33.238  12.038  39.625  1.00  0.00     0.007 C 
ENDROOT
BRANCH   2   4
ATOM      4  C   UNL     1      33.873  10.922  41.791  1.00  0.00     0.159 C 
ATOM      5  O   UNL     1      34.094   9.808  42.340  1.00  0.00    -0.295 OA
BRANCH   4   6
ATOM      6  C   UNL     1      34.197  12.158  42.571  1.00  0.00     0.091 CG0
ATOM      7  G   UNL     1      35.222  13.073  41.865  1.00  0.00     0.000 G0
ENDBRANCH   4   6
ENDBRANCH   2   4
BRANCH   3   8
ATOM      8  C   UNL     1      33.688  13.428  39.876  1.00  0.00    -0.003 C 
ATOM      9  C   UNL     1      34.512  13.890  40.826  1.00  0.00    -0.020 C 
BRANCH   9  10
ATOM     10  C   UNL     1      35.219  13.069  41.878  1.00  0.00    -0.010 CG0
ATOM     11  C   UNL     1      35.958  14.000  42.866  1.00  0.00     0.016 C 
ATOM     12  C   UNL     1      36.275  12.185  41.175  1.00  0.00     0.016 C 
ATOM     13  G   UNL     1      34.205  12.139  42.581  1.00  0.00     0.000 G0
ENDBRANCH   9  10
ENDBRANCH   3   8
TORSDOF 0
ENDMDL
