MODEL 1
REMARK VINA RESULT:    -3.167      0.000      0.000
REMARK INTER + INTRA:          -5.952
REMARK INTER:                  -5.388
REMARK INTRA:                  -0.564
REMARK UNBOUND:                -0.564
REMARK SMILES CCCCCCCCCCCCCC(=O)[O-]
REMARK SMILES IDX 8 1 9 2 10 3 11 4 12 5 13 6 14 7 15 8 16 9 7 10 6 11 5 12
REMARK SMILES IDX 4 13 3 14 2 15 1 16
REMARK H PARENT
REMARK Flexibility Score: inf
ROOT
ATOM      1  C   UNL     1     -15.611  16.774  -8.862  1.00  0.00     0.000 C 
ENDROOT
BRANCH   1   2
ATOM      2  C   UNL     1     -16.398  16.068  -7.741  1.00  0.00     0.000 C 
BRANCH   2   3
ATOM      3  C   UNL     1     -16.480  14.534  -7.866  1.00  0.00     0.000 C 
BRANCH   3   4
ATOM      4  C   UNL     1     -15.260  13.869  -8.535  1.00  0.00     0.000 C 
BRANCH   4   5
ATOM      5  C   UNL     1     -15.543  13.206  -9.897  1.00  0.00     0.006 C 
BRANCH   5   6
ATOM      6  C   UNL     1     -14.466  12.210 -10.356  1.00  0.00     0.053 C 
BRANCH   6   7
ATOM      7  C   UNL     1     -14.319  12.189 -11.847  1.00  0.00     0.041 C 
ATOM      8  O   UNL     1     -13.198  12.411 -12.375  1.00  0.00    -0.550 OA
ATOM      9  O   UNL     1     -15.412  11.889 -12.650  1.00  0.00    -0.550 OA
ENDBRANCH   6   7
ENDBRANCH   5   6
ENDBRANCH   4   5
ENDBRANCH   3   4
ENDBRANCH   2   3
ENDBRANCH   1   2
BRANCH   1  10
ATOM     10  C   UNL     1     -16.476  17.432  -9.953  1.00  0.00     0.000 C 
BRANCH  10  11
ATOM     11  C   UNL     1     -16.331  18.963  -9.989  1.00  0.00    -0.000 C 
BRANCH  11  12
ATOM     12  C   UNL     1     -15.807  19.474 -11.341  1.00  0.00    -0.000 C 
BRANCH  12  13
ATOM     13  C   UNL     1     -16.420  20.829 -11.735  1.00  0.00    -0.000 C 
BRANCH  13  14
ATOM     14  C   UNL     1     -15.356  21.860 -12.147  1.00  0.00    -0.000 C 
BRANCH  14  15
ATOM     15  C   UNL     1     -13.989  21.220 -12.431  1.00  0.00    -0.003 C 
ATOM     16  C   UNL     1     -12.852  22.123 -11.960  1.00  0.00     0.004 C 
ENDBRANCH  14  15
ENDBRANCH  13  14
ENDBRANCH  12  13
ENDBRANCH  11  12
ENDBRANCH  10  11
ENDBRANCH   1  10
TORSDOF 12
ENDMDL
MODEL 2
REMARK VINA RESULT:    -2.989      3.528      6.933
REMARK INTER + INTRA:          -5.649
REMARK INTER:                  -4.617
REMARK INTRA:                  -1.032
REMARK UNBOUND:                -0.564
REMARK SMILES CCCCCCCCCCCCCC(=O)[O-]
REMARK SMILES IDX 8 1 9 2 10 3 11 4 12 5 13 6 14 7 15 8 16 9 7 10 6 11 5 12
REMARK SMILES IDX 4 13 3 14 2 15 1 16
REMARK H PARENT
REMARK Flexibility Score: inf
ROOT
ATOM      1  C   UNL     1     -15.663  15.361  -9.143  1.00  0.00     0.000 C 
ENDROOT
BRANCH   1   2
ATOM      2  C   UNL     1     -16.575  16.380  -8.431  1.00  0.00     0.000 C 
BRANCH   2   3
ATOM      3  C   UNL     1     -16.363  17.849  -8.846  1.00  0.00     0.000 C 
BRANCH   3   4
ATOM      4  C   UNL     1     -16.456  18.117 -10.362  1.00  0.00     0.000 C 
BRANCH   4   5
ATOM      5  C   UNL     1     -15.978  19.513 -10.809  1.00  0.00     0.006 C 
BRANCH   5   6
ATOM      6  C   UNL     1     -14.806  19.497 -11.802  1.00  0.00     0.053 C 
BRANCH   6   7
ATOM      7  C   UNL     1     -14.230  20.864 -12.014  1.00  0.00     0.041 C 
ATOM      8  O   UNL     1     -12.994  21.007 -12.205  1.00  0.00    -0.550 OA
ATOM      9  O   UNL     1     -15.064  21.975 -12.035  1.00  0.00    -0.550 OA
ENDBRANCH   6   7
ENDBRANCH   5   6
ENDBRANCH   4   5
ENDBRANCH   3   4
ENDBRANCH   2   3
ENDBRANCH   1   2
BRANCH   1  10
ATOM     10  C   UNL     1     -15.817  13.905  -8.669  1.00  0.00     0.000 C 
BRANCH  10  11
ATOM     11  C   UNL     1     -14.691  12.989  -9.177  1.00  0.00    -0.000 C 
BRANCH  11  12
ATOM     12  C   UNL     1     -15.051  12.287 -10.496  1.00  0.00    -0.000 C 
BRANCH  12  13
ATOM     13  C   UNL     1     -14.144  12.723 -11.661  1.00  0.00    -0.000 C 
BRANCH  13  14
ATOM     14  C   UNL     1     -14.938  13.039 -12.940  1.00  0.00    -0.000 C 
BRANCH  14  15
ATOM     15  C   UNL     1     -16.360  13.539 -12.646  1.00  0.00    -0.003 C 
ATOM     16  C   UNL     1     -16.435  15.061 -12.730  1.00  0.00     0.004 C 
ENDBRANCH  14  15
ENDBRANCH  13  14
ENDBRANCH  12  13
ENDBRANCH  11  12
ENDBRANCH  10  11
ENDBRANCH   1  10
TORSDOF 12
ENDMDL
MODEL 3
REMARK VINA RESULT:    -2.970      1.234      1.754
REMARK INTER + INTRA:          -5.616
REMARK INTER:                  -4.935
REMARK INTRA:                  -0.682
REMARK UNBOUND:                -0.564
REMARK SMILES CCCCCCCCCCCCCC(=O)[O-]
REMARK SMILES IDX 8 1 9 2 10 3 11 4 12 5 13 6 14 7 15 8 16 9 7 10 6 11 5 12
REMARK SMILES IDX 4 13 3 14 2 15 1 16
REMARK H PARENT
REMARK Flexibility Score: inf
ROOT
ATOM      1  C   UNL     1     -16.214  15.786  -7.971  1.00  0.00     0.000 C 
ENDROOT
BRANCH   1   2
ATOM      2  C   UNL     1     -15.651  14.721  -8.934  1.00  0.00     0.000 C 
BRANCH   2   3
ATOM      3  C   UNL     1     -16.622  13.575  -9.280  1.00  0.00     0.000 C 
BRANCH   3   4
ATOM      4  C   UNL     1     -16.927  13.412 -10.783  1.00  0.00     0.000 C 
BRANCH   4   5
ATOM      5  C   UNL     1     -16.912  11.959 -11.298  1.00  0.00     0.006 C 
BRANCH   5   6
ATOM      6  C   UNL     1     -15.744  11.631 -12.241  1.00  0.00     0.053 C 
BRANCH   6   7
ATOM      7  C   UNL     1     -14.415  11.872 -11.595  1.00  0.00     0.041 C 
ATOM      8  O   UNL     1     -14.150  11.352 -10.479  1.00  0.00    -0.550 OA
ATOM      9  O   UNL     1     -13.456  12.644 -12.240  1.00  0.00    -0.550 OA
ENDBRANCH   6   7
ENDBRANCH   5   6
ENDBRANCH   4   5
ENDBRANCH   3   4
ENDBRANCH   2   3
ENDBRANCH   1   2
BRANCH   1  10
ATOM     10  C   UNL     1     -15.904  17.244  -8.358  1.00  0.00     0.000 C 
BRANCH  10  11
ATOM     11  C   UNL     1     -16.667  17.704  -9.612  1.00  0.00    -0.000 C 
BRANCH  11  12
ATOM     12  C   UNL     1     -15.815  18.604 -10.523  1.00  0.00    -0.000 C 
BRANCH  12  13
ATOM     13  C   UNL     1     -16.540  19.905 -10.908  1.00  0.00    -0.000 C 
BRANCH  13  14
ATOM     14  C   UNL     1     -15.635  20.878 -11.683  1.00  0.00    -0.000 C 
BRANCH  14  15
ATOM     15  C   UNL     1     -14.306  20.237 -12.112  1.00  0.00    -0.003 C 
ATOM     16  C   UNL     1     -13.186  21.273 -12.156  1.00  0.00     0.004 C 
ENDBRANCH  14  15
ENDBRANCH  13  14
ENDBRANCH  12  13
ENDBRANCH  11  12
ENDBRANCH  10  11
ENDBRANCH   1  10
TORSDOF 12
ENDMDL
MODEL 4
REMARK VINA RESULT:    -2.948      2.560      4.849
REMARK INTER + INTRA:          -5.579
REMARK INTER:                  -4.466
REMARK INTRA:                  -1.114
REMARK UNBOUND:                -0.564
REMARK SMILES CCCCCCCCCCCCCC(=O)[O-]
REMARK SMILES IDX 8 1 9 2 10 3 11 4 12 5 13 6 14 7 15 8 16 9 7 10 6 11 5 12
REMARK SMILES IDX 4 13 3 14 2 15 1 16
REMARK H PARENT
REMARK Flexibility Score: inf
ROOT
ATOM      1  C   UNL     1     -14.192  12.803  -7.847  1.00  0.00     0.000 C 
ENDROOT
BRANCH   1   2
ATOM      2  C   UNL     1     -14.588  13.018  -9.322  1.00  0.00     0.000 C 
BRANCH   2   3
ATOM      3  C   UNL     1     -14.473  11.769 -10.218  1.00  0.00     0.000 C 
BRANCH   3   4
ATOM      4  C   UNL     1     -14.957  11.963 -11.669  1.00  0.00     0.000 C 
BRANCH   4   5
ATOM      5  C   UNL     1     -14.747  13.379 -12.243  1.00  0.00     0.006 C 
BRANCH   5   6
ATOM      6  C   UNL     1     -15.940  13.923 -13.045  1.00  0.00     0.053 C 
BRANCH   6   7
ATOM      7  C   UNL     1     -16.745  14.909 -12.254  1.00  0.00     0.041 C 
ATOM      8  O   UNL     1     -17.125  14.625 -11.088  1.00  0.00    -0.550 OA
ATOM      9  O   UNL     1     -17.046  16.154 -12.793  1.00  0.00    -0.550 OA
ENDBRANCH   6   7
ENDBRANCH   5   6
ENDBRANCH   4   5
ENDBRANCH   3   4
ENDBRANCH   2   3
ENDBRANCH   1   2
BRANCH   1  10
ATOM     10  C   UNL     1     -15.113  13.484  -6.818  1.00  0.00     0.000 C 
BRANCH  10  11
ATOM     11  C   UNL     1     -16.589  13.490  -7.250  1.00  0.00    -0.000 C 
BRANCH  11  12
ATOM     12  C   UNL     1     -17.117  14.907  -7.528  1.00  0.00    -0.000 C 
BRANCH  12  13
ATOM     13  C   UNL     1     -16.017  15.977  -7.414  1.00  0.00    -0.000 C 
BRANCH  13  14
ATOM     14  C   UNL     1     -15.687  16.631  -8.767  1.00  0.00    -0.000 C 
BRANCH  14  15
ATOM     15  C   UNL     1     -16.444  17.949  -8.989  1.00  0.00    -0.003 C 
ATOM     16  C   UNL     1     -16.004  18.622 -10.286  1.00  0.00     0.004 C 
ENDBRANCH  14  15
ENDBRANCH  13  14
ENDBRANCH  12  13
ENDBRANCH  11  12
ENDBRANCH  10  11
ENDBRANCH   1  10
TORSDOF 12
ENDMDL
MODEL 5
REMARK VINA RESULT:    -2.845      3.198      6.814
REMARK INTER + INTRA:          -5.405
REMARK INTER:                  -4.338
REMARK INTRA:                  -1.067
REMARK UNBOUND:                -0.564
REMARK SMILES CCCCCCCCCCCCCC(=O)[O-]
REMARK SMILES IDX 8 1 9 2 10 3 11 4 12 5 13 6 14 7 15 8 16 9 7 10 6 11 5 12
REMARK SMILES IDX 4 13 3 14 2 15 1 16
REMARK H PARENT
REMARK Flexibility Score: inf
ROOT
ATOM      1  C   UNL     1     -14.348  13.109  -7.999  1.00  0.00     0.000 C 
ENDROOT
BRANCH   1   2
ATOM      2  C   UNL     1     -15.308  13.576  -6.887  1.00  0.00     0.000 C 
BRANCH   2   3
ATOM      3  C   UNL     1     -16.628  14.198  -7.383  1.00  0.00     0.000 C 
BRANCH   3   4
ATOM      4  C   UNL     1     -16.808  15.694  -7.050  1.00  0.00     0.000 C 
BRANCH   4   5
ATOM      5  C   UNL     1     -17.114  16.599  -8.260  1.00  0.00     0.006 C 
BRANCH   5   6
ATOM      6  C   UNL     1     -15.868  17.141  -8.979  1.00  0.00     0.053 C 
BRANCH   6   7
ATOM      7  C   UNL     1     -16.226  17.972 -10.172  1.00  0.00     0.041 C 
ATOM      8  O   UNL     1     -16.190  19.229 -10.102  1.00  0.00    -0.550 OA
ATOM      9  O   UNL     1     -16.565  17.359 -11.372  1.00  0.00    -0.550 OA
ENDBRANCH   6   7
ENDBRANCH   5   6
ENDBRANCH   4   5
ENDBRANCH   3   4
ENDBRANCH   2   3
ENDBRANCH   1   2
BRANCH   1  10
ATOM     10  C   UNL     1     -15.030  12.515  -9.244  1.00  0.00     0.000 C 
BRANCH  10  11
ATOM     11  C   UNL     1     -14.857  13.392 -10.496  1.00  0.00    -0.000 C 
BRANCH  11  12
ATOM     12  C   UNL     1     -14.079  12.678 -11.614  1.00  0.00    -0.000 C 
BRANCH  12  13
ATOM     13  C   UNL     1     -14.746  12.838 -12.991  1.00  0.00    -0.000 C 
BRANCH  13  14
ATOM     14  C   UNL     1     -16.251  12.520 -12.958  1.00  0.00    -0.000 C 
BRANCH  14  15
ATOM     15  C   UNL     1     -16.543  11.021 -13.125  1.00  0.00    -0.003 C 
ATOM     16  C   UNL     1     -17.125  10.430 -11.844  1.00  0.00     0.004 C 
ENDBRANCH  14  15
ENDBRANCH  13  14
ENDBRANCH  12  13
ENDBRANCH  11  12
ENDBRANCH  10  11
ENDBRANCH   1  10
TORSDOF 12
ENDMDL
MODEL 6
REMARK VINA RESULT:    -2.735      2.189      4.421
REMARK INTER + INTRA:          -5.218
REMARK INTER:                  -4.263
REMARK INTRA:                  -0.956
REMARK UNBOUND:                -0.564
REMARK SMILES CCCCCCCCCCCCCC(=O)[O-]
REMARK SMILES IDX 8 1 9 2 10 3 11 4 12 5 13 6 14 7 15 8 16 9 7 10 6 11 5 12
REMARK SMILES IDX 4 13 3 14 2 15 1 16
REMARK H PARENT
REMARK Flexibility Score: inf
ROOT
ATOM      1  C   UNL     1     -14.295  12.924  -7.925  1.00  0.00     0.000 C 
ENDROOT
BRANCH   1   2
ATOM      2  C   UNL     1     -15.065  13.136  -9.244  1.00  0.00     0.000 C 
BRANCH   2   3
ATOM      3  C   UNL     1     -14.276  12.797 -10.524  1.00  0.00     0.000 C 
BRANCH   3   4
ATOM      4  C   UNL     1     -14.838  13.418 -11.819  1.00  0.00     0.000 C 
BRANCH   4   5
ATOM      5  C   UNL     1     -16.370  13.590 -11.848  1.00  0.00     0.006 C 
BRANCH   5   6
ATOM      6  C   UNL     1     -17.108  12.568 -12.727  1.00  0.00     0.053 C 
BRANCH   6   7
ATOM      7  C   UNL     1     -16.812  11.157 -12.318  1.00  0.00     0.041 C 
ATOM      8  O   UNL     1     -16.251  10.369 -13.124  1.00  0.00    -0.550 OA
ATOM      9  O   UNL     1     -17.125  10.724 -11.035  1.00  0.00    -0.550 OA
ENDBRANCH   6   7
ENDBRANCH   5   6
ENDBRANCH   4   5
ENDBRANCH   3   4
ENDBRANCH   2   3
ENDBRANCH   1   2
BRANCH   1  10
ATOM     10  C   UNL     1     -15.025  13.406  -6.658  1.00  0.00     0.000 C 
BRANCH  10  11
ATOM     11  C   UNL     1     -16.405  14.017  -6.960  1.00  0.00    -0.000 C 
BRANCH  11  12
ATOM     12  C   UNL     1     -16.345  15.541  -7.153  1.00  0.00    -0.000 C 
BRANCH  12  13
ATOM     13  C   UNL     1     -17.026  15.996  -8.456  1.00  0.00    -0.000 C 
BRANCH  13  14
ATOM     14  C   UNL     1     -16.089  16.823  -9.353  1.00  0.00    -0.000 C 
BRANCH  14  15
ATOM     15  C   UNL     1     -16.427  18.321  -9.341  1.00  0.00    -0.003 C 
ATOM     16  C   UNL     1     -16.147  18.957 -10.701  1.00  0.00     0.004 C 
ENDBRANCH  14  15
ENDBRANCH  13  14
ENDBRANCH  12  13
ENDBRANCH  11  12
ENDBRANCH  10  11
ENDBRANCH   1  10
TORSDOF 12
ENDMDL
MODEL 7
REMARK VINA RESULT:    -2.208      1.586      3.055
REMARK INTER + INTRA:          -4.320
REMARK INTER:                  -3.873
REMARK INTRA:                  -0.447
REMARK UNBOUND:                -0.564
REMARK SMILES CCCCCCCCCCCCCC(=O)[O-]
REMARK SMILES IDX 8 1 9 2 10 3 11 4 12 5 13 6 14 7 15 8 16 9 7 10 6 11 5 12
REMARK SMILES IDX 4 13 3 14 2 15 1 16
REMARK H PARENT
REMARK Flexibility Score: inf
ROOT
ATOM      1  C   UNL     1     -16.186  13.907  -7.577  1.00  0.00     0.000 C 
ENDROOT
BRANCH   1   2
ATOM      2  C   UNL     1     -14.777  13.551  -8.094  1.00  0.00     0.000 C 
BRANCH   2   3
ATOM      3  C   UNL     1     -14.732  12.428  -9.148  1.00  0.00     0.000 C 
BRANCH   3   4
ATOM      4  C   UNL     1     -15.475  12.740 -10.463  1.00  0.00     0.000 C 
BRANCH   4   5
ATOM      5  C   UNL     1     -15.709  11.525 -11.384  1.00  0.00     0.006 C 
BRANCH   5   6
ATOM      6  C   UNL     1     -15.253  11.731 -12.837  1.00  0.00     0.053 C 
BRANCH   6   7
ATOM      7  C   UNL     1     -14.191  12.783 -12.948  1.00  0.00     0.041 C 
ATOM      8  O   UNL     1     -14.510  13.988 -13.123  1.00  0.00    -0.550 OA
ATOM      9  O   UNL     1     -12.851  12.436 -12.823  1.00  0.00    -0.550 OA
ENDBRANCH   6   7
ENDBRANCH   5   6
ENDBRANCH   4   5
ENDBRANCH   3   4
ENDBRANCH   2   3
ENDBRANCH   1   2
BRANCH   1  10
ATOM     10  C   UNL     1     -16.286  15.245  -6.823  1.00  0.00     0.000 C 
BRANCH  10  11
ATOM     11  C   UNL     1     -17.107  16.300  -7.584  1.00  0.00    -0.000 C 
BRANCH  11  12
ATOM     12  C   UNL     1     -16.222  17.273  -8.381  1.00  0.00    -0.000 C 
BRANCH  12  13
ATOM     13  C   UNL     1     -16.940  17.844  -9.616  1.00  0.00    -0.000 C 
BRANCH  13  14
ATOM     14  C   UNL     1     -16.163  19.002 -10.267  1.00  0.00    -0.000 C 
BRANCH  14  15
ATOM     15  C   UNL     1     -16.199  18.951 -11.801  1.00  0.00    -0.003 C 
ATOM     16  C   UNL     1     -14.831  19.276 -12.393  1.00  0.00     0.004 C 
ENDBRANCH  14  15
ENDBRANCH  13  14
ENDBRANCH  12  13
ENDBRANCH  11  12
ENDBRANCH  10  11
ENDBRANCH   1  10
TORSDOF 12
ENDMDL
