MODEL 1
REMARK VINA RESULT:    -5.133      0.000      0.000
REMARK INTER + INTRA:          -5.877
REMARK INTER:                  -5.733
REMARK INTRA:                  -0.144
REMARK UNBOUND:                -0.144
REMARK SMILES O=C([O-])C=Cc1ccccc1
REMARK SMILES IDX 4 1 5 2 2 3 1 4 3 5 6 6 7 7 11 8 8 9 10 10 9 11
REMARK H PARENT
REMARK Flexibility Score: inf
ROOT
ATOM      1  C   UNL     1      10.118  50.739  40.305  1.00  0.00     0.025 C 
ATOM      2  C   UNL     1      10.671  51.504  41.259  1.00  0.00     0.010 C 
ENDROOT
BRANCH   1   3
ATOM      3  C   UNL     1       8.659  50.638  40.127  1.00  0.00     0.064 C 
ATOM      4  O   UNL     1       8.159  49.875  39.259  1.00  0.00    -0.545 OA
ATOM      5  O   UNL     1       7.821  51.397  40.933  1.00  0.00    -0.545 OA
ENDBRANCH   1   3
BRANCH   2   6
ATOM      6  C   UNL     1      12.133  51.649  41.492  1.00  0.00    -0.026 A 
ATOM      7  C   UNL     1      12.710  52.769  42.132  1.00  0.00     0.008 A 
ATOM      8  C   UNL     1      12.982  50.617  41.050  1.00  0.00     0.008 A 
ATOM      9  C   UNL     1      14.095  52.842  42.320  1.00  0.00     0.001 A 
ATOM     10  C   UNL     1      14.364  50.697  41.242  1.00  0.00     0.001 A 
ATOM     11  C   UNL     1      14.920  51.808  41.875  1.00  0.00     0.000 A 
ENDBRANCH   2   6
TORSDOF 2
ENDMDL
MODEL 2
REMARK VINA RESULT:    -5.129      0.150      1.463
REMARK INTER + INTRA:          -5.872
REMARK INTER:                  -5.742
REMARK INTRA:                  -0.130
REMARK UNBOUND:                -0.144
REMARK SMILES O=C([O-])C=Cc1ccccc1
REMARK SMILES IDX 4 1 5 2 2 3 1 4 3 5 6 6 7 7 11 8 8 9 10 10 9 11
REMARK H PARENT
REMARK Flexibility Score: inf
ROOT
ATOM      1  C   UNL     1      10.113  50.825  40.265  1.00  0.00     0.025 C 
ATOM      2  C   UNL     1      10.708  51.400  41.321  1.00  0.00     0.010 C 
ENDROOT
BRANCH   1   3
ATOM      3  C   UNL     1       8.651  50.669  40.175  1.00  0.00     0.064 C 
ATOM      4  O   UNL     1       8.129  49.875  39.349  1.00  0.00    -0.545 OA
ATOM      5  O   UNL     1       7.834  51.410  41.019  1.00  0.00    -0.545 OA
ENDBRANCH   1   3
BRANCH   2   6
ATOM      6  C   UNL     1      12.175  51.587  41.474  1.00  0.00    -0.026 A 
ATOM      7  C   UNL     1      13.127  50.620  41.077  1.00  0.00     0.008 A 
ATOM      8  C   UNL     1      12.637  52.789  42.043  1.00  0.00     0.008 A 
ATOM      9  C   UNL     1      14.495  50.860  41.249  1.00  0.00     0.001 A 
ATOM     10  C   UNL     1      14.005  53.021  42.212  1.00  0.00     0.001 A 
ATOM     11  C   UNL     1      14.932  52.058  41.816  1.00  0.00     0.000 A 
ENDBRANCH   2   6
TORSDOF 2
ENDMDL
MODEL 3
REMARK VINA RESULT:    -4.963      3.357      5.372
REMARK INTER + INTRA:          -5.688
REMARK INTER:                  -5.556
REMARK INTRA:                  -0.132
REMARK UNBOUND:                -0.144
REMARK SMILES O=C([O-])C=Cc1ccccc1
REMARK SMILES IDX 4 1 5 2 2 3 1 4 3 5 6 6 7 7 11 8 8 9 10 10 9 11
REMARK H PARENT
REMARK Flexibility Score: inf
ROOT
ATOM      1  C   UNL     1      13.234  50.680  40.989  1.00  0.00     0.025 C 
ATOM      2  C   UNL     1      12.261  51.450  41.500  1.00  0.00     0.010 C 
ENDROOT
BRANCH   1   3
ATOM      3  C   UNL     1      14.647  50.842  41.375  1.00  0.00     0.064 C 
ATOM      4  O   UNL     1      15.257  49.942  42.009  1.00  0.00    -0.545 OA
ATOM      5  O   UNL     1      15.318  52.008  41.031  1.00  0.00    -0.545 OA
ENDBRANCH   1   3
BRANCH   2   6
ATOM      6  C   UNL     1      10.819  51.339  41.154  1.00  0.00    -0.026 A 
ATOM      7  C   UNL     1      10.321  50.442  40.182  1.00  0.00     0.008 A 
ATOM      8  C   UNL     1       9.907  52.172  41.829  1.00  0.00     0.008 A 
ATOM      9  C   UNL     1       8.950  50.388  39.905  1.00  0.00     0.001 A 
ATOM     10  C   UNL     1       8.540  52.112  41.547  1.00  0.00     0.001 A 
ATOM     11  C   UNL     1       8.062  51.222  40.585  1.00  0.00     0.000 A 
ENDBRANCH   2   6
TORSDOF 2
ENDMDL
MODEL 4
REMARK VINA RESULT:    -4.934      3.066      5.249
REMARK INTER + INTRA:          -5.655
REMARK INTER:                  -5.520
REMARK INTRA:                  -0.135
REMARK UNBOUND:                -0.144
REMARK SMILES O=C([O-])C=Cc1ccccc1
REMARK SMILES IDX 4 1 5 2 2 3 1 4 3 5 6 6 7 7 11 8 8 9 10 10 9 11
REMARK H PARENT
REMARK Flexibility Score: inf
ROOT
ATOM      1  C   UNL     1      12.340  50.555  41.475  1.00  0.00     0.025 C 
ATOM      2  C   UNL     1      11.451  51.475  41.070  1.00  0.00     0.010 C 
ENDROOT
BRANCH   1   3
ATOM      3  C   UNL     1      13.747  50.890  41.751  1.00  0.00     0.064 C 
ATOM      4  O   UNL     1      14.687  50.184  41.299  1.00  0.00    -0.545 OA
ATOM      5  O   UNL     1      14.043  52.006  42.524  1.00  0.00    -0.545 OA
ENDBRANCH   1   3
BRANCH   2   6
ATOM      6  C   UNL     1      10.019  51.203  40.774  1.00  0.00    -0.026 A 
ATOM      7  C   UNL     1       8.954  51.921  41.365  1.00  0.00     0.008 A 
ATOM      8  C   UNL     1       9.713  50.179  39.859  1.00  0.00     0.008 A 
ATOM      9  C   UNL     1       7.628  51.613  41.040  1.00  0.00     0.001 A 
ATOM     10  C   UNL     1       8.386  49.878  39.540  1.00  0.00     0.001 A 
ATOM     11  C   UNL     1       7.345  50.594  40.131  1.00  0.00     0.000 A 
ENDBRANCH   2   6
TORSDOF 2
ENDMDL
MODEL 5
REMARK VINA RESULT:    -4.797      4.175      5.780
REMARK INTER + INTRA:          -5.502
REMARK INTER:                  -5.358
REMARK INTRA:                  -0.144
REMARK UNBOUND:                -0.144
REMARK SMILES O=C([O-])C=Cc1ccccc1
REMARK SMILES IDX 4 1 5 2 2 3 1 4 3 5 6 6 7 7 11 8 8 9 10 10 9 11
REMARK H PARENT
REMARK Flexibility Score: inf
ROOT
ATOM      1  C   UNL     1      14.560  53.280  42.143  1.00  0.00     0.025 C 
ATOM      2  C   UNL     1      14.038  52.053  42.290  1.00  0.00     0.010 C 
ENDROOT
BRANCH   1   3
ATOM      3  C   UNL     1      15.926  53.610  42.584  1.00  0.00     0.064 C 
ATOM      4  O   UNL     1      16.843  52.747  42.570  1.00  0.00    -0.545 OA
ATOM      5  O   UNL     1      16.208  54.897  43.023  1.00  0.00    -0.545 OA
ENDBRANCH   1   3
BRANCH   2   6
ATOM      6  C   UNL     1      12.668  51.655  41.868  1.00  0.00    -0.026 A 
ATOM      7  C   UNL     1      12.315  50.330  41.527  1.00  0.00     0.008 A 
ATOM      8  C   UNL     1      11.676  52.651  41.806  1.00  0.00     0.008 A 
ATOM      9  C   UNL     1      11.006  50.024  41.138  1.00  0.00     0.001 A 
ATOM     10  C   UNL     1      10.371  52.338  41.417  1.00  0.00     0.001 A 
ATOM     11  C   UNL     1      10.037  51.026  41.083  1.00  0.00     0.000 A 
ENDBRANCH   2   6
TORSDOF 2
ENDMDL
MODEL 6
REMARK VINA RESULT:    -4.601      3.009      3.397
REMARK INTER + INTRA:          -5.283
REMARK INTER:                  -5.153
REMARK INTRA:                  -0.131
REMARK UNBOUND:                -0.144
REMARK SMILES O=C([O-])C=Cc1ccccc1
REMARK SMILES IDX 4 1 5 2 2 3 1 4 3 5 6 6 7 7 11 8 8 9 10 10 9 11
REMARK H PARENT
REMARK Flexibility Score: inf
ROOT
ATOM      1  C   UNL     1      11.613  54.426  41.849  1.00  0.00     0.025 C 
ATOM      2  C   UNL     1      11.733  53.115  42.110  1.00  0.00     0.010 C 
ENDROOT
BRANCH   1   3
ATOM      3  C   UNL     1      10.340  55.147  42.019  1.00  0.00     0.064 C 
ATOM      4  O   UNL     1       9.751  55.179  43.132  1.00  0.00    -0.545 OA
ATOM      5  O   UNL     1       9.779  55.805  40.932  1.00  0.00    -0.545 OA
ENDBRANCH   1   3
BRANCH   2   6
ATOM      6  C   UNL     1      12.986  52.329  41.959  1.00  0.00    -0.026 A 
ATOM      7  C   UNL     1      14.276  52.885  42.119  1.00  0.00     0.008 A 
ATOM      8  C   UNL     1      12.879  50.963  41.639  1.00  0.00     0.008 A 
ATOM      9  C   UNL     1      15.415  52.087  41.963  1.00  0.00     0.001 A 
ATOM     10  C   UNL     1      14.021  50.173  41.485  1.00  0.00     0.001 A 
ATOM     11  C   UNL     1      15.287  50.734  41.646  1.00  0.00     0.000 A 
ENDBRANCH   2   6
TORSDOF 2
ENDMDL
MODEL 7
REMARK VINA RESULT:    -4.533      4.986      6.602
REMARK INTER + INTRA:          -5.207
REMARK INTER:                  -5.077
REMARK INTRA:                  -0.131
REMARK UNBOUND:                -0.144
REMARK SMILES O=C([O-])C=Cc1ccccc1
REMARK SMILES IDX 4 1 5 2 2 3 1 4 3 5 6 6 7 7 11 8 8 9 10 10 9 11
REMARK H PARENT
REMARK Flexibility Score: inf
ROOT
ATOM      1  C   UNL     1      16.327  53.906  43.127  1.00  0.00     0.025 C 
ATOM      2  C   UNL     1      15.368  53.946  42.190  1.00  0.00     0.010 C 
ENDROOT
BRANCH   1   3
ATOM      3  C   UNL     1      17.218  55.049  43.389  1.00  0.00     0.064 C 
ATOM      4  O   UNL     1      16.760  56.165  43.750  1.00  0.00    -0.545 OA
ATOM      5  O   UNL     1      18.590  54.893  43.235  1.00  0.00    -0.545 OA
ENDBRANCH   1   3
BRANCH   2   6
ATOM      6  C   UNL     1      14.437  52.830  41.876  1.00  0.00    -0.026 A 
ATOM      7  C   UNL     1      13.057  52.861  42.180  1.00  0.00     0.008 A 
ATOM      8  C   UNL     1      14.960  51.686  41.245  1.00  0.00     0.008 A 
ATOM      9  C   UNL     1      12.237  51.774  41.856  1.00  0.00     0.001 A 
ATOM     10  C   UNL     1      14.134  50.605  40.925  1.00  0.00     0.001 A 
ATOM     11  C   UNL     1      12.775  50.649  41.231  1.00  0.00     0.000 A 
ENDBRANCH   2   6
TORSDOF 2
ENDMDL
