MODEL 1
REMARK VINA RESULT:    -5.614      0.000      0.000
REMARK INTER + INTRA:         -10.488
REMARK INTER:                  -8.567
REMARK INTRA:                  -1.921
REMARK UNBOUND:                -1.921
REMARK SMILES CC(=O)CCC=C(C)CCC=C(C)CCC=C(C)C
REMARK SMILES IDX 10 1 11 2 12 3 13 4 14 5 15 6 16 7 18 8 17 9 19 10 9 11 7 12
REMARK SMILES IDX 6 13 8 14 5 15 4 16 2 17 3 18 1 19
REMARK H PARENT
REMARK Flexibility Score: inf
ROOT
ATOM      1  C   UNL     1      11.269 -21.249  21.054  1.00  0.00     0.032 C 
ENDROOT
BRANCH   1   2
ATOM      2  C   UNL     1      11.653 -20.037  21.871  1.00  0.00    -0.028 C 
ATOM      3  C   UNL     1      12.210 -18.910  21.374  1.00  0.00    -0.077 C 
ATOM      4  C   UNL     1      12.572 -17.809  22.339  1.00  0.00     0.039 C 
BRANCH   3   5
ATOM      5  C   UNL     1      12.427 -18.677  19.892  1.00  0.00     0.034 C 
BRANCH   5   6
ATOM      6  C   UNL     1      11.611 -17.473  19.410  1.00  0.00     0.032 C 
BRANCH   6   7
ATOM      7  C   UNL     1      10.307 -17.909  18.785  1.00  0.00    -0.028 C 
ATOM      8  C   UNL     1       7.886 -18.339  18.725  1.00  0.00     0.039 C 
ATOM      9  C   UNL     1       9.132 -17.901  19.450  1.00  0.00    -0.080 C 
ATOM     10  C   UNL     1       9.045 -17.464  20.894  1.00  0.00     0.039 C 
ENDBRANCH   6   7
ENDBRANCH   5   6
ENDBRANCH   3   5
ENDBRANCH   1   2
BRANCH   1  11
ATOM     11  C   UNL     1       9.769 -21.262  20.723  1.00  0.00     0.034 C 
BRANCH  11  12
ATOM     12  C   UNL     1       8.957 -21.981  21.783  1.00  0.00    -0.077 C 
ATOM     13  C   UNL     1       9.504 -23.027  22.440  1.00  0.00    -0.028 C 
ATOM     14  C   UNL     1       7.551 -21.516  22.079  1.00  0.00     0.039 C 
BRANCH  13  15
ATOM     15  C   UNL     1       8.768 -23.814  23.500  1.00  0.00     0.035 C 
BRANCH  15  16
ATOM     16  C   UNL     1       8.177 -25.116  22.944  1.00  0.00     0.079 C 
BRANCH  16  17
ATOM     17  C   UNL     1       6.692 -25.201  23.195  1.00  0.00     0.130 C 
ATOM     18  O   UNL     1       5.935 -25.411  22.258  1.00  0.00    -0.300 OA
ATOM     19  C   UNL     1       6.120 -25.031  24.572  1.00  0.00     0.087 C 
ENDBRANCH  16  17
ENDBRANCH  15  16
ENDBRANCH  13  15
ENDBRANCH  11  12
ENDBRANCH   1  11
TORSDOF 9
ENDMDL
MODEL 2
REMARK VINA RESULT:    -5.509      3.867      6.197
REMARK INTER + INTRA:         -10.328
REMARK INTER:                  -7.239
REMARK INTRA:                  -3.090
REMARK UNBOUND:                -1.921
REMARK SMILES CC(=O)CCC=C(C)CCC=C(C)CCC=C(C)C
REMARK SMILES IDX 10 1 11 2 12 3 13 4 14 5 15 6 16 7 18 8 17 9 19 10 9 11 7 12
REMARK SMILES IDX 6 13 8 14 5 15 4 16 2 17 3 18 1 19
REMARK H PARENT
REMARK Flexibility Score: inf
ROOT
ATOM      1  C   UNL     1       8.041 -17.529  19.529  1.00  0.00     0.032 C 
ENDROOT
BRANCH   1   2
ATOM      2  C   UNL     1       8.670 -18.328  18.413  1.00  0.00    -0.028 C 
ATOM      3  C   UNL     1       9.987 -18.332  18.107  1.00  0.00    -0.077 C 
ATOM      4  C   UNL     1      10.443 -19.156  16.930  1.00  0.00     0.039 C 
BRANCH   3   5
ATOM      5  C   UNL     1      11.030 -17.602  18.930  1.00  0.00     0.034 C 
BRANCH   5   6
ATOM      6  C   UNL     1      12.060 -18.587  19.494  1.00  0.00     0.032 C 
BRANCH   6   7
ATOM      7  C   UNL     1      11.834 -18.833  20.966  1.00  0.00    -0.028 C 
ATOM      8  C   UNL     1      11.017 -20.067  22.931  1.00  0.00     0.039 C 
ATOM      9  C   UNL     1      11.170 -19.909  21.440  1.00  0.00    -0.080 C 
ATOM     10  C   UNL     1      10.584 -20.947  20.512  1.00  0.00     0.039 C 
ENDBRANCH   6   7
ENDBRANCH   5   6
ENDBRANCH   3   5
ENDBRANCH   1   2
BRANCH   1  11
ATOM     11  C   UNL     1       7.542 -18.431  20.668  1.00  0.00     0.034 C 
BRANCH  11  12
ATOM     12  C   UNL     1       8.039 -17.966  22.023  1.00  0.00    -0.077 C 
ATOM     13  C   UNL     1       8.963 -16.984  22.088  1.00  0.00    -0.028 C 
ATOM     14  C   UNL     1       7.493 -18.616  23.273  1.00  0.00     0.039 C 
BRANCH  13  15
ATOM     15  C   UNL     1       9.529 -16.467  23.391  1.00  0.00     0.035 C 
BRANCH  15  16
ATOM     16  C   UNL     1      10.957 -15.932  23.228  1.00  0.00     0.079 C 
BRANCH  16  17
ATOM     17  C   UNL     1      11.912 -16.601  24.185  1.00  0.00     0.130 C 
ATOM     18  O   UNL     1      11.564 -16.799  25.340  1.00  0.00    -0.300 OA
ATOM     19  C   UNL     1      13.284 -17.026  23.752  1.00  0.00     0.087 C 
ENDBRANCH  16  17
ENDBRANCH  15  16
ENDBRANCH  13  15
ENDBRANCH  11  12
ENDBRANCH   1  11
TORSDOF 9
ENDMDL
MODEL 3
REMARK VINA RESULT:    -5.498      1.334      2.947
REMARK INTER + INTRA:         -10.312
REMARK INTER:                  -8.349
REMARK INTRA:                  -1.963
REMARK UNBOUND:                -1.921
REMARK SMILES CC(=O)CCC=C(C)CCC=C(C)CCC=C(C)C
REMARK SMILES IDX 10 1 11 2 12 3 13 4 14 5 15 6 16 7 18 8 17 9 19 10 9 11 7 12
REMARK SMILES IDX 6 13 8 14 5 15 4 16 2 17 3 18 1 19
REMARK H PARENT
REMARK Flexibility Score: inf
ROOT
ATOM      1  C   UNL     1      10.069 -21.078  20.380  1.00  0.00     0.032 C 
ENDROOT
BRANCH   1   2
ATOM      2  C   UNL     1       9.142 -19.932  20.714  1.00  0.00    -0.028 C 
ATOM      3  C   UNL     1       9.018 -18.796  19.991  1.00  0.00    -0.077 C 
ATOM      4  C   UNL     1       8.075 -17.732  20.492  1.00  0.00     0.039 C 
BRANCH   3   5
ATOM      5  C   UNL     1       9.732 -18.573  18.672  1.00  0.00     0.034 C 
BRANCH   5   6
ATOM      6  C   UNL     1      10.835 -17.521  18.827  1.00  0.00     0.032 C 
BRANCH   6   7
ATOM      7  C   UNL     1      12.176 -18.167  19.087  1.00  0.00    -0.028 C 
ATOM      8  C   UNL     1      14.065 -18.928  20.464  1.00  0.00     0.039 C 
ATOM      9  C   UNL     1      12.730 -18.246  20.314  1.00  0.00    -0.080 C 
ATOM     10  C   UNL     1      12.043 -17.667  21.530  1.00  0.00     0.039 C 
ENDBRANCH   6   7
ENDBRANCH   5   6
ENDBRANCH   3   5
ENDBRANCH   1   2
BRANCH   1  11
ATOM     11  C   UNL     1      11.143 -21.277  21.460  1.00  0.00     0.034 C 
BRANCH  11  12
ATOM     12  C   UNL     1      10.541 -21.647  22.802  1.00  0.00    -0.077 C 
ATOM     13  C   UNL     1       9.699 -22.700  22.882  1.00  0.00    -0.028 C 
ATOM     14  C   UNL     1      10.891 -20.826  24.021  1.00  0.00     0.039 C 
BRANCH  13  15
ATOM     15  C   UNL     1       9.038 -23.134  24.171  1.00  0.00     0.035 C 
BRANCH  15  16
ATOM     16  C   UNL     1       7.514 -23.230  24.033  1.00  0.00     0.079 C 
BRANCH  16  17
ATOM     17  C   UNL     1       7.040 -24.660  24.114  1.00  0.00     0.130 C 
ATOM     18  O   UNL     1       6.269 -24.988  25.005  1.00  0.00    -0.300 OA
ATOM     19  C   UNL     1       7.496 -25.693  23.126  1.00  0.00     0.087 C 
ENDBRANCH  16  17
ENDBRANCH  15  16
ENDBRANCH  13  15
ENDBRANCH  11  12
ENDBRANCH   1  11
TORSDOF 9
ENDMDL
MODEL 4
REMARK VINA RESULT:    -5.450      2.754      7.285
REMARK INTER + INTRA:         -10.238
REMARK INTER:                  -7.788
REMARK INTRA:                  -2.450
REMARK UNBOUND:                -1.921
REMARK SMILES CC(=O)CCC=C(C)CCC=C(C)CCC=C(C)C
REMARK SMILES IDX 10 1 11 2 12 3 13 4 14 5 15 6 16 7 18 8 17 9 19 10 9 11 7 12
REMARK SMILES IDX 6 13 8 14 5 15 4 16 2 17 3 18 1 19
REMARK H PARENT
REMARK Flexibility Score: inf
ROOT
ATOM      1  C   UNL     1       8.162 -25.320  23.265  1.00  0.00     0.032 C 
ENDROOT
BRANCH   1   2
ATOM      2  C   UNL     1       6.734 -25.792  23.409  1.00  0.00    -0.028 C 
ATOM      3  C   UNL     1       5.871 -25.375  24.363  1.00  0.00    -0.077 C 
ATOM      4  C   UNL     1       4.491 -25.982  24.389  1.00  0.00     0.039 C 
BRANCH   3   5
ATOM      5  C   UNL     1       6.204 -24.284  25.361  1.00  0.00     0.034 C 
BRANCH   5   6
ATOM      6  C   UNL     1       5.310 -23.059  25.140  1.00  0.00     0.032 C 
BRANCH   6   7
ATOM      7  C   UNL     1       6.092 -21.910  24.548  1.00  0.00    -0.028 C 
ATOM      8  C   UNL     1       6.825 -20.384  22.764  1.00  0.00     0.039 C 
ATOM      9  C   UNL     1       6.015 -21.560  23.247  1.00  0.00    -0.080 C 
ATOM     10  C   UNL     1       5.140 -22.317  22.275  1.00  0.00     0.039 C 
ENDBRANCH   6   7
ENDBRANCH   5   6
ENDBRANCH   3   5
ENDBRANCH   1   2
BRANCH   1  11
ATOM     11  C   UNL     1       8.296 -24.220  22.200  1.00  0.00     0.034 C 
BRANCH  11  12
ATOM     12  C   UNL     1       9.288 -23.149  22.610  1.00  0.00    -0.077 C 
ATOM     13  C   UNL     1       9.773 -22.304  21.675  1.00  0.00    -0.028 C 
ATOM     14  C   UNL     1       9.717 -23.053  24.055  1.00  0.00     0.039 C 
BRANCH  13  15
ATOM     15  C   UNL     1      10.776 -21.216  21.985  1.00  0.00     0.035 C 
BRANCH  15  16
ATOM     16  C   UNL     1      11.607 -20.831  20.755  1.00  0.00     0.079 C 
BRANCH  16  17
ATOM     17  C   UNL     1      11.959 -19.364  20.761  1.00  0.00     0.130 C 
ATOM     18  O   UNL     1      13.126 -19.025  20.626  1.00  0.00    -0.300 OA
ATOM     19  C   UNL     1      10.907 -18.308  20.932  1.00  0.00     0.087 C 
ENDBRANCH  16  17
ENDBRANCH  15  16
ENDBRANCH  13  15
ENDBRANCH  11  12
ENDBRANCH   1  11
TORSDOF 9
ENDMDL
MODEL 5
REMARK VINA RESULT:    -5.419      3.835      6.952
REMARK INTER + INTRA:         -10.192
REMARK INTER:                  -7.165
REMARK INTRA:                  -3.027
REMARK UNBOUND:                -1.921
REMARK SMILES CC(=O)CCC=C(C)CCC=C(C)CCC=C(C)C
REMARK SMILES IDX 10 1 11 2 12 3 13 4 14 5 15 6 16 7 18 8 17 9 19 10 9 11 7 12
REMARK SMILES IDX 6 13 8 14 5 15 4 16 2 17 3 18 1 19
REMARK H PARENT
REMARK Flexibility Score: inf
ROOT
ATOM      1  C   UNL     1       8.150 -25.308  23.310  1.00  0.00     0.032 C 
ENDROOT
BRANCH   1   2
ATOM      2  C   UNL     1       6.683 -25.663  23.381  1.00  0.00    -0.028 C 
ATOM      3  C   UNL     1       5.854 -25.338  24.398  1.00  0.00    -0.077 C 
ATOM      4  C   UNL     1       4.424 -25.810  24.330  1.00  0.00     0.039 C 
BRANCH   3   5
ATOM      5  C   UNL     1       6.278 -24.470  25.567  1.00  0.00     0.034 C 
BRANCH   5   6
ATOM      6  C   UNL     1       5.449 -23.181  25.610  1.00  0.00     0.032 C 
BRANCH   6   7
ATOM      7  C   UNL     1       6.322 -21.962  25.438  1.00  0.00    -0.028 C 
ATOM      8  C   UNL     1       7.341 -20.093  24.205  1.00  0.00     0.039 C 
ATOM      9  C   UNL     1       6.457 -21.312  24.263  1.00  0.00    -0.080 C 
ATOM     10  C   UNL     1       5.744 -21.781  23.015  1.00  0.00     0.039 C 
ENDBRANCH   6   7
ENDBRANCH   5   6
ENDBRANCH   3   5
ENDBRANCH   1   2
BRANCH   1  11
ATOM     11  C   UNL     1       8.436 -24.279  22.206  1.00  0.00     0.034 C 
BRANCH  11  12
ATOM     12  C   UNL     1       9.240 -23.100  22.720  1.00  0.00    -0.077 C 
ATOM     13  C   UNL     1       9.673 -23.102  23.999  1.00  0.00    -0.028 C 
ATOM     14  C   UNL     1       9.535 -21.946  21.791  1.00  0.00     0.039 C 
BRANCH  13  15
ATOM     15  C   UNL     1      10.467 -21.966  24.604  1.00  0.00     0.035 C 
BRANCH  15  16
ATOM     16  C   UNL     1      10.476 -22.022  26.137  1.00  0.00     0.079 C 
BRANCH  16  17
ATOM     17  C   UNL     1       9.974 -20.734  26.741  1.00  0.00     0.130 C 
ATOM     18  O   UNL     1      10.388 -19.667  26.311  1.00  0.00    -0.300 OA
ATOM     19  C   UNL     1       8.980 -20.733  27.865  1.00  0.00     0.087 C 
ENDBRANCH  16  17
ENDBRANCH  15  16
ENDBRANCH  13  15
ENDBRANCH  11  12
ENDBRANCH   1  11
TORSDOF 9
ENDMDL
MODEL 6
REMARK VINA RESULT:    -5.308      2.599      7.235
REMARK INTER + INTRA:         -10.023
REMARK INTER:                  -7.561
REMARK INTRA:                  -2.461
REMARK UNBOUND:                -1.921
REMARK SMILES CC(=O)CCC=C(C)CCC=C(C)CCC=C(C)C
REMARK SMILES IDX 10 1 11 2 12 3 13 4 14 5 15 6 16 7 18 8 17 9 19 10 9 11 7 12
REMARK SMILES IDX 6 13 8 14 5 15 4 16 2 17 3 18 1 19
REMARK H PARENT
REMARK Flexibility Score: inf
ROOT
ATOM      1  C   UNL     1       8.500 -24.680  22.648  1.00  0.00     0.032 C 
ENDROOT
BRANCH   1   2
ATOM      2  C   UNL     1       7.434 -25.516  23.317  1.00  0.00    -0.028 C 
ATOM      3  C   UNL     1       6.121 -25.198  23.377  1.00  0.00    -0.077 C 
ATOM      4  C   UNL     1       5.197 -26.125  24.124  1.00  0.00     0.039 C 
BRANCH   3   5
ATOM      5  C   UNL     1       5.529 -23.992  22.674  1.00  0.00     0.034 C 
BRANCH   5   6
ATOM      6  C   UNL     1       4.861 -23.053  23.685  1.00  0.00     0.032 C 
BRANCH   6   7
ATOM      7  C   UNL     1       5.797 -21.944  24.105  1.00  0.00    -0.028 C 
ATOM      8  C   UNL     1       7.375 -20.792  25.598  1.00  0.00     0.039 C 
ATOM      9  C   UNL     1       6.449 -21.939  25.287  1.00  0.00    -0.080 C 
ATOM     10  C   UNL     1       6.269 -23.052  26.293  1.00  0.00     0.039 C 
ENDBRANCH   6   7
ENDBRANCH   5   6
ENDBRANCH   3   5
ENDBRANCH   1   2
BRANCH   1  11
ATOM     11  C   UNL     1       9.215 -23.758  23.647  1.00  0.00     0.034 C 
BRANCH  11  12
ATOM     12  C   UNL     1       9.541 -22.406  23.042  1.00  0.00    -0.077 C 
ATOM     13  C   UNL     1       8.966 -22.047  21.875  1.00  0.00    -0.028 C 
ATOM     14  C   UNL     1      10.509 -21.492  23.756  1.00  0.00     0.039 C 
BRANCH  13  15
ATOM     15  C   UNL     1       9.242 -20.728  21.189  1.00  0.00     0.035 C 
BRANCH  15  16
ATOM     16  C   UNL     1      10.281 -20.868  20.070  1.00  0.00     0.079 C 
BRANCH  16  17
ATOM     17  C   UNL     1      10.300 -19.652  19.176  1.00  0.00     0.130 C 
ATOM     18  O   UNL     1       9.914 -19.749  18.020  1.00  0.00    -0.300 OA
ATOM     19  C   UNL     1      10.787 -18.323  19.674  1.00  0.00     0.087 C 
ENDBRANCH  16  17
ENDBRANCH  15  16
ENDBRANCH  13  15
ENDBRANCH  11  12
ENDBRANCH   1  11
TORSDOF 9
ENDMDL
MODEL 7
REMARK VINA RESULT:    -5.303      1.754      2.622
REMARK INTER + INTRA:         -10.015
REMARK INTER:                  -8.526
REMARK INTRA:                  -1.489
REMARK UNBOUND:                -1.921
REMARK SMILES CC(=O)CCC=C(C)CCC=C(C)CCC=C(C)C
REMARK SMILES IDX 10 1 11 2 12 3 13 4 14 5 15 6 16 7 18 8 17 9 19 10 9 11 7 12
REMARK SMILES IDX 6 13 8 14 5 15 4 16 2 17 3 18 1 19
REMARK H PARENT
REMARK Flexibility Score: inf
ROOT
ATOM      1  C   UNL     1       9.671 -20.671  21.289  1.00  0.00     0.032 C 
ENDROOT
BRANCH   1   2
ATOM      2  C   UNL     1       9.730 -19.360  22.037  1.00  0.00    -0.028 C 
ATOM      3  C   UNL     1       8.919 -18.301  21.814  1.00  0.00    -0.077 C 
ATOM      4  C   UNL     1       9.143 -17.049  22.623  1.00  0.00     0.039 C 
BRANCH   3   5
ATOM      5  C   UNL     1       7.759 -18.338  20.838  1.00  0.00     0.034 C 
BRANCH   5   6
ATOM      6  C   UNL     1       8.070 -17.491  19.599  1.00  0.00     0.032 C 
BRANCH   6   7
ATOM      7  C   UNL     1       8.531 -18.354  18.448  1.00  0.00    -0.028 C 
ATOM      8  C   UNL     1      10.180 -19.378  16.938  1.00  0.00     0.039 C 
ATOM      9  C   UNL     1       9.827 -18.475  18.092  1.00  0.00    -0.080 C 
ATOM     10  C   UNL     1      10.920 -17.729  18.822  1.00  0.00     0.039 C 
ENDBRANCH   6   7
ENDBRANCH   5   6
ENDBRANCH   3   5
ENDBRANCH   1   2
BRANCH   1  11
ATOM     11  C   UNL     1      10.592 -21.728  21.915  1.00  0.00     0.034 C 
BRANCH  11  12
ATOM     12  C   UNL     1       9.842 -22.654  22.854  1.00  0.00    -0.077 C 
ATOM     13  C   UNL     1       8.983 -23.561  22.342  1.00  0.00    -0.028 C 
ATOM     14  C   UNL     1      10.068 -22.538  24.343  1.00  0.00     0.039 C 
BRANCH  13  15
ATOM     15  C   UNL     1       8.180 -24.513  23.199  1.00  0.00     0.035 C 
BRANCH  15  16
ATOM     16  C   UNL     1       6.766 -23.987  23.476  1.00  0.00     0.079 C 
BRANCH  16  17
ATOM     17  C   UNL     1       6.160 -24.641  24.693  1.00  0.00     0.130 C 
ATOM     18  O   UNL     1       6.355 -24.153  25.797  1.00  0.00    -0.300 OA
ATOM     19  C   UNL     1       5.324 -25.882  24.580  1.00  0.00     0.087 C 
ENDBRANCH  16  17
ENDBRANCH  15  16
ENDBRANCH  13  15
ENDBRANCH  11  12
ENDBRANCH   1  11
TORSDOF 9
ENDMDL
MODEL 8
REMARK VINA RESULT:    -5.260      1.632      3.077
REMARK INTER + INTRA:          -9.948
REMARK INTER:                  -7.114
REMARK INTRA:                  -2.834
REMARK UNBOUND:                -1.921
REMARK SMILES CC(=O)CCC=C(C)CCC=C(C)CCC=C(C)C
REMARK SMILES IDX 10 1 11 2 12 3 13 4 14 5 15 6 16 7 18 8 17 9 19 10 9 11 7 12
REMARK SMILES IDX 6 13 8 14 5 15 4 16 2 17 3 18 1 19
REMARK H PARENT
REMARK Flexibility Score: inf
ROOT
ATOM      1  C   UNL     1      10.123 -21.179  20.135  1.00  0.00     0.032 C 
ENDROOT
BRANCH   1   2
ATOM      2  C   UNL     1      10.544 -19.954  19.357  1.00  0.00    -0.028 C 
ATOM      3  C   UNL     1       9.771 -18.865  19.144  1.00  0.00    -0.077 C 
ATOM      4  C   UNL     1      10.334 -17.745  18.306  1.00  0.00     0.039 C 
BRANCH   3   5
ATOM      5  C   UNL     1       8.397 -18.693  19.759  1.00  0.00     0.034 C 
BRANCH   5   6
ATOM      6  C   UNL     1       8.373 -17.478  20.694  1.00  0.00     0.032 C 
BRANCH   6   7
ATOM      7  C   UNL     1       8.475 -17.898  22.141  1.00  0.00    -0.028 C 
ATOM      8  C   UNL     1       9.614 -18.275  24.287  1.00  0.00     0.039 C 
ATOM      9  C   UNL     1       9.627 -17.850  22.842  1.00  0.00    -0.080 C 
ATOM     10  C   UNL     1      10.918 -17.383  22.209  1.00  0.00     0.039 C 
ENDBRANCH   6   7
ENDBRANCH   5   6
ENDBRANCH   3   5
ENDBRANCH   1   2
BRANCH   1  11
ATOM     11  C   UNL     1      10.736 -21.200  21.544  1.00  0.00     0.034 C 
BRANCH  11  12
ATOM     12  C   UNL     1       9.726 -21.610  22.598  1.00  0.00    -0.077 C 
ATOM     13  C   UNL     1       8.408 -21.552  22.310  1.00  0.00    -0.028 C 
ATOM     14  C   UNL     1      10.216 -22.070  23.951  1.00  0.00     0.039 C 
BRANCH  13  15
ATOM     15  C   UNL     1       7.329 -21.925  23.301  1.00  0.00     0.035 C 
BRANCH  15  16
ATOM     16  C   UNL     1       6.589 -23.205  22.893  1.00  0.00     0.079 C 
BRANCH  16  17
ATOM     17  C   UNL     1       7.099 -24.405  23.653  1.00  0.00     0.130 C 
ATOM     18  O   UNL     1       6.683 -24.624  24.781  1.00  0.00    -0.300 OA
ATOM     19  C   UNL     1       8.111 -25.338  23.054  1.00  0.00     0.087 C 
ENDBRANCH  16  17
ENDBRANCH  15  16
ENDBRANCH  13  15
ENDBRANCH  11  12
ENDBRANCH   1  11
TORSDOF 9
ENDMDL
MODEL 9
REMARK VINA RESULT:    -5.222      1.367      2.273
REMARK INTER + INTRA:          -9.890
REMARK INTER:                  -8.069
REMARK INTRA:                  -1.822
REMARK UNBOUND:                -1.921
REMARK SMILES CC(=O)CCC=C(C)CCC=C(C)CCC=C(C)C
REMARK SMILES IDX 10 1 11 2 12 3 13 4 14 5 15 6 16 7 18 8 17 9 19 10 9 11 7 12
REMARK SMILES IDX 6 13 8 14 5 15 4 16 2 17 3 18 1 19
REMARK H PARENT
REMARK Flexibility Score: inf
ROOT
ATOM      1  C   UNL     1      10.779 -21.312  21.278  1.00  0.00     0.032 C 
ENDROOT
BRANCH   1   2
ATOM      2  C   UNL     1      10.921 -20.378  20.099  1.00  0.00    -0.028 C 
ATOM      3  C   UNL     1      11.350 -19.098  20.169  1.00  0.00    -0.077 C 
ATOM      4  C   UNL     1      11.390 -18.290  18.897  1.00  0.00     0.039 C 
BRANCH   3   5
ATOM      5  C   UNL     1      11.851 -18.462  21.450  1.00  0.00     0.034 C 
BRANCH   5   6
ATOM      6  C   UNL     1      10.863 -17.401  21.948  1.00  0.00     0.032 C 
BRANCH   6   7
ATOM      7  C   UNL     1       9.683 -18.035  22.645  1.00  0.00    -0.028 C 
ATOM      8  C   UNL     1       7.345 -18.762  22.877  1.00  0.00     0.039 C 
ATOM      9  C   UNL     1       8.449 -18.089  22.103  1.00  0.00    -0.080 C 
ATOM     10  C   UNL     1       8.156 -17.491  20.746  1.00  0.00     0.039 C 
ENDBRANCH   6   7
ENDBRANCH   5   6
ENDBRANCH   3   5
ENDBRANCH   1   2
BRANCH   1  11
ATOM     11  C   UNL     1       9.318 -21.730  21.503  1.00  0.00     0.034 C 
BRANCH  11  12
ATOM     12  C   UNL     1       9.190 -22.798  22.573  1.00  0.00    -0.077 C 
ATOM     13  C   UNL     1       8.439 -23.893  22.328  1.00  0.00    -0.028 C 
ATOM     14  C   UNL     1       9.901 -22.611  23.893  1.00  0.00     0.039 C 
BRANCH  13  15
ATOM     15  C   UNL     1       8.240 -25.001  23.337  1.00  0.00     0.035 C 
BRANCH  15  16
ATOM     16  C   UNL     1       6.889 -25.705  23.160  1.00  0.00     0.079 C 
BRANCH  16  17
ATOM     17  C   UNL     1       5.965 -25.431  24.321  1.00  0.00     0.130 C 
ATOM     18  O   UNL     1       4.943 -26.090  24.445  1.00  0.00    -0.300 OA
ATOM     19  C   UNL     1       6.271 -24.363  25.329  1.00  0.00     0.087 C 
ENDBRANCH  16  17
ENDBRANCH  15  16
ENDBRANCH  13  15
ENDBRANCH  11  12
ENDBRANCH   1  11
TORSDOF 9
ENDMDL
