MODEL 1
REMARK VINA RESULT:    -6.691      0.000      0.000
REMARK INTER + INTRA:          -8.619
REMARK INTER:                  -8.255
REMARK INTRA:                  -0.364
REMARK UNBOUND:                -0.364
REMARK SMILES COc1cc(-c2oc3cc(O)cc(O)c3c(=O)c2O)ccc1O
REMARK SMILES IDX 6 1 18 2 16 3 17 4 15 5 13 6 12 7 10 8 9 9 8 10 7 11 5 12
REMARK SMILES IDX 3 13 22 14 4 15 21 16 20 17 2 18 1 19 23 20 19 22 14 24
REMARK SMILES IDX 11 26
REMARK H PARENT 23 21 19 23 14 25 11 27
REMARK Flexibility Score: inf
ROOT
ATOM      1  C   UNL     1     -13.197  -9.682 -16.413  1.00  0.00     0.180 A 
ATOM      2  C   UNL     1     -13.461  -9.418 -15.058  1.00  0.00     0.208 A 
ATOM      3  C   UNL     1     -14.687  -9.831 -14.510  1.00  0.00     0.238 A 
ATOM      4  O   UNL     1     -14.939  -9.544 -13.311  1.00  0.00    -0.285 OA
ATOM      5  C   UNL     1     -15.625 -10.515 -15.319  1.00  0.00     0.111 A 
ATOM      6  C   UNL     1     -16.880 -11.014 -14.859  1.00  0.00     0.134 A 
ATOM      7  C   UNL     1     -17.786 -11.561 -15.777  1.00  0.00     0.093 A 
ATOM      8  C   UNL     1     -17.453 -11.685 -17.128  1.00  0.00     0.123 A 
ATOM      9  C   UNL     1     -16.207 -11.255 -17.577  1.00  0.00     0.094 A 
ATOM     10  C   UNL     1     -15.297 -10.673 -16.691  1.00  0.00     0.146 A 
ATOM     11  O   UNL     1     -14.124 -10.268 -17.162  1.00  0.00    -0.452 OA
ENDROOT
BRANCH   1  12
ATOM     12  C   UNL     1     -11.919  -9.300 -17.056  1.00  0.00     0.025 A 
ATOM     13  C   UNL     1      -9.536  -9.722 -17.409  1.00  0.00     0.161 A 
ATOM     14  C   UNL     1      -9.459  -8.575 -18.210  1.00  0.00     0.157 A 
ATOM     15  C   UNL     1     -10.770 -10.076 -16.827  1.00  0.00     0.062 A 
ATOM     16  C   UNL     1     -10.597  -7.788 -18.423  1.00  0.00     0.051 A 
ATOM     17  C   UNL     1     -11.817  -8.143 -17.846  1.00  0.00     0.016 A 
BRANCH  13  18
ATOM     18  O   UNL     1      -8.371 -10.481 -17.213  1.00  0.00    -0.493 OA
ATOM     19  C   UNL     1      -8.232 -11.852 -17.572  1.00  0.00     0.278 C 
ENDBRANCH  13  18
BRANCH  14  20
ATOM     20  O   UNL     1      -8.241  -8.219 -18.788  1.00  0.00    -0.504 OA
ATOM     21  H   UNL     1      -8.183  -7.896 -19.746  1.00  0.00     0.293 HD
ENDBRANCH  14  20
ENDBRANCH   1  12
BRANCH   2  22
ATOM     22  O   UNL     1     -12.530  -8.722 -14.283  1.00  0.00    -0.502 OA
ATOM     23  H   UNL     1     -11.541  -8.941 -14.294  1.00  0.00     0.293 HD
ENDBRANCH   2  22
BRANCH   6  24
ATOM     24  O   UNL     1     -17.272 -11.022 -13.516  1.00  0.00    -0.507 OA
ATOM     25  H   UNL     1     -17.682 -10.238 -13.033  1.00  0.00     0.293 HD
ENDBRANCH   6  24
BRANCH   8  26
ATOM     26  O   UNL     1     -18.354 -12.244 -18.033  1.00  0.00    -0.508 OA
ATOM     27  H   UNL     1     -19.012 -11.671 -18.549  1.00  0.00     0.293 HD
ENDBRANCH   8  26
TORSDOF 6
ENDMDL
MODEL 2
REMARK VINA RESULT:    -6.676     14.344     15.763
REMARK INTER + INTRA:          -8.600
REMARK INTER:                  -8.209
REMARK INTRA:                  -0.391
REMARK UNBOUND:                -0.364
REMARK SMILES COc1cc(-c2oc3cc(O)cc(O)c3c(=O)c2O)ccc1O
REMARK SMILES IDX 6 1 18 2 16 3 17 4 15 5 13 6 12 7 10 8 9 9 8 10 7 11 5 12
REMARK SMILES IDX 3 13 22 14 4 15 21 16 20 17 2 18 1 19 23 20 19 22 14 24
REMARK SMILES IDX 11 26
REMARK H PARENT 23 21 19 23 14 25 11 27
REMARK Flexibility Score: inf
ROOT
ATOM      1  C   UNL     1      -7.940 -20.141  -6.345  1.00  0.00     0.180 A 
ATOM      2  C   UNL     1      -8.150 -19.105  -7.271  1.00  0.00     0.208 A 
ATOM      3  C   UNL     1      -9.454 -18.618  -7.463  1.00  0.00     0.238 A 
ATOM      4  O   UNL     1      -9.643 -17.728  -8.333  1.00  0.00    -0.285 OA
ATOM      5  C   UNL     1     -10.526 -19.162  -6.716  1.00  0.00     0.111 A 
ATOM      6  C   UNL     1     -11.879 -18.717  -6.801  1.00  0.00     0.134 A 
ATOM      7  C   UNL     1     -12.880 -19.414  -6.112  1.00  0.00     0.093 A 
ATOM      8  C   UNL     1     -12.565 -20.499  -5.290  1.00  0.00     0.123 A 
ATOM      9  C   UNL     1     -11.240 -20.903  -5.154  1.00  0.00     0.094 A 
ATOM     10  C   UNL     1     -10.224 -20.250  -5.858  1.00  0.00     0.146 A 
ATOM     11  O   UNL     1      -8.975 -20.674  -5.708  1.00  0.00    -0.452 OA
ENDROOT
BRANCH   1  12
ATOM     12  C   UNL     1      -6.592 -20.690  -6.069  1.00  0.00     0.025 A 
ATOM     13  C   UNL     1      -4.954 -22.482  -6.361  1.00  0.00     0.161 A 
ATOM     14  C   UNL     1      -4.065 -21.797  -5.523  1.00  0.00     0.157 A 
ATOM     15  C   UNL     1      -6.222 -21.927  -6.625  1.00  0.00     0.062 A 
ATOM     16  C   UNL     1      -4.439 -20.575  -4.951  1.00  0.00     0.051 A 
ATOM     17  C   UNL     1      -5.695 -20.028  -5.216  1.00  0.00     0.016 A 
BRANCH  13  18
ATOM     18  O   UNL     1      -4.546 -23.709  -6.909  1.00  0.00    -0.493 OA
ATOM     19  C   UNL     1      -5.064 -24.978  -6.520  1.00  0.00     0.278 C 
ENDBRANCH  13  18
BRANCH  14  20
ATOM     20  O   UNL     1      -2.809 -22.342  -5.258  1.00  0.00    -0.504 OA
ATOM     21  H   UNL     1      -2.701 -23.173  -4.690  1.00  0.00     0.293 HD
ENDBRANCH  14  20
ENDBRANCH   1  12
BRANCH   2  22
ATOM     22  O   UNL     1      -7.081 -18.598  -8.014  1.00  0.00    -0.502 OA
ATOM     23  H   UNL     1      -6.346 -18.039  -7.597  1.00  0.00     0.293 HD
ENDBRANCH   2  22
BRANCH   6  24
ATOM     24  O   UNL     1     -12.287 -17.589  -7.520  1.00  0.00    -0.507 OA
ATOM     25  H   UNL     1     -11.830 -17.239  -8.348  1.00  0.00     0.293 HD
ENDBRANCH   6  24
BRANCH   8  26
ATOM     26  O   UNL     1     -13.565 -21.177  -4.595  1.00  0.00    -0.508 OA
ATOM     27  H   UNL     1     -14.357 -21.590  -5.075  1.00  0.00     0.293 HD
ENDBRANCH   8  26
TORSDOF 6
ENDMDL
MODEL 3
REMARK VINA RESULT:    -6.631      1.627      7.099
REMARK INTER + INTRA:          -8.545
REMARK INTER:                  -8.173
REMARK INTRA:                  -0.372
REMARK UNBOUND:                -0.364
REMARK SMILES COc1cc(-c2oc3cc(O)cc(O)c3c(=O)c2O)ccc1O
REMARK SMILES IDX 6 1 18 2 16 3 17 4 15 5 13 6 12 7 10 8 9 9 8 10 7 11 5 12
REMARK SMILES IDX 3 13 22 14 4 15 21 16 20 17 2 18 1 19 23 20 19 22 14 24
REMARK SMILES IDX 11 26
REMARK H PARENT 23 21 19 23 14 25 11 27
REMARK Flexibility Score: inf
ROOT
ATOM      1  C   UNL     1     -12.988 -10.300 -16.155  1.00  0.00     0.180 A 
ATOM      2  C   UNL     1     -12.454  -9.205 -16.854  1.00  0.00     0.208 A 
ATOM      3  C   UNL     1     -11.136  -9.281 -17.336  1.00  0.00     0.238 A 
ATOM      4  O   UNL     1     -10.645  -8.276 -17.914  1.00  0.00    -0.285 OA
ATOM      5  C   UNL     1     -10.376 -10.457 -17.126  1.00  0.00     0.111 A 
ATOM      6  C   UNL     1      -9.048 -10.659 -17.605  1.00  0.00     0.134 A 
ATOM      7  C   UNL     1      -8.344 -11.810 -17.227  1.00  0.00     0.093 A 
ATOM      8  C   UNL     1      -8.947 -12.795 -16.441  1.00  0.00     0.123 A 
ATOM      9  C   UNL     1     -10.264 -12.635 -16.018  1.00  0.00     0.094 A 
ATOM     10  C   UNL     1     -10.979 -11.481 -16.350  1.00  0.00     0.146 A 
ATOM     11  O   UNL     1     -12.228 -11.363 -15.917  1.00  0.00    -0.452 OA
ENDROOT
BRANCH   1  12
ATOM     12  C   UNL     1     -14.376 -10.304 -15.638  1.00  0.00     0.025 A 
ATOM     13  C   UNL     1     -16.734 -10.870 -15.954  1.00  0.00     0.161 A 
ATOM     14  C   UNL     1     -17.034 -10.279 -14.720  1.00  0.00     0.157 A 
ATOM     15  C   UNL     1     -15.401 -10.873 -16.413  1.00  0.00     0.062 A 
ATOM     16  C   UNL     1     -16.018  -9.694 -13.955  1.00  0.00     0.051 A 
ATOM     17  C   UNL     1     -14.699  -9.700 -14.412  1.00  0.00     0.016 A 
BRANCH  13  18
ATOM     18  O   UNL     1     -17.781 -11.439 -16.696  1.00  0.00    -0.493 OA
ATOM     19  C   UNL     1     -17.604 -12.217 -17.876  1.00  0.00     0.278 C 
ENDBRANCH  13  18
BRANCH  14  20
ATOM     20  O   UNL     1     -18.351 -10.273 -14.260  1.00  0.00    -0.504 OA
ATOM     21  H   UNL     1     -18.585 -10.560 -13.318  1.00  0.00     0.293 HD
ENDBRANCH  14  20
ENDBRANCH   1  12
BRANCH   2  22
ATOM     22  O   UNL     1     -13.213  -8.045 -17.032  1.00  0.00    -0.502 OA
ATOM     23  H   UNL     1     -13.462  -7.435 -16.262  1.00  0.00     0.293 HD
ENDBRANCH   2  22
BRANCH   6  24
ATOM     24  O   UNL     1      -8.388  -9.781 -18.470  1.00  0.00    -0.507 OA
ATOM     25  H   UNL     1      -7.502  -9.969 -18.914  1.00  0.00     0.293 HD
ENDBRANCH   6  24
BRANCH   8  26
ATOM     26  O   UNL     1      -8.245 -13.945 -16.082  1.00  0.00    -0.508 OA
ATOM     27  H   UNL     1      -7.350 -13.894 -15.609  1.00  0.00     0.293 HD
ENDBRANCH   8  26
TORSDOF 6
ENDMDL
MODEL 4
REMARK VINA RESULT:    -6.459      1.935      7.073
REMARK INTER + INTRA:          -8.333
REMARK INTER:                  -8.037
REMARK INTRA:                  -0.295
REMARK UNBOUND:                -0.364
REMARK SMILES COc1cc(-c2oc3cc(O)cc(O)c3c(=O)c2O)ccc1O
REMARK SMILES IDX 6 1 18 2 16 3 17 4 15 5 13 6 12 7 10 8 9 9 8 10 7 11 5 12
REMARK SMILES IDX 3 13 22 14 4 15 21 16 20 17 2 18 1 19 23 20 19 22 14 24
REMARK SMILES IDX 11 26
REMARK H PARENT 23 21 19 23 14 25 11 27
REMARK Flexibility Score: inf
ROOT
ATOM      1  C   UNL     1     -12.322 -10.358 -16.030  1.00  0.00     0.180 A 
ATOM      2  C   UNL     1     -11.768  -9.625 -17.092  1.00  0.00     0.208 A 
ATOM      3  C   UNL     1     -10.593 -10.093 -17.704  1.00  0.00     0.238 A 
ATOM      4  O   UNL     1     -10.072  -9.403 -18.618  1.00  0.00    -0.285 OA
ATOM      5  C   UNL     1      -9.996 -11.296 -17.254  1.00  0.00     0.111 A 
ATOM      6  C   UNL     1      -8.828 -11.883 -17.826  1.00  0.00     0.134 A 
ATOM      7  C   UNL     1      -8.251 -13.006 -17.218  1.00  0.00     0.093 A 
ATOM      8  C   UNL     1      -8.838 -13.598 -16.097  1.00  0.00     0.123 A 
ATOM      9  C   UNL     1     -10.012 -13.067 -15.568  1.00  0.00     0.094 A 
ATOM     10  C   UNL     1     -10.590 -11.927 -16.131  1.00  0.00     0.146 A 
ATOM     11  O   UNL     1     -11.703 -11.447 -15.588  1.00  0.00    -0.452 OA
ENDROOT
BRANCH   1  12
ATOM     12  C   UNL     1     -13.572  -9.942 -15.352  1.00  0.00     0.025 A 
ATOM     13  C   UNL     1     -15.970 -10.255 -14.990  1.00  0.00     0.161 A 
ATOM     14  C   UNL     1     -15.977  -9.147 -14.132  1.00  0.00     0.157 A 
ATOM     15  C   UNL     1     -14.762 -10.644 -15.605  1.00  0.00     0.062 A 
ATOM     16  C   UNL     1     -14.796  -8.434 -13.894  1.00  0.00     0.051 A 
ATOM     17  C   UNL     1     -13.603  -8.823 -14.504  1.00  0.00     0.016 A 
BRANCH  13  18
ATOM     18  O   UNL     1     -17.175 -10.940 -15.209  1.00  0.00    -0.493 OA
ATOM     19  C   UNL     1     -17.585 -11.469 -16.467  1.00  0.00     0.278 C 
ENDBRANCH  13  18
BRANCH  14  20
ATOM     20  O   UNL     1     -17.169  -8.758 -13.520  1.00  0.00    -0.504 OA
ATOM     21  H   UNL     1     -17.358  -8.966 -12.547  1.00  0.00     0.293 HD
ENDBRANCH  14  20
ENDBRANCH   1  12
BRANCH   2  22
ATOM     22  O   UNL     1     -12.360  -8.429 -17.506  1.00  0.00    -0.502 OA
ATOM     23  H   UNL     1     -11.899  -7.532 -17.411  1.00  0.00     0.293 HD
ENDBRANCH   2  22
BRANCH   6  24
ATOM     24  O   UNL     1      -8.217 -11.425 -18.996  1.00  0.00    -0.507 OA
ATOM     25  H   UNL     1      -8.651 -11.418 -19.907  1.00  0.00     0.293 HD
ENDBRANCH   6  24
BRANCH   8  26
ATOM     26  O   UNL     1      -8.266 -14.724 -15.508  1.00  0.00    -0.508 OA
ATOM     27  H   UNL     1      -8.788 -15.308 -14.863  1.00  0.00     0.293 HD
ENDBRANCH   8  26
TORSDOF 6
ENDMDL
MODEL 5
REMARK VINA RESULT:    -6.440     13.142     15.873
REMARK INTER + INTRA:          -8.309
REMARK INTER:                  -8.155
REMARK INTRA:                  -0.154
REMARK UNBOUND:                -0.364
REMARK SMILES COc1cc(-c2oc3cc(O)cc(O)c3c(=O)c2O)ccc1O
REMARK SMILES IDX 6 1 18 2 16 3 17 4 15 5 13 6 12 7 10 8 9 9 8 10 7 11 5 12
REMARK SMILES IDX 3 13 22 14 4 15 21 16 20 17 2 18 1 19 23 20 19 22 14 24
REMARK SMILES IDX 11 26
REMARK H PARENT 23 21 19 23 14 25 11 27
REMARK Flexibility Score: inf
ROOT
ATOM      1  C   UNL     1      -8.368 -19.814  -7.480  1.00  0.00     0.180 A 
ATOM      2  C   UNL     1      -8.006 -20.399  -8.705  1.00  0.00     0.208 A 
ATOM      3  C   UNL     1      -6.726 -20.150  -9.228  1.00  0.00     0.238 A 
ATOM      4  O   UNL     1      -6.427 -20.633 -10.351  1.00  0.00    -0.285 OA
ATOM      5  C   UNL     1      -5.821 -19.331  -8.511  1.00  0.00     0.111 A 
ATOM      6  C   UNL     1      -4.486 -19.043  -8.926  1.00  0.00     0.134 A 
ATOM      7  C   UNL     1      -3.723 -18.116  -8.205  1.00  0.00     0.093 A 
ATOM      8  C   UNL     1      -4.225 -17.516  -7.048  1.00  0.00     0.123 A 
ATOM      9  C   UNL     1      -5.505 -17.836  -6.601  1.00  0.00     0.094 A 
ATOM     10  C   UNL     1      -6.303 -18.729  -7.319  1.00  0.00     0.146 A 
ATOM     11  O   UNL     1      -7.521 -18.998  -6.864  1.00  0.00    -0.452 OA
ENDROOT
BRANCH   1  12
ATOM     12  C   UNL     1      -9.690 -20.050  -6.854  1.00  0.00     0.025 A 
ATOM     13  C   UNL     1     -12.126 -19.861  -6.955  1.00  0.00     0.161 A 
ATOM     14  C   UNL     1     -12.216 -20.425  -5.675  1.00  0.00     0.157 A 
ATOM     15  C   UNL     1     -10.857 -19.669  -7.538  1.00  0.00     0.062 A 
ATOM     16  C   UNL     1     -11.053 -20.786  -4.983  1.00  0.00     0.051 A 
ATOM     17  C   UNL     1      -9.799 -20.595  -5.564  1.00  0.00     0.016 A 
BRANCH  13  18
ATOM     18  O   UNL     1     -13.313 -19.505  -7.614  1.00  0.00    -0.493 OA
ATOM     19  C   UNL     1     -13.998 -20.335  -8.547  1.00  0.00     0.278 C 
ENDBRANCH  13  18
BRANCH  14  20
ATOM     20  O   UNL     1     -13.468 -20.618  -5.094  1.00  0.00    -0.504 OA
ATOM     21  H   UNL     1     -14.042 -21.420  -5.326  1.00  0.00     0.293 HD
ENDBRANCH  14  20
ENDBRANCH   1  12
BRANCH   2  22
ATOM     22  O   UNL     1      -8.923 -21.187  -9.407  1.00  0.00    -0.502 OA
ATOM     23  H   UNL     1      -9.924 -21.099  -9.281  1.00  0.00     0.293 HD
ENDBRANCH   2  22
BRANCH   6  24
ATOM     24  O   UNL     1      -3.858 -19.657 -10.014  1.00  0.00    -0.507 OA
ATOM     25  H   UNL     1      -4.283 -20.356 -10.604  1.00  0.00     0.293 HD
ENDBRANCH   6  24
BRANCH   8  26
ATOM     26  O   UNL     1      -3.453 -16.606  -6.327  1.00  0.00    -0.508 OA
ATOM     27  H   UNL     1      -2.771 -16.011  -6.784  1.00  0.00     0.293 HD
ENDBRANCH   8  26
TORSDOF 6
ENDMDL
MODEL 6
REMARK VINA RESULT:    -6.355     13.078     14.301
REMARK INTER + INTRA:          -8.204
REMARK INTER:                  -7.887
REMARK INTRA:                  -0.317
REMARK UNBOUND:                -0.364
REMARK SMILES COc1cc(-c2oc3cc(O)cc(O)c3c(=O)c2O)ccc1O
REMARK SMILES IDX 6 1 18 2 16 3 17 4 15 5 13 6 12 7 10 8 9 9 8 10 7 11 5 12
REMARK SMILES IDX 3 13 22 14 4 15 21 16 20 17 2 18 1 19 23 20 19 22 14 24
REMARK SMILES IDX 11 26
REMARK H PARENT 23 21 19 23 14 25 11 27
REMARK Flexibility Score: inf
ROOT
ATOM      1  C   UNL     1      -9.352 -20.099  -7.362  1.00  0.00     0.180 A 
ATOM      2  C   UNL     1      -9.602 -20.666  -8.623  1.00  0.00     0.208 A 
ATOM      3  C   UNL     1     -10.932 -20.900  -9.012  1.00  0.00     0.238 A 
ATOM      4  O   UNL     1     -11.147 -21.458 -10.120  1.00  0.00    -0.285 OA
ATOM      5  C   UNL     1     -11.992 -20.551  -8.142  1.00  0.00     0.111 A 
ATOM      6  C   UNL     1     -13.377 -20.707  -8.449  1.00  0.00     0.134 A 
ATOM      7  C   UNL     1     -14.337 -20.449  -7.463  1.00  0.00     0.093 A 
ATOM      8  C   UNL     1     -13.964 -19.979  -6.202  1.00  0.00     0.123 A 
ATOM      9  C   UNL     1     -12.618 -19.767  -5.912  1.00  0.00     0.094 A 
ATOM     10  C   UNL     1     -11.636 -20.049  -6.863  1.00  0.00     0.146 A 
ATOM     11  O   UNL     1     -10.364 -19.843  -6.542  1.00  0.00    -0.452 OA
ENDROOT
BRANCH   1  12
ATOM     12  C   UNL     1      -7.979 -19.800  -6.891  1.00  0.00     0.025 A 
ATOM     13  C   UNL     1      -6.050 -18.298  -6.861  1.00  0.00     0.161 A 
ATOM     14  C   UNL     1      -5.353 -19.221  -6.069  1.00  0.00     0.157 A 
ATOM     15  C   UNL     1      -7.363 -18.597  -7.276  1.00  0.00     0.062 A 
ATOM     16  C   UNL     1      -5.957 -20.429  -5.701  1.00  0.00     0.051 A 
ATOM     17  C   UNL     1      -7.258 -20.720  -6.114  1.00  0.00     0.016 A 
BRANCH  13  18
ATOM     18  O   UNL     1      -5.407 -17.101  -7.215  1.00  0.00    -0.493 OA
ATOM     19  C   UNL     1      -4.501 -16.965  -8.306  1.00  0.00     0.278 C 
ENDBRANCH  13  18
BRANCH  14  20
ATOM     20  O   UNL     1      -4.054 -18.930  -5.654  1.00  0.00    -0.504 OA
ATOM     21  H   UNL     1      -3.672 -19.313  -4.798  1.00  0.00     0.293 HD
ENDBRANCH  14  20
ENDBRANCH   1  12
BRANCH   2  22
ATOM     22  O   UNL     1      -8.540 -21.023  -9.458  1.00  0.00    -0.502 OA
ATOM     23  H   UNL     1      -8.681 -21.404 -10.386  1.00  0.00     0.293 HD
ENDBRANCH   2  22
BRANCH   6  24
ATOM     24  O   UNL     1     -13.860 -21.082  -9.707  1.00  0.00    -0.507 OA
ATOM     25  H   UNL     1     -14.809 -20.950 -10.021  1.00  0.00     0.293 HD
ENDBRANCH   6  24
BRANCH   8  26
ATOM     26  O   UNL     1     -14.927 -19.710  -5.230  1.00  0.00    -0.508 OA
ATOM     27  H   UNL     1     -15.776 -20.259  -5.159  1.00  0.00     0.293 HD
ENDBRANCH   8  26
TORSDOF 6
ENDMDL
MODEL 7
REMARK VINA RESULT:    -6.349     14.020     15.479
REMARK INTER + INTRA:          -8.197
REMARK INTER:                  -8.156
REMARK INTRA:                  -0.041
REMARK UNBOUND:                -0.364
REMARK SMILES COc1cc(-c2oc3cc(O)cc(O)c3c(=O)c2O)ccc1O
REMARK SMILES IDX 6 1 18 2 16 3 17 4 15 5 13 6 12 7 10 8 9 9 8 10 7 11 5 12
REMARK SMILES IDX 3 13 22 14 4 15 21 16 20 17 2 18 1 19 23 20 19 22 14 24
REMARK SMILES IDX 11 26
REMARK H PARENT 23 21 19 23 14 25 11 27
REMARK Flexibility Score: inf
ROOT
ATOM      1  C   UNL     1      -7.883 -20.105  -6.447  1.00  0.00     0.180 A 
ATOM      2  C   UNL     1      -8.150 -19.059  -7.347  1.00  0.00     0.208 A 
ATOM      3  C   UNL     1      -9.469 -18.593  -7.476  1.00  0.00     0.238 A 
ATOM      4  O   UNL     1      -9.712 -17.694  -8.323  1.00  0.00    -0.285 OA
ATOM      5  C   UNL     1     -10.500 -19.168  -6.694  1.00  0.00     0.111 A 
ATOM      6  C   UNL     1     -11.863 -18.748  -6.715  1.00  0.00     0.134 A 
ATOM      7  C   UNL     1     -12.821 -19.474  -5.996  1.00  0.00     0.093 A 
ATOM      8  C   UNL     1     -12.453 -20.565  -5.205  1.00  0.00     0.123 A 
ATOM      9  C   UNL     1     -11.115 -20.947  -5.132  1.00  0.00     0.094 A 
ATOM     10  C   UNL     1     -10.142 -20.264  -5.866  1.00  0.00     0.146 A 
ATOM     11  O   UNL     1      -8.881 -20.667  -5.775  1.00  0.00    -0.452 OA
ENDROOT
BRANCH   1  12
ATOM     12  C   UNL     1      -6.515 -20.633  -6.237  1.00  0.00     0.025 A 
ATOM     13  C   UNL     1      -4.142 -20.214  -5.820  1.00  0.00     0.161 A 
ATOM     14  C   UNL     1      -3.893 -21.591  -5.893  1.00  0.00     0.157 A 
ATOM     15  C   UNL     1      -5.457 -19.739  -6.001  1.00  0.00     0.062 A 
ATOM     16  C   UNL     1      -4.942 -22.482  -6.149  1.00  0.00     0.051 A 
ATOM     17  C   UNL     1      -6.242 -22.008  -6.326  1.00  0.00     0.016 A 
BRANCH  13  18
ATOM     18  O   UNL     1      -3.063 -19.351  -5.569  1.00  0.00    -0.493 OA
ATOM     19  C   UNL     1      -2.360 -18.627  -6.574  1.00  0.00     0.278 C 
ENDBRANCH  13  18
BRANCH  14  20
ATOM     20  O   UNL     1      -2.594 -22.067  -5.715  1.00  0.00    -0.504 OA
ATOM     21  H   UNL     1      -1.846 -21.815  -6.349  1.00  0.00     0.293 HD
ENDBRANCH  14  20
ENDBRANCH   1  12
BRANCH   2  22
ATOM     22  O   UNL     1      -7.122 -18.521  -8.125  1.00  0.00    -0.502 OA
ATOM     23  H   UNL     1      -7.039 -18.704  -9.118  1.00  0.00     0.293 HD
ENDBRANCH   2  22
BRANCH   6  24
ATOM     24  O   UNL     1     -12.320 -17.617  -7.397  1.00  0.00    -0.507 OA
ATOM     25  H   UNL     1     -11.897 -17.238  -8.230  1.00  0.00     0.293 HD
ENDBRANCH   6  24
BRANCH   8  26
ATOM     26  O   UNL     1     -13.410 -21.272  -4.480  1.00  0.00    -0.508 OA
ATOM     27  H   UNL     1     -14.200 -20.806  -4.049  1.00  0.00     0.293 HD
ENDBRANCH   8  26
TORSDOF 6
ENDMDL
MODEL 8
REMARK VINA RESULT:    -6.328      1.222      2.166
REMARK INTER + INTRA:          -8.172
REMARK INTER:                  -7.776
REMARK INTRA:                  -0.395
REMARK UNBOUND:                -0.364
REMARK SMILES COc1cc(-c2oc3cc(O)cc(O)c3c(=O)c2O)ccc1O
REMARK SMILES IDX 6 1 18 2 16 3 17 4 15 5 13 6 12 7 10 8 9 9 8 10 7 11 5 12
REMARK SMILES IDX 3 13 22 14 4 15 21 16 20 17 2 18 1 19 23 20 19 22 14 24
REMARK SMILES IDX 11 26
REMARK H PARENT 23 21 19 23 14 25 11 27
REMARK Flexibility Score: inf
ROOT
ATOM      1  C   UNL     1     -12.807 -10.571 -15.917  1.00  0.00     0.180 A 
ATOM      2  C   UNL     1     -12.893  -9.781 -14.758  1.00  0.00     0.208 A 
ATOM      3  C   UNL     1     -14.158  -9.521 -14.204  1.00  0.00     0.238 A 
ATOM      4  O   UNL     1     -14.233  -8.769 -13.197  1.00  0.00    -0.285 OA
ATOM      5  C   UNL     1     -15.317 -10.065 -14.808  1.00  0.00     0.111 A 
ATOM      6  C   UNL     1     -16.644  -9.900 -14.309  1.00  0.00     0.134 A 
ATOM      7  C   UNL     1     -17.728 -10.373 -15.059  1.00  0.00     0.093 A 
ATOM      8  C   UNL     1     -17.527 -11.064 -16.257  1.00  0.00     0.123 A 
ATOM      9  C   UNL     1     -16.232 -11.283 -16.721  1.00  0.00     0.094 A 
ATOM     10  C   UNL     1     -15.133 -10.791 -16.013  1.00  0.00     0.146 A 
ATOM     11  O   UNL     1     -13.916 -11.013 -16.497  1.00  0.00    -0.452 OA
ENDROOT
BRANCH   1  12
ATOM     12  C   UNL     1     -11.508 -10.909 -16.545  1.00  0.00     0.025 A 
ATOM     13  C   UNL     1      -9.724 -10.342 -18.118  1.00  0.00     0.161 A 
ATOM     14  C   UNL     1      -9.075 -11.543 -17.805  1.00  0.00     0.157 A 
ATOM     15  C   UNL     1     -10.948 -10.033 -17.489  1.00  0.00     0.062 A 
ATOM     16  C   UNL     1      -9.642 -12.428 -16.879  1.00  0.00     0.051 A 
ATOM     17  C   UNL     1     -10.853 -12.118 -16.258  1.00  0.00     0.016 A 
BRANCH  13  18
ATOM     18  O   UNL     1      -9.129  -9.484 -19.056  1.00  0.00    -0.493 OA
ATOM     19  C   UNL     1      -8.668  -8.168 -18.767  1.00  0.00     0.278 C 
ENDBRANCH  13  18
BRANCH  14  20
ATOM     20  O   UNL     1      -7.865 -11.854 -18.423  1.00  0.00    -0.504 OA
ATOM     21  H   UNL     1      -7.218 -12.519 -18.017  1.00  0.00     0.293 HD
ENDBRANCH  14  20
ENDBRANCH   1  12
BRANCH   2  22
ATOM     22  O   UNL     1     -11.739  -9.236 -14.190  1.00  0.00    -0.502 OA
ATOM     23  H   UNL     1     -11.638  -9.094 -13.192  1.00  0.00     0.293 HD
ENDBRANCH   2  22
BRANCH   6  24
ATOM     24  O   UNL     1     -16.947  -9.306 -13.080  1.00  0.00    -0.507 OA
ATOM     25  H   UNL     1     -17.596  -8.545 -12.954  1.00  0.00     0.293 HD
ENDBRANCH   6  24
BRANCH   8  26
ATOM     26  O   UNL     1     -18.610 -11.546 -16.989  1.00  0.00    -0.508 OA
ATOM     27  H   UNL     1     -18.505 -12.304 -17.654  1.00  0.00     0.293 HD
ENDBRANCH   8  26
TORSDOF 6
ENDMDL
MODEL 9
REMARK VINA RESULT:    -6.110     14.332     17.070
REMARK INTER + INTRA:          -7.903
REMARK INTER:                  -7.617
REMARK INTRA:                  -0.286
REMARK UNBOUND:                -0.364
REMARK SMILES COc1cc(-c2oc3cc(O)cc(O)c3c(=O)c2O)ccc1O
REMARK SMILES IDX 6 1 18 2 16 3 17 4 15 5 13 6 12 7 10 8 9 9 8 10 7 11 5 12
REMARK SMILES IDX 3 13 22 14 4 15 21 16 20 17 2 18 1 19 23 20 19 22 14 24
REMARK SMILES IDX 11 26
REMARK H PARENT 23 21 19 23 14 25 11 27
REMARK Flexibility Score: inf
ROOT
ATOM      1  C   UNL     1      -7.520 -20.555  -7.172  1.00  0.00     0.180 A 
ATOM      2  C   UNL     1      -7.236 -21.192  -8.392  1.00  0.00     0.208 A 
ATOM      3  C   UNL     1      -6.060 -21.952  -8.506  1.00  0.00     0.238 A 
ATOM      4  O   UNL     1      -5.785 -22.475  -9.617  1.00  0.00    -0.285 OA
ATOM      5  C   UNL     1      -5.192 -22.076  -7.394  1.00  0.00     0.111 A 
ATOM      6  C   UNL     1      -3.995 -22.853  -7.385  1.00  0.00     0.134 A 
ATOM      7  C   UNL     1      -3.146 -22.800  -6.272  1.00  0.00     0.093 A 
ATOM      8  C   UNL     1      -3.484 -22.049  -5.144  1.00  0.00     0.123 A 
ATOM      9  C   UNL     1      -4.680 -21.334  -5.121  1.00  0.00     0.094 A 
ATOM     10  C   UNL     1      -5.530 -21.340  -6.229  1.00  0.00     0.146 A 
ATOM     11  O   UNL     1      -6.654 -20.637  -6.169  1.00  0.00    -0.452 OA
ENDROOT
BRANCH   1  12
ATOM     12  C   UNL     1      -8.752 -19.757  -6.968  1.00  0.00     0.025 A 
ATOM     13  C   UNL     1     -11.050 -19.615  -6.144  1.00  0.00     0.161 A 
ATOM     14  C   UNL     1     -11.129 -18.297  -6.614  1.00  0.00     0.157 A 
ATOM     15  C   UNL     1      -9.858 -20.344  -6.331  1.00  0.00     0.062 A 
ATOM     16  C   UNL     1     -10.035 -17.716  -7.266  1.00  0.00     0.051 A 
ATOM     17  C   UNL     1      -8.857 -18.442  -7.449  1.00  0.00     0.016 A 
BRANCH  13  18
ATOM     18  O   UNL     1     -12.170 -20.164  -5.501  1.00  0.00    -0.493 OA
ATOM     19  C   UNL     1     -13.292 -20.727  -6.176  1.00  0.00     0.278 C 
ENDBRANCH  13  18
BRANCH  14  20
ATOM     20  O   UNL     1     -12.305 -17.570  -6.431  1.00  0.00    -0.504 OA
ATOM     21  H   UNL     1     -13.187 -18.028  -6.235  1.00  0.00     0.293 HD
ENDBRANCH  14  20
ENDBRANCH   1  12
BRANCH   2  22
ATOM     22  O   UNL     1      -8.096 -21.038  -9.483  1.00  0.00    -0.502 OA
ATOM     23  H   UNL     1      -7.928 -20.360 -10.216  1.00  0.00     0.293 HD
ENDBRANCH   2  22
BRANCH   6  24
ATOM     24  O   UNL     1      -3.611 -23.708  -8.422  1.00  0.00    -0.507 OA
ATOM     25  H   UNL     1      -3.030 -24.524  -8.309  1.00  0.00     0.293 HD
ENDBRANCH   6  24
BRANCH   8  26
ATOM     26  O   UNL     1      -2.641 -22.013  -4.035  1.00  0.00    -0.508 OA
ATOM     27  H   UNL     1      -2.503 -21.163  -3.501  1.00  0.00     0.293 HD
ENDBRANCH   8  26
TORSDOF 6
ENDMDL
