MODEL 1
REMARK VINA RESULT:    -5.040      0.000      0.000
REMARK INTER + INTRA:          -6.169
REMARK INTER:                  -6.071
REMARK INTRA:                  -0.098
REMARK UNBOUND:                -0.098
REMARK SMILES CC[C@@H](C)[C@@H]([NH3+])C(=O)[O-]
REMARK SMILES IDX 3 1 4 2 5 3 6 4 7 8 8 9 9 10 2 11 1 12
REMARK H PARENT 6 5 6 6 6 7
REMARK Flexibility Score: inf
ROOT
ATOM      1  C   UNL     1     -20.402  68.076  -0.671  1.00  0.00     0.050 C 
ATOM      2  C   UNL     1     -19.127  68.931  -0.776  1.00  0.00     0.014 C 
ENDROOT
BRANCH   1   3
ATOM      3  C   UNL     1     -21.639  68.972  -0.326  1.00  0.00     0.230 C 
BRANCH   3   4
ATOM      4  N   UNL     1     -22.921  68.280  -0.540  1.00  0.00    -0.350 N 
ATOM      5  H   UNL     1     -23.468  68.276   0.352  1.00  0.00     0.345 HD
ATOM      6  H   UNL     1     -23.492  68.780  -1.258  1.00  0.00     0.345 HD
ATOM      7  H   UNL     1     -22.774  67.291  -0.843  1.00  0.00     0.345 HD
ENDBRANCH   3   4
BRANCH   3   8
ATOM      8  C   UNL     1     -21.544  69.548   1.070  1.00  0.00     0.099 C 
ATOM      9  O   UNL     1     -21.620  70.790   1.267  1.00  0.00    -0.544 OA
ATOM     10  O   UNL     1     -21.339  68.701   2.152  1.00  0.00    -0.544 OA
ENDBRANCH   3   8
ENDBRANCH   1   3
BRANCH   1  11
ATOM     11  C   UNL     1     -20.546  67.211  -1.949  1.00  0.00     0.006 C 
ATOM     12  C   UNL     1     -19.638  65.982  -1.965  1.00  0.00     0.004 C 
ENDBRANCH   1  11
TORSDOF 4
ENDMDL
MODEL 2
REMARK VINA RESULT:    -4.610      2.717      4.144
REMARK INTER + INTRA:          -5.651
REMARK INTER:                  -5.557
REMARK INTRA:                  -0.094
REMARK UNBOUND:                -0.098
REMARK SMILES CC[C@@H](C)[C@@H]([NH3+])C(=O)[O-]
REMARK SMILES IDX 3 1 4 2 5 3 6 4 7 8 8 9 9 10 2 11 1 12
REMARK H PARENT 6 5 6 6 6 7
REMARK Flexibility Score: inf
ROOT
ATOM      1  C   UNL     1     -20.785  69.231  -0.006  1.00  0.00     0.050 C 
ATOM      2  C   UNL     1     -22.151  68.622  -0.366  1.00  0.00     0.014 C 
ENDROOT
BRANCH   1   3
ATOM      3  C   UNL     1     -19.674  68.702  -0.975  1.00  0.00     0.230 C 
BRANCH   3   4
ATOM      4  N   UNL     1     -18.452  69.524  -0.945  1.00  0.00    -0.350 N 
ATOM      5  H   UNL     1     -18.456  70.122  -0.086  1.00  0.00     0.345 HD
ATOM      6  H   UNL     1     -17.603  68.917  -0.903  1.00  0.00     0.345 HD
ATOM      7  H   UNL     1     -18.392  70.146  -1.782  1.00  0.00     0.345 HD
ENDBRANCH   3   4
BRANCH   3   8
ATOM      8  C   UNL     1     -19.367  67.240  -0.732  1.00  0.00     0.099 C 
ATOM      9  O   UNL     1     -19.490  66.388  -1.652  1.00  0.00    -0.544 OA
ATOM     10  O   UNL     1     -18.972  66.820   0.532  1.00  0.00    -0.544 OA
ENDBRANCH   3   8
ENDBRANCH   1   3
BRANCH   1  11
ATOM     11  C   UNL     1     -20.916  70.774   0.071  1.00  0.00     0.006 C 
ATOM     12  C   UNL     1     -21.681  71.265   1.299  1.00  0.00     0.004 C 
ENDBRANCH   1  11
TORSDOF 4
ENDMDL
MODEL 3
REMARK VINA RESULT:    -4.560      1.871      2.527
REMARK INTER + INTRA:          -5.591
REMARK INTER:                  -5.440
REMARK INTRA:                  -0.150
REMARK UNBOUND:                -0.098
REMARK SMILES CC[C@@H](C)[C@@H]([NH3+])C(=O)[O-]
REMARK SMILES IDX 3 1 4 2 5 3 6 4 7 8 8 9 9 10 2 11 1 12
REMARK H PARENT 6 5 6 6 6 7
REMARK Flexibility Score: inf
ROOT
ATOM      1  C   UNL     1     -21.621  68.832  -0.328  1.00  0.00     0.050 C 
ATOM      2  C   UNL     1     -22.847  68.032  -0.801  1.00  0.00     0.014 C 
ENDROOT
BRANCH   1   3
ATOM      3  C   UNL     1     -21.895  69.486   1.068  1.00  0.00     0.230 C 
BRANCH   3   4
ATOM      4  N   UNL     1     -21.217  68.783   2.170  1.00  0.00    -0.350 N 
ATOM      5  H   UNL     1     -21.684  69.023   3.076  1.00  0.00     0.345 HD
ATOM      6  H   UNL     1     -21.288  67.748   2.043  1.00  0.00     0.345 HD
ATOM      7  H   UNL     1     -20.210  69.055   2.234  1.00  0.00     0.345 HD
ENDBRANCH   3   4
BRANCH   3   8
ATOM      8  C   UNL     1     -21.571  70.964   1.069  1.00  0.00     0.099 C 
ATOM      9  O   UNL     1     -21.943  71.711   2.013  1.00  0.00    -0.544 OA
ATOM     10  O   UNL     1     -20.880  71.518  -0.001  1.00  0.00    -0.544 OA
ENDBRANCH   3   8
ENDBRANCH   1   3
BRANCH   1  11
ATOM     11  C   UNL     1     -20.361  67.932  -0.402  1.00  0.00     0.006 C 
ATOM     12  C   UNL     1     -19.111  68.664  -0.888  1.00  0.00     0.004 C 
ENDBRANCH   1  11
TORSDOF 4
ENDMDL
MODEL 4
REMARK VINA RESULT:    -4.221      2.400      3.915
REMARK INTER + INTRA:          -5.183
REMARK INTER:                  -5.104
REMARK INTRA:                  -0.079
REMARK UNBOUND:                -0.098
REMARK SMILES CC[C@@H](C)[C@@H]([NH3+])C(=O)[O-]
REMARK SMILES IDX 3 1 4 2 5 3 6 4 7 8 8 9 9 10 2 11 1 12
REMARK H PARENT 6 5 6 6 6 7
REMARK Flexibility Score: inf
ROOT
ATOM      1  C   UNL     1     -20.860  69.078   0.593  1.00  0.00     0.050 C 
ATOM      2  C   UNL     1     -21.334  68.766   2.023  1.00  0.00     0.014 C 
ENDROOT
BRANCH   1   3
ATOM      3  C   UNL     1     -21.360  67.981  -0.406  1.00  0.00     0.230 C 
BRANCH   3   4
ATOM      4  N   UNL     1     -22.638  68.331  -1.047  1.00  0.00    -0.350 N 
ATOM      5  H   UNL     1     -23.424  68.145  -0.381  1.00  0.00     0.345 HD
ATOM      6  H   UNL     1     -22.661  69.348  -1.287  1.00  0.00     0.345 HD
ATOM      7  H   UNL     1     -22.798  67.768  -1.912  1.00  0.00     0.345 HD
ENDBRANCH   3   4
BRANCH   3   8
ATOM      8  C   UNL     1     -20.303  67.629  -1.429  1.00  0.00     0.099 C 
ATOM      9  O   UNL     1     -20.489  66.707  -2.267  1.00  0.00    -0.544 OA
ATOM     10  O   UNL     1     -19.092  68.311  -1.430  1.00  0.00    -0.544 OA
ENDBRANCH   3   8
ENDBRANCH   1   3
BRANCH   1  11
ATOM     11  C   UNL     1     -21.254  70.533   0.229  1.00  0.00     0.006 C 
ATOM     12  C   UNL     1     -21.665  71.378   1.434  1.00  0.00     0.004 C 
ENDBRANCH   1  11
TORSDOF 4
ENDMDL
MODEL 5
REMARK VINA RESULT:    -4.097      1.701      1.928
REMARK INTER + INTRA:          -5.034
REMARK INTER:                  -5.323
REMARK INTRA:                   0.289
REMARK UNBOUND:                -0.098
REMARK SMILES CC[C@@H](C)[C@@H]([NH3+])C(=O)[O-]
REMARK SMILES IDX 3 1 4 2 5 3 6 4 7 8 8 9 9 10 2 11 1 12
REMARK H PARENT 6 5 6 6 6 7
REMARK Flexibility Score: inf
ROOT
ATOM      1  C   UNL     1     -19.903  68.283  -0.332  1.00  0.00     0.050 C 
ATOM      2  C   UNL     1     -18.668  69.072  -0.797  1.00  0.00     0.014 C 
ENDROOT
BRANCH   1   3
ATOM      3  C   UNL     1     -20.893  69.215   0.446  1.00  0.00     0.230 C 
BRANCH   3   4
ATOM      4  N   UNL     1     -20.869  70.605  -0.041  1.00  0.00    -0.350 N 
ATOM      5  H   UNL     1     -20.716  70.608  -1.077  1.00  0.00     0.345 HD
ATOM      6  H   UNL     1     -21.784  71.074   0.144  1.00  0.00     0.345 HD
ATOM      7  H   UNL     1     -20.101  71.153   0.409  1.00  0.00     0.345 HD
ENDBRANCH   3   4
BRANCH   3   8
ATOM      8  C   UNL     1     -22.298  68.655   0.461  1.00  0.00     0.099 C 
ATOM      9  O   UNL     1     -22.769  68.109   1.493  1.00  0.00    -0.544 OA
ATOM     10  O   UNL     1     -23.075  68.713  -0.690  1.00  0.00    -0.544 OA
ENDBRANCH   3   8
ENDBRANCH   1   3
BRANCH   1  11
ATOM     11  C   UNL     1     -20.515  67.529  -1.540  1.00  0.00     0.006 C 
ATOM     12  C   UNL     1     -19.740  66.273  -1.938  1.00  0.00     0.004 C 
ENDBRANCH   1  11
TORSDOF 4
ENDMDL
MODEL 6
REMARK VINA RESULT:    -3.861      1.536      2.209
REMARK INTER + INTRA:          -4.750
REMARK INTER:                  -5.057
REMARK INTRA:                   0.307
REMARK UNBOUND:                -0.098
REMARK SMILES CC[C@@H](C)[C@@H]([NH3+])C(=O)[O-]
REMARK SMILES IDX 3 1 4 2 5 3 6 4 7 8 8 9 9 10 2 11 1 12
REMARK H PARENT 6 5 6 6 6 7
REMARK Flexibility Score: inf
ROOT
ATOM      1  C   UNL     1     -21.246  68.131  -1.371  1.00  0.00     0.050 C 
ATOM      2  C   UNL     1     -22.705  67.992  -0.903  1.00  0.00     0.014 C 
ENDROOT
BRANCH   1   3
ATOM      3  C   UNL     1     -20.312  68.489  -0.166  1.00  0.00     0.230 C 
BRANCH   3   4
ATOM      4  N   UNL     1     -19.069  69.156  -0.587  1.00  0.00    -0.350 N 
ATOM      5  H   UNL     1     -18.300  68.914   0.082  1.00  0.00     0.345 HD
ATOM      6  H   UNL     1     -18.778  68.825  -1.534  1.00  0.00     0.345 HD
ATOM      7  H   UNL     1     -19.180  70.195  -0.602  1.00  0.00     0.345 HD
ENDBRANCH   3   4
BRANCH   3   8
ATOM      8  C   UNL     1     -21.041  69.288   0.891  1.00  0.00     0.099 C 
ATOM      9  O   UNL     1     -21.410  68.755   1.971  1.00  0.00    -0.544 OA
ATOM     10  O   UNL     1     -21.339  70.626   0.660  1.00  0.00    -0.544 OA
ENDBRANCH   3   8
ENDBRANCH   1   3
BRANCH   1  11
ATOM     11  C   UNL     1     -20.841  66.865  -2.168  1.00  0.00     0.006 C 
ATOM     12  C   UNL     1     -19.544  66.220  -1.681  1.00  0.00     0.004 C 
ENDBRANCH   1  11
TORSDOF 4
ENDMDL
MODEL 7
REMARK VINA RESULT:    -3.856      1.702      2.592
REMARK INTER + INTRA:          -4.743
REMARK INTER:                  -4.619
REMARK INTRA:                  -0.124
REMARK UNBOUND:                -0.098
REMARK SMILES CC[C@@H](C)[C@@H]([NH3+])C(=O)[O-]
REMARK SMILES IDX 3 1 4 2 5 3 6 4 7 8 8 9 9 10 2 11 1 12
REMARK H PARENT 6 5 6 6 6 7
REMARK Flexibility Score: inf
ROOT
ATOM      1  C   UNL     1     -19.959  67.905  -1.250  1.00  0.00     0.050 C 
ATOM      2  C   UNL     1     -20.099  66.579  -2.018  1.00  0.00     0.014 C 
ENDROOT
BRANCH   1   3
ATOM      3  C   UNL     1     -20.890  67.913   0.010  1.00  0.00     0.230 C 
BRANCH   3   4
ATOM      4  N   UNL     1     -20.137  67.935   1.275  1.00  0.00    -0.350 N 
ATOM      5  H   UNL     1     -19.973  66.953   1.600  1.00  0.00     0.345 HD
ATOM      6  H   UNL     1     -19.204  68.383   1.139  1.00  0.00     0.345 HD
ATOM      7  H   UNL     1     -20.662  68.446   2.021  1.00  0.00     0.345 HD
ENDBRANCH   3   4
BRANCH   3   8
ATOM      8  C   UNL     1     -21.907  69.031  -0.052  1.00  0.00     0.099 C 
ATOM      9  O   UNL     1     -23.010  68.875  -0.640  1.00  0.00    -0.544 OA
ATOM     10  O   UNL     1     -21.613  70.262   0.522  1.00  0.00    -0.544 OA
ENDBRANCH   3   8
ENDBRANCH   1   3
BRANCH   1  11
ATOM     11  C   UNL     1     -18.459  68.177  -0.966  1.00  0.00     0.006 C 
ATOM     12  C   UNL     1     -18.060  69.644  -1.124  1.00  0.00     0.004 C 
ENDBRANCH   1  11
TORSDOF 4
ENDMDL
MODEL 8
REMARK VINA RESULT:    -3.735      3.004      3.909
REMARK INTER + INTRA:          -4.598
REMARK INTER:                  -4.591
REMARK INTRA:                  -0.006
REMARK UNBOUND:                -0.098
REMARK SMILES CC[C@@H](C)[C@@H]([NH3+])C(=O)[O-]
REMARK SMILES IDX 3 1 4 2 5 3 6 4 7 8 8 9 9 10 2 11 1 12
REMARK H PARENT 6 5 6 6 6 7
REMARK Flexibility Score: inf
ROOT
ATOM      1  C   UNL     1     -20.485  69.128   0.034  1.00  0.00     0.050 C 
ATOM      2  C   UNL     1     -20.451  68.065   1.146  1.00  0.00     0.014 C 
ENDROOT
BRANCH   1   3
ATOM      3  C   UNL     1     -19.571  68.702  -1.164  1.00  0.00     0.230 C 
BRANCH   3   4
ATOM      4  N   UNL     1     -18.151  69.018  -0.937  1.00  0.00    -0.350 N 
ATOM      5  H   UNL     1     -17.825  69.697  -1.665  1.00  0.00     0.345 HD
ATOM      6  H   UNL     1     -18.019  69.468  -0.004  1.00  0.00     0.345 HD
ATOM      7  H   UNL     1     -17.556  68.161  -0.995  1.00  0.00     0.345 HD
ENDBRANCH   3   4
BRANCH   3   8
ATOM      8  C   UNL     1     -19.766  67.247  -1.530  1.00  0.00     0.099 C 
ATOM      9  O   UNL     1     -18.918  66.375  -1.203  1.00  0.00    -0.544 OA
ATOM     10  O   UNL     1     -20.881  66.866  -2.266  1.00  0.00    -0.544 OA
ENDBRANCH   3   8
ENDBRANCH   1   3
BRANCH   1  11
ATOM     11  C   UNL     1     -21.959  69.435  -0.335  1.00  0.00     0.006 C 
ATOM     12  C   UNL     1     -22.935  68.325   0.054  1.00  0.00     0.004 C 
ENDBRANCH   1  11
TORSDOF 4
ENDMDL
MODEL 9
REMARK VINA RESULT:    -3.715      2.610      3.570
REMARK INTER + INTRA:          -4.573
REMARK INTER:                  -4.518
REMARK INTRA:                  -0.055
REMARK UNBOUND:                -0.098
REMARK SMILES CC[C@@H](C)[C@@H]([NH3+])C(=O)[O-]
REMARK SMILES IDX 3 1 4 2 5 3 6 4 7 8 8 9 9 10 2 11 1 12
REMARK H PARENT 6 5 6 6 6 7
REMARK Flexibility Score: inf
ROOT
ATOM      1  C   UNL     1     -20.890  68.873  -0.101  1.00  0.00     0.050 C 
ATOM      2  C   UNL     1     -21.291  68.695   1.374  1.00  0.00     0.014 C 
ENDROOT
BRANCH   1   3
ATOM      3  C   UNL     1     -19.800  67.826  -0.506  1.00  0.00     0.230 C 
BRANCH   3   4
ATOM      4  N   UNL     1     -20.128  67.114  -1.753  1.00  0.00    -0.350 N 
ATOM      5  H   UNL     1     -20.575  67.779  -2.426  1.00  0.00     0.345 HD
ATOM      6  H   UNL     1     -19.261  66.744  -2.203  1.00  0.00     0.345 HD
ATOM      7  H   UNL     1     -20.791  66.325  -1.577  1.00  0.00     0.345 HD
ENDBRANCH   3   4
BRANCH   3   8
ATOM      8  C   UNL     1     -18.421  68.445  -0.566  1.00  0.00     0.099 C 
ATOM      9  O   UNL     1     -17.424  67.863  -0.061  1.00  0.00    -0.544 OA
ATOM     10  O   UNL     1     -18.250  69.690  -1.158  1.00  0.00    -0.544 OA
ENDBRANCH   3   8
ENDBRANCH   1   3
BRANCH   1  11
ATOM     11  C   UNL     1     -22.166  68.876  -0.982  1.00  0.00     0.006 C 
ATOM     12  C   UNL     1     -23.272  67.956  -0.465  1.00  0.00     0.004 C 
ENDBRANCH   1  11
TORSDOF 4
ENDMDL
