MODEL 1
REMARK VINA RESULT:    -5.347      0.000      0.000
REMARK INTER + INTRA:          -6.113
REMARK INTER:                  -5.972
REMARK INTRA:                  -0.141
REMARK UNBOUND:                -0.141
REMARK SMILES O=C([O-])C=Cc1ccccc1
REMARK SMILES IDX 4 1 5 2 2 3 1 4 3 5 6 6 7 7 11 8 8 9 10 10 9 11
REMARK H PARENT
REMARK Flexibility Score: inf
ROOT
ATOM      1  C   UNL     1       8.400   1.150  35.939  1.00  0.00     0.025 C 
ATOM      2  C   UNL     1       7.855   0.082  35.340  1.00  0.00     0.010 C 
ENDROOT
BRANCH   1   3
ATOM      3  C   UNL     1       9.555   1.866  35.371  1.00  0.00     0.064 C 
ATOM      4  O   UNL     1      10.566   2.133  36.072  1.00  0.00    -0.545 OA
ATOM      5  O   UNL     1       9.528   2.255  34.038  1.00  0.00    -0.545 OA
ENDBRANCH   1   3
BRANCH   2   6
ATOM      6  C   UNL     1       6.700  -0.671  35.888  1.00  0.00    -0.026 A 
ATOM      7  C   UNL     1       6.676  -2.080  35.959  1.00  0.00     0.008 A 
ATOM      8  C   UNL     1       5.601   0.051  36.387  1.00  0.00     0.008 A 
ATOM      9  C   UNL     1       5.566  -2.742  36.496  1.00  0.00     0.001 A 
ATOM     10  C   UNL     1       4.495  -0.616  36.921  1.00  0.00     0.001 A 
ATOM     11  C   UNL     1       4.476  -2.011  36.973  1.00  0.00     0.000 A 
ENDBRANCH   2   6
TORSDOF 2
ENDMDL
MODEL 2
REMARK VINA RESULT:    -5.337      3.042      5.203
REMARK INTER + INTRA:          -6.102
REMARK INTER:                  -5.957
REMARK INTRA:                  -0.145
REMARK UNBOUND:                -0.141
REMARK SMILES O=C([O-])C=Cc1ccccc1
REMARK SMILES IDX 4 1 5 2 2 3 1 4 3 5 6 6 7 7 11 8 8 9 10 10 9 11
REMARK H PARENT
REMARK Flexibility Score: inf
ROOT
ATOM      1  C   UNL     1       6.470   0.313  36.267  1.00  0.00     0.025 C 
ATOM      2  C   UNL     1       7.358  -0.402  35.562  1.00  0.00     0.010 C 
ENDROOT
BRANCH   1   3
ATOM      3  C   UNL     1       5.103  -0.167  36.528  1.00  0.00     0.064 C 
ATOM      4  O   UNL     1       4.140   0.637  36.641  1.00  0.00    -0.545 OA
ATOM      5  O   UNL     1       4.870  -1.530  36.651  1.00  0.00    -0.545 OA
ENDBRANCH   1   3
BRANCH   2   6
ATOM      6  C   UNL     1       8.739   0.053  35.270  1.00  0.00    -0.026 A 
ATOM      7  C   UNL     1       9.406  -0.263  34.068  1.00  0.00     0.008 A 
ATOM      8  C   UNL     1       9.396   0.862  36.216  1.00  0.00     0.008 A 
ATOM      9  C   UNL     1      10.705   0.201  33.836  1.00  0.00     0.001 A 
ATOM     10  C   UNL     1      10.694   1.322  35.979  1.00  0.00     0.001 A 
ATOM     11  C   UNL     1      11.349   0.990  34.791  1.00  0.00     0.000 A 
ENDBRANCH   2   6
TORSDOF 2
ENDMDL
MODEL 3
REMARK VINA RESULT:    -5.269      2.991      5.436
REMARK INTER + INTRA:          -6.027
REMARK INTER:                  -5.883
REMARK INTRA:                  -0.143
REMARK UNBOUND:                -0.141
REMARK SMILES O=C([O-])C=Cc1ccccc1
REMARK SMILES IDX 4 1 5 2 2 3 1 4 3 5 6 6 7 7 11 8 8 9 10 10 9 11
REMARK H PARENT
REMARK Flexibility Score: inf
ROOT
ATOM      1  C   UNL     1       6.925  -0.465  35.904  1.00  0.00     0.025 C 
ATOM      2  C   UNL     1       7.661   0.655  35.921  1.00  0.00     0.010 C 
ENDROOT
BRANCH   1   3
ATOM      3  C   UNL     1       5.511  -0.483  36.313  1.00  0.00     0.064 C 
ATOM      4  O   UNL     1       4.826   0.574  36.341  1.00  0.00    -0.545 OA
ATOM      5  O   UNL     1       4.920  -1.687  36.676  1.00  0.00    -0.545 OA
ENDBRANCH   1   3
BRANCH   2   6
ATOM      6  C   UNL     1       9.090   0.709  35.527  1.00  0.00    -0.026 A 
ATOM      7  C   UNL     1      10.065   1.386  36.291  1.00  0.00     0.008 A 
ATOM      8  C   UNL     1       9.494   0.029  34.363  1.00  0.00     0.008 A 
ATOM      9  C   UNL     1      11.402   1.397  35.881  1.00  0.00     0.001 A 
ATOM     10  C   UNL     1      10.832   0.045  33.959  1.00  0.00     0.001 A 
ATOM     11  C   UNL     1      11.785   0.730  34.715  1.00  0.00     0.000 A 
ENDBRANCH   2   6
TORSDOF 2
ENDMDL
MODEL 4
REMARK VINA RESULT:    -5.212      2.815      4.171
REMARK INTER + INTRA:          -5.963
REMARK INTER:                  -5.822
REMARK INTRA:                  -0.141
REMARK UNBOUND:                -0.141
REMARK SMILES O=C([O-])C=Cc1ccccc1
REMARK SMILES IDX 4 1 5 2 2 3 1 4 3 5 6 6 7 7 11 8 8 9 10 10 9 11
REMARK H PARENT
REMARK Flexibility Score: inf
ROOT
ATOM      1  C   UNL     1      11.598   2.984  35.181  1.00  0.00     0.025 C 
ATOM      2  C   UNL     1      10.892   2.204  36.013  1.00  0.00     0.010 C 
ENDROOT
BRANCH   1   3
ATOM      3  C   UNL     1      12.645   3.901  35.662  1.00  0.00     0.064 C 
ATOM      4  O   UNL     1      13.861   3.692  35.409  1.00  0.00    -0.545 OA
ATOM      5  O   UNL     1      12.285   5.016  36.406  1.00  0.00    -0.545 OA
ENDBRANCH   1   3
BRANCH   2   6
ATOM      6  C   UNL     1       9.824   1.277  35.567  1.00  0.00    -0.026 A 
ATOM      7  C   UNL     1       8.574   1.188  36.216  1.00  0.00     0.008 A 
ATOM      8  C   UNL     1      10.054   0.480  34.431  1.00  0.00     0.008 A 
ATOM      9  C   UNL     1       7.595   0.305  35.749  1.00  0.00     0.001 A 
ATOM     10  C   UNL     1       9.072  -0.401  33.969  1.00  0.00     0.001 A 
ATOM     11  C   UNL     1       7.845  -0.490  34.628  1.00  0.00     0.000 A 
ENDBRANCH   2   6
TORSDOF 2
ENDMDL
MODEL 5
REMARK VINA RESULT:    -5.127      1.340      1.977
REMARK INTER + INTRA:          -5.868
REMARK INTER:                  -5.730
REMARK INTRA:                  -0.137
REMARK UNBOUND:                -0.141
REMARK SMILES O=C([O-])C=Cc1ccccc1
REMARK SMILES IDX 4 1 5 2 2 3 1 4 3 5 6 6 7 7 11 8 8 9 10 10 9 11
REMARK H PARENT
REMARK Flexibility Score: inf
ROOT
ATOM      1  C   UNL     1       7.139  -0.257  35.732  1.00  0.00     0.025 C 
ATOM      2  C   UNL     1       5.952   0.213  36.142  1.00  0.00     0.010 C 
ENDROOT
BRANCH   1   3
ATOM      3  C   UNL     1       8.144   0.602  35.085  1.00  0.00     0.064 C 
ATOM      4  O   UNL     1       8.779   1.470  35.740  1.00  0.00    -0.545 OA
ATOM      5  O   UNL     1       8.397   0.453  33.727  1.00  0.00    -0.545 OA
ENDBRANCH   1   3
BRANCH   2   6
ATOM      6  C   UNL     1       4.911  -0.624  36.788  1.00  0.00    -0.026 A 
ATOM      7  C   UNL     1       4.927  -2.034  36.732  1.00  0.00     0.008 A 
ATOM      8  C   UNL     1       3.888   0.014  37.513  1.00  0.00     0.008 A 
ATOM      9  C   UNL     1       3.928  -2.777  37.368  1.00  0.00     0.001 A 
ATOM     10  C   UNL     1       2.892  -0.735  38.145  1.00  0.00     0.001 A 
ATOM     11  C   UNL     1       2.910  -2.129  38.071  1.00  0.00     0.000 A 
ENDBRANCH   2   6
TORSDOF 2
ENDMDL
MODEL 6
REMARK VINA RESULT:    -4.975      2.886      6.152
REMARK INTER + INTRA:          -5.698
REMARK INTER:                  -5.559
REMARK INTRA:                  -0.139
REMARK UNBOUND:                -0.141
REMARK SMILES O=C([O-])C=Cc1ccccc1
REMARK SMILES IDX 4 1 5 2 2 3 1 4 3 5 6 6 7 7 11 8 8 9 10 10 9 11
REMARK H PARENT
REMARK Flexibility Score: inf
ROOT
ATOM      1  C   UNL     1       8.367   0.824  35.885  1.00  0.00     0.025 C 
ATOM      2  C   UNL     1       9.447   0.361  35.240  1.00  0.00     0.010 C 
ENDROOT
BRANCH   1   3
ATOM      3  C   UNL     1       7.107   0.065  35.953  1.00  0.00     0.064 C 
ATOM      4  O   UNL     1       6.040   0.606  36.349  1.00  0.00    -0.545 OA
ATOM      5  O   UNL     1       7.094  -1.272  35.576  1.00  0.00    -0.545 OA
ENDBRANCH   1   3
BRANCH   2   6
ATOM      6  C   UNL     1      10.729   1.102  35.141  1.00  0.00    -0.026 A 
ATOM      7  C   UNL     1      10.910   2.385  35.698  1.00  0.00     0.008 A 
ATOM      8  C   UNL     1      11.816   0.483  34.497  1.00  0.00     0.008 A 
ATOM      9  C   UNL     1      12.143   3.036  35.586  1.00  0.00     0.001 A 
ATOM     10  C   UNL     1      13.045   1.140  34.388  1.00  0.00     0.001 A 
ATOM     11  C   UNL     1      13.209   2.416  34.930  1.00  0.00     0.000 A 
ENDBRANCH   2   6
TORSDOF 2
ENDMDL
MODEL 7
REMARK VINA RESULT:    -4.862      2.940      4.380
REMARK INTER + INTRA:          -5.572
REMARK INTER:                  -5.435
REMARK INTRA:                  -0.136
REMARK UNBOUND:                -0.141
REMARK SMILES O=C([O-])C=Cc1ccccc1
REMARK SMILES IDX 4 1 5 2 2 3 1 4 3 5 6 6 7 7 11 8 8 9 10 10 9 11
REMARK H PARENT
REMARK Flexibility Score: inf
ROOT
ATOM      1  C   UNL     1      11.630   3.216  34.235  1.00  0.00     0.025 C 
ATOM      2  C   UNL     1      10.846   2.329  33.607  1.00  0.00     0.010 C 
ENDROOT
BRANCH   1   3
ATOM      3  C   UNL     1      12.627   4.030  33.519  1.00  0.00     0.064 C 
ATOM      4  O   UNL     1      13.836   3.680  33.464  1.00  0.00    -0.545 OA
ATOM      5  O   UNL     1      12.227   5.203  32.893  1.00  0.00    -0.545 OA
ENDBRANCH   1   3
BRANCH   2   6
ATOM      6  C   UNL     1       9.839   1.485  34.297  1.00  0.00    -0.026 A 
ATOM      7  C   UNL     1       9.401   1.745  35.613  1.00  0.00     0.008 A 
ATOM      8  C   UNL     1       9.274   0.404  33.596  1.00  0.00     0.008 A 
ATOM      9  C   UNL     1       8.441   0.925  36.213  1.00  0.00     0.001 A 
ATOM     10  C   UNL     1       8.314  -0.413  34.203  1.00  0.00     0.001 A 
ATOM     11  C   UNL     1       7.900  -0.155  35.510  1.00  0.00     0.000 A 
ENDBRANCH   2   6
TORSDOF 2
ENDMDL
MODEL 8
REMARK VINA RESULT:    -4.861      4.450      5.589
REMARK INTER + INTRA:          -5.571
REMARK INTER:                  -5.437
REMARK INTRA:                  -0.134
REMARK UNBOUND:                -0.141
REMARK SMILES O=C([O-])C=Cc1ccccc1
REMARK SMILES IDX 4 1 5 2 2 3 1 4 3 5 6 6 7 7 11 8 8 9 10 10 9 11
REMARK H PARENT
REMARK Flexibility Score: inf
ROOT
ATOM      1  C   UNL     1       5.423  -3.296  36.315  1.00  0.00     0.025 C 
ATOM      2  C   UNL     1       4.425  -3.708  37.110  1.00  0.00     0.010 C 
ENDROOT
BRANCH   1   3
ATOM      3  C   UNL     1       6.081  -4.191  35.349  1.00  0.00     0.064 C 
ATOM      4  O   UNL     1       6.511  -3.759  34.246  1.00  0.00    -0.545 OA
ATOM      5  O   UNL     1       6.231  -5.537  35.658  1.00  0.00    -0.545 OA
ENDBRANCH   1   3
BRANCH   2   6
ATOM      6  C   UNL     1       3.747  -2.839  38.101  1.00  0.00    -0.026 A 
ATOM      7  C   UNL     1       3.411  -1.495  37.831  1.00  0.00     0.008 A 
ATOM      8  C   UNL     1       3.393  -3.387  39.347  1.00  0.00     0.008 A 
ATOM      9  C   UNL     1       2.761  -0.720  38.797  1.00  0.00     0.001 A 
ATOM     10  C   UNL     1       2.743  -2.607  40.309  1.00  0.00     0.001 A 
ATOM     11  C   UNL     1       2.430  -1.275  40.035  1.00  0.00     0.000 A 
ENDBRANCH   2   6
TORSDOF 2
ENDMDL
MODEL 9
REMARK VINA RESULT:    -4.810      5.493      6.946
REMARK INTER + INTRA:          -5.514
REMARK INTER:                  -5.382
REMARK INTRA:                  -0.132
REMARK UNBOUND:                -0.141
REMARK SMILES O=C([O-])C=Cc1ccccc1
REMARK SMILES IDX 4 1 5 2 2 3 1 4 3 5 6 6 7 7 11 8 8 9 10 10 9 11
REMARK H PARENT
REMARK Flexibility Score: inf
ROOT
ATOM      1  C   UNL     1       2.998  -2.713  40.211  1.00  0.00     0.025 C 
ATOM      2  C   UNL     1       3.043  -2.463  38.894  1.00  0.00     0.010 C 
ENDROOT
BRANCH   1   3
ATOM      3  C   UNL     1       2.235  -1.869  41.146  1.00  0.00     0.064 C 
ATOM      4  O   UNL     1       2.653  -0.730  41.485  1.00  0.00    -0.545 OA
ATOM      5  O   UNL     1       1.034  -2.336  41.663  1.00  0.00    -0.545 OA
ENDBRANCH   1   3
BRANCH   2   6
ATOM      6  C   UNL     1       3.809  -3.284  37.925  1.00  0.00    -0.026 A 
ATOM      7  C   UNL     1       3.743  -4.694  37.903  1.00  0.00     0.008 A 
ATOM      8  C   UNL     1       4.603  -2.629  36.966  1.00  0.00     0.008 A 
ATOM      9  C   UNL     1       4.476  -5.421  36.960  1.00  0.00     0.001 A 
ATOM     10  C   UNL     1       5.334  -3.362  36.027  1.00  0.00     0.001 A 
ATOM     11  C   UNL     1       5.273  -4.756  36.025  1.00  0.00     0.000 A 
ENDBRANCH   2   6
TORSDOF 2
ENDMDL
