MODEL 1
REMARK VINA RESULT:    -5.309      0.000      0.000
REMARK INTER + INTRA:         -14.058
REMARK INTER:                 -11.516
REMARK INTRA:                  -2.541
REMARK UNBOUND:                -2.541
REMARK SMILES CCCCCCCCCCCCCCCCCCCCCC(=O)[O-]
REMARK SMILES IDX 12 1 11 2 10 3 9 4 8 5 7 6 6 7 5 8 4 9 3 10 2 11 1 12 13 13
REMARK SMILES IDX 14 14 15 15 16 16 17 17 18 18 19 19 20 20 21 21 22 22 23 23
REMARK SMILES IDX 24 24
REMARK H PARENT
REMARK Flexibility Score: inf
ROOT
ATOM      1  C   UNL     1      16.540 -23.720 -26.161  1.00  0.00     0.000 C 
ENDROOT
BRANCH   1   2
ATOM      2  C   UNL     1      17.869 -23.303 -25.509  1.00  0.00     0.000 C 
BRANCH   2   3
ATOM      3  C   UNL     1      18.304 -21.880 -25.899  1.00  0.00     0.000 C 
BRANCH   3   4
ATOM      4  C   UNL     1      19.479 -21.845 -26.900  1.00  0.00    -0.000 C 
BRANCH   4   5
ATOM      5  C   UNL     1      19.032 -21.393 -28.302  1.00  0.00    -0.000 C 
BRANCH   5   6
ATOM      6  C   UNL     1      19.059 -22.541 -29.329  1.00  0.00    -0.000 C 
BRANCH   6   7
ATOM      7  C   UNL     1      19.635 -23.862 -28.767  1.00  0.00    -0.000 C 
BRANCH   7   8
ATOM      8  C   UNL     1      18.744 -25.091 -29.034  1.00  0.00    -0.000 C 
BRANCH   8   9
ATOM      9  C   UNL     1      18.911 -26.239 -28.024  1.00  0.00    -0.000 C 
BRANCH   9  10
ATOM     10  C   UNL     1      17.569 -26.878 -27.626  1.00  0.00    -0.000 C 
BRANCH  10  11
ATOM     11  C   UNL     1      17.418 -28.308 -28.168  1.00  0.00    -0.003 C 
ATOM     12  C   UNL     1      16.636 -28.360 -29.480  1.00  0.00     0.004 C 
ENDBRANCH  10  11
ENDBRANCH   9  10
ENDBRANCH   8   9
ENDBRANCH   7   8
ENDBRANCH   6   7
ENDBRANCH   5   6
ENDBRANCH   4   5
ENDBRANCH   3   4
ENDBRANCH   2   3
ENDBRANCH   1   2
BRANCH   1  13
ATOM     13  C   UNL     1      15.923 -22.598 -27.011  1.00  0.00     0.000 C 
BRANCH  13  14
ATOM     14  C   UNL     1      15.201 -23.131 -28.260  1.00  0.00     0.000 C 
BRANCH  14  15
ATOM     15  C   UNL     1      13.694 -23.349 -28.034  1.00  0.00     0.000 C 
BRANCH  15  16
ATOM     16  C   UNL     1      12.850 -22.064 -27.965  1.00  0.00     0.000 C 
BRANCH  16  17
ATOM     17  C   UNL     1      12.079 -21.922 -26.643  1.00  0.00     0.000 C 
BRANCH  17  18
ATOM     18  C   UNL     1      11.804 -20.454 -26.267  1.00  0.00     0.000 C 
BRANCH  18  19
ATOM     19  C   UNL     1      12.818 -19.431 -26.818  1.00  0.00     0.000 C 
BRANCH  19  20
ATOM     20  C   UNL     1      12.203 -18.252 -27.598  1.00  0.00     0.006 C 
BRANCH  20  21
ATOM     21  C   UNL     1      10.666 -18.223 -27.597  1.00  0.00     0.053 C 
BRANCH  21  22
ATOM     22  C   UNL     1      10.112 -17.908 -28.952  1.00  0.00     0.041 C 
ATOM     23  O   UNL     1       8.893 -18.108 -29.202  1.00  0.00    -0.550 OA
ATOM     24  O   UNL     1      10.933 -17.360 -29.929  1.00  0.00    -0.550 OA
ENDBRANCH  21  22
ENDBRANCH  20  21
ENDBRANCH  19  20
ENDBRANCH  18  19
ENDBRANCH  17  18
ENDBRANCH  16  17
ENDBRANCH  15  16
ENDBRANCH  14  15
ENDBRANCH  13  14
ENDBRANCH   1  13
TORSDOF 20
ENDMDL
MODEL 2
REMARK VINA RESULT:    -5.261      1.516      2.897
REMARK INTER + INTRA:         -13.954
REMARK INTER:                 -10.444
REMARK INTRA:                  -3.510
REMARK UNBOUND:                -2.541
REMARK SMILES CCCCCCCCCCCCCCCCCCCCCC(=O)[O-]
REMARK SMILES IDX 12 1 11 2 10 3 9 4 8 5 7 6 6 7 5 8 4 9 3 10 2 11 1 12 13 13
REMARK SMILES IDX 14 14 15 15 16 16 17 17 18 18 19 19 20 20 21 21 22 22 23 23
REMARK SMILES IDX 24 24
REMARK H PARENT
REMARK Flexibility Score: inf
ROOT
ATOM      1  C   UNL     1      17.153 -24.391 -25.229  1.00  0.00     0.000 C 
ENDROOT
BRANCH   1   2
ATOM      2  C   UNL     1      16.970 -24.118 -23.728  1.00  0.00     0.000 C 
BRANCH   2   3
ATOM      3  C   UNL     1      18.159 -23.363 -23.109  1.00  0.00     0.000 C 
BRANCH   3   4
ATOM      4  C   UNL     1      19.326 -23.134 -24.093  1.00  0.00    -0.000 C 
BRANCH   4   5
ATOM      5  C   UNL     1      19.318 -21.712 -24.680  1.00  0.00    -0.000 C 
BRANCH   5   6
ATOM      6  C   UNL     1      19.987 -21.640 -26.065  1.00  0.00    -0.000 C 
BRANCH   6   7
ATOM      7  C   UNL     1      20.317 -23.027 -26.666  1.00  0.00    -0.000 C 
BRANCH   7   8
ATOM      8  C   UNL     1      20.339 -23.047 -28.207  1.00  0.00    -0.000 C 
BRANCH   8   9
ATOM      9  C   UNL     1      20.132 -24.435 -28.836  1.00  0.00    -0.000 C 
BRANCH   9  10
ATOM     10  C   UNL     1      19.496 -25.440 -27.859  1.00  0.00    -0.000 C 
BRANCH  10  11
ATOM     11  C   UNL     1      18.509 -26.389 -28.555  1.00  0.00    -0.003 C 
ATOM     12  C   UNL     1      17.671 -27.196 -27.564  1.00  0.00     0.004 C 
ENDBRANCH  10  11
ENDBRANCH   9  10
ENDBRANCH   8   9
ENDBRANCH   7   8
ENDBRANCH   6   7
ENDBRANCH   5   6
ENDBRANCH   4   5
ENDBRANCH   3   4
ENDBRANCH   2   3
ENDBRANCH   1   2
BRANCH   1  13
ATOM     13  C   UNL     1      16.052 -23.746 -26.085  1.00  0.00     0.000 C 
BRANCH  13  14
ATOM     14  C   UNL     1      16.594 -22.648 -27.016  1.00  0.00     0.000 C 
BRANCH  14  15
ATOM     15  C   UNL     1      16.582 -23.059 -28.499  1.00  0.00     0.000 C 
BRANCH  15  16
ATOM     16  C   UNL     1      15.504 -24.088 -28.885  1.00  0.00     0.000 C 
BRANCH  16  17
ATOM     17  C   UNL     1      14.164 -23.440 -29.268  1.00  0.00     0.000 C 
BRANCH  17  18
ATOM     18  C   UNL     1      12.985 -23.964 -28.428  1.00  0.00     0.000 C 
BRANCH  18  19
ATOM     19  C   UNL     1      12.270 -22.905 -27.563  1.00  0.00     0.000 C 
BRANCH  19  20
ATOM     20  C   UNL     1      12.848 -21.480 -27.658  1.00  0.00     0.006 C 
BRANCH  20  21
ATOM     21  C   UNL     1      12.118 -20.440 -26.793  1.00  0.00     0.053 C 
BRANCH  21  22
ATOM     22  C   UNL     1      11.668 -19.260 -27.597  1.00  0.00     0.041 C 
ATOM     23  O   UNL     1      11.629 -19.325 -28.855  1.00  0.00    -0.550 OA
ATOM     24  O   UNL     1      11.257 -18.098 -26.956  1.00  0.00    -0.550 OA
ENDBRANCH  21  22
ENDBRANCH  20  21
ENDBRANCH  19  20
ENDBRANCH  18  19
ENDBRANCH  17  18
ENDBRANCH  16  17
ENDBRANCH  15  16
ENDBRANCH  14  15
ENDBRANCH  13  14
ENDBRANCH   1  13
TORSDOF 20
ENDMDL
MODEL 3
REMARK VINA RESULT:    -5.216      3.726      7.685
REMARK INTER + INTRA:         -13.855
REMARK INTER:                 -10.650
REMARK INTRA:                  -3.206
REMARK UNBOUND:                -2.541
REMARK SMILES CCCCCCCCCCCCCCCCCCCCCC(=O)[O-]
REMARK SMILES IDX 12 1 11 2 10 3 9 4 8 5 7 6 6 7 5 8 4 9 3 10 2 11 1 12 13 13
REMARK SMILES IDX 14 14 15 15 16 16 17 17 18 18 19 19 20 20 21 21 22 22 23 23
REMARK SMILES IDX 24 24
REMARK H PARENT
REMARK Flexibility Score: inf
ROOT
ATOM      1  C   UNL     1      19.220 -23.276 -24.613  1.00  0.00     0.000 C 
ENDROOT
BRANCH   1   2
ATOM      2  C   UNL     1      18.094 -23.621 -23.625  1.00  0.00     0.000 C 
BRANCH   2   3
ATOM      3  C   UNL     1      16.823 -24.134 -24.323  1.00  0.00     0.000 C 
BRANCH   3   4
ATOM      4  C   UNL     1      16.943 -24.191 -25.861  1.00  0.00    -0.000 C 
BRANCH   4   5
ATOM      5  C   UNL     1      16.014 -23.178 -26.553  1.00  0.00    -0.000 C 
BRANCH   5   6
ATOM      6  C   UNL     1      16.145 -23.209 -28.087  1.00  0.00    -0.000 C 
BRANCH   6   7
ATOM      7  C   UNL     1      15.010 -23.990 -28.790  1.00  0.00    -0.000 C 
BRANCH   7   8
ATOM      8  C   UNL     1      14.055 -23.097 -29.607  1.00  0.00    -0.000 C 
BRANCH   8   9
ATOM      9  C   UNL     1      12.647 -22.944 -29.010  1.00  0.00    -0.000 C 
BRANCH   9  10
ATOM     10  C   UNL     1      12.417 -21.558 -28.382  1.00  0.00    -0.000 C 
BRANCH  10  11
ATOM     11  C   UNL     1      12.184 -21.633 -26.865  1.00  0.00    -0.003 C 
ATOM     12  C   UNL     1      12.128 -23.071 -26.350  1.00  0.00     0.004 C 
ENDBRANCH  10  11
ENDBRANCH   9  10
ENDBRANCH   8   9
ENDBRANCH   7   8
ENDBRANCH   6   7
ENDBRANCH   5   6
ENDBRANCH   4   5
ENDBRANCH   3   4
ENDBRANCH   2   3
ENDBRANCH   1   2
BRANCH   1  13
ATOM     13  C   UNL     1      19.210 -21.795 -25.024  1.00  0.00     0.000 C 
BRANCH  13  14
ATOM     14  C   UNL     1      19.475 -21.597 -26.526  1.00  0.00     0.000 C 
BRANCH  14  15
ATOM     15  C   UNL     1      20.181 -22.801 -27.175  1.00  0.00     0.000 C 
BRANCH  15  16
ATOM     16  C   UNL     1      19.912 -22.985 -28.679  1.00  0.00     0.000 C 
BRANCH  16  17
ATOM     17  C   UNL     1      19.933 -24.459 -29.117  1.00  0.00     0.000 C 
BRANCH  17  18
ATOM     18  C   UNL     1      19.624 -25.430 -27.962  1.00  0.00     0.000 C 
BRANCH  18  19
ATOM     19  C   UNL     1      18.478 -26.427 -28.228  1.00  0.00     0.000 C 
BRANCH  19  20
ATOM     20  C   UNL     1      17.716 -26.215 -29.551  1.00  0.00     0.006 C 
BRANCH  20  21
ATOM     21  C   UNL     1      17.308 -27.514 -30.264  1.00  0.00     0.053 C 
BRANCH  21  22
ATOM     22  C   UNL     1      16.259 -28.264 -29.503  1.00  0.00     0.041 C 
ATOM     23  O   UNL     1      16.587 -29.183 -28.706  1.00  0.00    -0.550 OA
ATOM     24  O   UNL     1      14.920 -27.923 -29.646  1.00  0.00    -0.550 OA
ENDBRANCH  21  22
ENDBRANCH  20  21
ENDBRANCH  19  20
ENDBRANCH  18  19
ENDBRANCH  17  18
ENDBRANCH  16  17
ENDBRANCH  15  16
ENDBRANCH  14  15
ENDBRANCH  13  14
ENDBRANCH   1  13
TORSDOF 20
ENDMDL
MODEL 4
REMARK VINA RESULT:    -5.212      3.877      8.665
REMARK INTER + INTRA:         -13.846
REMARK INTER:                 -11.384
REMARK INTRA:                  -2.462
REMARK UNBOUND:                -2.541
REMARK SMILES CCCCCCCCCCCCCCCCCCCCCC(=O)[O-]
REMARK SMILES IDX 12 1 11 2 10 3 9 4 8 5 7 6 6 7 5 8 4 9 3 10 2 11 1 12 13 13
REMARK SMILES IDX 14 14 15 15 16 16 17 17 18 18 19 19 20 20 21 21 22 22 23 23
REMARK SMILES IDX 24 24
REMARK H PARENT
REMARK Flexibility Score: inf
ROOT
ATOM      1  C   UNL     1      16.691 -23.056 -26.330  1.00  0.00     0.000 C 
ENDROOT
BRANCH   1   2
ATOM      2  C   UNL     1      15.351 -23.226 -27.064  1.00  0.00     0.000 C 
BRANCH   2   3
ATOM      3  C   UNL     1      15.502 -23.202 -28.595  1.00  0.00     0.000 C 
BRANCH   3   4
ATOM      4  C   UNL     1      14.163 -23.045 -29.346  1.00  0.00    -0.000 C 
BRANCH   4   5
ATOM      5  C   UNL     1      13.082 -23.999 -28.809  1.00  0.00    -0.000 C 
BRANCH   5   6
ATOM      6  C   UNL     1      11.797 -23.260 -28.389  1.00  0.00    -0.000 C 
BRANCH   6   7
ATOM      7  C   UNL     1      11.558 -23.252 -26.861  1.00  0.00    -0.000 C 
BRANCH   7   8
ATOM      8  C   UNL     1      12.004 -21.948 -26.170  1.00  0.00    -0.000 C 
BRANCH   8   9
ATOM      9  C   UNL     1      12.197 -20.751 -27.116  1.00  0.00    -0.000 C 
BRANCH   9  10
ATOM     10  C   UNL     1      13.014 -19.615 -26.474  1.00  0.00    -0.000 C 
BRANCH  10  11
ATOM     11  C   UNL     1      12.143 -18.670 -25.633  1.00  0.00    -0.003 C 
ATOM     12  C   UNL     1      12.755 -18.367 -24.265  1.00  0.00     0.004 C 
ENDBRANCH  10  11
ENDBRANCH   9  10
ENDBRANCH   8   9
ENDBRANCH   7   8
ENDBRANCH   6   7
ENDBRANCH   5   6
ENDBRANCH   4   5
ENDBRANCH   3   4
ENDBRANCH   2   3
ENDBRANCH   1   2
BRANCH   1  13
ATOM     13  C   UNL     1      17.126 -24.332 -25.593  1.00  0.00     0.000 C 
BRANCH  13  14
ATOM     14  C   UNL     1      18.168 -25.144 -26.381  1.00  0.00     0.000 C 
BRANCH  14  15
ATOM     15  C   UNL     1      18.994 -24.279 -27.351  1.00  0.00     0.000 C 
BRANCH  15  16
ATOM     16  C   UNL     1      19.962 -25.058 -28.260  1.00  0.00     0.000 C 
BRANCH  16  17
ATOM     17  C   UNL     1      19.734 -24.783 -29.755  1.00  0.00     0.000 C 
BRANCH  17  18
ATOM     18  C   UNL     1      18.286 -25.060 -30.200  1.00  0.00     0.000 C 
BRANCH  18  19
ATOM     19  C   UNL     1      18.108 -26.257 -31.157  1.00  0.00     0.000 C 
BRANCH  19  20
ATOM     20  C   UNL     1      17.263 -27.421 -30.603  1.00  0.00     0.006 C 
BRANCH  20  21
ATOM     21  C   UNL     1      17.659 -27.876 -29.189  1.00  0.00     0.053 C 
BRANCH  21  22
ATOM     22  C   UNL     1      16.475 -28.335 -28.397  1.00  0.00     0.041 C 
ATOM     23  O   UNL     1      15.336 -28.396 -28.933  1.00  0.00    -0.550 OA
ATOM     24  O   UNL     1      16.634 -28.731 -27.075  1.00  0.00    -0.550 OA
ENDBRANCH  21  22
ENDBRANCH  20  21
ENDBRANCH  19  20
ENDBRANCH  18  19
ENDBRANCH  17  18
ENDBRANCH  16  17
ENDBRANCH  15  16
ENDBRANCH  14  15
ENDBRANCH  13  14
ENDBRANCH   1  13
TORSDOF 20
ENDMDL
MODEL 5
REMARK VINA RESULT:    -5.203      1.530      2.117
REMARK INTER + INTRA:         -13.828
REMARK INTER:                 -10.766
REMARK INTRA:                  -3.063
REMARK UNBOUND:                -2.541
REMARK SMILES CCCCCCCCCCCCCCCCCCCCCC(=O)[O-]
REMARK SMILES IDX 12 1 11 2 10 3 9 4 8 5 7 6 6 7 5 8 4 9 3 10 2 11 1 12 13 13
REMARK SMILES IDX 14 14 15 15 16 16 17 17 18 18 19 19 20 20 21 21 22 22 23 23
REMARK SMILES IDX 24 24
REMARK H PARENT
REMARK Flexibility Score: inf
ROOT
ATOM      1  C   UNL     1      15.890 -23.084 -27.011  1.00  0.00     0.000 C 
ENDROOT
BRANCH   1   2
ATOM      2  C   UNL     1      16.984 -23.712 -26.133  1.00  0.00     0.000 C 
BRANCH   2   3
ATOM      3  C   UNL     1      17.296 -25.168 -26.521  1.00  0.00     0.000 C 
BRANCH   3   4
ATOM      4  C   UNL     1      18.806 -25.472 -26.618  1.00  0.00    -0.000 C 
BRANCH   4   5
ATOM      5  C   UNL     1      19.521 -24.544 -27.616  1.00  0.00    -0.000 C 
BRANCH   5   6
ATOM      6  C   UNL     1      19.878 -25.258 -28.934  1.00  0.00    -0.000 C 
BRANCH   6   7
ATOM      7  C   UNL     1      18.820 -25.070 -30.046  1.00  0.00    -0.000 C 
BRANCH   7   8
ATOM      8  C   UNL     1      18.120 -26.378 -30.465  1.00  0.00    -0.000 C 
BRANCH   8   9
ATOM      9  C   UNL     1      16.585 -26.344 -30.377  1.00  0.00    -0.000 C 
BRANCH   9  10
ATOM     10  C   UNL     1      16.020 -27.439 -29.456  1.00  0.00    -0.000 C 
BRANCH  10  11
ATOM     11  C   UNL     1      17.123 -28.195 -28.699  1.00  0.00    -0.003 C 
ATOM     12  C   UNL     1      16.638 -28.761 -27.365  1.00  0.00     0.004 C 
ENDBRANCH  10  11
ENDBRANCH   9  10
ENDBRANCH   8   9
ENDBRANCH   7   8
ENDBRANCH   6   7
ENDBRANCH   5   6
ENDBRANCH   4   5
ENDBRANCH   3   4
ENDBRANCH   2   3
ENDBRANCH   1   2
BRANCH   1  13
ATOM     13  C   UNL     1      16.262 -23.077 -28.503  1.00  0.00     0.000 C 
BRANCH  13  14
ATOM     14  C   UNL     1      15.060 -23.378 -29.413  1.00  0.00     0.000 C 
BRANCH  14  15
ATOM     15  C   UNL     1      13.726 -23.436 -28.647  1.00  0.00     0.000 C 
BRANCH  15  16
ATOM     16  C   UNL     1      12.558 -22.684 -29.309  1.00  0.00     0.000 C 
BRANCH  16  17
ATOM     17  C   UNL     1      11.447 -22.305 -28.316  1.00  0.00     0.000 C 
BRANCH  17  18
ATOM     18  C   UNL     1      11.956 -22.189 -26.867  1.00  0.00     0.000 C 
BRANCH  18  19
ATOM     19  C   UNL     1      11.955 -20.762 -26.281  1.00  0.00     0.000 C 
BRANCH  19  20
ATOM     20  C   UNL     1      12.909 -19.767 -26.971  1.00  0.00     0.006 C 
BRANCH  20  21
ATOM     21  C   UNL     1      12.264 -18.423 -27.343  1.00  0.00     0.053 C 
BRANCH  21  22
ATOM     22  C   UNL     1      11.600 -18.473 -28.684  1.00  0.00     0.041 C 
ATOM     23  O   UNL     1      10.439 -18.947 -28.802  1.00  0.00    -0.550 OA
ATOM     24  O   UNL     1      12.251 -17.962 -29.801  1.00  0.00    -0.550 OA
ENDBRANCH  21  22
ENDBRANCH  20  21
ENDBRANCH  19  20
ENDBRANCH  18  19
ENDBRANCH  17  18
ENDBRANCH  16  17
ENDBRANCH  15  16
ENDBRANCH  14  15
ENDBRANCH  13  14
ENDBRANCH   1  13
TORSDOF 20
ENDMDL
MODEL 6
REMARK VINA RESULT:    -5.200      1.467      2.342
REMARK INTER + INTRA:         -13.821
REMARK INTER:                 -11.370
REMARK INTRA:                  -2.451
REMARK UNBOUND:                -2.541
REMARK SMILES CCCCCCCCCCCCCCCCCCCCCC(=O)[O-]
REMARK SMILES IDX 12 1 11 2 10 3 9 4 8 5 7 6 6 7 5 8 4 9 3 10 2 11 1 12 13 13
REMARK SMILES IDX 14 14 15 15 16 16 17 17 18 18 19 19 20 20 21 21 22 22 23 23
REMARK SMILES IDX 24 24
REMARK H PARENT
REMARK Flexibility Score: inf
ROOT
ATOM      1  C   UNL     1      15.750 -23.537 -28.363  1.00  0.00     0.000 C 
ENDROOT
BRANCH   1   2
ATOM      2  C   UNL     1      15.855 -22.719 -27.066  1.00  0.00     0.000 C 
BRANCH   2   3
ATOM      3  C   UNL     1      17.310 -22.427 -26.661  1.00  0.00     0.000 C 
BRANCH   3   4
ATOM      4  C   UNL     1      18.351 -22.946 -27.676  1.00  0.00    -0.000 C 
BRANCH   4   5
ATOM      5  C   UNL     1      19.385 -23.878 -27.020  1.00  0.00    -0.000 C 
BRANCH   5   6
ATOM      6  C   UNL     1      18.741 -24.884 -26.048  1.00  0.00    -0.000 C 
BRANCH   6   7
ATOM      7  C   UNL     1      17.870 -25.953 -26.749  1.00  0.00    -0.000 C 
BRANCH   7   8
ATOM      8  C   UNL     1      18.629 -26.774 -27.811  1.00  0.00    -0.000 C 
BRANCH   8   9
ATOM      9  C   UNL     1      17.883 -26.952 -29.143  1.00  0.00    -0.000 C 
BRANCH   9  10
ATOM     10  C   UNL     1      18.230 -25.858 -30.168  1.00  0.00    -0.000 C 
BRANCH  10  11
ATOM     11  C   UNL     1      17.898 -26.278 -31.608  1.00  0.00    -0.003 C 
ATOM     12  C   UNL     1      17.150 -27.610 -31.674  1.00  0.00     0.004 C 
ENDBRANCH  10  11
ENDBRANCH   9  10
ENDBRANCH   8   9
ENDBRANCH   7   8
ENDBRANCH   6   7
ENDBRANCH   5   6
ENDBRANCH   4   5
ENDBRANCH   3   4
ENDBRANCH   2   3
ENDBRANCH   1   2
BRANCH   1  13
ATOM     13  C   UNL     1      14.405 -23.335 -29.080  1.00  0.00     0.000 C 
BRANCH  13  14
ATOM     14  C   UNL     1      13.336 -24.342 -28.624  1.00  0.00     0.000 C 
BRANCH  14  15
ATOM     15  C   UNL     1      11.900 -23.848 -28.875  1.00  0.00     0.000 C 
BRANCH  15  16
ATOM     16  C   UNL     1      11.113 -23.455 -27.612  1.00  0.00     0.000 C 
BRANCH  16  17
ATOM     17  C   UNL     1      12.021 -23.046 -26.441  1.00  0.00     0.000 C 
BRANCH  17  18
ATOM     18  C   UNL     1      11.957 -21.538 -26.133  1.00  0.00     0.000 C 
BRANCH  18  19
ATOM     19  C   UNL     1      12.417 -20.611 -27.277  1.00  0.00     0.000 C 
BRANCH  19  20
ATOM     20  C   UNL     1      12.618 -19.134 -26.885  1.00  0.00     0.006 C 
BRANCH  20  21
ATOM     21  C   UNL     1      11.385 -18.244 -27.112  1.00  0.00     0.053 C 
BRANCH  21  22
ATOM     22  C   UNL     1      10.989 -18.194 -28.554  1.00  0.00     0.041 C 
ATOM     23  O   UNL     1      11.839 -17.901 -29.437  1.00  0.00    -0.550 OA
ATOM     24  O   UNL     1       9.688 -18.506 -28.929  1.00  0.00    -0.550 OA
ENDBRANCH  21  22
ENDBRANCH  20  21
ENDBRANCH  19  20
ENDBRANCH  18  19
ENDBRANCH  17  18
ENDBRANCH  16  17
ENDBRANCH  15  16
ENDBRANCH  14  15
ENDBRANCH  13  14
ENDBRANCH   1  13
TORSDOF 20
ENDMDL
MODEL 7
REMARK VINA RESULT:    -5.179      1.709      3.534
REMARK INTER + INTRA:         -13.776
REMARK INTER:                 -10.160
REMARK INTRA:                  -3.616
REMARK UNBOUND:                -2.541
REMARK SMILES CCCCCCCCCCCCCCCCCCCCCC(=O)[O-]
REMARK SMILES IDX 12 1 11 2 10 3 9 4 8 5 7 6 6 7 5 8 4 9 3 10 2 11 1 12 13 13
REMARK SMILES IDX 14 14 15 15 16 16 17 17 18 18 19 19 20 20 21 21 22 22 23 23
REMARK SMILES IDX 24 24
REMARK H PARENT
REMARK Flexibility Score: inf
ROOT
ATOM      1  C   UNL     1      18.482 -21.420 -26.956  1.00  0.00     0.000 C 
ENDROOT
BRANCH   1   2
ATOM      2  C   UNL     1      18.408 -21.676 -25.442  1.00  0.00     0.000 C 
BRANCH   2   3
ATOM      3  C   UNL     1      19.570 -22.544 -24.928  1.00  0.00     0.000 C 
BRANCH   3   4
ATOM      4  C   UNL     1      19.140 -23.596 -23.884  1.00  0.00    -0.000 C 
BRANCH   4   5
ATOM      5  C   UNL     1      17.628 -23.879 -23.935  1.00  0.00    -0.000 C 
BRANCH   5   6
ATOM      6  C   UNL     1      17.301 -25.213 -24.633  1.00  0.00    -0.000 C 
BRANCH   6   7
ATOM      7  C   UNL     1      17.495 -25.174 -26.167  1.00  0.00    -0.000 C 
BRANCH   7   8
ATOM      8  C   UNL     1      18.803 -25.833 -26.644  1.00  0.00    -0.000 C 
BRANCH   8   9
ATOM      9  C   UNL     1      18.673 -26.667 -27.930  1.00  0.00    -0.000 C 
BRANCH   9  10
ATOM     10  C   UNL     1      17.542 -27.708 -27.849  1.00  0.00    -0.000 C 
BRANCH  10  11
ATOM     11  C   UNL     1      16.502 -27.530 -28.966  1.00  0.00    -0.003 C 
ATOM     12  C   UNL     1      17.134 -27.491 -30.357  1.00  0.00     0.004 C 
ENDBRANCH  10  11
ENDBRANCH   9  10
ENDBRANCH   8   9
ENDBRANCH   7   8
ENDBRANCH   6   7
ENDBRANCH   5   6
ENDBRANCH   4   5
ENDBRANCH   3   4
ENDBRANCH   2   3
ENDBRANCH   1   2
BRANCH   1  13
ATOM     13  C   UNL     1      19.516 -22.315 -27.656  1.00  0.00     0.000 C 
BRANCH  13  14
ATOM     14  C   UNL     1      18.961 -22.972 -28.932  1.00  0.00     0.000 C 
BRANCH  14  15
ATOM     15  C   UNL     1      17.467 -22.679 -29.157  1.00  0.00     0.000 C 
BRANCH  15  16
ATOM     16  C   UNL     1      16.605 -23.906 -29.506  1.00  0.00     0.000 C 
BRANCH  16  17
ATOM     17  C   UNL     1      15.194 -23.840 -28.899  1.00  0.00     0.000 C 
BRANCH  17  18
ATOM     18  C   UNL     1      15.095 -22.851 -27.723  1.00  0.00     0.000 C 
BRANCH  18  19
ATOM     19  C   UNL     1      13.970 -23.144 -26.709  1.00  0.00     0.000 C 
BRANCH  19  20
ATOM     20  C   UNL     1      12.571 -22.639 -27.115  1.00  0.00     0.006 C 
BRANCH  20  21
ATOM     21  C   UNL     1      12.489 -21.122 -27.353  1.00  0.00     0.053 C 
BRANCH  21  22
ATOM     22  C   UNL     1      11.918 -20.798 -28.698  1.00  0.00     0.041 C 
ATOM     23  O   UNL     1      12.099 -21.578 -29.671  1.00  0.00    -0.550 OA
ATOM     24  O   UNL     1      11.156 -19.649 -28.871  1.00  0.00    -0.550 OA
ENDBRANCH  21  22
ENDBRANCH  20  21
ENDBRANCH  19  20
ENDBRANCH  18  19
ENDBRANCH  17  18
ENDBRANCH  16  17
ENDBRANCH  15  16
ENDBRANCH  14  15
ENDBRANCH  13  14
ENDBRANCH   1  13
TORSDOF 20
ENDMDL
MODEL 8
REMARK VINA RESULT:    -5.178      3.579      7.959
REMARK INTER + INTRA:         -13.773
REMARK INTER:                 -10.663
REMARK INTRA:                  -3.110
REMARK UNBOUND:                -2.541
REMARK SMILES CCCCCCCCCCCCCCCCCCCCCC(=O)[O-]
REMARK SMILES IDX 12 1 11 2 10 3 9 4 8 5 7 6 6 7 5 8 4 9 3 10 2 11 1 12 13 13
REMARK SMILES IDX 14 14 15 15 16 16 17 17 18 18 19 19 20 20 21 21 22 22 23 23
REMARK SMILES IDX 24 24
REMARK H PARENT
REMARK Flexibility Score: inf
ROOT
ATOM      1  C   UNL     1      18.084 -21.550 -26.176  1.00  0.00     0.000 C 
ENDROOT
BRANCH   1   2
ATOM      2  C   UNL     1      18.081 -23.025 -25.744  1.00  0.00     0.000 C 
BRANCH   2   3
ATOM      3  C   UNL     1      16.788 -23.760 -26.139  1.00  0.00     0.000 C 
BRANCH   3   4
ATOM      4  C   UNL     1      15.869 -22.938 -27.067  1.00  0.00    -0.000 C 
BRANCH   4   5
ATOM      5  C   UNL     1      15.942 -23.418 -28.528  1.00  0.00    -0.000 C 
BRANCH   5   6
ATOM      6  C   UNL     1      14.657 -24.137 -28.979  1.00  0.00    -0.000 C 
BRANCH   6   7
ATOM      7  C   UNL     1      13.434 -23.198 -29.107  1.00  0.00    -0.000 C 
BRANCH   7   8
ATOM      8  C   UNL     1      12.232 -23.622 -28.241  1.00  0.00    -0.000 C 
BRANCH   8   9
ATOM      9  C   UNL     1      11.776 -22.573 -27.213  1.00  0.00    -0.000 C 
BRANCH   9  10
ATOM     10  C   UNL     1      12.579 -21.263 -27.308  1.00  0.00    -0.000 C 
BRANCH  10  11
ATOM     11  C   UNL     1      12.071 -20.194 -26.329  1.00  0.00    -0.003 C 
ATOM     12  C   UNL     1      11.342 -19.050 -27.033  1.00  0.00     0.004 C 
ENDBRANCH  10  11
ENDBRANCH   9  10
ENDBRANCH   8   9
ENDBRANCH   7   8
ENDBRANCH   6   7
ENDBRANCH   5   6
ENDBRANCH   4   5
ENDBRANCH   3   4
ENDBRANCH   2   3
ENDBRANCH   1   2
BRANCH   1  13
ATOM     13  C   UNL     1      19.501 -21.013 -26.430  1.00  0.00     0.000 C 
BRANCH  13  14
ATOM     14  C   UNL     1      19.709 -20.557 -27.884  1.00  0.00     0.000 C 
BRANCH  14  15
ATOM     15  C   UNL     1      18.786 -21.283 -28.878  1.00  0.00     0.000 C 
BRANCH  15  16
ATOM     16  C   UNL     1      19.471 -22.355 -29.745  1.00  0.00     0.000 C 
BRANCH  16  17
ATOM     17  C   UNL     1      20.044 -23.519 -28.921  1.00  0.00     0.000 C 
BRANCH  17  18
ATOM     18  C   UNL     1      19.283 -24.840 -29.143  1.00  0.00     0.000 C 
BRANCH  18  19
ATOM     19  C   UNL     1      19.309 -25.823 -27.954  1.00  0.00     0.000 C 
BRANCH  19  20
ATOM     20  C   UNL     1      18.502 -27.120 -28.158  1.00  0.00     0.006 C 
BRANCH  20  21
ATOM     21  C   UNL     1      16.987 -26.908 -28.316  1.00  0.00     0.053 C 
BRANCH  21  22
ATOM     22  C   UNL     1      16.419 -27.735 -29.426  1.00  0.00     0.041 C 
ATOM     23  O   UNL     1      15.806 -27.185 -30.380  1.00  0.00    -0.550 OA
ATOM     24  O   UNL     1      16.596 -29.113 -29.427  1.00  0.00    -0.550 OA
ENDBRANCH  21  22
ENDBRANCH  20  21
ENDBRANCH  19  20
ENDBRANCH  18  19
ENDBRANCH  17  18
ENDBRANCH  16  17
ENDBRANCH  15  16
ENDBRANCH  14  15
ENDBRANCH  13  14
ENDBRANCH   1  13
TORSDOF 20
ENDMDL
MODEL 9
REMARK VINA RESULT:    -5.113      1.585      2.822
REMARK INTER + INTRA:         -13.633
REMARK INTER:                 -11.708
REMARK INTRA:                  -1.925
REMARK UNBOUND:                -2.541
REMARK SMILES CCCCCCCCCCCCCCCCCCCCCC(=O)[O-]
REMARK SMILES IDX 12 1 11 2 10 3 9 4 8 5 7 6 6 7 5 8 4 9 3 10 2 11 1 12 13 13
REMARK SMILES IDX 14 14 15 15 16 16 17 17 18 18 19 19 20 20 21 21 22 22 23 23
REMARK SMILES IDX 24 24
REMARK H PARENT
REMARK Flexibility Score: inf
ROOT
ATOM      1  C   UNL     1      14.063 -23.252 -28.430  1.00  0.00     0.000 C 
ENDROOT
BRANCH   1   2
ATOM      2  C   UNL     1      15.143 -23.641 -29.453  1.00  0.00     0.000 C 
BRANCH   2   3
ATOM      3  C   UNL     1      16.557 -23.664 -28.847  1.00  0.00     0.000 C 
BRANCH   3   4
ATOM      4  C   UNL     1      16.645 -22.999 -27.457  1.00  0.00    -0.000 C 
BRANCH   4   5
ATOM      5  C   UNL     1      17.834 -23.529 -26.636  1.00  0.00    -0.000 C 
BRANCH   5   6
ATOM      6  C   UNL     1      17.739 -25.042 -26.368  1.00  0.00    -0.000 C 
BRANCH   6   7
ATOM      7  C   UNL     1      18.958 -25.841 -26.887  1.00  0.00    -0.000 C 
BRANCH   7   8
ATOM      8  C   UNL     1      18.626 -26.791 -28.055  1.00  0.00    -0.000 C 
BRANCH   8   9
ATOM      9  C   UNL     1      17.367 -27.651 -27.849  1.00  0.00    -0.000 C 
BRANCH   9  10
ATOM     10  C   UNL     1      16.309 -27.423 -28.942  1.00  0.00    -0.000 C 
BRANCH  10  11
ATOM     11  C   UNL     1      16.609 -28.217 -30.222  1.00  0.00    -0.003 C 
ATOM     12  C   UNL     1      16.981 -27.317 -31.400  1.00  0.00     0.004 C 
ENDBRANCH  10  11
ENDBRANCH   9  10
ENDBRANCH   8   9
ENDBRANCH   7   8
ENDBRANCH   6   7
ENDBRANCH   5   6
ENDBRANCH   4   5
ENDBRANCH   3   4
ENDBRANCH   2   3
ENDBRANCH   1   2
BRANCH   1  13
ATOM     13  C   UNL     1      12.654 -23.685 -28.867  1.00  0.00     0.000 C 
BRANCH  13  14
ATOM     14  C   UNL     1      11.640 -22.529 -28.821  1.00  0.00     0.000 C 
BRANCH  14  15
ATOM     15  C   UNL     1      12.269 -21.196 -28.378  1.00  0.00     0.000 C 
BRANCH  15  16
ATOM     16  C   UNL     1      12.088 -20.849 -26.889  1.00  0.00     0.000 C 
BRANCH  16  17
ATOM     17  C   UNL     1      12.854 -19.585 -26.469  1.00  0.00     0.000 C 
BRANCH  17  18
ATOM     18  C   UNL     1      12.101 -18.752 -25.416  1.00  0.00     0.000 C 
BRANCH  18  19
ATOM     19  C   UNL     1      10.600 -18.534 -25.698  1.00  0.00     0.000 C 
BRANCH  19  20
ATOM     20  C   UNL     1      10.279 -17.450 -26.747  1.00  0.00     0.006 C 
BRANCH  20  21
ATOM     21  C   UNL     1      10.077 -17.988 -28.173  1.00  0.00     0.053 C 
BRANCH  21  22
ATOM     22  C   UNL     1       8.819 -17.466 -28.794  1.00  0.00     0.041 C 
ATOM     23  O   UNL     1       8.508 -17.792 -29.971  1.00  0.00    -0.550 OA
ATOM     24  O   UNL     1       7.970 -16.646 -28.061  1.00  0.00    -0.550 OA
ENDBRANCH  21  22
ENDBRANCH  20  21
ENDBRANCH  19  20
ENDBRANCH  18  19
ENDBRANCH  17  18
ENDBRANCH  16  17
ENDBRANCH  15  16
ENDBRANCH  14  15
ENDBRANCH  13  14
ENDBRANCH   1  13
TORSDOF 20
ENDMDL
