MODEL 1
REMARK VINA RESULT:    -3.937      0.000      0.000
REMARK INTER + INTRA:         -16.326
REMARK INTER:                 -10.381
REMARK INTRA:                  -5.945
REMARK UNBOUND:                -5.945
REMARK SMILES CCCCCCCCCCCCCCCCCCCCCCCCCCCCCC(=O)[O-]
REMARK SMILES IDX 16 1 17 2 18 3 19 4 20 5 21 6 22 7 23 8 24 9 25 10 26 11
REMARK SMILES IDX 27 12 28 13 29 14 30 15 31 16 32 17 15 18 14 19 13 20 12 21
REMARK SMILES IDX 11 22 10 23 9 24 8 25 7 26 6 27 5 28 4 29 3 30 2 31 1 32
REMARK H PARENT
REMARK Flexibility Score: inf
ROOT
ATOM      1  C   UNL     1      -7.694   2.276  52.391  1.00  0.00     0.000 C 
ENDROOT
BRANCH   1   2
ATOM      2  C   UNL     1      -7.881   3.259  51.226  1.00  0.00     0.000 C 
BRANCH   2   3
ATOM      3  C   UNL     1      -7.113   4.576  51.430  1.00  0.00     0.000 C 
BRANCH   3   4
ATOM      4  C   UNL     1      -8.043   5.765  51.737  1.00  0.00     0.000 C 
BRANCH   4   5
ATOM      5  C   UNL     1      -9.468   5.643  51.158  1.00  0.00     0.000 C 
BRANCH   5   6
ATOM      6  C   UNL     1     -10.603   6.022  52.128  1.00  0.00     0.000 C 
BRANCH   6   7
ATOM      7  C   UNL     1     -10.146   6.372  53.558  1.00  0.00     0.000 C 
BRANCH   7   8
ATOM      8  C   UNL     1     -10.694   5.414  54.639  1.00  0.00     0.000 C 
BRANCH   8   9
ATOM      9  C   UNL     1     -10.516   5.966  56.065  1.00  0.00     0.000 C 
BRANCH   9  10
ATOM     10  C   UNL     1     -10.321   4.856  57.107  1.00  0.00     0.000 C 
BRANCH  10  11
ATOM     11  C   UNL     1     -10.364   5.388  58.552  1.00  0.00     0.000 C 
BRANCH  11  12
ATOM     12  C   UNL     1      -9.735   6.782  58.690  1.00  0.00     0.000 C 
BRANCH  12  13
ATOM     13  C   UNL     1      -9.785   7.314  60.130  1.00  0.00     0.006 C 
BRANCH  13  14
ATOM     14  C   UNL     1      -9.740   6.163  61.143  1.00  0.00     0.053 C 
BRANCH  14  15
ATOM     15  C   UNL     1      -8.346   5.928  61.644  1.00  0.00     0.041 C 
ATOM     16  O   UNL     1      -7.569   6.897  61.854  1.00  0.00    -0.550 OA
ATOM     17  O   UNL     1      -7.920   4.635  61.923  1.00  0.00    -0.550 OA
ENDBRANCH  14  15
ENDBRANCH  13  14
ENDBRANCH  12  13
ENDBRANCH  11  12
ENDBRANCH  10  11
ENDBRANCH   9  10
ENDBRANCH   8   9
ENDBRANCH   7   8
ENDBRANCH   6   7
ENDBRANCH   5   6
ENDBRANCH   4   5
ENDBRANCH   3   4
ENDBRANCH   2   3
ENDBRANCH   1   2
BRANCH   1  18
ATOM     18  C   UNL     1      -8.720   2.496  53.517  1.00  0.00     0.000 C 
BRANCH  18  19
ATOM     19  C   UNL     1      -8.067   2.862  54.862  1.00  0.00     0.000 C 
BRANCH  19  20
ATOM     20  C   UNL     1      -6.527   2.833  54.875  1.00  0.00     0.000 C 
BRANCH  20  21
ATOM     21  C   UNL     1      -5.900   4.222  55.079  1.00  0.00     0.000 C 
BRANCH  21  22
ATOM     22  C   UNL     1      -6.950   5.343  55.111  1.00  0.00     0.000 C 
BRANCH  22  23
ATOM     23  C   UNL     1      -6.853   6.204  56.379  1.00  0.00     0.000 C 
BRANCH  23  24
ATOM     24  C   UNL     1      -5.816   5.627  57.355  1.00  0.00    -0.000 C 
BRANCH  24  25
ATOM     25  C   UNL     1      -6.439   5.176  58.687  1.00  0.00    -0.000 C 
BRANCH  25  26
ATOM     26  C   UNL     1      -7.054   3.768  58.605  1.00  0.00    -0.000 C 
BRANCH  26  27
ATOM     27  C   UNL     1      -6.347   2.750  59.518  1.00  0.00    -0.000 C 
BRANCH  27  28
ATOM     28  C   UNL     1      -4.834   2.592  59.276  1.00  0.00    -0.000 C 
BRANCH  28  29
ATOM     29  C   UNL     1      -4.504   1.569  58.181  1.00  0.00    -0.000 C 
BRANCH  29  30
ATOM     30  C   UNL     1      -3.466   2.131  57.199  1.00  0.00    -0.000 C 
BRANCH  30  31
ATOM     31  C   UNL     1      -2.142   1.351  57.227  1.00  0.00    -0.003 C 
ATOM     32  C   UNL     1      -1.377   1.532  58.539  1.00  0.00     0.004 C 
ENDBRANCH  30  31
ENDBRANCH  29  30
ENDBRANCH  28  29
ENDBRANCH  27  28
ENDBRANCH  26  27
ENDBRANCH  25  26
ENDBRANCH  24  25
ENDBRANCH  23  24
ENDBRANCH  22  23
ENDBRANCH  21  22
ENDBRANCH  20  21
ENDBRANCH  19  20
ENDBRANCH  18  19
ENDBRANCH   1  18
TORSDOF 28
ENDMDL
MODEL 2
REMARK VINA RESULT:    -3.926      8.921     12.117
REMARK INTER + INTRA:         -16.297
REMARK INTER:                 -10.739
REMARK INTRA:                  -5.558
REMARK UNBOUND:                -5.945
REMARK SMILES CCCCCCCCCCCCCCCCCCCCCCCCCCCCCC(=O)[O-]
REMARK SMILES IDX 16 1 17 2 18 3 19 4 20 5 21 6 22 7 23 8 24 9 25 10 26 11
REMARK SMILES IDX 27 12 28 13 29 14 30 15 31 16 32 17 15 18 14 19 13 20 12 21
REMARK SMILES IDX 11 22 10 23 9 24 8 25 7 26 6 27 5 28 4 29 3 30 2 31 1 32
REMARK H PARENT
REMARK Flexibility Score: inf
ROOT
ATOM      1  C   UNL     1       1.569   1.385  55.497  1.00  0.00     0.000 C 
ENDROOT
BRANCH   1   2
ATOM      2  C   UNL     1       0.689   0.225  55.988  1.00  0.00     0.000 C 
BRANCH   2   3
ATOM      3  C   UNL     1      -0.555   0.704  56.754  1.00  0.00     0.000 C 
BRANCH   3   4
ATOM      4  C   UNL     1      -0.209   1.655  57.915  1.00  0.00     0.000 C 
BRANCH   4   5
ATOM      5  C   UNL     1      -0.740   1.214  59.296  1.00  0.00     0.000 C 
BRANCH   5   6
ATOM      6  C   UNL     1       0.325   1.115  60.404  1.00  0.00     0.000 C 
BRANCH   6   7
ATOM      7  C   UNL     1       1.775   1.347  59.936  1.00  0.00     0.000 C 
BRANCH   7   8
ATOM      8  C   UNL     1       2.652   0.076  59.975  1.00  0.00     0.000 C 
BRANCH   8   9
ATOM      9  C   UNL     1       2.864  -0.540  58.580  1.00  0.00     0.000 C 
BRANCH   9  10
ATOM     10  C   UNL     1       2.428  -2.012  58.512  1.00  0.00     0.000 C 
BRANCH  10  11
ATOM     11  C   UNL     1       0.909  -2.187  58.696  1.00  0.00     0.000 C 
BRANCH  11  12
ATOM     12  C   UNL     1       0.557  -3.091  59.887  1.00  0.00     0.000 C 
BRANCH  12  13
ATOM     13  C   UNL     1      -0.290  -2.371  60.946  1.00  0.00     0.006 C 
BRANCH  13  14
ATOM     14  C   UNL     1       0.524  -2.115  62.220  1.00  0.00     0.053 C 
BRANCH  14  15
ATOM     15  C   UNL     1       0.111  -3.034  63.330  1.00  0.00     0.041 C 
ATOM     16  O   UNL     1       0.818  -3.145  64.367  1.00  0.00    -0.550 OA
ATOM     17  O   UNL     1      -1.085  -3.736  63.238  1.00  0.00    -0.550 OA
ENDBRANCH  14  15
ENDBRANCH  13  14
ENDBRANCH  12  13
ENDBRANCH  11  12
ENDBRANCH  10  11
ENDBRANCH   9  10
ENDBRANCH   8   9
ENDBRANCH   7   8
ENDBRANCH   6   7
ENDBRANCH   5   6
ENDBRANCH   4   5
ENDBRANCH   3   4
ENDBRANCH   2   3
ENDBRANCH   1   2
BRANCH   1  18
ATOM     18  C   UNL     1       2.753   0.903  54.641  1.00  0.00     0.000 C 
BRANCH  18  19
ATOM     19  C   UNL     1       2.339  -0.106  53.556  1.00  0.00     0.000 C 
BRANCH  19  20
ATOM     20  C   UNL     1       2.948  -1.514  53.699  1.00  0.00     0.000 C 
BRANCH  20  21
ATOM     21  C   UNL     1       1.888  -2.625  53.769  1.00  0.00     0.000 C 
BRANCH  21  22
ATOM     22  C   UNL     1       0.552  -2.206  53.134  1.00  0.00     0.000 C 
BRANCH  22  23
ATOM     23  C   UNL     1      -0.304  -3.412  52.718  1.00  0.00     0.000 C 
BRANCH  23  24
ATOM     24  C   UNL     1       0.320  -4.725  53.215  1.00  0.00    -0.000 C 
BRANCH  24  25
ATOM     25  C   UNL     1      -0.534  -5.420  54.289  1.00  0.00    -0.000 C 
BRANCH  25  26
ATOM     26  C   UNL     1      -0.249  -4.889  55.705  1.00  0.00    -0.000 C 
BRANCH  26  27
ATOM     27  C   UNL     1       0.795  -5.728  56.463  1.00  0.00    -0.000 C 
BRANCH  27  28
ATOM     28  C   UNL     1       2.202  -5.107  56.543  1.00  0.00    -0.000 C 
BRANCH  28  29
ATOM     29  C   UNL     1       3.165  -5.661  55.484  1.00  0.00    -0.000 C 
BRANCH  29  30
ATOM     30  C   UNL     1       4.398  -4.756  55.338  1.00  0.00    -0.000 C 
BRANCH  30  31
ATOM     31  C   UNL     1       5.156  -4.572  56.662  1.00  0.00    -0.003 C 
ATOM     32  C   UNL     1       5.514  -3.112  56.940  1.00  0.00     0.004 C 
ENDBRANCH  30  31
ENDBRANCH  29  30
ENDBRANCH  28  29
ENDBRANCH  27  28
ENDBRANCH  26  27
ENDBRANCH  25  26
ENDBRANCH  24  25
ENDBRANCH  23  24
ENDBRANCH  22  23
ENDBRANCH  21  22
ENDBRANCH  20  21
ENDBRANCH  19  20
ENDBRANCH  18  19
ENDBRANCH   1  18
TORSDOF 28
ENDMDL
MODEL 3
REMARK VINA RESULT:    -3.894      8.736     12.641
REMARK INTER + INTRA:         -16.212
REMARK INTER:                 -10.261
REMARK INTRA:                  -5.951
REMARK UNBOUND:                -5.945
REMARK SMILES CCCCCCCCCCCCCCCCCCCCCCCCCCCCCC(=O)[O-]
REMARK SMILES IDX 16 1 17 2 18 3 19 4 20 5 21 6 22 7 23 8 24 9 25 10 26 11
REMARK SMILES IDX 27 12 28 13 29 14 30 15 31 16 32 17 15 18 14 19 13 20 12 21
REMARK SMILES IDX 11 22 10 23 9 24 8 25 7 26 6 27 5 28 4 29 3 30 2 31 1 32
REMARK H PARENT
REMARK Flexibility Score: inf
ROOT
ATOM      1  C   UNL     1       3.130  -0.366  53.245  1.00  0.00     0.000 C 
ENDROOT
BRANCH   1   2
ATOM      2  C   UNL     1       2.523  -1.732  53.601  1.00  0.00     0.000 C 
BRANCH   2   3
ATOM      3  C   UNL     1       3.519  -2.657  54.319  1.00  0.00     0.000 C 
BRANCH   3   4
ATOM      4  C   UNL     1       3.913  -2.139  55.715  1.00  0.00     0.000 C 
BRANCH   4   5
ATOM      5  C   UNL     1       4.746  -3.124  56.563  1.00  0.00     0.000 C 
BRANCH   5   6
ATOM      6  C   UNL     1       4.779  -4.572  56.038  1.00  0.00     0.000 C 
BRANCH   6   7
ATOM      7  C   UNL     1       3.616  -5.465  56.516  1.00  0.00     0.000 C 
BRANCH   7   8
ATOM      8  C   UNL     1       2.900  -6.217  55.373  1.00  0.00     0.000 C 
BRANCH   8   9
ATOM      9  C   UNL     1       1.451  -5.739  55.167  1.00  0.00     0.000 C 
BRANCH   9  10
ATOM     10  C   UNL     1       0.968  -4.815  56.294  1.00  0.00     0.000 C 
BRANCH  10  11
ATOM     11  C   UNL     1       0.191  -3.594  55.765  1.00  0.00     0.000 C 
BRANCH  11  12
ATOM     12  C   UNL     1      -0.708  -3.937  54.568  1.00  0.00     0.000 C 
BRANCH  12  13
ATOM     13  C   UNL     1      -0.970  -2.728  53.658  1.00  0.00     0.006 C 
BRANCH  13  14
ATOM     14  C   UNL     1      -0.589  -3.040  52.206  1.00  0.00     0.053 C 
BRANCH  14  15
ATOM     15  C   UNL     1      -0.994  -4.430  51.819  1.00  0.00     0.041 C 
ATOM     16  O   UNL     1      -2.187  -4.685  51.503  1.00  0.00    -0.550 OA
ATOM     17  O   UNL     1      -0.040  -5.438  51.762  1.00  0.00    -0.550 OA
ENDBRANCH  14  15
ENDBRANCH  13  14
ENDBRANCH  12  13
ENDBRANCH  11  12
ENDBRANCH  10  11
ENDBRANCH   9  10
ENDBRANCH   8   9
ENDBRANCH   7   8
ENDBRANCH   6   7
ENDBRANCH   5   6
ENDBRANCH   4   5
ENDBRANCH   3   4
ENDBRANCH   2   3
ENDBRANCH   1   2
BRANCH   1  18
ATOM     18  C   UNL     1       2.199   0.804  53.610  1.00  0.00     0.000 C 
BRANCH  18  19
ATOM     19  C   UNL     1       2.362   1.266  55.069  1.00  0.00     0.000 C 
BRANCH  19  20
ATOM     20  C   UNL     1       1.066   1.283  55.903  1.00  0.00     0.000 C 
BRANCH  20  21
ATOM     21  C   UNL     1       0.454  -0.115  56.093  1.00  0.00     0.000 C 
BRANCH  21  22
ATOM     22  C   UNL     1      -1.001  -0.058  56.586  1.00  0.00     0.000 C 
BRANCH  22  23
ATOM     23  C   UNL     1      -1.351   1.292  57.230  1.00  0.00     0.000 C 
BRANCH  23  24
ATOM     24  C   UNL     1      -1.597   1.132  58.737  1.00  0.00    -0.000 C 
BRANCH  24  25
ATOM     25  C   UNL     1      -0.823   2.162  59.578  1.00  0.00    -0.000 C 
BRANCH  25  26
ATOM     26  C   UNL     1       0.701   1.974  59.487  1.00  0.00    -0.000 C 
BRANCH  26  27
ATOM     27  C   UNL     1       1.194   0.705  60.206  1.00  0.00    -0.000 C 
BRANCH  27  28
ATOM     28  C   UNL     1       2.657   0.318  59.921  1.00  0.00    -0.000 C 
BRANCH  28  29
ATOM     29  C   UNL     1       2.799  -0.686  58.768  1.00  0.00    -0.000 C 
BRANCH  29  30
ATOM     30  C   UNL     1       1.864  -1.888  58.969  1.00  0.00    -0.000 C 
BRANCH  30  31
ATOM     31  C   UNL     1       2.572  -3.085  59.623  1.00  0.00    -0.003 C 
ATOM     32  C   UNL     1       1.667  -4.311  59.748  1.00  0.00     0.004 C 
ENDBRANCH  30  31
ENDBRANCH  29  30
ENDBRANCH  28  29
ENDBRANCH  27  28
ENDBRANCH  26  27
ENDBRANCH  25  26
ENDBRANCH  24  25
ENDBRANCH  23  24
ENDBRANCH  22  23
ENDBRANCH  21  22
ENDBRANCH  20  21
ENDBRANCH  19  20
ENDBRANCH  18  19
ENDBRANCH   1  18
TORSDOF 28
ENDMDL
MODEL 4
REMARK VINA RESULT:    -3.891      2.983      7.255
REMARK INTER + INTRA:         -16.206
REMARK INTER:                 -11.184
REMARK INTRA:                  -5.023
REMARK UNBOUND:                -5.945
REMARK SMILES CCCCCCCCCCCCCCCCCCCCCCCCCCCCCC(=O)[O-]
REMARK SMILES IDX 16 1 17 2 18 3 19 4 20 5 21 6 22 7 23 8 24 9 25 10 26 11
REMARK SMILES IDX 27 12 28 13 29 14 30 15 31 16 32 17 15 18 14 19 13 20 12 21
REMARK SMILES IDX 11 22 10 23 9 24 8 25 7 26 6 27 5 28 4 29 3 30 2 31 1 32
REMARK H PARENT
REMARK Flexibility Score: inf
ROOT
ATOM      1  C   UNL     1      -5.856   4.012  54.708  1.00  0.00     0.000 C 
ENDROOT
BRANCH   1   2
ATOM      2  C   UNL     1      -7.115   4.792  55.116  1.00  0.00     0.000 C 
BRANCH   2   3
ATOM      3  C   UNL     1      -7.065   5.283  56.572  1.00  0.00     0.000 C 
BRANCH   3   4
ATOM      4  C   UNL     1      -5.747   4.915  57.279  1.00  0.00     0.000 C 
BRANCH   4   5
ATOM      5  C   UNL     1      -5.361   5.836  58.456  1.00  0.00     0.000 C 
BRANCH   5   6
ATOM      6  C   UNL     1      -4.627   5.139  59.618  1.00  0.00     0.000 C 
BRANCH   6   7
ATOM      7  C   UNL     1      -4.900   3.628  59.747  1.00  0.00     0.000 C 
BRANCH   7   8
ATOM      8  C   UNL     1      -3.631   2.755  59.635  1.00  0.00     0.000 C 
BRANCH   8   9
ATOM      9  C   UNL     1      -3.700   1.755  58.467  1.00  0.00     0.000 C 
BRANCH   9  10
ATOM     10  C   UNL     1      -2.610   2.001  57.413  1.00  0.00     0.000 C 
BRANCH  10  11
ATOM     11  C   UNL     1      -1.563   0.872  57.372  1.00  0.00     0.000 C 
BRANCH  11  12
ATOM     12  C   UNL     1      -0.153   1.383  57.042  1.00  0.00     0.000 C 
BRANCH  12  13
ATOM     13  C   UNL     1       0.825   1.220  58.216  1.00  0.00     0.006 C 
BRANCH  13  14
ATOM     14  C   UNL     1       0.704   2.392  59.198  1.00  0.00     0.053 C 
BRANCH  14  15
ATOM     15  C   UNL     1       0.271   1.927  60.555  1.00  0.00     0.041 C 
ATOM     16  O   UNL     1      -0.060   2.760  61.442  1.00  0.00    -0.550 OA
ATOM     17  O   UNL     1       0.187   0.567  60.828  1.00  0.00    -0.550 OA
ENDBRANCH  14  15
ENDBRANCH  13  14
ENDBRANCH  12  13
ENDBRANCH  11  12
ENDBRANCH  10  11
ENDBRANCH   9  10
ENDBRANCH   8   9
ENDBRANCH   7   8
ENDBRANCH   6   7
ENDBRANCH   5   6
ENDBRANCH   4   5
ENDBRANCH   3   4
ENDBRANCH   2   3
ENDBRANCH   1   2
BRANCH   1  18
ATOM     18  C   UNL     1      -5.831   3.680  53.205  1.00  0.00     0.000 C 
BRANCH  18  19
ATOM     19  C   UNL     1      -6.973   2.739  52.780  1.00  0.00     0.000 C 
BRANCH  19  20
ATOM     20  C   UNL     1      -7.687   3.121  51.470  1.00  0.00     0.000 C 
BRANCH  20  21
ATOM     21  C   UNL     1      -7.394   4.562  51.022  1.00  0.00     0.000 C 
BRANCH  21  22
ATOM     22  C   UNL     1      -8.658   5.436  50.985  1.00  0.00     0.000 C 
BRANCH  22  23
ATOM     23  C   UNL     1      -9.050   5.962  52.374  1.00  0.00     0.000 C 
BRANCH  23  24
ATOM     24  C   UNL     1     -10.505   5.600  52.707  1.00  0.00    -0.000 C 
BRANCH  24  25
ATOM     25  C   UNL     1     -10.687   4.108  53.034  1.00  0.00    -0.000 C 
BRANCH  25  26
ATOM     26  C   UNL     1     -10.587   3.818  54.542  1.00  0.00    -0.000 C 
BRANCH  26  27
ATOM     27  C   UNL     1     -10.230   2.352  54.849  1.00  0.00    -0.000 C 
BRANCH  27  28
ATOM     28  C   UNL     1      -9.371   2.138  56.109  1.00  0.00    -0.000 C 
BRANCH  28  29
ATOM     29  C   UNL     1      -8.197   1.176  55.880  1.00  0.00    -0.000 C 
BRANCH  29  30
ATOM     30  C   UNL     1      -7.106   1.380  56.942  1.00  0.00    -0.000 C 
BRANCH  30  31
ATOM     31  C   UNL     1      -7.674   1.841  58.293  1.00  0.00    -0.003 C 
ATOM     32  C   UNL     1      -7.485   0.803  59.399  1.00  0.00     0.004 C 
ENDBRANCH  30  31
ENDBRANCH  29  30
ENDBRANCH  28  29
ENDBRANCH  27  28
ENDBRANCH  26  27
ENDBRANCH  25  26
ENDBRANCH  24  25
ENDBRANCH  23  24
ENDBRANCH  22  23
ENDBRANCH  21  22
ENDBRANCH  20  21
ENDBRANCH  19  20
ENDBRANCH  18  19
ENDBRANCH   1  18
TORSDOF 28
ENDMDL
MODEL 5
REMARK VINA RESULT:    -3.870      4.192      8.404
REMARK INTER + INTRA:         -16.150
REMARK INTER:                 -11.954
REMARK INTRA:                  -4.196
REMARK UNBOUND:                -5.945
REMARK SMILES CCCCCCCCCCCCCCCCCCCCCCCCCCCCCC(=O)[O-]
REMARK SMILES IDX 16 1 17 2 18 3 19 4 20 5 21 6 22 7 23 8 24 9 25 10 26 11
REMARK SMILES IDX 27 12 28 13 29 14 30 15 31 16 32 17 15 18 14 19 13 20 12 21
REMARK SMILES IDX 11 22 10 23 9 24 8 25 7 26 6 27 5 28 4 29 3 30 2 31 1 32
REMARK H PARENT
REMARK Flexibility Score: inf
ROOT
ATOM      1  C   UNL     1      -3.656   2.426  57.605  1.00  0.00     0.000 C 
ENDROOT
BRANCH   1   2
ATOM      2  C   UNL     1      -4.655   1.985  58.686  1.00  0.00     0.000 C 
BRANCH   2   3
ATOM      3  C   UNL     1      -6.075   1.774  58.134  1.00  0.00     0.000 C 
BRANCH   3   4
ATOM      4  C   UNL     1      -7.158   2.429  59.012  1.00  0.00     0.000 C 
BRANCH   4   5
ATOM      5  C   UNL     1      -6.623   3.196  60.240  1.00  0.00     0.000 C 
BRANCH   5   6
ATOM      6  C   UNL     1      -7.355   4.514  60.557  1.00  0.00     0.000 C 
BRANCH   6   7
ATOM      7  C   UNL     1      -6.695   5.781  59.977  1.00  0.00     0.000 C 
BRANCH   7   8
ATOM      8  C   UNL     1      -5.215   5.585  59.582  1.00  0.00     0.000 C 
BRANCH   8   9
ATOM      9  C   UNL     1      -4.953   5.898  58.097  1.00  0.00     0.000 C 
BRANCH   9  10
ATOM     10  C   UNL     1      -6.186   5.654  57.215  1.00  0.00     0.000 C 
BRANCH  10  11
ATOM     11  C   UNL     1      -5.855   4.846  55.947  1.00  0.00     0.000 C 
BRANCH  11  12
ATOM     12  C   UNL     1      -7.080   4.119  55.370  1.00  0.00     0.000 C 
BRANCH  12  13
ATOM     13  C   UNL     1      -6.744   3.300  54.115  1.00  0.00     0.006 C 
BRANCH  13  14
ATOM     14  C   UNL     1      -7.970   3.164  53.204  1.00  0.00     0.053 C 
BRANCH  14  15
ATOM     15  C   UNL     1      -7.702   3.720  51.837  1.00  0.00     0.041 C 
ATOM     16  O   UNL     1      -8.457   3.433  50.869  1.00  0.00    -0.550 OA
ATOM     17  O   UNL     1      -6.640   4.594  51.641  1.00  0.00    -0.550 OA
ENDBRANCH  14  15
ENDBRANCH  13  14
ENDBRANCH  12  13
ENDBRANCH  11  12
ENDBRANCH  10  11
ENDBRANCH   9  10
ENDBRANCH   8   9
ENDBRANCH   7   8
ENDBRANCH   6   7
ENDBRANCH   5   6
ENDBRANCH   4   5
ENDBRANCH   3   4
ENDBRANCH   2   3
ENDBRANCH   1   2
BRANCH   1  18
ATOM     18  C   UNL     1      -2.307   1.694  57.718  1.00  0.00     0.000 C 
BRANCH  18  19
ATOM     19  C   UNL     1      -1.957   1.299  59.164  1.00  0.00     0.000 C 
BRANCH  19  20
ATOM     20  C   UNL     1      -0.911   2.194  59.856  1.00  0.00     0.000 C 
BRANCH  20  21
ATOM     21  C   UNL     1       0.244   1.396  60.482  1.00  0.00     0.000 C 
BRANCH  21  22
ATOM     22  C   UNL     1       0.542   0.094  59.722  1.00  0.00     0.000 C 
BRANCH  22  23
ATOM     23  C   UNL     1       1.821   0.186  58.878  1.00  0.00     0.000 C 
BRANCH  23  24
ATOM     24  C   UNL     1       1.665  -0.585  57.558  1.00  0.00    -0.000 C 
BRANCH  24  25
ATOM     25  C   UNL     1       0.670   0.082  56.594  1.00  0.00    -0.000 C 
BRANCH  25  26
ATOM     26  C   UNL     1       1.244   1.349  55.935  1.00  0.00    -0.000 C 
BRANCH  26  27
ATOM     27  C   UNL     1       2.530   1.078  55.132  1.00  0.00    -0.000 C 
BRANCH  27  28
ATOM     28  C   UNL     1       2.323   0.849  53.623  1.00  0.00    -0.000 C 
BRANCH  28  29
ATOM     29  C   UNL     1       2.795  -0.534  53.155  1.00  0.00    -0.000 C 
BRANCH  29  30
ATOM     30  C   UNL     1       1.713  -1.596  53.405  1.00  0.00    -0.000 C 
BRANCH  30  31
ATOM     31  C   UNL     1       2.233  -2.787  54.225  1.00  0.00    -0.003 C 
ATOM     32  C   UNL     1       3.682  -2.606  54.678  1.00  0.00     0.004 C 
ENDBRANCH  30  31
ENDBRANCH  29  30
ENDBRANCH  28  29
ENDBRANCH  27  28
ENDBRANCH  26  27
ENDBRANCH  25  26
ENDBRANCH  24  25
ENDBRANCH  23  24
ENDBRANCH  22  23
ENDBRANCH  21  22
ENDBRANCH  20  21
ENDBRANCH  19  20
ENDBRANCH  18  19
ENDBRANCH   1  18
TORSDOF 28
ENDMDL
MODEL 6
REMARK VINA RESULT:    -3.862      8.750     11.979
REMARK INTER + INTRA:         -16.127
REMARK INTER:                 -10.355
REMARK INTRA:                  -5.772
REMARK UNBOUND:                -5.945
REMARK SMILES CCCCCCCCCCCCCCCCCCCCCCCCCCCCCC(=O)[O-]
REMARK SMILES IDX 16 1 17 2 18 3 19 4 20 5 21 6 22 7 23 8 24 9 25 10 26 11
REMARK SMILES IDX 27 12 28 13 29 14 30 15 31 16 32 17 15 18 14 19 13 20 12 21
REMARK SMILES IDX 11 22 10 23 9 24 8 25 7 26 6 27 5 28 4 29 3 30 2 31 1 32
REMARK H PARENT
REMARK Flexibility Score: inf
ROOT
ATOM      1  C   UNL     1       2.204  -2.287  53.614  1.00  0.00     0.000 C 
ENDROOT
BRANCH   1   2
ATOM      2  C   UNL     1       3.497  -2.404  54.437  1.00  0.00     0.000 C 
BRANCH   2   3
ATOM      3  C   UNL     1       3.882  -3.863  54.735  1.00  0.00     0.000 C 
BRANCH   3   4
ATOM      4  C   UNL     1       2.783  -4.624  55.501  1.00  0.00     0.000 C 
BRANCH   4   5
ATOM      5  C   UNL     1       2.454  -4.058  56.899  1.00  0.00     0.000 C 
BRANCH   5   6
ATOM      6  C   UNL     1       1.012  -3.545  57.074  1.00  0.00     0.000 C 
BRANCH   6   7
ATOM      7  C   UNL     1       0.120  -4.409  57.986  1.00  0.00     0.000 C 
BRANCH   7   8
ATOM      8  C   UNL     1      -1.393  -4.198  57.757  1.00  0.00     0.000 C 
BRANCH   8   9
ATOM      9  C   UNL     1      -1.728  -3.854  56.294  1.00  0.00     0.000 C 
BRANCH   9  10
ATOM     10  C   UNL     1      -2.253  -5.065  55.509  1.00  0.00     0.000 C 
BRANCH  10  11
ATOM     11  C   UNL     1      -1.126  -5.855  54.818  1.00  0.00     0.000 C 
BRANCH  11  12
ATOM     12  C   UNL     1      -1.183  -5.753  53.287  1.00  0.00     0.000 C 
BRANCH  12  13
ATOM     13  C   UNL     1      -0.126  -4.794  52.718  1.00  0.00     0.006 C 
BRANCH  13  14
ATOM     14  C   UNL     1      -0.720  -3.916  51.610  1.00  0.00     0.053 C 
BRANCH  14  15
ATOM     15  C   UNL     1      -1.648  -2.880  52.169  1.00  0.00     0.041 C 
ATOM     16  O   UNL     1      -1.392  -2.316  53.267  1.00  0.00    -0.550 OA
ATOM     17  O   UNL     1      -2.776  -2.501  51.453  1.00  0.00    -0.550 OA
ENDBRANCH  14  15
ENDBRANCH  13  14
ENDBRANCH  12  13
ENDBRANCH  11  12
ENDBRANCH  10  11
ENDBRANCH   9  10
ENDBRANCH   8   9
ENDBRANCH   7   8
ENDBRANCH   6   7
ENDBRANCH   5   6
ENDBRANCH   4   5
ENDBRANCH   3   4
ENDBRANCH   2   3
ENDBRANCH   1   2
BRANCH   1  18
ATOM     18  C   UNL     1       1.849  -0.827  53.284  1.00  0.00     0.000 C 
BRANCH  18  19
ATOM     19  C   UNL     1       2.948   0.167  53.698  1.00  0.00     0.000 C 
BRANCH  19  20
ATOM     20  C   UNL     1       2.528   1.212  54.750  1.00  0.00     0.000 C 
BRANCH  20  21
ATOM     21  C   UNL     1       2.005   0.581  56.051  1.00  0.00     0.000 C 
BRANCH  21  22
ATOM     22  C   UNL     1       0.524   0.903  56.308  1.00  0.00     0.000 C 
BRANCH  22  23
ATOM     23  C   UNL     1      -0.376  -0.336  56.189  1.00  0.00     0.000 C 
BRANCH  23  24
ATOM     24  C   UNL     1      -1.734  -0.094  56.865  1.00  0.00    -0.000 C 
BRANCH  24  25
ATOM     25  C   UNL     1      -1.599   0.294  58.348  1.00  0.00    -0.000 C 
BRANCH  25  26
ATOM     26  C   UNL     1      -2.111  -0.805  59.295  1.00  0.00    -0.000 C 
BRANCH  26  27
ATOM     27  C   UNL     1      -1.035  -1.300  60.278  1.00  0.00    -0.000 C 
BRANCH  27  28
ATOM     28  C   UNL     1       0.414  -1.206  59.766  1.00  0.00    -0.000 C 
BRANCH  28  29
ATOM     29  C   UNL     1       1.284  -0.252  60.595  1.00  0.00    -0.000 C 
BRANCH  29  30
ATOM     30  C   UNL     1       1.868   0.863  59.715  1.00  0.00    -0.000 C 
BRANCH  30  31
ATOM     31  C   UNL     1       1.493   2.267  60.214  1.00  0.00    -0.003 C 
ATOM     32  C   UNL     1       0.278   2.260  61.141  1.00  0.00     0.004 C 
ENDBRANCH  30  31
ENDBRANCH  29  30
ENDBRANCH  28  29
ENDBRANCH  27  28
ENDBRANCH  26  27
ENDBRANCH  25  26
ENDBRANCH  24  25
ENDBRANCH  23  24
ENDBRANCH  22  23
ENDBRANCH  21  22
ENDBRANCH  20  21
ENDBRANCH  19  20
ENDBRANCH  18  19
ENDBRANCH   1  18
TORSDOF 28
ENDMDL
MODEL 7
REMARK VINA RESULT:    -3.835      8.122     11.524
REMARK INTER + INTRA:         -16.057
REMARK INTER:                 -10.311
REMARK INTRA:                  -5.746
REMARK UNBOUND:                -5.945
REMARK SMILES CCCCCCCCCCCCCCCCCCCCCCCCCCCCCC(=O)[O-]
REMARK SMILES IDX 16 1 17 2 18 3 19 4 20 5 21 6 22 7 23 8 24 9 25 10 26 11
REMARK SMILES IDX 27 12 28 13 29 14 30 15 31 16 32 17 15 18 14 19 13 20 12 21
REMARK SMILES IDX 11 22 10 23 9 24 8 25 7 26 6 27 5 28 4 29 3 30 2 31 1 32
REMARK H PARENT
REMARK Flexibility Score: inf
ROOT
ATOM      1  C   UNL     1       2.555   0.644  55.167  1.00  0.00     0.000 C 
ENDROOT
BRANCH   1   2
ATOM      2  C   UNL     1       1.248   1.012  55.886  1.00  0.00     0.000 C 
BRANCH   2   3
ATOM      3  C   UNL     1       0.620  -0.179  56.629  1.00  0.00     0.000 C 
BRANCH   3   4
ATOM      4  C   UNL     1      -0.852  -0.412  56.242  1.00  0.00     0.000 C 
BRANCH   4   5
ATOM      5  C   UNL     1      -1.883   0.266  57.169  1.00  0.00     0.000 C 
BRANCH   5   6
ATOM      6  C   UNL     1      -1.456   0.386  58.644  1.00  0.00     0.000 C 
BRANCH   6   7
ATOM      7  C   UNL     1      -1.860   1.704  59.334  1.00  0.00     0.000 C 
BRANCH   7   8
ATOM      8  C   UNL     1      -0.702   2.390  60.090  1.00  0.00     0.000 C 
BRANCH   8   9
ATOM      9  C   UNL     1       0.669   2.128  59.439  1.00  0.00     0.000 C 
BRANCH   9  10
ATOM     10  C   UNL     1       1.623   1.355  60.362  1.00  0.00     0.000 C 
BRANCH  10  11
ATOM     11  C   UNL     1       2.193   0.089  59.695  1.00  0.00     0.000 C 
BRANCH  11  12
ATOM     12  C   UNL     1       1.631  -1.205  60.301  1.00  0.00     0.000 C 
BRANCH  12  13
ATOM     13  C   UNL     1       0.597  -0.941  61.405  1.00  0.00     0.006 C 
BRANCH  13  14
ATOM     14  C   UNL     1      -0.506  -2.007  61.392  1.00  0.00     0.053 C 
BRANCH  14  15
ATOM     15  C   UNL     1      -0.491  -2.827  62.647  1.00  0.00     0.041 C 
ATOM     16  O   UNL     1       0.515  -2.819  63.406  1.00  0.00    -0.550 OA
ATOM     17  O   UNL     1      -1.611  -3.568  63.003  1.00  0.00    -0.550 OA
ENDBRANCH  14  15
ENDBRANCH  13  14
ENDBRANCH  12  13
ENDBRANCH  11  12
ENDBRANCH  10  11
ENDBRANCH   9  10
ENDBRANCH   8   9
ENDBRANCH   7   8
ENDBRANCH   6   7
ENDBRANCH   5   6
ENDBRANCH   4   5
ENDBRANCH   3   4
ENDBRANCH   2   3
ENDBRANCH   1   2
BRANCH   1  18
ATOM     18  C   UNL     1       2.342   0.363  53.669  1.00  0.00     0.000 C 
BRANCH  18  19
ATOM     19  C   UNL     1       2.740  -1.068  53.264  1.00  0.00     0.000 C 
BRANCH  19  20
ATOM     20  C   UNL     1       2.533  -2.140  54.350  1.00  0.00     0.000 C 
BRANCH  20  21
ATOM     21  C   UNL     1       3.797  -2.972  54.625  1.00  0.00     0.000 C 
BRANCH  21  22
ATOM     22  C   UNL     1       4.532  -2.521  55.897  1.00  0.00     0.000 C 
BRANCH  22  23
ATOM     23  C   UNL     1       3.574  -2.257  57.068  1.00  0.00     0.000 C 
BRANCH  23  24
ATOM     24  C   UNL     1       3.656  -3.384  58.109  1.00  0.00    -0.000 C 
BRANCH  24  25
ATOM     25  C   UNL     1       2.434  -4.317  58.073  1.00  0.00    -0.000 C 
BRANCH  25  26
ATOM     26  C   UNL     1       1.223  -3.678  57.373  1.00  0.00    -0.000 C 
BRANCH  26  27
ATOM     27  C   UNL     1       0.164  -4.709  56.942  1.00  0.00    -0.000 C 
BRANCH  27  28
ATOM     28  C   UNL     1       0.415  -5.373  55.576  1.00  0.00    -0.000 C 
BRANCH  28  29
ATOM     29  C   UNL     1      -0.446  -4.779  54.452  1.00  0.00    -0.000 C 
BRANCH  29  30
ATOM     30  C   UNL     1       0.315  -4.787  53.117  1.00  0.00    -0.000 C 
BRANCH  30  31
ATOM     31  C   UNL     1      -0.310  -3.845  52.076  1.00  0.00    -0.003 C 
ATOM     32  C   UNL     1      -0.735  -2.503  52.672  1.00  0.00     0.004 C 
ENDBRANCH  30  31
ENDBRANCH  29  30
ENDBRANCH  28  29
ENDBRANCH  27  28
ENDBRANCH  26  27
ENDBRANCH  25  26
ENDBRANCH  24  25
ENDBRANCH  23  24
ENDBRANCH  22  23
ENDBRANCH  21  22
ENDBRANCH  20  21
ENDBRANCH  19  20
ENDBRANCH  18  19
ENDBRANCH   1  18
TORSDOF 28
ENDMDL
MODEL 8
REMARK VINA RESULT:    -3.817      2.753      5.015
REMARK INTER + INTRA:         -16.010
REMARK INTER:                  -9.561
REMARK INTRA:                  -6.449
REMARK UNBOUND:                -5.945
REMARK SMILES CCCCCCCCCCCCCCCCCCCCCCCCCCCCCC(=O)[O-]
REMARK SMILES IDX 16 1 17 2 18 3 19 4 20 5 21 6 22 7 23 8 24 9 25 10 26 11
REMARK SMILES IDX 27 12 28 13 29 14 30 15 31 16 32 17 15 18 14 19 13 20 12 21
REMARK SMILES IDX 11 22 10 23 9 24 8 25 7 26 6 27 5 28 4 29 3 30 2 31 1 32
REMARK H PARENT
REMARK Flexibility Score: inf
ROOT
ATOM      1  C   UNL     1      -7.416   4.054  55.471  1.00  0.00     0.000 C 
ENDROOT
BRANCH   1   2
ATOM      2  C   UNL     1      -6.067   3.561  54.926  1.00  0.00     0.000 C 
BRANCH   2   3
ATOM      3  C   UNL     1      -5.895   3.839  53.423  1.00  0.00     0.000 C 
BRANCH   3   4
ATOM      4  C   UNL     1      -6.919   3.083  52.557  1.00  0.00     0.000 C 
BRANCH   4   5
ATOM      5  C   UNL     1      -7.387   3.839  51.295  1.00  0.00     0.000 C 
BRANCH   5   6
ATOM      6  C   UNL     1      -7.605   5.352  51.483  1.00  0.00     0.000 C 
BRANCH   6   7
ATOM      7  C   UNL     1      -9.059   5.768  51.782  1.00  0.00     0.000 C 
BRANCH   7   8
ATOM      8  C   UNL     1     -10.112   4.957  50.996  1.00  0.00     0.000 C 
BRANCH   8   9
ATOM      9  C   UNL     1     -10.970   4.061  51.907  1.00  0.00     0.000 C 
BRANCH   9  10
ATOM     10  C   UNL     1     -10.654   4.257  53.397  1.00  0.00     0.000 C 
BRANCH  10  11
ATOM     11  C   UNL     1     -10.530   2.922  54.155  1.00  0.00     0.000 C 
BRANCH  11  12
ATOM     12  C   UNL     1     -10.206   1.741  53.227  1.00  0.00     0.000 C 
BRANCH  12  13
ATOM     13  C   UNL     1      -9.580   0.555  53.976  1.00  0.00     0.006 C 
BRANCH  13  14
ATOM     14  C   UNL     1      -9.266   0.927  55.430  1.00  0.00     0.053 C 
BRANCH  14  15
ATOM     15  C   UNL     1      -9.993   0.039  56.394  1.00  0.00     0.041 C 
ATOM     16  O   UNL     1     -11.253   0.004  56.409  1.00  0.00    -0.550 OA
ATOM     17  O   UNL     1      -9.276  -0.789  57.249  1.00  0.00    -0.550 OA
ENDBRANCH  14  15
ENDBRANCH  13  14
ENDBRANCH  12  13
ENDBRANCH  11  12
ENDBRANCH  10  11
ENDBRANCH   9  10
ENDBRANCH   8   9
ENDBRANCH   7   8
ENDBRANCH   6   7
ENDBRANCH   5   6
ENDBRANCH   4   5
ENDBRANCH   3   4
ENDBRANCH   2   3
ENDBRANCH   1   2
BRANCH   1  18
ATOM     18  C   UNL     1      -7.618   5.565  55.263  1.00  0.00     0.000 C 
BRANCH  18  19
ATOM     19  C   UNL     1      -7.098   6.408  56.441  1.00  0.00     0.000 C 
BRANCH  19  20
ATOM     20  C   UNL     1      -7.712   6.071  57.813  1.00  0.00     0.000 C 
BRANCH  20  21
ATOM     21  C   UNL     1      -6.656   5.756  58.885  1.00  0.00     0.000 C 
BRANCH  21  22
ATOM     22  C   UNL     1      -5.244   5.611  58.296  1.00  0.00     0.000 C 
BRANCH  22  23
ATOM     23  C   UNL     1      -4.768   4.151  58.264  1.00  0.00     0.000 C 
BRANCH  23  24
ATOM     24  C   UNL     1      -4.352   3.679  59.666  1.00  0.00    -0.000 C 
BRANCH  24  25
ATOM     25  C   UNL     1      -3.315   2.544  59.628  1.00  0.00    -0.000 C 
BRANCH  25  26
ATOM     26  C   UNL     1      -3.006   2.074  58.196  1.00  0.00    -0.000 C 
BRANCH  26  27
ATOM     27  C   UNL     1      -3.583   0.680  57.884  1.00  0.00    -0.000 C 
BRANCH  27  28
ATOM     28  C   UNL     1      -4.618   0.641  56.745  1.00  0.00    -0.000 C 
BRANCH  28  29
ATOM     29  C   UNL     1      -6.068   0.688  57.247  1.00  0.00    -0.000 C 
BRANCH  29  30
ATOM     30  C   UNL     1      -6.156   0.228  58.710  1.00  0.00    -0.000 C 
BRANCH  30  31
ATOM     31  C   UNL     1      -7.053   1.138  59.563  1.00  0.00    -0.003 C 
ATOM     32  C   UNL     1      -7.822   2.161  58.727  1.00  0.00     0.004 C 
ENDBRANCH  30  31
ENDBRANCH  29  30
ENDBRANCH  28  29
ENDBRANCH  27  28
ENDBRANCH  26  27
ENDBRANCH  25  26
ENDBRANCH  24  25
ENDBRANCH  23  24
ENDBRANCH  22  23
ENDBRANCH  21  22
ENDBRANCH  20  21
ENDBRANCH  19  20
ENDBRANCH  18  19
ENDBRANCH   1  18
TORSDOF 28
ENDMDL
MODEL 9
REMARK VINA RESULT:    -3.787      2.100      3.983
REMARK INTER + INTRA:         -15.930
REMARK INTER:                 -10.090
REMARK INTRA:                  -5.840
REMARK UNBOUND:                -5.945
REMARK SMILES CCCCCCCCCCCCCCCCCCCCCCCCCCCCCC(=O)[O-]
REMARK SMILES IDX 16 1 17 2 18 3 19 4 20 5 21 6 22 7 23 8 24 9 25 10 26 11
REMARK SMILES IDX 27 12 28 13 29 14 30 15 31 16 32 17 15 18 14 19 13 20 12 21
REMARK SMILES IDX 11 22 10 23 9 24 8 25 7 26 6 27 5 28 4 29 3 30 2 31 1 32
REMARK H PARENT
REMARK Flexibility Score: inf
ROOT
ATOM      1  C   UNL     1      -5.876   3.716  54.669  1.00  0.00     0.000 C 
ENDROOT
BRANCH   1   2
ATOM      2  C   UNL     1      -5.862   3.511  53.147  1.00  0.00     0.000 C 
BRANCH   2   3
ATOM      3  C   UNL     1      -7.029   2.641  52.653  1.00  0.00     0.000 C 
BRANCH   3   4
ATOM      4  C   UNL     1      -7.754   3.252  51.439  1.00  0.00     0.000 C 
BRANCH   4   5
ATOM      5  C   UNL     1      -7.438   4.739  51.174  1.00  0.00     0.000 C 
BRANCH   5   6
ATOM      6  C   UNL     1      -8.615   5.708  51.398  1.00  0.00     0.000 C 
BRANCH   6   7
ATOM      7  C   UNL     1      -9.694   5.205  52.376  1.00  0.00     0.000 C 
BRANCH   7   8
ATOM      8  C   UNL     1      -9.772   6.018  53.687  1.00  0.00     0.000 C 
BRANCH   8   9
ATOM      9  C   UNL     1     -10.272   5.178  54.876  1.00  0.00     0.000 C 
BRANCH   9  10
ATOM     10  C   UNL     1      -9.986   3.679  54.703  1.00  0.00     0.000 C 
BRANCH  10  11
ATOM     11  C   UNL     1      -9.440   3.029  55.988  1.00  0.00     0.000 C 
BRANCH  11  12
ATOM     12  C   UNL     1      -8.763   1.675  55.727  1.00  0.00     0.000 C 
BRANCH  12  13
ATOM     13  C   UNL     1      -7.643   1.371  56.732  1.00  0.00     0.006 C 
BRANCH  13  14
ATOM     14  C   UNL     1      -7.780  -0.049  57.294  1.00  0.00     0.053 C 
BRANCH  14  15
ATOM     15  C   UNL     1      -8.408  -0.043  58.655  1.00  0.00     0.041 C 
ATOM     16  O   UNL     1      -7.700  -0.174  59.689  1.00  0.00    -0.550 OA
ATOM     17  O   UNL     1      -9.777   0.156  58.784  1.00  0.00    -0.550 OA
ENDBRANCH  14  15
ENDBRANCH  13  14
ENDBRANCH  12  13
ENDBRANCH  11  12
ENDBRANCH  10  11
ENDBRANCH   9  10
ENDBRANCH   8   9
ENDBRANCH   7   8
ENDBRANCH   6   7
ENDBRANCH   5   6
ENDBRANCH   4   5
ENDBRANCH   3   4
ENDBRANCH   2   3
ENDBRANCH   1   2
BRANCH   1  18
ATOM     18  C   UNL     1      -6.571   5.027  55.079  1.00  0.00     0.000 C 
BRANCH  18  19
ATOM     19  C   UNL     1      -6.326   5.401  56.552  1.00  0.00     0.000 C 
BRANCH  19  20
ATOM     20  C   UNL     1      -7.476   6.163  57.237  1.00  0.00     0.000 C 
BRANCH  20  21
ATOM     21  C   UNL     1      -7.485   5.993  58.765  1.00  0.00     0.000 C 
BRANCH  21  22
ATOM     22  C   UNL     1      -8.627   5.085  59.249  1.00  0.00     0.000 C 
BRANCH  22  23
ATOM     23  C   UNL     1      -8.153   3.655  59.548  1.00  0.00     0.000 C 
BRANCH  23  24
ATOM     24  C   UNL     1      -6.747   3.661  60.165  1.00  0.00    -0.000 C 
BRANCH  24  25
ATOM     25  C   UNL     1      -5.778   2.705  59.448  1.00  0.00    -0.000 C 
BRANCH  25  26
ATOM     26  C   UNL     1      -4.507   3.416  58.951  1.00  0.00    -0.000 C 
BRANCH  26  27
ATOM     27  C   UNL     1      -3.916   2.774  57.682  1.00  0.00    -0.000 C 
BRANCH  27  28
ATOM     28  C   UNL     1      -3.669   1.257  57.771  1.00  0.00    -0.000 C 
BRANCH  28  29
ATOM     29  C   UNL     1      -2.529   0.888  58.729  1.00  0.00    -0.000 C 
BRANCH  29  30
ATOM     30  C   UNL     1      -1.226   1.597  58.328  1.00  0.00    -0.000 C 
BRANCH  30  31
ATOM     31  C   UNL     1      -0.673   1.102  56.983  1.00  0.00    -0.003 C 
ATOM     32  C   UNL     1       0.724   1.645  56.681  1.00  0.00     0.004 C 
ENDBRANCH  30  31
ENDBRANCH  29  30
ENDBRANCH  28  29
ENDBRANCH  27  28
ENDBRANCH  26  27
ENDBRANCH  25  26
ENDBRANCH  24  25
ENDBRANCH  23  24
ENDBRANCH  22  23
ENDBRANCH  21  22
ENDBRANCH  20  21
ENDBRANCH  19  20
ENDBRANCH  18  19
ENDBRANCH   1  18
TORSDOF 28
ENDMDL
