MODEL 1
REMARK VINA RESULT:    -2.218      0.000      0.000
REMARK INTER + INTRA:          -3.243
REMARK INTER:                  -2.866
REMARK INTRA:                  -0.377
REMARK UNBOUND:                -0.377
REMARK SMILES C=CC(=O)CCCCC
REMARK SMILES IDX 6 1 7 2 8 3 9 4 5 5 3 6 4 7 2 8 1 9
REMARK H PARENT
REMARK Flexibility Score: inf
ROOT
ATOM      1  C   UNL     1     153.205 152.549 150.094  1.00  0.00     0.008 C 
ENDROOT
BRANCH   1   2
ATOM      2  C   UNL     1     153.221 153.138 151.510  1.00  0.00     0.000 C 
BRANCH   2   3
ATOM      3  C   UNL     1     154.638 153.565 151.911  1.00  0.00    -0.003 C 
ATOM      4  C   UNL     1     155.689 152.862 151.055  1.00  0.00     0.004 C 
ENDBRANCH   2   3
ENDBRANCH   1   2
BRANCH   1   5
ATOM      5  C   UNL     1     152.602 153.542 149.093  1.00  0.00     0.080 C 
BRANCH   5   6
ATOM      6  C   UNL     1     153.496 153.701 147.893  1.00  0.00     0.155 C 
ATOM      7  O   UNL     1     153.386 154.743 147.195  1.00  0.00    -0.295 OA
BRANCH   6   8
ATOM      8  C   UNL     1     154.520 152.705 147.509  1.00  0.00     0.039 C 
ATOM      9  C   UNL     1     154.426 151.912 146.441  1.00  0.00     0.012 C 
ENDBRANCH   6   8
ENDBRANCH   5   6
ENDBRANCH   1   5
TORSDOF 5
ENDMDL
MODEL 2
REMARK VINA RESULT:    -2.204     23.285     23.987
REMARK INTER + INTRA:          -3.226
REMARK INTER:                  -2.767
REMARK INTRA:                  -0.459
REMARK UNBOUND:                -0.377
REMARK SMILES C=CC(=O)CCCCC
REMARK SMILES IDX 6 1 7 2 8 3 9 4 5 5 3 6 4 7 2 8 1 9
REMARK H PARENT
REMARK Flexibility Score: inf
ROOT
ATOM      1  C   UNL     1     170.387 169.630 148.519  1.00  0.00     0.008 C 
ENDROOT
BRANCH   1   2
ATOM      2  C   UNL     1     171.410 170.565 149.174  1.00  0.00     0.000 C 
BRANCH   2   3
ATOM      3  C   UNL     1     170.759 171.405 150.279  1.00  0.00    -0.003 C 
ATOM      4  C   UNL     1     170.753 170.656 151.609  1.00  0.00     0.004 C 
ENDBRANCH   2   3
ENDBRANCH   1   2
BRANCH   1   5
ATOM      5  C   UNL     1     170.218 169.956 147.030  1.00  0.00     0.080 C 
BRANCH   5   6
ATOM      6  C   UNL     1     169.338 171.163 146.845  1.00  0.00     0.155 C 
ATOM      7  O   UNL     1     169.773 172.125 146.158  1.00  0.00    -0.295 OA
BRANCH   6   8
ATOM      8  C   UNL     1     167.971 171.263 147.403  1.00  0.00     0.039 C 
ATOM      9  C   UNL     1     167.617 172.122 148.359  1.00  0.00     0.012 C 
ENDBRANCH   6   8
ENDBRANCH   5   6
ENDBRANCH   1   5
TORSDOF 5
ENDMDL
MODEL 3
REMARK VINA RESULT:    -2.191     23.344     24.141
REMARK INTER + INTRA:          -3.209
REMARK INTER:                  -2.657
REMARK INTRA:                  -0.552
REMARK UNBOUND:                -0.377
REMARK SMILES C=CC(=O)CCCCC
REMARK SMILES IDX 6 1 7 2 8 3 9 4 5 5 3 6 4 7 2 8 1 9
REMARK H PARENT
REMARK Flexibility Score: inf
ROOT
ATOM      1  C   UNL     1     171.403 170.580 149.352  1.00  0.00     0.008 C 
ENDROOT
BRANCH   1   2
ATOM      2  C   UNL     1     170.946 169.834 150.612  1.00  0.00     0.000 C 
BRANCH   2   3
ATOM      3  C   UNL     1     170.893 170.777 151.819  1.00  0.00    -0.003 C 
ATOM      4  C   UNL     1     169.837 170.326 152.825  1.00  0.00     0.004 C 
ENDBRANCH   2   3
ENDBRANCH   1   2
BRANCH   1   5
ATOM      5  C   UNL     1     170.680 171.925 149.217  1.00  0.00     0.080 C 
BRANCH   5   6
ATOM      6  C   UNL     1     169.410 171.771 148.424  1.00  0.00     0.155 C 
ATOM      7  O   UNL     1     169.481 171.294 147.261  1.00  0.00    -0.295 OA
BRANCH   6   8
ATOM      8  C   UNL     1     168.075 172.125 148.955  1.00  0.00     0.039 C 
ATOM      9  C   UNL     1     167.653 171.811 150.181  1.00  0.00     0.012 C 
ENDBRANCH   6   8
ENDBRANCH   5   6
ENDBRANCH   1   5
TORSDOF 5
ENDMDL
MODEL 4
REMARK VINA RESULT:    -2.185     23.661     24.228
REMARK INTER + INTRA:          -3.201
REMARK INTER:                  -2.781
REMARK INTRA:                  -0.420
REMARK UNBOUND:                -0.377
REMARK SMILES C=CC(=O)CCCCC
REMARK SMILES IDX 6 1 7 2 8 3 9 4 5 5 3 6 4 7 2 8 1 9
REMARK H PARENT
REMARK Flexibility Score: inf
ROOT
ATOM      1  C   UNL     1     169.535 170.786 151.169  1.00  0.00     0.008 C 
ENDROOT
BRANCH   1   2
ATOM      2  C   UNL     1     169.784 170.487 152.653  1.00  0.00     0.000 C 
BRANCH   2   3
ATOM      3  C   UNL     1     171.261 170.165 152.907  1.00  0.00    -0.003 C 
ATOM      4  C   UNL     1     171.690 170.610 154.303  1.00  0.00     0.004 C 
ENDBRANCH   2   3
ENDBRANCH   1   2
BRANCH   1   5
ATOM      5  C   UNL     1     170.813 171.286 150.487  1.00  0.00     0.080 C 
BRANCH   5   6
ATOM      6  C   UNL     1     171.068 170.531 149.210  1.00  0.00     0.155 C 
ATOM      7  O   UNL     1     170.432 170.866 148.177  1.00  0.00    -0.295 OA
BRANCH   6   8
ATOM      8  C   UNL     1     172.053 169.433 149.101  1.00  0.00     0.039 C 
ATOM      9  C   UNL     1     171.985 168.298 149.798  1.00  0.00     0.012 C 
ENDBRANCH   6   8
ENDBRANCH   5   6
ENDBRANCH   1   5
TORSDOF 5
ENDMDL
MODEL 5
REMARK VINA RESULT:    -2.158     22.828     23.707
REMARK INTER + INTRA:          -3.166
REMARK INTER:                  -2.561
REMARK INTRA:                  -0.604
REMARK UNBOUND:                -0.377
REMARK SMILES C=CC(=O)CCCCC
REMARK SMILES IDX 6 1 7 2 8 3 9 4 5 5 3 6 4 7 2 8 1 9
REMARK H PARENT
REMARK Flexibility Score: inf
ROOT
ATOM      1  C   UNL     1     170.974 171.523 150.199  1.00  0.00     0.008 C 
ENDROOT
BRANCH   1   2
ATOM      2  C   UNL     1     170.632 170.822 151.519  1.00  0.00     0.000 C 
BRANCH   2   3
ATOM      3  C   UNL     1     169.114 170.704 151.700  1.00  0.00    -0.003 C 
ATOM      4  C   UNL     1     168.628 169.294 151.375  1.00  0.00     0.004 C 
ENDBRANCH   2   3
ENDBRANCH   1   2
BRANCH   1   5
ATOM      5  C   UNL     1     171.407 170.508 149.134  1.00  0.00     0.080 C 
BRANCH   5   6
ATOM      6  C   UNL     1     170.390 170.429 148.027  1.00  0.00     0.155 C 
ATOM      7  O   UNL     1     170.548 169.565 147.125  1.00  0.00    -0.295 OA
BRANCH   6   8
ATOM      8  C   UNL     1     169.194 171.298 147.962  1.00  0.00     0.039 C 
ATOM      9  C   UNL     1     167.940 170.845 147.994  1.00  0.00     0.012 C 
ENDBRANCH   6   8
ENDBRANCH   5   6
ENDBRANCH   1   5
TORSDOF 5
ENDMDL
MODEL 6
REMARK VINA RESULT:    -2.150      2.030      2.918
REMARK INTER + INTRA:          -3.156
REMARK INTER:                  -2.621
REMARK INTRA:                  -0.534
REMARK UNBOUND:                -0.377
REMARK SMILES C=CC(=O)CCCCC
REMARK SMILES IDX 6 1 7 2 8 3 9 4 5 5 3 6 4 7 2 8 1 9
REMARK H PARENT
REMARK Flexibility Score: inf
ROOT
ATOM      1  C   UNL     1     153.393 152.933 150.586  1.00  0.00     0.008 C 
ENDROOT
BRANCH   1   2
ATOM      2  C   UNL     1     153.286 154.375 150.075  1.00  0.00     0.000 C 
BRANCH   2   3
ATOM      3  C   UNL     1     152.283 154.475 148.920  1.00  0.00    -0.003 C 
ATOM      4  C   UNL     1     152.835 155.330 147.782  1.00  0.00     0.004 C 
ENDBRANCH   2   3
ENDBRANCH   1   2
BRANCH   1   5
ATOM      5  C   UNL     1     153.562 151.949 149.422  1.00  0.00     0.080 C 
BRANCH   5   6
ATOM      6  C   UNL     1     154.983 151.948 148.926  1.00  0.00     0.155 C 
ATOM      7  O   UNL     1     155.915 151.875 149.770  1.00  0.00    -0.295 OA
BRANCH   6   8
ATOM      8  C   UNL     1     155.340 151.998 147.491  1.00  0.00     0.039 C 
ATOM      9  C   UNL     1     154.458 151.877 146.499  1.00  0.00     0.012 C 
ENDBRANCH   6   8
ENDBRANCH   5   6
ENDBRANCH   1   5
TORSDOF 5
ENDMDL
MODEL 7
REMARK VINA RESULT:    -2.105      2.141      3.088
REMARK INTER + INTRA:          -3.097
REMARK INTER:                  -2.526
REMARK INTRA:                  -0.571
REMARK UNBOUND:                -0.377
REMARK SMILES C=CC(=O)CCCCC
REMARK SMILES IDX 6 1 7 2 8 3 9 4 5 5 3 6 4 7 2 8 1 9
REMARK H PARENT
REMARK Flexibility Score: inf
ROOT
ATOM      1  C   UNL     1     155.338 153.581 149.298  1.00  0.00     0.008 C 
ENDROOT
BRANCH   1   2
ATOM      2  C   UNL     1     154.538 152.620 150.185  1.00  0.00     0.000 C 
BRANCH   2   3
ATOM      3  C   UNL     1     153.111 152.442 149.654  1.00  0.00    -0.003 C 
ATOM      4  C   UNL     1     152.622 153.707 148.954  1.00  0.00     0.004 C 
ENDBRANCH   2   3
ENDBRANCH   1   2
BRANCH   1   5
ATOM      5  C   UNL     1     156.614 152.912 148.772  1.00  0.00     0.080 C 
BRANCH   5   6
ATOM      6  C   UNL     1     156.519 152.672 147.289  1.00  0.00     0.155 C 
ATOM      7  O   UNL     1     157.540 152.257 146.680  1.00  0.00    -0.295 OA
BRANCH   6   8
ATOM      8  C   UNL     1     155.274 152.871 146.514  1.00  0.00     0.039 C 
ATOM      9  C   UNL     1     154.504 151.875 146.073  1.00  0.00     0.012 C 
ENDBRANCH   6   8
ENDBRANCH   5   6
ENDBRANCH   1   5
TORSDOF 5
ENDMDL
MODEL 8
REMARK VINA RESULT:    -2.088      1.444      2.364
REMARK INTER + INTRA:          -3.075
REMARK INTER:                  -2.627
REMARK INTRA:                  -0.449
REMARK UNBOUND:                -0.377
REMARK SMILES C=CC(=O)CCCCC
REMARK SMILES IDX 6 1 7 2 8 3 9 4 5 5 3 6 4 7 2 8 1 9
REMARK H PARENT
REMARK Flexibility Score: inf
ROOT
ATOM      1  C   UNL     1     152.643 154.096 149.660  1.00  0.00     0.008 C 
ENDROOT
BRANCH   1   2
ATOM      2  C   UNL     1     153.048 154.548 151.068  1.00  0.00     0.000 C 
BRANCH   2   3
ATOM      3  C   UNL     1     153.002 153.376 152.055  1.00  0.00    -0.003 C 
ATOM      4  C   UNL     1     152.973 153.871 153.499  1.00  0.00     0.004 C 
ENDBRANCH   2   3
ENDBRANCH   1   2
BRANCH   1   5
ATOM      5  C   UNL     1     153.001 152.623 149.431  1.00  0.00     0.080 C 
BRANCH   5   6
ATOM      6  C   UNL     1     154.231 152.500 148.572  1.00  0.00     0.155 C 
ATOM      7  O   UNL     1     154.201 152.975 147.406  1.00  0.00    -0.295 OA
BRANCH   6   8
ATOM      8  C   UNL     1     155.488 151.875 149.041  1.00  0.00     0.039 C 
ATOM      9  C   UNL     1     156.148 152.257 150.135  1.00  0.00     0.012 C 
ENDBRANCH   6   8
ENDBRANCH   5   6
ENDBRANCH   1   5
TORSDOF 5
ENDMDL
MODEL 9
REMARK VINA RESULT:    -1.544      1.761      3.130
REMARK INTER + INTRA:          -2.373
REMARK INTER:                  -1.927
REMARK INTRA:                  -0.446
REMARK UNBOUND:                -0.377
REMARK SMILES C=CC(=O)CCCCC
REMARK SMILES IDX 6 1 7 2 8 3 9 4 5 5 3 6 4 7 2 8 1 9
REMARK H PARENT
REMARK Flexibility Score: inf
ROOT
ATOM      1  C   UNL     1     154.496 153.273 151.279  1.00  0.00     0.008 C 
ENDROOT
BRANCH   1   2
ATOM      2  C   UNL     1     154.104 153.811 152.661  1.00  0.00     0.000 C 
BRANCH   2   3
ATOM      3  C   UNL     1     152.625 153.538 152.957  1.00  0.00    -0.003 C 
ATOM      4  C   UNL     1     152.381 153.385 154.456  1.00  0.00     0.004 C 
ENDBRANCH   2   3
ENDBRANCH   1   2
BRANCH   1   5
ATOM      5  C   UNL     1     153.269 152.742 150.528  1.00  0.00     0.080 C 
BRANCH   5   6
ATOM      6  C   UNL     1     153.023 153.538 149.275  1.00  0.00     0.155 C 
ATOM      7  O   UNL     1     153.735 153.302 148.263  1.00  0.00    -0.295 OA
BRANCH   6   8
ATOM      8  C   UNL     1     151.964 154.565 149.162  1.00  0.00     0.039 C 
ATOM      9  C   UNL     1     151.875 155.635 149.953  1.00  0.00     0.012 C 
ENDBRANCH   6   8
ENDBRANCH   5   6
ENDBRANCH   1   5
TORSDOF 5
ENDMDL
