MODEL 1
REMARK VINA RESULT:    -3.523      0.000      0.000
REMARK INTER + INTRA:          -5.551
REMARK INTER:                  -4.758
REMARK INTRA:                  -0.793
REMARK UNBOUND:                -0.793
REMARK SMILES C=C[C@@](C)(CCC=C(C)C)OC(C)=O
REMARK SMILES IDX 3 1 4 2 5 3 6 4 7 5 9 6 8 7 10 8 2 9 1 10 11 11 12 12 14 13
REMARK SMILES IDX 13 14
REMARK H PARENT
REMARK Flexibility Score: inf
ROOT
ATOM      1  C   UNL     1      21.144  52.734  54.154  1.00  0.00     0.127 C 
ATOM      2  C   UNL     1      21.644  52.471  55.589  1.00  0.00     0.061 C 
ENDROOT
BRANCH   1   3
ATOM      3  C   UNL     1      21.665  54.102  53.615  1.00  0.00     0.057 C 
BRANCH   3   4
ATOM      4  C   UNL     1      21.054  54.588  52.287  1.00  0.00     0.032 C 
BRANCH   4   5
ATOM      5  C   UNL     1      22.133  54.784  51.252  1.00  0.00    -0.028 C 
ATOM      6  C   UNL     1      21.348  52.873  49.836  1.00  0.00     0.039 C 
ATOM      7  C   UNL     1      22.263  54.038  50.132  1.00  0.00    -0.080 C 
ATOM      8  C   UNL     1      23.367  54.379  49.165  1.00  0.00     0.039 C 
ENDBRANCH   4   5
ENDBRANCH   3   4
ENDBRANCH   1   3
BRANCH   1   9
ATOM      9  C   UNL     1      21.518  51.574  53.231  1.00  0.00     0.013 C 
ATOM     10  C   UNL     1      22.772  51.247  52.892  1.00  0.00     0.008 C 
ENDBRANCH   1   9
BRANCH   1  11
ATOM     11  O   UNL     1      19.711  52.798  54.257  1.00  0.00    -0.455 OA
BRANCH  11  12
ATOM     12  C   UNL     1      18.973  53.219  55.374  1.00  0.00     0.303 C 
ATOM     13  O   UNL     1      18.391  52.391  56.125  1.00  0.00    -0.253 OA
ATOM     14  C   UNL     1      18.846  54.677  55.656  1.00  0.00     0.139 C 
ENDBRANCH  11  12
ENDBRANCH   1  11
TORSDOF 6
ENDMDL
MODEL 2
REMARK VINA RESULT:    -3.458      2.873      5.766
REMARK INTER + INTRA:          -5.464
REMARK INTER:                  -4.506
REMARK INTRA:                  -0.958
REMARK UNBOUND:                -0.793
REMARK SMILES C=C[C@@](C)(CCC=C(C)C)OC(C)=O
REMARK SMILES IDX 3 1 4 2 5 3 6 4 7 5 9 6 8 7 10 8 2 9 1 10 11 11 12 12 14 13
REMARK SMILES IDX 13 14
REMARK H PARENT
REMARK Flexibility Score: inf
ROOT
ATOM      1  C   UNL     1      22.690  52.763  51.632  1.00  0.00     0.127 C 
ATOM      2  C   UNL     1      23.765  53.355  52.566  1.00  0.00     0.061 C 
ENDROOT
BRANCH   1   3
ATOM      3  C   UNL     1      22.178  51.387  52.160  1.00  0.00     0.057 C 
BRANCH   3   4
ATOM      4  C   UNL     1      22.416  51.099  53.653  1.00  0.00     0.032 C 
BRANCH   4   5
ATOM      5  C   UNL     1      21.126  51.225  54.426  1.00  0.00    -0.028 C 
ATOM      6  C   UNL     1      21.930  53.182  55.766  1.00  0.00     0.039 C 
ATOM      7  C   UNL     1      20.883  52.171  55.360  1.00  0.00    -0.080 C 
ATOM      8  C   UNL     1      19.529  52.199  56.019  1.00  0.00     0.039 C 
ENDBRANCH   4   5
ENDBRANCH   3   4
ENDBRANCH   1   3
BRANCH   1   9
ATOM      9  C   UNL     1      21.549  53.759  51.424  1.00  0.00     0.013 C 
ATOM     10  C   UNL     1      21.073  54.578  52.372  1.00  0.00     0.008 C 
ENDBRANCH   1   9
BRANCH   1  11
ATOM     11  O   UNL     1      23.354  52.552  50.374  1.00  0.00    -0.455 OA
BRANCH  11  12
ATOM     12  C   UNL     1      22.926  51.710  49.336  1.00  0.00     0.303 C 
ATOM     13  O   UNL     1      21.956  52.023  48.594  1.00  0.00    -0.253 OA
ATOM     14  C   UNL     1      23.611  50.402  49.130  1.00  0.00     0.139 C 
ENDBRANCH  11  12
ENDBRANCH   1  11
TORSDOF 6
ENDMDL
MODEL 3
REMARK VINA RESULT:    -3.456      2.504      5.277
REMARK INTER + INTRA:          -5.461
REMARK INTER:                  -4.983
REMARK INTRA:                  -0.477
REMARK UNBOUND:                -0.793
REMARK SMILES C=C[C@@](C)(CCC=C(C)C)OC(C)=O
REMARK SMILES IDX 3 1 4 2 5 3 6 4 7 5 9 6 8 7 10 8 2 9 1 10 11 11 12 12 14 13
REMARK SMILES IDX 13 14
REMARK H PARENT
REMARK Flexibility Score: inf
ROOT
ATOM      1  C   UNL     1      22.132  51.892  50.974  1.00  0.00     0.127 C 
ATOM      2  C   UNL     1      21.213  52.185  49.771  1.00  0.00     0.061 C 
ENDROOT
BRANCH   1   3
ATOM      3  C   UNL     1      21.303  51.561  52.253  1.00  0.00     0.057 C 
BRANCH   3   4
ATOM      4  C   UNL     1      21.702  52.310  53.537  1.00  0.00     0.032 C 
BRANCH   4   5
ATOM      5  C   UNL     1      20.575  52.275  54.539  1.00  0.00    -0.028 C 
ATOM      6  C   UNL     1      19.714  54.536  53.891  1.00  0.00     0.039 C 
ATOM      7  C   UNL     1      19.658  53.257  54.693  1.00  0.00    -0.080 C 
ATOM      8  C   UNL     1      18.562  53.063  55.707  1.00  0.00     0.039 C 
ENDBRANCH   4   5
ENDBRANCH   3   4
ENDBRANCH   1   3
BRANCH   1   9
ATOM      9  C   UNL     1      23.130  50.785  50.634  1.00  0.00     0.013 C 
ATOM     10  C   UNL     1      23.470  50.426  49.389  1.00  0.00     0.008 C 
ENDBRANCH   1   9
BRANCH   1  11
ATOM     11  O   UNL     1      22.858  53.112  51.204  1.00  0.00    -0.455 OA
BRANCH  11  12
ATOM     12  C   UNL     1      22.795  54.280  50.428  1.00  0.00     0.303 C 
ATOM     13  O   UNL     1      23.431  54.383  49.345  1.00  0.00    -0.253 OA
ATOM     14  C   UNL     1      21.986  55.434  50.913  1.00  0.00     0.139 C 
ENDBRANCH  11  12
ENDBRANCH   1  11
TORSDOF 6
ENDMDL
MODEL 4
REMARK VINA RESULT:    -3.447      1.727      2.246
REMARK INTER + INTRA:          -5.448
REMARK INTER:                  -4.940
REMARK INTRA:                  -0.508
REMARK UNBOUND:                -0.793
REMARK SMILES C=C[C@@](C)(CCC=C(C)C)OC(C)=O
REMARK SMILES IDX 3 1 4 2 5 3 6 4 7 5 9 6 8 7 10 8 2 9 1 10 11 11 12 12 14 13
REMARK SMILES IDX 13 14
REMARK H PARENT
REMARK Flexibility Score: inf
ROOT
ATOM      1  C   UNL     1      21.476  52.351  54.343  1.00  0.00     0.127 C 
ATOM      2  C   UNL     1      21.903  53.432  55.358  1.00  0.00     0.061 C 
ENDROOT
BRANCH   1   3
ATOM      3  C   UNL     1      21.980  52.693  52.907  1.00  0.00     0.057 C 
BRANCH   3   4
ATOM      4  C   UNL     1      21.289  51.949  51.748  1.00  0.00     0.032 C 
BRANCH   4   5
ATOM      5  C   UNL     1      22.287  51.105  50.996  1.00  0.00    -0.028 C 
ATOM      6  C   UNL     1      21.913  52.304  48.829  1.00  0.00     0.039 C 
ATOM      7  C   UNL     1      22.598  51.269  49.690  1.00  0.00    -0.080 C 
ATOM      8  C   UNL     1      23.648  50.375  49.084  1.00  0.00     0.039 C 
ENDBRANCH   4   5
ENDBRANCH   3   4
ENDBRANCH   1   3
BRANCH   1   9
ATOM      9  C   UNL     1      21.939  50.969  54.801  1.00  0.00     0.013 C 
ATOM     10  C   UNL     1      23.183  50.495  54.648  1.00  0.00     0.008 C 
ENDBRANCH   1   9
BRANCH   1  11
ATOM     11  O   UNL     1      20.038  52.379  54.341  1.00  0.00    -0.455 OA
BRANCH  11  12
ATOM     12  C   UNL     1      19.224  53.495  54.596  1.00  0.00     0.303 C 
ATOM     13  O   UNL     1      19.271  54.521  53.865  1.00  0.00    -0.253 OA
ATOM     14  C   UNL     1      18.313  53.478  55.774  1.00  0.00     0.139 C 
ENDBRANCH  11  12
ENDBRANCH   1  11
TORSDOF 6
ENDMDL
MODEL 5
REMARK VINA RESULT:    -3.387      1.437      2.398
REMARK INTER + INTRA:          -5.367
REMARK INTER:                  -4.553
REMARK INTRA:                  -0.814
REMARK UNBOUND:                -0.793
REMARK SMILES C=C[C@@](C)(CCC=C(C)C)OC(C)=O
REMARK SMILES IDX 3 1 4 2 5 3 6 4 7 5 9 6 8 7 10 8 2 9 1 10 11 11 12 12 14 13
REMARK SMILES IDX 13 14
REMARK H PARENT
REMARK Flexibility Score: inf
ROOT
ATOM      1  C   UNL     1      21.600  53.403  53.277  1.00  0.00     0.127 C 
ATOM      2  C   UNL     1      21.227  54.657  52.461  1.00  0.00     0.061 C 
ENDROOT
BRANCH   1   3
ATOM      3  C   UNL     1      20.958  52.119  52.668  1.00  0.00     0.057 C 
BRANCH   3   4
ATOM      4  C   UNL     1      21.813  51.350  51.643  1.00  0.00     0.032 C 
BRANCH   4   5
ATOM      5  C   UNL     1      21.414  51.725  50.238  1.00  0.00    -0.028 C 
ATOM      6  C   UNL     1      23.577  52.896  49.762  1.00  0.00     0.039 C 
ATOM      7  C   UNL     1      22.205  52.396  49.371  1.00  0.00    -0.080 C 
ATOM      8  C   UNL     1      21.686  52.662  47.982  1.00  0.00     0.039 C 
ENDBRANCH   4   5
ENDBRANCH   3   4
ENDBRANCH   1   3
BRANCH   1   9
ATOM      9  C   UNL     1      23.118  53.279  53.410  1.00  0.00     0.013 C 
ATOM     10  C   UNL     1      23.745  52.698  54.442  1.00  0.00     0.008 C 
ENDBRANCH   1   9
BRANCH   1  11
ATOM     11  O   UNL     1      21.038  53.619  54.583  1.00  0.00    -0.455 OA
BRANCH  11  12
ATOM     12  C   UNL     1      20.052  52.840  55.207  1.00  0.00     0.303 C 
ATOM     13  O   UNL     1      20.325  51.720  55.716  1.00  0.00    -0.253 OA
ATOM     14  C   UNL     1      18.645  53.332  55.236  1.00  0.00     0.139 C 
ENDBRANCH  11  12
ENDBRANCH   1  11
TORSDOF 6
ENDMDL
MODEL 6
REMARK VINA RESULT:    -3.358     12.295     14.204
REMARK INTER + INTRA:          -5.328
REMARK INTER:                  -4.604
REMARK INTRA:                  -0.724
REMARK UNBOUND:                -0.793
REMARK SMILES C=C[C@@](C)(CCC=C(C)C)OC(C)=O
REMARK SMILES IDX 3 1 4 2 5 3 6 4 7 5 9 6 8 7 10 8 2 9 1 10 11 11 12 12 14 13
REMARK SMILES IDX 13 14
REMARK H PARENT
REMARK Flexibility Score: inf
ROOT
ATOM      1  C   UNL     1      19.574  54.029  40.294  1.00  0.00     0.127 C 
ATOM      2  C   UNL     1      19.957  52.805  41.151  1.00  0.00     0.061 C 
ENDROOT
BRANCH   1   3
ATOM      3  C   UNL     1      18.953  53.593  38.931  1.00  0.00     0.057 C 
BRANCH   3   4
ATOM      4  C   UNL     1      19.823  53.825  37.682  1.00  0.00     0.032 C 
BRANCH   4   5
ATOM      5  C   UNL     1      19.955  52.549  36.888  1.00  0.00    -0.028 C 
ATOM      6  C   UNL     1      21.999  51.799  38.127  1.00  0.00     0.039 C 
ATOM      7  C   UNL     1      20.912  51.616  37.094  1.00  0.00    -0.080 C 
ATOM      8  C   UNL     1      20.892  50.368  36.250  1.00  0.00     0.039 C 
ENDBRANCH   4   5
ENDBRANCH   3   4
ENDBRANCH   1   3
BRANCH   1   9
ATOM      9  C   UNL     1      18.650  54.965  41.073  1.00  0.00     0.013 C 
ATOM     10  C   UNL     1      17.950  55.968  40.528  1.00  0.00     0.008 C 
ENDBRANCH   1   9
BRANCH   1  11
ATOM     11  O   UNL     1      20.812  54.713  40.034  1.00  0.00    -0.455 OA
BRANCH  11  12
ATOM     12  C   UNL     1      21.847  54.943  40.954  1.00  0.00     0.303 C 
ATOM     13  O   UNL     1      21.740  55.816  41.857  1.00  0.00    -0.253 OA
ATOM     14  C   UNL     1      23.112  54.164  40.838  1.00  0.00     0.139 C 
ENDBRANCH  11  12
ENDBRANCH   1  11
TORSDOF 6
ENDMDL
MODEL 7
REMARK VINA RESULT:    -3.331      2.584      5.143
REMARK INTER + INTRA:          -5.292
REMARK INTER:                  -4.431
REMARK INTRA:                  -0.861
REMARK UNBOUND:                -0.793
REMARK SMILES C=C[C@@](C)(CCC=C(C)C)OC(C)=O
REMARK SMILES IDX 3 1 4 2 5 3 6 4 7 5 9 6 8 7 10 8 2 9 1 10 11 11 12 12 14 13
REMARK SMILES IDX 13 14
REMARK H PARENT
REMARK Flexibility Score: inf
ROOT
ATOM      1  C   UNL     1      22.101  52.925  52.295  1.00  0.00     0.127 C 
ATOM      2  C   UNL     1      21.364  51.616  52.642  1.00  0.00     0.061 C 
ENDROOT
BRANCH   1   3
ATOM      3  C   UNL     1      21.111  54.127  52.210  1.00  0.00     0.057 C 
BRANCH   3   4
ATOM      4  C   UNL     1      20.869  54.904  53.518  1.00  0.00     0.032 C 
BRANCH   4   5
ATOM      5  C   UNL     1      19.569  54.476  54.152  1.00  0.00    -0.028 C 
ATOM      6  C   UNL     1      20.696  53.217  56.000  1.00  0.00     0.039 C 
ATOM      7  C   UNL     1      19.474  53.740  55.282  1.00  0.00    -0.080 C 
ATOM      8  C   UNL     1      18.104  53.426  55.822  1.00  0.00     0.039 C 
ENDBRANCH   4   5
ENDBRANCH   3   4
ENDBRANCH   1   3
BRANCH   1   9
ATOM      9  C   UNL     1      23.236  53.184  53.286  1.00  0.00     0.013 C 
ATOM     10  C   UNL     1      23.767  52.256  54.092  1.00  0.00     0.008 C 
ENDBRANCH   1   9
BRANCH   1  11
ATOM     11  O   UNL     1      22.668  52.707  50.991  1.00  0.00    -0.455 OA
BRANCH  11  12
ATOM     12  C   UNL     1      22.212  51.797  50.024  1.00  0.00     0.303 C 
ATOM     13  O   UNL     1      21.145  51.999  49.384  1.00  0.00    -0.253 OA
ATOM     14  C   UNL     1      22.988  50.550  49.775  1.00  0.00     0.139 C 
ENDBRANCH  11  12
ENDBRANCH   1  11
TORSDOF 6
ENDMDL
MODEL 8
REMARK VINA RESULT:    -3.225      1.972      3.168
REMARK INTER + INTRA:          -5.148
REMARK INTER:                  -4.556
REMARK INTRA:                  -0.592
REMARK UNBOUND:                -0.793
REMARK SMILES C=C[C@@](C)(CCC=C(C)C)OC(C)=O
REMARK SMILES IDX 3 1 4 2 5 3 6 4 7 5 9 6 8 7 10 8 2 9 1 10 11 11 12 12 14 13
REMARK SMILES IDX 13 14
REMARK H PARENT
REMARK Flexibility Score: inf
ROOT
ATOM      1  C   UNL     1      21.131  52.259  54.705  1.00  0.00     0.127 C 
ATOM      2  C   UNL     1      21.950  50.965  54.883  1.00  0.00     0.061 C 
ENDROOT
BRANCH   1   3
ATOM      3  C   UNL     1      20.758  52.492  53.208  1.00  0.00     0.057 C 
BRANCH   3   4
ATOM      4  C   UNL     1      21.514  51.634  52.177  1.00  0.00     0.032 C 
BRANCH   4   5
ATOM      5  C   UNL     1      21.436  52.264  50.809  1.00  0.00    -0.028 C 
ATOM      6  C   UNL     1      23.008  50.609  49.778  1.00  0.00     0.039 C 
ATOM      7  C   UNL     1      22.081  51.799  49.715  1.00  0.00    -0.080 C 
ATOM      8  C   UNL     1      21.872  52.509  48.403  1.00  0.00     0.039 C 
ENDBRANCH   4   5
ENDBRANCH   3   4
ENDBRANCH   1   3
BRANCH   1   9
ATOM      9  C   UNL     1      19.897  52.245  55.608  1.00  0.00     0.013 C 
ATOM     10  C   UNL     1      18.840  53.055  55.463  1.00  0.00     0.008 C 
ENDBRANCH   1   9
BRANCH   1  11
ATOM     11  O   UNL     1      22.002  53.322  55.129  1.00  0.00    -0.455 OA
BRANCH  11  12
ATOM     12  C   UNL     1      22.171  54.564  54.499  1.00  0.00     0.303 C 
ATOM     13  O   UNL     1      21.330  55.493  54.640  1.00  0.00    -0.253 OA
ATOM     14  C   UNL     1      23.352  54.778  53.616  1.00  0.00     0.139 C 
ENDBRANCH  11  12
ENDBRANCH   1  11
TORSDOF 6
ENDMDL
MODEL 9
REMARK VINA RESULT:    -3.204     11.904     14.336
REMARK INTER + INTRA:          -5.120
REMARK INTER:                  -4.332
REMARK INTRA:                  -0.789
REMARK UNBOUND:                -0.793
REMARK SMILES C=C[C@@](C)(CCC=C(C)C)OC(C)=O
REMARK SMILES IDX 3 1 4 2 5 3 6 4 7 5 9 6 8 7 10 8 2 9 1 10 11 11 12 12 14 13
REMARK SMILES IDX 13 14
REMARK H PARENT
REMARK Flexibility Score: inf
ROOT
ATOM      1  C   UNL     1      21.210  53.562  40.940  1.00  0.00     0.127 C 
ATOM      2  C   UNL     1      20.035  53.064  41.806  1.00  0.00     0.061 C 
ENDROOT
BRANCH   1   3
ATOM      3  C   UNL     1      20.710  54.475  39.778  1.00  0.00     0.057 C 
BRANCH   3   4
ATOM      4  C   UNL     1      19.210  54.390  39.442  1.00  0.00     0.032 C 
BRANCH   4   5
ATOM      5  C   UNL     1      18.981  53.433  38.298  1.00  0.00    -0.028 C 
ATOM      6  C   UNL     1      19.249  55.206  36.549  1.00  0.00     0.039 C 
ATOM      7  C   UNL     1      19.021  53.780  36.992  1.00  0.00    -0.080 C 
ATOM      8  C   UNL     1      18.815  52.705  35.956  1.00  0.00     0.039 C 
ENDBRANCH   4   5
ENDBRANCH   3   4
ENDBRANCH   1   3
BRANCH   1   9
ATOM      9  C   UNL     1      22.260  54.258  41.806  1.00  0.00     0.013 C 
ATOM     10  C   UNL     1      22.562  55.561  41.734  1.00  0.00     0.008 C 
ENDBRANCH   1   9
BRANCH   1  11
ATOM     11  O   UNL     1      21.792  52.377  40.371  1.00  0.00    -0.455 OA
BRANCH  11  12
ATOM     12  C   UNL     1      22.590  52.309  39.219  1.00  0.00     0.303 C 
ATOM     13  O   UNL     1      23.714  52.877  39.165  1.00  0.00    -0.253 OA
ATOM     14  C   UNL     1      22.082  51.580  38.023  1.00  0.00     0.139 C 
ENDBRANCH  11  12
ENDBRANCH   1  11
TORSDOF 6
ENDMDL
