MODEL 1
REMARK VINA RESULT:    -3.191      0.000      0.000
REMARK INTER + INTRA:          -6.129
REMARK INTER:                  -4.870
REMARK INTRA:                  -1.259
REMARK UNBOUND:                -1.259
REMARK SMILES OC[C@@H]1O[C@H](O[C@@]2(CO)O[C@@H](CO)[C@H](O)[C@H]2O)[C@H](O)[C@@H](O)[C@H]1O
REMARK SMILES IDX 6 1 5 2 3 3 22 4 4 5 20 6 18 7 2 8 1 9 23 11 21 13 19 15
REMARK SMILES IDX 7 17 16 18 10 19 14 20 11 21 8 22 9 23 17 25 15 27 12 29
REMARK SMILES IDX 13 30
REMARK H PARENT 1 10 23 12 21 14 19 16 9 24 17 26 15 28 13 31
REMARK Flexibility Score: inf
ROOT
ATOM      1  O   UNL     1      30.979  14.565  18.340  1.00  0.00    -0.313 OA
ENDROOT
BRANCH   1   2
ATOM      2  C   UNL     1      30.076  14.301  19.411  1.00  0.00     0.285 C 
ATOM      3  C   UNL     1      29.284  12.615  20.803  1.00  0.00     0.178 C 
ATOM      4  C   UNL     1      28.719  13.732  21.755  1.00  0.00     0.177 C 
ATOM      5  O   UNL     1      30.394  13.056  20.025  1.00  0.00    -0.341 OA
ATOM      6  C   UNL     1      29.724  14.894  21.886  1.00  0.00     0.179 C 
ATOM      7  C   UNL     1      30.204  15.415  20.493  1.00  0.00     0.202 C 
BRANCH   3   8
ATOM      8  C   UNL     1      29.683  11.375  21.624  1.00  0.00     0.191 C 
BRANCH   8   9
ATOM      9  O   UNL     1      31.024  11.493  22.024  1.00  0.00    -0.394 OA
ATOM     10  H   UNL     1      31.174  12.432  22.311  1.00  0.00     0.210 HD
ENDBRANCH   8   9
ENDBRANCH   3   8
BRANCH   4  11
ATOM     11  O   UNL     1      27.452  14.175  21.322  1.00  0.00    -0.387 OA
ATOM     12  H   UNL     1      27.397  14.098  20.335  1.00  0.00     0.211 HD
ENDBRANCH   4  11
BRANCH   6  13
ATOM     13  O   UNL     1      29.139  15.928  22.644  1.00  0.00    -0.387 OA
ATOM     14  H   UNL     1      29.108  16.728  22.052  1.00  0.00     0.211 HD
ENDBRANCH   6  13
BRANCH   7  15
ATOM     15  O   UNL     1      31.546  15.831  20.583  1.00  0.00    -0.385 OA
ATOM     16  H   UNL     1      32.093  15.019  20.750  1.00  0.00     0.211 HD
ENDBRANCH   7  15
ENDBRANCH   1   2
BRANCH   1  17
ATOM     17  C   UNL     1      30.371  14.877  17.069  1.00  0.00     0.224 C 
ATOM     18  C   UNL     1      30.812  16.272  16.569  1.00  0.00     0.208 C 
ATOM     19  O   UNL     1      28.973  14.970  17.291  1.00  0.00    -0.337 OA
ATOM     20  C   UNL     1      29.581  16.836  15.890  1.00  0.00     0.180 C 
ATOM     21  C   UNL     1      28.442  15.940  16.408  1.00  0.00     0.179 C 
BRANCH  17  22
ATOM     22  C   UNL     1      30.621  13.751  15.993  1.00  0.00     0.225 C 
BRANCH  22  23
ATOM     23  O   UNL     1      31.363  14.213  14.892  1.00  0.00    -0.391 OA
ATOM     24  H   UNL     1      32.019  14.880  15.245  1.00  0.00     0.210 HD
ENDBRANCH  22  23
ENDBRANCH  17  22
BRANCH  18  25
ATOM     25  O   UNL     1      31.127  17.125  17.650  1.00  0.00    -0.385 OA
ATOM     26  H   UNL     1      30.303  17.650  17.839  1.00  0.00     0.211 HD
ENDBRANCH  18  25
BRANCH  20  27
ATOM     27  O   UNL     1      29.721  16.729  14.496  1.00  0.00    -0.387 OA
ATOM     28  H   UNL     1      29.740  17.654  14.126  1.00  0.00     0.211 HD
ENDBRANCH  20  27
BRANCH  21  29
ATOM     29  C   UNL     1      27.334  16.735  17.113  1.00  0.00     0.191 C 
BRANCH  29  30
ATOM     30  O   UNL     1      27.583  16.785  18.497  1.00  0.00    -0.394 OA
ATOM     31  H   UNL     1      26.705  16.784  18.959  1.00  0.00     0.210 HD
ENDBRANCH  29  30
ENDBRANCH  21  29
ENDBRANCH   1  17
TORSDOF 13
ENDMDL
MODEL 2
REMARK VINA RESULT:    -3.149      1.981      5.711
REMARK INTER + INTRA:          -6.064
REMARK INTER:                  -5.034
REMARK INTRA:                  -1.031
REMARK UNBOUND:                -1.259
REMARK SMILES OC[C@@H]1O[C@H](O[C@@]2(CO)O[C@@H](CO)[C@H](O)[C@H]2O)[C@H](O)[C@@H](O)[C@H]1O
REMARK SMILES IDX 6 1 5 2 3 3 22 4 4 5 20 6 18 7 2 8 1 9 23 11 21 13 19 15
REMARK SMILES IDX 7 17 16 18 10 19 14 20 11 21 8 22 9 23 17 25 15 27 12 29
REMARK SMILES IDX 13 30
REMARK H PARENT 1 10 23 12 21 14 19 16 9 24 17 26 15 28 13 31
REMARK Flexibility Score: inf
ROOT
ATOM      1  O   UNL     1      30.503  12.627  20.333  1.00  0.00    -0.313 OA
ENDROOT
BRANCH   1   2
ATOM      2  C   UNL     1      30.498  14.023  20.044  1.00  0.00     0.285 C 
ATOM      3  C   UNL     1      31.673  15.999  20.399  1.00  0.00     0.178 C 
ATOM      4  C   UNL     1      30.868  16.635  19.206  1.00  0.00     0.177 C 
ATOM      5  O   UNL     1      31.783  14.581  20.302  1.00  0.00    -0.341 OA
ATOM      6  C   UNL     1      30.724  15.626  18.049  1.00  0.00     0.179 C 
ATOM      7  C   UNL     1      30.172  14.247  18.537  1.00  0.00     0.202 C 
BRANCH   3   8
ATOM      8  C   UNL     1      33.075  16.627  20.482  1.00  0.00     0.191 C 
BRANCH   8   9
ATOM      9  O   UNL     1      33.801  16.012  21.515  1.00  0.00    -0.394 OA
ATOM     10  H   UNL     1      34.754  16.277  21.417  1.00  0.00     0.210 HD
ENDBRANCH   8   9
ENDBRANCH   3   8
BRANCH   4  11
ATOM     11  O   UNL     1      29.619  17.124  19.640  1.00  0.00    -0.387 OA
ATOM     12  H   UNL     1      29.266  17.763  18.969  1.00  0.00     0.211 HD
ENDBRANCH   4  11
BRANCH   6  13
ATOM     13  O   UNL     1      29.897  16.182  17.051  1.00  0.00    -0.387 OA
ATOM     14  H   UNL     1      29.824  17.152  17.255  1.00  0.00     0.211 HD
ENDBRANCH   6  13
BRANCH   7  15
ATOM     15  O   UNL     1      30.747  13.213  17.773  1.00  0.00    -0.385 OA
ATOM     16  H   UNL     1      30.320  13.241  16.876  1.00  0.00     0.211 HD
ENDBRANCH   7  15
ENDBRANCH   1   2
BRANCH   1  17
ATOM     17  C   UNL     1      29.756  12.225  21.500  1.00  0.00     0.224 C 
ATOM     18  C   UNL     1      28.461  11.479  21.102  1.00  0.00     0.208 C 
ATOM     19  O   UNL     1      29.332  13.413  22.149  1.00  0.00    -0.337 OA
ATOM     20  C   UNL     1      27.440  11.919  22.131  1.00  0.00     0.180 C 
ATOM     21  C   UNL     1      28.079  13.169  22.761  1.00  0.00     0.179 C 
BRANCH  17  22
ATOM     22  C   UNL     1      30.633  11.398  22.518  1.00  0.00     0.225 C 
BRANCH  22  23
ATOM     23  O   UNL     1      30.332  10.025  22.496  1.00  0.00    -0.391 OA
ATOM     24  H   UNL     1      31.063   9.576  21.983  1.00  0.00     0.210 HD
ENDBRANCH  22  23
ENDBRANCH  17  22
BRANCH  18  25
ATOM     25  O   UNL     1      27.997  11.903  19.837  1.00  0.00    -0.385 OA
ATOM     26  H   UNL     1      28.663  11.577  19.174  1.00  0.00     0.211 HD
ENDBRANCH  18  25
BRANCH  20  27
ATOM     27  O   UNL     1      27.263  10.901  23.084  1.00  0.00    -0.387 OA
ATOM     28  H   UNL     1      26.286  10.827  23.264  1.00  0.00     0.211 HD
ENDBRANCH  20  27
BRANCH  21  29
ATOM     29  C   UNL     1      27.191  14.415  22.643  1.00  0.00     0.191 C 
BRANCH  29  30
ATOM     30  O   UNL     1      27.720  15.295  21.681  1.00  0.00    -0.394 OA
ATOM     31  H   UNL     1      27.034  15.989  21.500  1.00  0.00     0.210 HD
ENDBRANCH  29  30
ENDBRANCH  21  29
ENDBRANCH   1  17
TORSDOF 13
ENDMDL
MODEL 3
REMARK VINA RESULT:    -2.902      1.609      2.941
REMARK INTER + INTRA:          -5.687
REMARK INTER:                  -4.729
REMARK INTRA:                  -0.958
REMARK UNBOUND:                -1.259
REMARK SMILES OC[C@@H]1O[C@H](O[C@@]2(CO)O[C@@H](CO)[C@H](O)[C@H]2O)[C@H](O)[C@@H](O)[C@H]1O
REMARK SMILES IDX 6 1 5 2 3 3 22 4 4 5 20 6 18 7 2 8 1 9 23 11 21 13 19 15
REMARK SMILES IDX 7 17 16 18 10 19 14 20 11 21 8 22 9 23 17 25 15 27 12 29
REMARK SMILES IDX 13 30
REMARK H PARENT 1 10 23 12 21 14 19 16 9 24 17 26 15 28 13 31
REMARK Flexibility Score: inf
ROOT
ATOM      1  O   UNL     1      30.928  14.989  18.848  1.00  0.00    -0.313 OA
ENDROOT
BRANCH   1   2
ATOM      2  C   UNL     1      30.344  14.422  20.018  1.00  0.00     0.285 C 
ATOM      3  C   UNL     1      28.614  13.053  20.755  1.00  0.00     0.178 C 
ATOM      4  C   UNL     1      29.379  12.904  22.122  1.00  0.00     0.177 C 
ATOM      5  O   UNL     1      29.481  13.346  19.662  1.00  0.00    -0.341 OA
ATOM      6  C   UNL     1      30.893  12.742  21.882  1.00  0.00     0.179 C 
ATOM      7  C   UNL     1      31.462  13.854  20.942  1.00  0.00     0.202 C 
BRANCH   3   8
ATOM      8  C   UNL     1      27.815  11.771  20.457  1.00  0.00     0.191 C 
BRANCH   8   9
ATOM      9  O   UNL     1      28.081  10.814  21.450  1.00  0.00    -0.394 OA
ATOM     10  H   UNL     1      27.498  11.013  22.228  1.00  0.00     0.210 HD
ENDBRANCH   8   9
ENDBRANCH   3   8
BRANCH   4  11
ATOM     11  O   UNL     1      29.092  13.983  22.983  1.00  0.00    -0.387 OA
ATOM     12  H   UNL     1      29.802  14.670  22.896  1.00  0.00     0.211 HD
ENDBRANCH   4  11
BRANCH   6  13
ATOM     13  O   UNL     1      31.559  12.735  23.125  1.00  0.00    -0.387 OA
ATOM     14  H   UNL     1      32.533  12.705  22.922  1.00  0.00     0.211 HD
ENDBRANCH   6  13
BRANCH   7  15
ATOM     15  O   UNL     1      32.497  13.318  20.152  1.00  0.00    -0.385 OA
ATOM     16  H   UNL     1      32.093  12.615  19.579  1.00  0.00     0.211 HD
ENDBRANCH   7  15
ENDBRANCH   1   2
BRANCH   1  17
ATOM     17  C   UNL     1      30.053  15.803  18.041  1.00  0.00     0.224 C 
ATOM     18  C   UNL     1      29.346  14.956  16.958  1.00  0.00     0.208 C 
ATOM     19  O   UNL     1      30.874  16.721  17.337  1.00  0.00    -0.337 OA
ATOM     20  C   UNL     1      29.267  15.871  15.753  1.00  0.00     0.180 C 
ATOM     21  C   UNL     1      30.280  16.982  16.078  1.00  0.00     0.179 C 
BRANCH  17  22
ATOM     22  C   UNL     1      29.031  16.631  18.912  1.00  0.00     0.225 C 
BRANCH  22  23
ATOM     23  O   UNL     1      27.694  16.294  18.638  1.00  0.00    -0.391 OA
ATOM     24  H   UNL     1      27.219  16.252  19.517  1.00  0.00     0.210 HD
ENDBRANCH  22  23
ENDBRANCH  17  22
BRANCH  18  25
ATOM     25  O   UNL     1      30.131  13.840  16.591  1.00  0.00    -0.385 OA
ATOM     26  H   UNL     1      31.061  14.048  16.879  1.00  0.00     0.211 HD
ENDBRANCH  18  25
BRANCH  20  27
ATOM     27  O   UNL     1      27.964  16.386  15.637  1.00  0.00    -0.387 OA
ATOM     28  H   UNL     1      27.978  17.316  15.993  1.00  0.00     0.211 HD
ENDBRANCH  20  27
BRANCH  21  29
ATOM     29  C   UNL     1      31.371  17.125  15.008  1.00  0.00     0.191 C 
BRANCH  29  30
ATOM     30  O   UNL     1      31.152  16.199  13.971  1.00  0.00    -0.394 OA
ATOM     31  H   UNL     1      30.552  16.628  13.308  1.00  0.00     0.210 HD
ENDBRANCH  29  30
ENDBRANCH  21  29
ENDBRANCH   1  17
TORSDOF 13
ENDMDL
MODEL 4
REMARK VINA RESULT:    -2.676      1.634      3.529
REMARK INTER + INTRA:          -5.343
REMARK INTER:                  -4.488
REMARK INTRA:                  -0.855
REMARK UNBOUND:                -1.259
REMARK SMILES OC[C@@H]1O[C@H](O[C@@]2(CO)O[C@@H](CO)[C@H](O)[C@H]2O)[C@H](O)[C@@H](O)[C@H]1O
REMARK SMILES IDX 6 1 5 2 3 3 22 4 4 5 20 6 18 7 2 8 1 9 23 11 21 13 19 15
REMARK SMILES IDX 7 17 16 18 10 19 14 20 11 21 8 22 9 23 17 25 15 27 12 29
REMARK SMILES IDX 13 30
REMARK H PARENT 1 10 23 12 21 14 19 16 9 24 17 26 15 28 13 31
REMARK Flexibility Score: inf
ROOT
ATOM      1  O   UNL     1      28.635  14.409  18.645  1.00  0.00    -0.313 OA
ENDROOT
BRANCH   1   2
ATOM      2  C   UNL     1      29.081  14.404  20.000  1.00  0.00     0.285 C 
ATOM      3  C   UNL     1      28.755  15.420  22.066  1.00  0.00     0.178 C 
ATOM      4  C   UNL     1      29.514  14.210  22.726  1.00  0.00     0.177 C 
ATOM      5  O   UNL     1      28.138  15.080  20.826  1.00  0.00    -0.341 OA
ATOM      6  C   UNL     1      29.094  12.881  22.067  1.00  0.00     0.179 C 
ATOM      7  C   UNL     1      29.201  12.938  20.509  1.00  0.00     0.202 C 
BRANCH   3   8
ATOM      8  C   UNL     1      27.699  15.972  23.040  1.00  0.00     0.191 C 
BRANCH   8   9
ATOM      9  O   UNL     1      26.964  16.987  22.405  1.00  0.00    -0.394 OA
ATOM     10  H   UNL     1      26.000  16.810  22.565  1.00  0.00     0.210 HD
ENDBRANCH   8   9
ENDBRANCH   3   8
BRANCH   4  11
ATOM     11  O   UNL     1      30.910  14.403  22.683  1.00  0.00    -0.387 OA
ATOM     12  H   UNL     1      31.128  15.069  21.982  1.00  0.00     0.211 HD
ENDBRANCH   4  11
BRANCH   6  13
ATOM     13  O   UNL     1      29.879  11.835  22.595  1.00  0.00    -0.387 OA
ATOM     14  H   UNL     1      30.784  12.217  22.758  1.00  0.00     0.211 HD
ENDBRANCH   6  13
BRANCH   7  15
ATOM     15  O   UNL     1      28.178  12.156  19.939  1.00  0.00    -0.385 OA
ATOM     16  H   UNL     1      27.453  12.778  19.664  1.00  0.00     0.211 HD
ENDBRANCH   7  15
ENDBRANCH   1   2
BRANCH   1  17
ATOM     17  C   UNL     1      29.165  15.461  17.813  1.00  0.00     0.224 C 
ATOM     18  C   UNL     1      30.256  14.921  16.860  1.00  0.00     0.208 C 
ATOM     19  O   UNL     1      29.824  16.376  18.674  1.00  0.00    -0.337 OA
ATOM     20  C   UNL     1      31.274  16.040  16.777  1.00  0.00     0.180 C 
ATOM     21  C   UNL     1      30.924  16.934  17.979  1.00  0.00     0.179 C 
BRANCH  17  22
ATOM     22  C   UNL     1      28.033  16.244  17.042  1.00  0.00     0.225 C 
BRANCH  22  23
ATOM     23  O   UNL     1      27.987  15.916  15.676  1.00  0.00    -0.391 OA
ATOM     24  H   UNL     1      28.740  16.404  15.235  1.00  0.00     0.210 HD
ENDBRANCH  22  23
ENDBRANCH  17  22
BRANCH  18  25
ATOM     25  O   UNL     1      30.908  13.797  17.415  1.00  0.00    -0.385 OA
ATOM     26  H   UNL     1      31.668  14.154  17.951  1.00  0.00     0.211 HD
ENDBRANCH  18  25
BRANCH  20  27
ATOM     27  O   UNL     1      31.115  16.732  15.563  1.00  0.00    -0.387 OA
ATOM     28  H   UNL     1      32.020  17.017  15.261  1.00  0.00     0.211 HD
ENDBRANCH  20  27
BRANCH  21  29
ATOM     29  C   UNL     1      32.105  17.125  18.942  1.00  0.00     0.191 C 
BRANCH  29  30
ATOM     30  O   UNL     1      32.197  16.025  19.815  1.00  0.00    -0.394 OA
ATOM     31  H   UNL     1      32.975  15.480  19.529  1.00  0.00     0.210 HD
ENDBRANCH  29  30
ENDBRANCH  21  29
ENDBRANCH   1  17
TORSDOF 13
ENDMDL
MODEL 5
REMARK VINA RESULT:    -2.612      1.652      2.958
REMARK INTER + INTRA:          -5.246
REMARK INTER:                  -4.404
REMARK INTRA:                  -0.841
REMARK UNBOUND:                -1.259
REMARK SMILES OC[C@@H]1O[C@H](O[C@@]2(CO)O[C@@H](CO)[C@H](O)[C@H]2O)[C@H](O)[C@@H](O)[C@H]1O
REMARK SMILES IDX 6 1 5 2 3 3 22 4 4 5 20 6 18 7 2 8 1 9 23 11 21 13 19 15
REMARK SMILES IDX 7 17 16 18 10 19 14 20 11 21 8 22 9 23 17 25 15 27 12 29
REMARK SMILES IDX 13 30
REMARK H PARENT 1 10 23 12 21 14 19 16 9 24 17 26 15 28 13 31
REMARK Flexibility Score: inf
ROOT
ATOM      1  O   UNL     1      31.219  15.376  18.691  1.00  0.00    -0.313 OA
ENDROOT
BRANCH   1   2
ATOM      2  C   UNL     1      30.987  15.335  20.098  1.00  0.00     0.285 C 
ATOM      3  C   UNL     1      30.698  13.884  21.892  1.00  0.00     0.178 C 
ATOM      4  C   UNL     1      30.988  15.093  22.854  1.00  0.00     0.177 C 
ATOM      5  O   UNL     1      31.294  14.041  20.606  1.00  0.00    -0.341 OA
ATOM      6  C   UNL     1      32.140  15.960  22.306  1.00  0.00     0.179 C 
ATOM      7  C   UNL     1      31.912  16.363  20.814  1.00  0.00     0.202 C 
BRANCH   3   8
ATOM      8  C   UNL     1      31.183  12.572  22.535  1.00  0.00     0.191 C 
BRANCH   8   9
ATOM      9  O   UNL     1      30.998  11.513  21.630  1.00  0.00    -0.394 OA
ATOM     10  H   UNL     1      30.075  11.581  21.268  1.00  0.00     0.210 HD
ENDBRANCH   8   9
ENDBRANCH   3   8
BRANCH   4  11
ATOM     11  O   UNL     1      29.821  15.850  23.085  1.00  0.00    -0.387 OA
ATOM     12  H   UNL     1      30.059  16.810  23.146  1.00  0.00     0.211 HD
ENDBRANCH   4  11
BRANCH   6  13
ATOM     13  O   UNL     1      32.292  17.098  23.125  1.00  0.00    -0.387 OA
ATOM     14  H   UNL     1      31.615  17.016  23.849  1.00  0.00     0.211 HD
ENDBRANCH   6  13
BRANCH   7  15
ATOM     15  O   UNL     1      33.152  16.424  20.148  1.00  0.00    -0.385 OA
ATOM     16  H   UNL     1      33.688  17.131  20.594  1.00  0.00     0.211 HD
ENDBRANCH   7  15
ENDBRANCH   1   2
BRANCH   1  17
ATOM     17  C   UNL     1      30.172  15.976  17.900  1.00  0.00     0.224 C 
ATOM     18  C   UNL     1      29.464  14.919  17.022  1.00  0.00     0.208 C 
ATOM     19  O   UNL     1      30.798  16.872  16.996  1.00  0.00    -0.337 OA
ATOM     20  C   UNL     1      29.150  15.649  15.732  1.00  0.00     0.180 C 
ATOM     21  C   UNL     1      30.050  16.895  15.795  1.00  0.00     0.179 C 
BRANCH  17  22
ATOM     22  C   UNL     1      29.154  16.801  18.779  1.00  0.00     0.225 C 
BRANCH  22  23
ATOM     23  O   UNL     1      27.877  16.215  18.816  1.00  0.00    -0.391 OA
ATOM     24  H   UNL     1      28.008  15.244  19.014  1.00  0.00     0.210 HD
ENDBRANCH  22  23
ENDBRANCH  17  22
BRANCH  18  25
ATOM     25  O   UNL     1      30.335  13.853  16.703  1.00  0.00    -0.385 OA
ATOM     26  H   UNL     1      29.967  13.431  15.881  1.00  0.00     0.211 HD
ENDBRANCH  18  25
BRANCH  20  27
ATOM     27  O   UNL     1      27.789  16.002  15.710  1.00  0.00    -0.387 OA
ATOM     28  H   UNL     1      27.467  15.892  14.773  1.00  0.00     0.211 HD
ENDBRANCH  20  27
BRANCH  21  29
ATOM     29  C   UNL     1      30.997  17.006  14.593  1.00  0.00     0.191 C 
BRANCH  29  30
ATOM     30  O   UNL     1      31.074  15.771  13.924  1.00  0.00    -0.394 OA
ATOM     31  H   UNL     1      31.893  15.309  14.240  1.00  0.00     0.210 HD
ENDBRANCH  29  30
ENDBRANCH  21  29
ENDBRANCH   1  17
TORSDOF 13
ENDMDL
MODEL 6
REMARK VINA RESULT:    -2.520      1.598      2.976
REMARK INTER + INTRA:          -5.105
REMARK INTER:                  -4.863
REMARK INTRA:                  -0.241
REMARK UNBOUND:                -1.259
REMARK SMILES OC[C@@H]1O[C@H](O[C@@]2(CO)O[C@@H](CO)[C@H](O)[C@H]2O)[C@H](O)[C@@H](O)[C@H]1O
REMARK SMILES IDX 6 1 5 2 3 3 22 4 4 5 20 6 18 7 2 8 1 9 23 11 21 13 19 15
REMARK SMILES IDX 7 17 16 18 10 19 14 20 11 21 8 22 9 23 17 25 15 27 12 29
REMARK SMILES IDX 13 30
REMARK H PARENT 1 10 23 12 21 14 19 16 9 24 17 26 15 28 13 31
REMARK Flexibility Score: inf
ROOT
ATOM      1  O   UNL     1      29.160  14.305  19.057  1.00  0.00    -0.313 OA
ENDROOT
BRANCH   1   2
ATOM      2  C   UNL     1      30.124  14.078  20.083  1.00  0.00     0.285 C 
ATOM      3  C   UNL     1      31.174  15.079  21.901  1.00  0.00     0.178 C 
ATOM      4  C   UNL     1      31.619  13.646  22.371  1.00  0.00     0.177 C 
ATOM      5  O   UNL     1      29.991  15.061  21.105  1.00  0.00    -0.341 OA
ATOM      6  C   UNL     1      30.476  12.630  22.175  1.00  0.00     0.179 C 
ATOM      7  C   UNL     1      29.888  12.680  20.727  1.00  0.00     0.202 C 
BRANCH   3   8
ATOM      8  C   UNL     1      30.967  15.993  23.122  1.00  0.00     0.191 C 
BRANCH   8   9
ATOM      9  O   UNL     1      29.754  16.687  22.985  1.00  0.00    -0.394 OA
ATOM     10  H   UNL     1      29.155  16.141  22.411  1.00  0.00     0.210 HD
ENDBRANCH   8   9
ENDBRANCH   3   8
BRANCH   4  11
ATOM     11  O   UNL     1      32.803  13.242  21.719  1.00  0.00    -0.387 OA
ATOM     12  H   UNL     1      33.327  14.044  21.465  1.00  0.00     0.211 HD
ENDBRANCH   4  11
BRANCH   6  13
ATOM     13  O   UNL     1      30.946  11.338  22.489  1.00  0.00    -0.387 OA
ATOM     14  H   UNL     1      31.192  10.910  21.625  1.00  0.00     0.211 HD
ENDBRANCH   6  13
BRANCH   7  15
ATOM     15  O   UNL     1      28.506  12.411  20.772  1.00  0.00    -0.385 OA
ATOM     16  H   UNL     1      28.086  13.127  21.318  1.00  0.00     0.211 HD
ENDBRANCH   7  15
ENDBRANCH   1   2
BRANCH   1  17
ATOM     17  C   UNL     1      29.685  14.755  17.791  1.00  0.00     0.224 C 
ATOM     18  C   UNL     1      30.362  16.138  17.928  1.00  0.00     0.208 C 
ATOM     19  O   UNL     1      28.575  14.953  16.930  1.00  0.00    -0.337 OA
ATOM     20  C   UNL     1      30.031  16.851  16.634  1.00  0.00     0.180 C 
ATOM     21  C   UNL     1      28.871  16.023  16.053  1.00  0.00     0.179 C 
BRANCH  17  22
ATOM     22  C   UNL     1      30.636  13.688  17.123  1.00  0.00     0.225 C 
BRANCH  22  23
ATOM     23  O   UNL     1      30.613  13.750  15.719  1.00  0.00    -0.391 OA
ATOM     24  H   UNL     1      30.332  12.847  15.394  1.00  0.00     0.210 HD
ENDBRANCH  22  23
ENDBRANCH  17  22
BRANCH  18  25
ATOM     25  O   UNL     1      29.788  16.884  18.981  1.00  0.00    -0.385 OA
ATOM     26  H   UNL     1      29.030  16.339  19.327  1.00  0.00     0.211 HD
ENDBRANCH  18  25
BRANCH  20  27
ATOM     27  O   UNL     1      31.151  16.828  15.784  1.00  0.00    -0.387 OA
ATOM     28  H   UNL     1      31.805  16.184  16.169  1.00  0.00     0.211 HD
ENDBRANCH  20  27
BRANCH  21  29
ATOM     29  C   UNL     1      27.609  16.860  15.806  1.00  0.00     0.191 C 
BRANCH  29  30
ATOM     30  O   UNL     1      26.878  16.323  14.730  1.00  0.00    -0.394 OA
ATOM     31  H   UNL     1      26.070  15.887  15.105  1.00  0.00     0.210 HD
ENDBRANCH  29  30
ENDBRANCH  21  29
ENDBRANCH   1  17
TORSDOF 13
ENDMDL
MODEL 7
REMARK VINA RESULT:    -2.112      1.768      5.963
REMARK INTER + INTRA:          -4.482
REMARK INTER:                  -3.587
REMARK INTRA:                  -0.895
REMARK UNBOUND:                -1.259
REMARK SMILES OC[C@@H]1O[C@H](O[C@@]2(CO)O[C@@H](CO)[C@H](O)[C@H]2O)[C@H](O)[C@@H](O)[C@H]1O
REMARK SMILES IDX 6 1 5 2 3 3 22 4 4 5 20 6 18 7 2 8 1 9 23 11 21 13 19 15
REMARK SMILES IDX 7 17 16 18 10 19 14 20 11 21 8 22 9 23 17 25 15 27 12 29
REMARK SMILES IDX 13 30
REMARK H PARENT 1 10 23 12 21 14 19 16 9 24 17 26 15 28 13 31
REMARK Flexibility Score: inf
ROOT
ATOM      1  O   UNL     1      30.722  14.023  19.033  1.00  0.00    -0.313 OA
ENDROOT
BRANCH   1   2
ATOM      2  C   UNL     1      30.775  14.780  17.825  1.00  0.00     0.285 C 
ATOM      3  C   UNL     1      31.394  14.667  15.586  1.00  0.00     0.178 C 
ATOM      4  C   UNL     1      30.529  15.956  15.332  1.00  0.00     0.177 C 
ATOM      5  O   UNL     1      30.948  13.911  16.710  1.00  0.00    -0.341 OA
ATOM      6  C   UNL     1      29.205  15.886  16.119  1.00  0.00     0.179 C 
ATOM      7  C   UNL     1      29.436  15.551  17.628  1.00  0.00     0.202 C 
BRANCH   3   8
ATOM      8  C   UNL     1      31.397  13.780  14.329  1.00  0.00     0.191 C 
BRANCH   8   9
ATOM      9  O   UNL     1      31.527  14.587  13.188  1.00  0.00    -0.394 OA
ATOM     10  H   UNL     1      31.224  14.057  12.404  1.00  0.00     0.210 HD
ENDBRANCH   8   9
ENDBRANCH   3   8
BRANCH   4  11
ATOM     11  O   UNL     1      31.260  17.125  15.630  1.00  0.00    -0.387 OA
ATOM     12  H   UNL     1      31.354  17.211  16.613  1.00  0.00     0.211 HD
ENDBRANCH   4  11
BRANCH   6  13
ATOM     13  O   UNL     1      28.512  17.105  15.968  1.00  0.00    -0.387 OA
ATOM     14  H   UNL     1      29.201  17.801  15.794  1.00  0.00     0.211 HD
ENDBRANCH   6  13
BRANCH   7  15
ATOM     15  O   UNL     1      28.367  14.767  18.105  1.00  0.00    -0.385 OA
ATOM     16  H   UNL     1      28.764  14.000  18.597  1.00  0.00     0.211 HD
ENDBRANCH   7  15
ENDBRANCH   1   2
BRANCH   1  17
ATOM     17  C   UNL     1      31.093  14.731  20.234  1.00  0.00     0.224 C 
ATOM     18  C   UNL     1      31.988  13.856  21.141  1.00  0.00     0.208 C 
ATOM     19  O   UNL     1      29.900  14.953  20.968  1.00  0.00    -0.337 OA
ATOM     20  C   UNL     1      31.562  14.213  22.550  1.00  0.00     0.180 C 
ATOM     21  C   UNL     1      30.209  14.917  22.349  1.00  0.00     0.179 C 
BRANCH  17  22
ATOM     22  C   UNL     1      31.746  16.134  19.925  1.00  0.00     0.225 C 
BRANCH  22  23
ATOM     23  O   UNL     1      33.135  16.140  20.142  1.00  0.00    -0.391 OA
ATOM     24  H   UNL     1      33.564  15.876  19.279  1.00  0.00     0.210 HD
ENDBRANCH  22  23
ENDBRANCH  17  22
BRANCH  18  25
ATOM     25  O   UNL     1      31.718  12.482  20.952  1.00  0.00    -0.385 OA
ATOM     26  H   UNL     1      30.727  12.400  20.896  1.00  0.00     0.211 HD
ENDBRANCH  18  25
BRANCH  20  27
ATOM     27  O   UNL     1      32.509  15.079  23.124  1.00  0.00    -0.387 OA
ATOM     28  H   UNL     1      32.953  14.586  23.867  1.00  0.00     0.211 HD
ENDBRANCH  20  27
BRANCH  21  29
ATOM     29  C   UNL     1      29.066  14.243  23.121  1.00  0.00     0.191 C 
BRANCH  29  30
ATOM     30  O   UNL     1      29.040  12.865  22.836  1.00  0.00    -0.394 OA
ATOM     31  H   UNL     1      28.095  12.568  22.883  1.00  0.00     0.210 HD
ENDBRANCH  29  30
ENDBRANCH  21  29
ENDBRANCH   1  17
TORSDOF 13
ENDMDL
MODEL 8
REMARK VINA RESULT:    -0.655      1.766      5.954
REMARK INTER + INTRA:          -2.259
REMARK INTER:                  -1.658
REMARK INTRA:                  -0.601
REMARK UNBOUND:                -1.259
REMARK SMILES OC[C@@H]1O[C@H](O[C@@]2(CO)O[C@@H](CO)[C@H](O)[C@H]2O)[C@H](O)[C@@H](O)[C@H]1O
REMARK SMILES IDX 6 1 5 2 3 3 22 4 4 5 20 6 18 7 2 8 1 9 23 11 21 13 19 15
REMARK SMILES IDX 7 17 16 18 10 19 14 20 11 21 8 22 9 23 17 25 15 27 12 29
REMARK SMILES IDX 13 30
REMARK H PARENT 1 10 23 12 21 14 19 16 9 24 17 26 15 28 13 31
REMARK Flexibility Score: inf
ROOT
ATOM      1  O   UNL     1      29.070  13.298  18.690  1.00  0.00    -0.313 OA
ENDROOT
BRANCH   1   2
ATOM      2  C   UNL     1      29.518  14.458  17.993  1.00  0.00     0.285 C 
ATOM      3  C   UNL     1      30.748  16.416  18.240  1.00  0.00     0.178 C 
ATOM      4  C   UNL     1      30.823  16.510  16.671  1.00  0.00     0.177 C 
ATOM      5  O   UNL     1      30.580  15.081  18.710  1.00  0.00    -0.341 OA
ATOM      6  C   UNL     1      31.069  15.119  16.055  1.00  0.00     0.179 C 
ATOM      7  C   UNL     1      30.060  14.052  16.590  1.00  0.00     0.202 C 
BRANCH   3   8
ATOM      8  C   UNL     1      32.013  17.033  18.864  1.00  0.00     0.191 C 
BRANCH   8   9
ATOM      9  O   UNL     1      32.337  16.339  20.042  1.00  0.00    -0.394 OA
ATOM     10  H   UNL     1      33.152  16.758  20.426  1.00  0.00     0.210 HD
ENDBRANCH   8   9
ENDBRANCH   3   8
BRANCH   4  11
ATOM     11  O   UNL     1      29.668  17.125  16.144  1.00  0.00    -0.387 OA
ATOM     12  H   UNL     1      29.914  17.999  15.747  1.00  0.00     0.211 HD
ENDBRANCH   4  11
BRANCH   6  13
ATOM     13  O   UNL     1      31.008  15.218  14.650  1.00  0.00    -0.387 OA
ATOM     14  H   UNL     1      31.628  15.952  14.392  1.00  0.00     0.211 HD
ENDBRANCH   6  13
BRANCH   7  15
ATOM     15  O   UNL     1      30.701  12.801  16.678  1.00  0.00    -0.385 OA
ATOM     16  H   UNL     1      30.757  12.568  17.643  1.00  0.00     0.211 HD
ENDBRANCH   7  15
ENDBRANCH   1   2
BRANCH   1  17
ATOM     17  C   UNL     1      29.011  13.414  20.127  1.00  0.00     0.224 C 
ATOM     18  C   UNL     1      30.424  13.348  20.750  1.00  0.00     0.208 C 
ATOM     19  O   UNL     1      28.324  12.268  20.606  1.00  0.00    -0.337 OA
ATOM     20  C   UNL     1      30.231  12.589  22.047  1.00  0.00     0.180 C 
ATOM     21  C   UNL     1      28.854  11.923  21.872  1.00  0.00     0.179 C 
BRANCH  17  22
ATOM     22  C   UNL     1      28.212  14.692  20.593  1.00  0.00     0.225 C 
BRANCH  22  23
ATOM     23  O   UNL     1      29.033  15.634  21.237  1.00  0.00    -0.391 OA
ATOM     24  H   UNL     1      29.800  15.818  20.623  1.00  0.00     0.210 HD
ENDBRANCH  22  23
ENDBRANCH  17  22
BRANCH  18  25
ATOM     25  O   UNL     1      31.302  12.590  19.943  1.00  0.00    -0.385 OA
ATOM     26  H   UNL     1      31.635  11.848  20.517  1.00  0.00     0.211 HD
ENDBRANCH  18  25
BRANCH  20  27
ATOM     27  O   UNL     1      30.229  13.491  23.125  1.00  0.00    -0.387 OA
ATOM     28  H   UNL     1      30.419  12.968  23.952  1.00  0.00     0.211 HD
ENDBRANCH  20  27
BRANCH  21  29
ATOM     29  C   UNL     1      28.909  10.396  22.016  1.00  0.00     0.191 C 
BRANCH  29  30
ATOM     30  O   UNL     1      30.247   9.959  21.999  1.00  0.00    -0.394 OA
ATOM     31  H   UNL     1      30.720  10.470  21.294  1.00  0.00     0.210 HD
ENDBRANCH  29  30
ENDBRANCH  21  29
ENDBRANCH   1  17
TORSDOF 13
ENDMDL
