MODEL 1
REMARK VINA RESULT:    -3.727      0.000      0.000
REMARK INTER + INTRA:          -4.707
REMARK INTER:                  -4.599
REMARK INTRA:                  -0.109
REMARK UNBOUND:                -0.109
REMARK SMILES CCCCCC(=O)[O-]
REMARK SMILES IDX 4 1 5 2 6 3 7 4 8 5 3 6 2 7 1 8
REMARK H PARENT
REMARK Flexibility Score: inf
ROOT
ATOM      1  C   UNL     1      74.302 -37.331  10.373  1.00  0.00     0.006 C 
ENDROOT
BRANCH   1   2
ATOM      2  C   UNL     1      75.099 -37.913  11.548  1.00  0.00     0.053 C 
BRANCH   2   3
ATOM      3  C   UNL     1      76.453 -37.279  11.625  1.00  0.00     0.041 C 
ATOM      4  O   UNL     1      77.463 -37.974  11.913  1.00  0.00    -0.550 OA
ATOM      5  O   UNL     1      76.606 -35.930  11.332  1.00  0.00    -0.550 OA
ENDBRANCH   2   3
ENDBRANCH   1   2
BRANCH   1   6
ATOM      6  C   UNL     1      72.799 -37.228  10.673  1.00  0.00     0.000 C 
BRANCH   6   7
ATOM      7  C   UNL     1      72.358 -38.159  11.810  1.00  0.00    -0.003 C 
ATOM      8  C   UNL     1      70.880 -38.521  11.682  1.00  0.00     0.004 C 
ENDBRANCH   6   7
ENDBRANCH   1   6
TORSDOF 4
ENDMDL
MODEL 2
REMARK VINA RESULT:    -3.519     14.059     15.219
REMARK INTER + INTRA:          -4.450
REMARK INTER:                  -4.306
REMARK INTRA:                  -0.144
REMARK UNBOUND:                -0.109
REMARK SMILES CCCCCC(=O)[O-]
REMARK SMILES IDX 4 1 5 2 6 3 7 4 8 5 3 6 2 7 1 8
REMARK H PARENT
REMARK Flexibility Score: inf
ROOT
ATOM      1  C   UNL     1      63.268 -28.901  14.968  1.00  0.00     0.006 C 
ENDROOT
BRANCH   1   2
ATOM      2  C   UNL     1      63.059 -29.913  13.833  1.00  0.00     0.053 C 
BRANCH   2   3
ATOM      3  C   UNL     1      62.417 -31.159  14.357  1.00  0.00     0.041 C 
ATOM      4  O   UNL     1      62.313 -32.176  13.621  1.00  0.00    -0.550 OA
ATOM      5  O   UNL     1      61.977 -31.214  15.673  1.00  0.00    -0.550 OA
ENDBRANCH   2   3
ENDBRANCH   1   2
BRANCH   1   6
ATOM      6  C   UNL     1      62.577 -27.556  14.695  1.00  0.00     0.000 C 
BRANCH   6   7
ATOM      7  C   UNL     1      62.201 -27.374  13.218  1.00  0.00    -0.003 C 
ATOM      8  C   UNL     1      62.624 -25.999  12.709  1.00  0.00     0.004 C 
ENDBRANCH   6   7
ENDBRANCH   1   6
TORSDOF 4
ENDMDL
MODEL 3
REMARK VINA RESULT:    -3.473      0.980      1.698
REMARK INTER + INTRA:          -4.394
REMARK INTER:                  -4.335
REMARK INTRA:                  -0.058
REMARK UNBOUND:                -0.109
REMARK SMILES CCCCCC(=O)[O-]
REMARK SMILES IDX 4 1 5 2 6 3 7 4 8 5 3 6 2 7 1 8
REMARK H PARENT
REMARK Flexibility Score: inf
ROOT
ATOM      1  C   UNL     1      73.191 -37.088  10.911  1.00  0.00     0.006 C 
ENDROOT
BRANCH   1   2
ATOM      2  C   UNL     1      74.559 -37.486  10.343  1.00  0.00     0.053 C 
BRANCH   2   3
ATOM      3  C   UNL     1      75.631 -37.272  11.365  1.00  0.00     0.041 C 
ATOM      4  O   UNL     1      76.344 -36.235  11.328  1.00  0.00    -0.550 OA
ATOM      5  O   UNL     1      75.809 -38.194  12.388  1.00  0.00    -0.550 OA
ENDBRANCH   2   3
ENDBRANCH   1   2
BRANCH   1   6
ATOM      6  C   UNL     1      72.551 -38.206  11.749  1.00  0.00     0.000 C 
BRANCH   6   7
ATOM      7  C   UNL     1      71.127 -38.548  11.289  1.00  0.00    -0.003 C 
ATOM      8  C   UNL     1      70.702 -37.667  10.118  1.00  0.00     0.004 C 
ENDBRANCH   6   7
ENDBRANCH   1   6
TORSDOF 4
ENDMDL
MODEL 4
REMARK VINA RESULT:    -3.426      3.469      4.915
REMARK INTER + INTRA:          -4.335
REMARK INTER:                  -4.254
REMARK INTRA:                  -0.081
REMARK UNBOUND:                -0.109
REMARK SMILES CCCCCC(=O)[O-]
REMARK SMILES IDX 4 1 5 2 6 3 7 4 8 5 3 6 2 7 1 8
REMARK H PARENT
REMARK Flexibility Score: inf
ROOT
ATOM      1  C   UNL     1      72.861 -37.064  10.903  1.00  0.00     0.006 C 
ENDROOT
BRANCH   1   2
ATOM      2  C   UNL     1      72.355 -38.194  11.810  1.00  0.00     0.053 C 
BRANCH   2   3
ATOM      3  C   UNL     1      71.030 -38.696  11.329  1.00  0.00     0.041 C 
ATOM      4  O   UNL     1      70.124 -37.883  11.007  1.00  0.00    -0.550 OA
ATOM      5  O   UNL     1      70.813 -40.061  11.190  1.00  0.00    -0.550 OA
ENDBRANCH   2   3
ENDBRANCH   1   2
BRANCH   1   6
ATOM      6  C   UNL     1      74.240 -37.365  10.297  1.00  0.00     0.000 C 
BRANCH   6   7
ATOM      7  C   UNL     1      75.324 -37.567  11.366  1.00  0.00    -0.003 C 
ATOM      8  C   UNL     1      76.398 -36.486  11.270  1.00  0.00     0.004 C 
ENDBRANCH   6   7
ENDBRANCH   1   6
TORSDOF 4
ENDMDL
MODEL 5
REMARK VINA RESULT:    -3.283     11.342     11.791
REMARK INTER + INTRA:          -4.159
REMARK INTER:                  -3.923
REMARK INTRA:                  -0.236
REMARK UNBOUND:                -0.109
REMARK SMILES CCCCCC(=O)[O-]
REMARK SMILES IDX 4 1 5 2 6 3 7 4 8 5 3 6 2 7 1 8
REMARK H PARENT
REMARK Flexibility Score: inf
ROOT
ATOM      1  C   UNL     1      75.041 -33.683  22.597  1.00  0.00     0.006 C 
ENDROOT
BRANCH   1   2
ATOM      2  C   UNL     1      74.333 -32.763  21.595  1.00  0.00     0.053 C 
BRANCH   2   3
ATOM      3  C   UNL     1      72.852 -32.811  21.798  1.00  0.00     0.041 C 
ATOM      4  O   UNL     1      72.368 -32.737  22.958  1.00  0.00    -0.550 OA
ATOM      5  O   UNL     1      72.002 -32.890  20.701  1.00  0.00    -0.550 OA
ENDBRANCH   2   3
ENDBRANCH   1   2
BRANCH   1   6
ATOM      6  C   UNL     1      75.035 -35.155  22.155  1.00  0.00     0.000 C 
BRANCH   6   7
ATOM      7  C   UNL     1      74.073 -36.017  22.985  1.00  0.00    -0.003 C 
ATOM      8  C   UNL     1      72.909 -36.516  22.133  1.00  0.00     0.004 C 
ENDBRANCH   6   7
ENDBRANCH   1   6
TORSDOF 4
ENDMDL
MODEL 6
REMARK VINA RESULT:    -3.249      6.377      6.920
REMARK INTER + INTRA:          -4.117
REMARK INTER:                  -3.882
REMARK INTRA:                  -0.234
REMARK UNBOUND:                -0.109
REMARK SMILES CCCCCC(=O)[O-]
REMARK SMILES IDX 4 1 5 2 6 3 7 4 8 5 3 6 2 7 1 8
REMARK H PARENT
REMARK Flexibility Score: inf
ROOT
ATOM      1  C   UNL     1      71.187 -32.890   6.955  1.00  0.00     0.006 C 
ENDROOT
BRANCH   1   2
ATOM      2  C   UNL     1      72.123 -33.066   5.752  1.00  0.00     0.053 C 
BRANCH   2   3
ATOM      3  C   UNL     1      73.041 -34.227   5.970  1.00  0.00     0.041 C 
ATOM      4  O   UNL     1      72.887 -34.977   6.970  1.00  0.00    -0.550 OA
ATOM      5  O   UNL     1      74.036 -34.511   5.044  1.00  0.00    -0.550 OA
ENDBRANCH   2   3
ENDBRANCH   1   2
BRANCH   1   6
ATOM      6  C   UNL     1      69.722 -33.204   6.615  1.00  0.00     0.000 C 
BRANCH   6   7
ATOM      7  C   UNL     1      69.171 -34.390   7.418  1.00  0.00    -0.003 C 
ATOM      8  C   UNL     1      69.439 -35.711   6.701  1.00  0.00     0.004 C 
ENDBRANCH   6   7
ENDBRANCH   1   6
TORSDOF 4
ENDMDL
MODEL 7
REMARK VINA RESULT:    -3.206     14.934     15.805
REMARK INTER + INTRA:          -4.064
REMARK INTER:                  -3.989
REMARK INTRA:                  -0.075
REMARK UNBOUND:                -0.109
REMARK SMILES CCCCCC(=O)[O-]
REMARK SMILES IDX 4 1 5 2 6 3 7 4 8 5 3 6 2 7 1 8
REMARK H PARENT
REMARK Flexibility Score: inf
ROOT
ATOM      1  C   UNL     1      63.072 -29.317  14.959  1.00  0.00     0.006 C 
ENDROOT
BRANCH   1   2
ATOM      2  C   UNL     1      62.148 -28.975  16.135  1.00  0.00     0.053 C 
BRANCH   2   3
ATOM      3  C   UNL     1      62.239 -30.030  17.193  1.00  0.00     0.041 C 
ATOM      4  O   UNL     1      62.623 -29.731  18.355  1.00  0.00    -0.550 OA
ATOM      5  O   UNL     1      61.853 -31.334  16.910  1.00  0.00    -0.550 OA
ENDBRANCH   2   3
ENDBRANCH   1   2
BRANCH   1   6
ATOM      6  C   UNL     1      62.795 -28.452  13.719  1.00  0.00     0.000 C 
BRANCH   6   7
ATOM      7  C   UNL     1      62.764 -26.952  14.040  1.00  0.00    -0.003 C 
ATOM      8  C   UNL     1      62.551 -26.123  12.776  1.00  0.00     0.004 C 
ENDBRANCH   6   7
ENDBRANCH   1   6
TORSDOF 4
ENDMDL
MODEL 8
REMARK VINA RESULT:    -3.200      5.101      5.927
REMARK INTER + INTRA:          -4.057
REMARK INTER:                  -3.852
REMARK INTRA:                  -0.205
REMARK UNBOUND:                -0.109
REMARK SMILES CCCCCC(=O)[O-]
REMARK SMILES IDX 4 1 5 2 6 3 7 4 8 5 3 6 2 7 1 8
REMARK H PARENT
REMARK Flexibility Score: inf
ROOT
ATOM      1  C   UNL     1      72.335 -33.844   6.747  1.00  0.00     0.006 C 
ENDROOT
BRANCH   1   2
ATOM      2  C   UNL     1      72.908 -35.257   6.581  1.00  0.00     0.053 C 
BRANCH   2   3
ATOM      3  C   UNL     1      73.033 -35.930   7.912  1.00  0.00     0.041 C 
ATOM      4  O   UNL     1      72.018 -36.081   8.643  1.00  0.00    -0.550 OA
ATOM      5  O   UNL     1      74.260 -36.435   8.324  1.00  0.00    -0.550 OA
ENDBRANCH   2   3
ENDBRANCH   1   2
BRANCH   1   6
ATOM      6  C   UNL     1      71.006 -33.653   6.001  1.00  0.00     0.000 C 
BRANCH   6   7
ATOM      7  C   UNL     1      69.848 -33.288   6.941  1.00  0.00    -0.003 C 
ATOM      8  C   UNL     1      69.073 -34.532   7.367  1.00  0.00     0.004 C 
ENDBRANCH   6   7
ENDBRANCH   1   6
TORSDOF 4
ENDMDL
MODEL 9
REMARK VINA RESULT:    -3.118     15.031     16.152
REMARK INTER + INTRA:          -3.956
REMARK INTER:                  -3.744
REMARK INTRA:                  -0.212
REMARK UNBOUND:                -0.109
REMARK SMILES CCCCCC(=O)[O-]
REMARK SMILES IDX 4 1 5 2 6 3 7 4 8 5 3 6 2 7 1 8
REMARK H PARENT
REMARK Flexibility Score: inf
ROOT
ATOM      1  C   UNL     1      61.008 -28.204  15.446  1.00  0.00     0.006 C 
ENDROOT
BRANCH   1   2
ATOM      2  C   UNL     1      61.824 -26.988  14.989  1.00  0.00     0.053 C 
BRANCH   2   3
ATOM      3  C   UNL     1      62.450 -27.249  13.655  1.00  0.00     0.041 C 
ATOM      4  O   UNL     1      62.737 -28.426  13.310  1.00  0.00    -0.550 OA
ATOM      5  O   UNL     1      62.670 -26.199  12.773  1.00  0.00    -0.550 OA
ENDBRANCH   2   3
ENDBRANCH   1   2
BRANCH   1   6
ATOM      6  C   UNL     1      61.372 -28.660  16.868  1.00  0.00     0.000 C 
BRANCH   6   7
ATOM      7  C   UNL     1      62.342 -29.849  16.877  1.00  0.00    -0.003 C 
ATOM      8  C   UNL     1      61.990 -30.854  15.783  1.00  0.00     0.004 C 
ENDBRANCH   6   7
ENDBRANCH   1   6
TORSDOF 4
ENDMDL
