MODEL 1
REMARK VINA RESULT:    -4.662      0.000      0.000
REMARK INTER + INTRA:          -5.115
REMARK INTER:                  -5.071
REMARK INTRA:                  -0.043
REMARK UNBOUND:                -0.043
REMARK SMILES COc1cc2ccc(=O)oc2cc1O
REMARK SMILES IDX 3 1 13 2 12 3 11 4 5 5 4 6 6 7 7 8 8 9 9 10 10 11 2 12 1 13
REMARK SMILES IDX 14 14
REMARK H PARENT 14 15
REMARK Flexibility Score: inf
ROOT
ATOM      1  C   UNL     1     -43.051 -35.760 -19.478  1.00  0.00     0.161 A 
ATOM      2  C   UNL     1     -42.148 -34.774 -19.919  1.00  0.00     0.161 A 
ATOM      3  C   UNL     1     -40.912 -35.141 -20.465  1.00  0.00     0.098 A 
ATOM      4  C   UNL     1     -40.562 -36.489 -20.578  1.00  0.00     0.142 A 
ATOM      5  C   UNL     1     -41.460 -37.485 -20.139  1.00  0.00     0.022 A 
ATOM      6  C   UNL     1     -42.698 -37.120 -19.592  1.00  0.00     0.062 A 
ATOM      7  C   UNL     1     -41.081 -38.825 -20.264  1.00  0.00     0.019 A 
ATOM      8  C   UNL     1     -39.839 -39.137 -20.816  1.00  0.00     0.094 A 
ATOM      9  C   UNL     1     -39.001 -38.096 -21.229  1.00  0.00     0.336 A 
ATOM     10  O   UNL     1     -37.875 -38.357 -21.730  1.00  0.00    -0.246 OA
ATOM     11  O   UNL     1     -39.386 -36.830 -21.098  1.00  0.00    -0.423 OA
ENDROOT
BRANCH   1  12
ATOM     12  O   UNL     1     -44.281 -35.356 -18.936  1.00  0.00    -0.493 OA
ATOM     13  C   UNL     1     -45.347 -36.240 -18.601  1.00  0.00     0.278 C 
ENDBRANCH   1  12
BRANCH   2  14
ATOM     14  O   UNL     1     -42.460 -33.418 -19.824  1.00  0.00    -0.504 OA
ATOM     15  H   UNL     1     -42.851 -32.898 -20.600  1.00  0.00     0.293 HD
ENDBRANCH   2  14
TORSDOF 2
ENDMDL
MODEL 2
REMARK VINA RESULT:    -4.459      1.989      4.656
REMARK INTER + INTRA:          -4.894
REMARK INTER:                  -4.846
REMARK INTRA:                  -0.048
REMARK UNBOUND:                -0.043
REMARK SMILES COc1cc2ccc(=O)oc2cc1O
REMARK SMILES IDX 3 1 13 2 12 3 11 4 5 5 4 6 6 7 7 8 8 9 9 10 10 11 2 12 1 13
REMARK SMILES IDX 14 14
REMARK H PARENT 14 15
REMARK Flexibility Score: inf
ROOT
ATOM      1  C   UNL     1     -41.548 -35.545 -20.002  1.00  0.00     0.161 A 
ATOM      2  C   UNL     1     -42.590 -34.629 -19.759  1.00  0.00     0.161 A 
ATOM      3  C   UNL     1     -43.858 -35.086 -19.380  1.00  0.00     0.098 A 
ATOM      4  C   UNL     1     -44.103 -36.453 -19.240  1.00  0.00     0.142 A 
ATOM      5  C   UNL     1     -43.067 -37.379 -19.482  1.00  0.00     0.022 A 
ATOM      6  C   UNL     1     -41.796 -36.925 -19.861  1.00  0.00     0.062 A 
ATOM      7  C   UNL     1     -43.344 -38.742 -19.334  1.00  0.00     0.019 A 
ATOM      8  C   UNL     1     -44.624 -39.144 -18.954  1.00  0.00     0.094 A 
ATOM      9  C   UNL     1     -45.602 -38.169 -18.732  1.00  0.00     0.336 A 
ATOM     10  O   UNL     1     -46.764 -38.511 -18.388  1.00  0.00    -0.246 OA
ATOM     11  O   UNL     1     -45.312 -36.879 -18.880  1.00  0.00    -0.423 OA
ENDROOT
BRANCH   1  12
ATOM     12  O   UNL     1     -40.289 -35.053 -20.380  1.00  0.00    -0.493 OA
ATOM     13  C   UNL     1     -39.045 -35.591 -19.942  1.00  0.00     0.278 C 
ENDBRANCH   1  12
BRANCH   2  14
ATOM     14  O   UNL     1     -42.384 -33.255 -19.888  1.00  0.00    -0.504 OA
ATOM     15  H   UNL     1     -42.908 -32.690 -20.545  1.00  0.00     0.293 HD
ENDBRANCH   2  14
TORSDOF 2
ENDMDL
MODEL 3
REMARK VINA RESULT:    -4.404      6.213      8.721
REMARK INTER + INTRA:          -4.834
REMARK INTER:                  -4.769
REMARK INTRA:                  -0.065
REMARK UNBOUND:                -0.043
REMARK SMILES COc1cc2ccc(=O)oc2cc1O
REMARK SMILES IDX 3 1 13 2 12 3 11 4 5 5 4 6 6 7 7 8 8 9 9 10 10 11 2 12 1 13
REMARK SMILES IDX 14 14
REMARK H PARENT 14 15
REMARK Flexibility Score: inf
ROOT
ATOM      1  C   UNL     1     -47.165 -36.448 -18.003  1.00  0.00     0.161 A 
ATOM      2  C   UNL     1     -47.862 -35.227 -17.923  1.00  0.00     0.161 A 
ATOM      3  C   UNL     1     -49.147 -35.111 -18.467  1.00  0.00     0.098 A 
ATOM      4  C   UNL     1     -49.750 -36.203 -19.095  1.00  0.00     0.142 A 
ATOM      5  C   UNL     1     -49.060 -37.430 -19.181  1.00  0.00     0.022 A 
ATOM      6  C   UNL     1     -47.773 -37.550 -18.637  1.00  0.00     0.062 A 
ATOM      7  C   UNL     1     -49.689 -38.505 -19.816  1.00  0.00     0.019 A 
ATOM      8  C   UNL     1     -50.970 -38.336 -20.340  1.00  0.00     0.094 A 
ATOM      9  C   UNL     1     -51.593 -37.090 -20.218  1.00  0.00     0.336 A 
ATOM     10  O   UNL     1     -52.749 -36.917 -20.685  1.00  0.00    -0.246 OA
ATOM     11  O   UNL     1     -50.971 -36.084 -19.609  1.00  0.00    -0.423 OA
ENDROOT
BRANCH   1  12
ATOM     12  O   UNL     1     -45.879 -36.530 -17.447  1.00  0.00    -0.493 OA
ATOM     13  C   UNL     1     -45.586 -37.064 -16.159  1.00  0.00     0.278 C 
ENDBRANCH   1  12
BRANCH   2  14
ATOM     14  O   UNL     1     -47.294 -34.114 -17.303  1.00  0.00    -0.504 OA
ATOM     15  H   UNL     1     -47.160 -34.064 -16.300  1.00  0.00     0.293 HD
ENDBRANCH   2  14
TORSDOF 2
ENDMDL
MODEL 4
REMARK VINA RESULT:    -4.334      8.241      8.478
REMARK INTER + INTRA:          -4.758
REMARK INTER:                  -4.699
REMARK INTRA:                  -0.059
REMARK UNBOUND:                -0.043
REMARK SMILES COc1cc2ccc(=O)oc2cc1O
REMARK SMILES IDX 3 1 13 2 12 3 11 4 5 5 4 6 6 7 7 8 8 9 9 10 10 11 2 12 1 13
REMARK SMILES IDX 14 14
REMARK H PARENT 14 15
REMARK Flexibility Score: inf
ROOT
ATOM      1  C   UNL     1     -49.583 -35.867 -19.029  1.00  0.00     0.161 A 
ATOM      2  C   UNL     1     -49.803 -35.855 -20.420  1.00  0.00     0.161 A 
ATOM      3  C   UNL     1     -49.784 -37.051 -21.147  1.00  0.00     0.098 A 
ATOM      4  C   UNL     1     -49.547 -38.267 -20.502  1.00  0.00     0.142 A 
ATOM      5  C   UNL     1     -49.326 -38.290 -19.109  1.00  0.00     0.022 A 
ATOM      6  C   UNL     1     -49.344 -37.094 -18.378  1.00  0.00     0.062 A 
ATOM      7  C   UNL     1     -49.091 -39.523 -18.492  1.00  0.00     0.019 A 
ATOM      8  C   UNL     1     -49.084 -40.684 -19.264  1.00  0.00     0.094 A 
ATOM      9  C   UNL     1     -49.311 -40.585 -20.640  1.00  0.00     0.336 A 
ATOM     10  O   UNL     1     -49.308 -41.622 -21.354  1.00  0.00    -0.246 OA
ATOM     11  O   UNL     1     -49.531 -39.400 -21.202  1.00  0.00    -0.423 OA
ENDROOT
BRANCH   1  12
ATOM     12  O   UNL     1     -49.609 -34.650 -18.330  1.00  0.00    -0.493 OA
ATOM     13  C   UNL     1     -48.500 -34.096 -17.628  1.00  0.00     0.278 C 
ENDBRANCH   1  12
BRANCH   2  14
ATOM     14  O   UNL     1     -50.043 -34.661 -21.100  1.00  0.00    -0.504 OA
ATOM     15  H   UNL     1     -50.788 -34.567 -21.779  1.00  0.00     0.293 HD
ENDBRANCH   2  14
TORSDOF 2
ENDMDL
MODEL 5
REMARK VINA RESULT:    -4.247      6.840      7.991
REMARK INTER + INTRA:          -4.662
REMARK INTER:                  -4.605
REMARK INTRA:                  -0.057
REMARK UNBOUND:                -0.043
REMARK SMILES COc1cc2ccc(=O)oc2cc1O
REMARK SMILES IDX 3 1 13 2 12 3 11 4 5 5 4 6 6 7 7 8 8 9 9 10 10 11 2 12 1 13
REMARK SMILES IDX 14 14
REMARK H PARENT 14 15
REMARK Flexibility Score: inf
ROOT
ATOM      1  C   UNL     1     -48.956 -36.266 -18.657  1.00  0.00     0.161 A 
ATOM      2  C   UNL     1     -50.175 -36.972 -18.666  1.00  0.00     0.161 A 
ATOM      3  C   UNL     1     -50.181 -38.369 -18.747  1.00  0.00     0.098 A 
ATOM      4  C   UNL     1     -48.979 -39.078 -18.820  1.00  0.00     0.142 A 
ATOM      5  C   UNL     1     -47.753 -38.381 -18.812  1.00  0.00     0.022 A 
ATOM      6  C   UNL     1     -47.744 -36.981 -18.731  1.00  0.00     0.062 A 
ATOM      7  C   UNL     1     -46.567 -39.118 -18.886  1.00  0.00     0.019 A 
ATOM      8  C   UNL     1     -46.629 -40.509 -18.965  1.00  0.00     0.094 A 
ATOM      9  C   UNL     1     -47.881 -41.132 -18.968  1.00  0.00     0.336 A 
ATOM     10  O   UNL     1     -47.959 -42.387 -19.039  1.00  0.00    -0.246 OA
ATOM     11  O   UNL     1     -48.994 -40.407 -18.896  1.00  0.00    -0.423 OA
ENDROOT
BRANCH   1  12
ATOM     12  O   UNL     1     -48.987 -34.865 -18.574  1.00  0.00    -0.493 OA
ATOM     13  C   UNL     1     -48.391 -34.103 -17.529  1.00  0.00     0.278 C 
ENDBRANCH   1  12
BRANCH   2  14
ATOM     14  O   UNL     1     -51.395 -36.300 -18.594  1.00  0.00    -0.504 OA
ATOM     15  H   UNL     1     -51.965 -36.126 -19.414  1.00  0.00     0.293 HD
ENDBRANCH   2  14
TORSDOF 2
ENDMDL
MODEL 6
REMARK VINA RESULT:    -4.192      8.470     10.097
REMARK INTER + INTRA:          -4.603
REMARK INTER:                  -4.554
REMARK INTRA:                  -0.049
REMARK UNBOUND:                -0.043
REMARK SMILES COc1cc2ccc(=O)oc2cc1O
REMARK SMILES IDX 3 1 13 2 12 3 11 4 5 5 4 6 6 7 7 8 8 9 9 10 10 11 2 12 1 13
REMARK SMILES IDX 14 14
REMARK H PARENT 14 15
REMARK Flexibility Score: inf
ROOT
ATOM      1  C   UNL     1     -49.772 -36.210 -19.824  1.00  0.00     0.161 A 
ATOM      2  C   UNL     1     -50.790 -37.085 -19.398  1.00  0.00     0.161 A 
ATOM      3  C   UNL     1     -51.550 -37.793 -20.337  1.00  0.00     0.098 A 
ATOM      4  C   UNL     1     -51.308 -37.639 -21.704  1.00  0.00     0.142 A 
ATOM      5  C   UNL     1     -50.291 -36.765 -22.141  1.00  0.00     0.022 A 
ATOM      6  C   UNL     1     -49.527 -36.054 -21.204  1.00  0.00     0.062 A 
ATOM      7  C   UNL     1     -50.073 -36.632 -23.516  1.00  0.00     0.019 A 
ATOM      8  C   UNL     1     -50.858 -37.360 -24.407  1.00  0.00     0.094 A 
ATOM      9  C   UNL     1     -51.849 -38.208 -23.901  1.00  0.00     0.336 A 
ATOM     10  O   UNL     1     -52.569 -38.875 -24.690  1.00  0.00    -0.246 OA
ATOM     11  O   UNL     1     -52.036 -38.316 -22.589  1.00  0.00    -0.423 OA
ENDROOT
BRANCH   1  12
ATOM     12  O   UNL     1     -49.028 -35.516 -18.857  1.00  0.00    -0.493 OA
ATOM     13  C   UNL     1     -49.382 -34.243 -18.324  1.00  0.00     0.278 C 
ENDBRANCH   1  12
BRANCH   2  14
ATOM     14  O   UNL     1     -51.061 -37.266 -18.042  1.00  0.00    -0.504 OA
ATOM     15  H   UNL     1     -50.757 -36.605 -17.338  1.00  0.00     0.293 HD
ENDBRANCH   2  14
TORSDOF 2
ENDMDL
MODEL 7
REMARK VINA RESULT:    -4.146      8.168      9.246
REMARK INTER + INTRA:          -4.553
REMARK INTER:                  -4.493
REMARK INTRA:                  -0.060
REMARK UNBOUND:                -0.043
REMARK SMILES COc1cc2ccc(=O)oc2cc1O
REMARK SMILES IDX 3 1 13 2 12 3 11 4 5 5 4 6 6 7 7 8 8 9 9 10 10 11 2 12 1 13
REMARK SMILES IDX 14 14
REMARK H PARENT 14 15
REMARK Flexibility Score: inf
ROOT
ATOM      1  C   UNL     1     -48.660 -41.108 -18.936  1.00  0.00     0.161 A 
ATOM      2  C   UNL     1     -48.491 -40.460 -17.696  1.00  0.00     0.161 A 
ATOM      3  C   UNL     1     -48.692 -39.079 -17.589  1.00  0.00     0.098 A 
ATOM      4  C   UNL     1     -49.062 -38.329 -18.707  1.00  0.00     0.142 A 
ATOM      5  C   UNL     1     -49.234 -38.968 -19.953  1.00  0.00     0.022 A 
ATOM      6  C   UNL     1     -49.033 -40.351 -20.065  1.00  0.00     0.062 A 
ATOM      7  C   UNL     1     -49.604 -38.191 -21.055  1.00  0.00     0.019 A 
ATOM      8  C   UNL     1     -49.792 -36.819 -20.893  1.00  0.00     0.094 A 
ATOM      9  C   UNL     1     -49.603 -36.254 -19.627  1.00  0.00     0.336 A 
ATOM     10  O   UNL     1     -49.768 -35.017 -19.460  1.00  0.00    -0.246 OA
ATOM     11  O   UNL     1     -49.251 -37.017 -18.596  1.00  0.00    -0.423 OA
ENDROOT
BRANCH   1  12
ATOM     12  O   UNL     1     -48.451 -42.494 -19.008  1.00  0.00    -0.493 OA
ATOM     13  C   UNL     1     -47.410 -43.118 -19.754  1.00  0.00     0.278 C 
ENDBRANCH   1  12
BRANCH   2  14
ATOM     14  O   UNL     1     -48.123 -41.175 -16.556  1.00  0.00    -0.504 OA
ATOM     15  H   UNL     1     -48.302 -42.167 -16.459  1.00  0.00     0.293 HD
ENDBRANCH   2  14
TORSDOF 2
ENDMDL
MODEL 8
REMARK VINA RESULT:    -4.107      8.700      9.220
REMARK INTER + INTRA:          -4.511
REMARK INTER:                  -4.448
REMARK INTRA:                  -0.063
REMARK UNBOUND:                -0.043
REMARK SMILES COc1cc2ccc(=O)oc2cc1O
REMARK SMILES IDX 3 1 13 2 12 3 11 4 5 5 4 6 6 7 7 8 8 9 9 10 10 11 2 12 1 13
REMARK SMILES IDX 14 14
REMARK H PARENT 14 15
REMARK Flexibility Score: inf
ROOT
ATOM      1  C   UNL     1     -51.050 -37.384 -20.498  1.00  0.00     0.161 A 
ATOM      2  C   UNL     1     -50.610 -37.313 -19.162  1.00  0.00     0.161 A 
ATOM      3  C   UNL     1     -49.856 -38.356 -18.612  1.00  0.00     0.098 A 
ATOM      4  C   UNL     1     -49.532 -39.477 -19.380  1.00  0.00     0.142 A 
ATOM      5  C   UNL     1     -49.968 -39.557 -20.719  1.00  0.00     0.022 A 
ATOM      6  C   UNL     1     -50.723 -38.514 -21.274  1.00  0.00     0.062 A 
ATOM      7  C   UNL     1     -49.628 -40.692 -21.463  1.00  0.00     0.019 A 
ATOM      8  C   UNL     1     -48.875 -41.701 -20.866  1.00  0.00     0.094 A 
ATOM      9  C   UNL     1     -48.478 -41.553 -19.534  1.00  0.00     0.336 A 
ATOM     10  O   UNL     1     -47.797 -42.454 -18.976  1.00  0.00    -0.246 OA
ATOM     11  O   UNL     1     -48.814 -40.463 -18.849  1.00  0.00    -0.423 OA
ENDROOT
BRANCH   1  12
ATOM     12  O   UNL     1     -51.804 -36.320 -21.019  1.00  0.00    -0.493 OA
ATOM     13  C   UNL     1     -53.193 -36.386 -21.324  1.00  0.00     0.278 C 
ENDBRANCH   1  12
BRANCH   2  14
ATOM     14  O   UNL     1     -50.912 -36.211 -18.363  1.00  0.00    -0.504 OA
ATOM     15  H   UNL     1     -50.446 -35.318 -18.475  1.00  0.00     0.293 HD
ENDBRANCH   2  14
TORSDOF 2
ENDMDL
MODEL 9
REMARK VINA RESULT:    -4.079      7.023      8.396
REMARK INTER + INTRA:          -4.480
REMARK INTER:                  -4.415
REMARK INTRA:                  -0.065
REMARK UNBOUND:                -0.043
REMARK SMILES COc1cc2ccc(=O)oc2cc1O
REMARK SMILES IDX 3 1 13 2 12 3 11 4 5 5 4 6 6 7 7 8 8 9 9 10 10 11 2 12 1 13
REMARK SMILES IDX 14 14
REMARK H PARENT 14 15
REMARK Flexibility Score: inf
ROOT
ATOM      1  C   UNL     1     -50.837 -37.102 -20.627  1.00  0.00     0.161 A 
ATOM      2  C   UNL     1     -49.951 -36.022 -20.445  1.00  0.00     0.161 A 
ATOM      3  C   UNL     1     -48.834 -36.158 -19.612  1.00  0.00     0.098 A 
ATOM      4  C   UNL     1     -48.586 -37.365 -18.955  1.00  0.00     0.142 A 
ATOM      5  C   UNL     1     -49.466 -38.453 -19.130  1.00  0.00     0.022 A 
ATOM      6  C   UNL     1     -50.587 -38.320 -19.963  1.00  0.00     0.062 A 
ATOM      7  C   UNL     1     -49.191 -39.648 -18.458  1.00  0.00     0.019 A 
ATOM      8  C   UNL     1     -48.064 -39.730 -17.642  1.00  0.00     0.094 A 
ATOM      9  C   UNL     1     -47.236 -38.611 -17.515  1.00  0.00     0.336 A 
ATOM     10  O   UNL     1     -46.213 -38.665 -16.782  1.00  0.00    -0.246 OA
ATOM     11  O   UNL     1     -47.521 -37.486 -18.166  1.00  0.00    -0.423 OA
ENDROOT
BRANCH   1  12
ATOM     12  O   UNL     1     -51.947 -36.931 -21.469  1.00  0.00    -0.493 OA
ATOM     13  C   UNL     1     -53.271 -36.659 -21.018  1.00  0.00     0.278 C 
ENDBRANCH   1  12
BRANCH   2  14
ATOM     14  O   UNL     1     -50.165 -34.801 -21.085  1.00  0.00    -0.504 OA
ATOM     15  H   UNL     1     -50.790 -34.097 -20.710  1.00  0.00     0.293 HD
ENDBRANCH   2  14
TORSDOF 2
ENDMDL
