MODEL 1
REMARK VINA RESULT:    -6.573      0.000      0.000
REMARK INTER + INTRA:          -7.192
REMARK INTER:                  -6.958
REMARK INTRA:                  -0.235
REMARK UNBOUND:                -0.235
REMARK SMILES CC(C)[C@@H]1CC[C@H](C)[C@H]2C=C[C@H](C)C[C@@H]21
REMARK SMILES IDX 8 1 7 2 6 3 5 4 4 5 15 6 9 7 10 8 11 9 12 10 14 11 13 12
REMARK SMILES IDX 2 13 1 14 3 15
REMARK H PARENT
REMARK Flexibility Score: inf
ROOT
ATOM      1  C   UNL     1       8.663  34.514  19.170  1.00  0.00     0.008 C 
ATOM      2  C   UNL     1       8.835  34.277  20.681  1.00  0.00    -0.007 C 
ATOM      3  C   UNL     1       7.567  33.573  21.241  1.00  0.00     0.004 C 
ATOM      4  C   UNL     1       7.826  32.694  22.486  1.00  0.00     0.004 C 
ATOM      5  C   UNL     1       8.944  33.288  23.375  1.00  0.00    -0.005 C 
ATOM      6  C   UNL     1      10.299  33.370  22.570  1.00  0.00    -0.000 C 
ATOM      7  C   UNL     1      10.083  33.435  21.030  1.00  0.00     0.018 C 
ATOM      8  C   UNL     1      11.378  33.866  20.383  1.00  0.00    -0.027 C 
ATOM      9  C   UNL     1      12.548  33.375  20.824  1.00  0.00    -0.028 C 
ATOM     10  C   UNL     1      12.675  32.542  22.093  1.00  0.00     0.008 C 
ATOM     11  C   UNL     1      11.324  32.233  22.801  1.00  0.00     0.012 C 
ATOM     12  C   UNL     1      13.440  31.251  21.795  1.00  0.00     0.012 C 
ENDROOT
BRANCH   5  13
ATOM     13  C   UNL     1       9.062  32.626  24.791  1.00  0.00    -0.014 C 
ATOM     14  C   UNL     1       9.761  33.580  25.781  1.00  0.00     0.007 C 
ATOM     15  C   UNL     1       7.701  32.229  25.393  1.00  0.00     0.007 C 
ENDBRANCH   5  13
TORSDOF 1
ENDMDL
MODEL 2
REMARK VINA RESULT:    -6.416      2.127      5.357
REMARK INTER + INTRA:          -7.026
REMARK INTER:                  -6.823
REMARK INTRA:                  -0.203
REMARK UNBOUND:                -0.235
REMARK SMILES CC(C)[C@@H]1CC[C@H](C)[C@H]2C=C[C@H](C)C[C@@H]21
REMARK SMILES IDX 8 1 7 2 6 3 5 4 4 5 15 6 9 7 10 8 11 9 12 10 14 11 13 12
REMARK SMILES IDX 2 13 1 14 3 15
REMARK H PARENT
REMARK Flexibility Score: inf
ROOT
ATOM      1  C   UNL     1       9.799  33.357  26.090  1.00  0.00     0.008 C 
ATOM      2  C   UNL     1       8.971  33.461  24.797  1.00  0.00    -0.007 C 
ATOM      3  C   UNL     1       9.846  34.076  23.670  1.00  0.00     0.004 C 
ATOM      4  C   UNL     1       9.443  33.639  22.242  1.00  0.00     0.004 C 
ATOM      5  C   UNL     1       7.916  33.426  22.127  1.00  0.00    -0.005 C 
ATOM      6  C   UNL     1       7.444  32.289  23.114  1.00  0.00    -0.000 C 
ATOM      7  C   UNL     1       8.407  32.101  24.322  1.00  0.00     0.018 C 
ATOM      8  C   UNL     1       7.705  31.271  25.370  1.00  0.00    -0.027 C 
ATOM      9  C   UNL     1       6.957  30.216  25.004  1.00  0.00    -0.028 C 
ATOM     10  C   UNL     1       6.603  29.911  23.555  1.00  0.00     0.008 C 
ATOM     11  C   UNL     1       7.244  30.875  22.515  1.00  0.00     0.012 C 
ATOM     12  C   UNL     1       6.946  28.456  23.229  1.00  0.00     0.012 C 
ENDROOT
BRANCH   5  13
ATOM     13  C   UNL     1       7.396  33.273  20.655  1.00  0.00    -0.014 C 
ATOM     14  C   UNL     1       5.875  33.518  20.587  1.00  0.00     0.007 C 
ATOM     15  C   UNL     1       8.078  34.236  19.665  1.00  0.00     0.007 C 
ENDBRANCH   5  13
TORSDOF 1
ENDMDL
MODEL 3
REMARK VINA RESULT:    -6.358      1.943      5.459
REMARK INTER + INTRA:          -6.965
REMARK INTER:                  -6.699
REMARK INTRA:                  -0.266
REMARK UNBOUND:                -0.235
REMARK SMILES CC(C)[C@@H]1CC[C@H](C)[C@H]2C=C[C@H](C)C[C@@H]21
REMARK SMILES IDX 8 1 7 2 6 3 5 4 4 5 15 6 9 7 10 8 11 9 12 10 14 11 13 12
REMARK SMILES IDX 2 13 1 14 3 15
REMARK H PARENT
REMARK Flexibility Score: inf
ROOT
ATOM      1  C   UNL     1      14.346  34.830  18.603  1.00  0.00     0.008 C 
ATOM      2  C   UNL     1      14.300  33.527  19.419  1.00  0.00    -0.007 C 
ATOM      3  C   UNL     1      15.655  33.327  20.153  1.00  0.00     0.004 C 
ATOM      4  C   UNL     1      15.554  32.516  21.466  1.00  0.00     0.004 C 
ATOM      5  C   UNL     1      14.457  31.430  21.376  1.00  0.00    -0.005 C 
ATOM      6  C   UNL     1      13.047  32.095  21.127  1.00  0.00    -0.000 C 
ATOM      7  C   UNL     1      13.150  33.494  20.453  1.00  0.00     0.018 C 
ATOM      8  C   UNL     1      11.783  33.879  19.939  1.00  0.00    -0.027 C 
ATOM      9  C   UNL     1      10.689  33.626  20.677  1.00  0.00    -0.028 C 
ATOM     10  C   UNL     1      10.718  32.779  21.943  1.00  0.00     0.008 C 
ATOM     11  C   UNL     1      12.135  32.292  22.363  1.00  0.00     0.012 C 
ATOM     12  C   UNL     1      10.041  33.533  23.089  1.00  0.00     0.012 C 
ENDROOT
BRANCH   5  13
ATOM     13  C   UNL     1      14.491  30.382  22.541  1.00  0.00    -0.014 C 
ATOM     14  C   UNL     1      14.452  28.945  21.981  1.00  0.00     0.007 C 
ATOM     15  C   UNL     1      15.736  30.509  23.439  1.00  0.00     0.007 C 
ENDBRANCH   5  13
TORSDOF 1
ENDMDL
MODEL 4
REMARK VINA RESULT:    -6.354      1.058      4.304
REMARK INTER + INTRA:          -6.961
REMARK INTER:                  -6.691
REMARK INTRA:                  -0.269
REMARK UNBOUND:                -0.235
REMARK SMILES CC(C)[C@@H]1CC[C@H](C)[C@H]2C=C[C@H](C)C[C@@H]21
REMARK SMILES IDX 8 1 7 2 6 3 5 4 4 5 15 6 9 7 10 8 11 9 12 10 14 11 13 12
REMARK SMILES IDX 2 13 1 14 3 15
REMARK H PARENT
REMARK Flexibility Score: inf
ROOT
ATOM      1  C   UNL     1       8.596  34.516  19.104  1.00  0.00     0.008 C 
ATOM      2  C   UNL     1       9.683  33.666  19.787  1.00  0.00    -0.007 C 
ATOM      3  C   UNL     1      11.078  34.067  19.231  1.00  0.00     0.004 C 
ATOM      4  C   UNL     1      12.245  33.841  20.221  1.00  0.00     0.004 C 
ATOM      5  C   UNL     1      11.997  32.603  21.114  1.00  0.00    -0.005 C 
ATOM      6  C   UNL     1      10.687  32.799  21.972  1.00  0.00    -0.000 C 
ATOM      7  C   UNL     1       9.688  33.803  21.327  1.00  0.00     0.018 C 
ATOM      8  C   UNL     1       8.350  33.653  22.012  1.00  0.00    -0.027 C 
ATOM      9  C   UNL     1       8.289  33.488  23.344  1.00  0.00    -0.028 C 
ATOM     10  C   UNL     1       9.519  33.240  24.208  1.00  0.00     0.008 C 
ATOM     11  C   UNL     1      10.869  33.272  23.436  1.00  0.00     0.012 C 
ATOM     12  C   UNL     1       9.540  34.224  25.379  1.00  0.00     0.012 C 
ENDROOT
BRANCH   5  13
ATOM     13  C   UNL     1      13.252  32.136  21.930  1.00  0.00    -0.014 C 
ATOM     14  C   UNL     1      13.690  30.724  21.493  1.00  0.00     0.007 C 
ATOM     15  C   UNL     1      14.461  33.078  21.779  1.00  0.00     0.007 C 
ENDBRANCH   5  13
TORSDOF 1
ENDMDL
MODEL 5
REMARK VINA RESULT:    -6.185      1.313      3.753
REMARK INTER + INTRA:          -6.782
REMARK INTER:                  -6.516
REMARK INTRA:                  -0.265
REMARK UNBOUND:                -0.235
REMARK SMILES CC(C)[C@@H]1CC[C@H](C)[C@H]2C=C[C@H](C)C[C@@H]21
REMARK SMILES IDX 8 1 7 2 6 3 5 4 4 5 15 6 9 7 10 8 11 9 12 10 14 11 13 12
REMARK SMILES IDX 2 13 1 14 3 15
REMARK H PARENT
REMARK Flexibility Score: inf
ROOT
ATOM      1  C   UNL     1      10.605  33.115  25.998  1.00  0.00     0.008 C 
ATOM      2  C   UNL     1       9.777  32.548  24.830  1.00  0.00    -0.007 C 
ATOM      3  C   UNL     1       8.318  33.075  24.928  1.00  0.00     0.004 C 
ATOM      4  C   UNL     1       7.586  33.176  23.569  1.00  0.00     0.004 C 
ATOM      5  C   UNL     1       8.033  32.055  22.602  1.00  0.00    -0.005 C 
ATOM      6  C   UNL     1       9.580  32.168  22.310  1.00  0.00    -0.000 C 
ATOM      7  C   UNL     1      10.356  32.903  23.441  1.00  0.00     0.018 C 
ATOM      8  C   UNL     1      11.833  32.649  23.252  1.00  0.00    -0.027 C 
ATOM      9  C   UNL     1      12.368  32.669  22.020  1.00  0.00    -0.028 C 
ATOM     10  C   UNL     1      11.530  32.740  20.751  1.00  0.00     0.008 C 
ATOM     11  C   UNL     1       9.998  32.869  20.993  1.00  0.00     0.012 C 
ATOM     12  C   UNL     1      12.035  33.873  19.855  1.00  0.00     0.012 C 
ENDROOT
BRANCH   5  13
ATOM     13  C   UNL     1       7.135  31.909  21.326  1.00  0.00    -0.014 C 
ATOM     14  C   UNL     1       6.230  30.665  21.438  1.00  0.00     0.007 C 
ATOM     15  C   UNL     1       6.233  33.132  21.073  1.00  0.00     0.007 C 
ENDBRANCH   5  13
TORSDOF 1
ENDMDL
MODEL 6
REMARK VINA RESULT:    -6.157      1.922      3.670
REMARK INTER + INTRA:          -6.752
REMARK INTER:                  -6.493
REMARK INTRA:                  -0.259
REMARK UNBOUND:                -0.235
REMARK SMILES CC(C)[C@@H]1CC[C@H](C)[C@H]2C=C[C@H](C)C[C@@H]21
REMARK SMILES IDX 8 1 7 2 6 3 5 4 4 5 15 6 9 7 10 8 11 9 12 10 14 11 13 12
REMARK SMILES IDX 2 13 1 14 3 15
REMARK H PARENT
REMARK Flexibility Score: inf
ROOT
ATOM      1  C   UNL     1      14.418  34.454  18.447  1.00  0.00     0.008 C 
ATOM      2  C   UNL     1      13.487  34.269  19.658  1.00  0.00    -0.007 C 
ATOM      3  C   UNL     1      12.015  34.175  19.168  1.00  0.00     0.004 C 
ATOM      4  C   UNL     1      11.089  33.351  20.093  1.00  0.00     0.004 C 
ATOM      5  C   UNL     1      11.494  33.503  21.578  1.00  0.00    -0.005 C 
ATOM      6  C   UNL     1      12.965  32.977  21.802  1.00  0.00    -0.000 C 
ATOM      7  C   UNL     1      13.825  33.020  20.505  1.00  0.00     0.018 C 
ATOM      8  C   UNL     1      15.276  32.849  20.886  1.00  0.00    -0.027 C 
ATOM      9  C   UNL     1      15.624  31.959  21.831  1.00  0.00    -0.028 C 
ATOM     10  C   UNL     1      14.608  31.232  22.703  1.00  0.00     0.008 C 
ATOM     11  C   UNL     1      13.122  31.541  22.360  1.00  0.00     0.012 C 
ATOM     12  C   UNL     1      14.872  29.726  22.665  1.00  0.00     0.012 C 
ENDROOT
BRANCH   5  13
ATOM     13  C   UNL     1      10.437  32.945  22.594  1.00  0.00    -0.014 C 
ATOM     14  C   UNL     1       9.619  34.095  23.214  1.00  0.00     0.007 C 
ATOM     15  C   UNL     1       9.450  31.947  21.960  1.00  0.00     0.007 C 
ENDBRANCH   5  13
TORSDOF 1
ENDMDL
MODEL 7
REMARK VINA RESULT:    -6.052      1.193      4.599
REMARK INTER + INTRA:          -6.641
REMARK INTER:                  -6.449
REMARK INTRA:                  -0.192
REMARK UNBOUND:                -0.235
REMARK SMILES CC(C)[C@@H]1CC[C@H](C)[C@H]2C=C[C@H](C)C[C@@H]21
REMARK SMILES IDX 8 1 7 2 6 3 5 4 4 5 15 6 9 7 10 8 11 9 12 10 14 11 13 12
REMARK SMILES IDX 2 13 1 14 3 15
REMARK H PARENT
REMARK Flexibility Score: inf
ROOT
ATOM      1  C   UNL     1      12.993  33.128  22.019  1.00  0.00     0.008 C 
ATOM      2  C   UNL     1      11.597  33.522  21.504  1.00  0.00    -0.007 C 
ATOM      3  C   UNL     1      11.305  32.770  20.175  1.00  0.00     0.004 C 
ATOM      4  C   UNL     1       9.804  32.515  19.906  1.00  0.00     0.004 C 
ATOM      5  C   UNL     1       8.928  33.666  20.454  1.00  0.00    -0.005 C 
ATOM      6  C   UNL     1       9.107  33.795  22.017  1.00  0.00    -0.000 C 
ATOM      7  C   UNL     1      10.467  33.226  22.517  1.00  0.00     0.018 C 
ATOM      8  C   UNL     1      10.697  33.709  23.930  1.00  0.00    -0.027 C 
ATOM      9  C   UNL     1       9.679  33.741  24.806  1.00  0.00    -0.028 C 
ATOM     10  C   UNL     1       8.230  33.500  24.404  1.00  0.00     0.008 C 
ATOM     11  C   UNL     1       8.025  33.134  22.906  1.00  0.00     0.012 C 
ATOM     12  C   UNL     1       7.606  32.439  25.313  1.00  0.00     0.012 C 
ENDROOT
BRANCH   5  13
ATOM     13  C   UNL     1       7.438  33.630  19.967  1.00  0.00    -0.014 C 
ATOM     14  C   UNL     1       7.271  34.445  18.668  1.00  0.00     0.007 C 
ATOM     15  C   UNL     1       6.918  32.204  19.704  1.00  0.00     0.007 C 
ENDBRANCH   5  13
TORSDOF 1
ENDMDL
MODEL 8
REMARK VINA RESULT:    -6.042      2.003      4.616
REMARK INTER + INTRA:          -6.630
REMARK INTER:                  -6.364
REMARK INTRA:                  -0.266
REMARK UNBOUND:                -0.235
REMARK SMILES CC(C)[C@@H]1CC[C@H](C)[C@H]2C=C[C@H](C)C[C@@H]21
REMARK SMILES IDX 8 1 7 2 6 3 5 4 4 5 15 6 9 7 10 8 11 9 12 10 14 11 13 12
REMARK SMILES IDX 2 13 1 14 3 15
REMARK H PARENT
REMARK Flexibility Score: inf
ROOT
ATOM      1  C   UNL     1       7.663  33.242  24.993  1.00  0.00     0.008 C 
ATOM      2  C   UNL     1       8.659  33.323  23.823  1.00  0.00    -0.007 C 
ATOM      3  C   UNL     1      10.033  33.824  24.349  1.00  0.00     0.004 C 
ATOM      4  C   UNL     1      11.247  33.335  23.523  1.00  0.00     0.004 C 
ATOM      5  C   UNL     1      10.894  33.207  22.023  1.00  0.00    -0.005 C 
ATOM      6  C   UNL     1       9.736  32.154  21.820  1.00  0.00    -0.000 C 
ATOM      7  C   UNL     1       8.853  31.976  23.090  1.00  0.00     0.018 C 
ATOM      8  C   UNL     1       7.591  31.245  22.697  1.00  0.00    -0.027 C 
ATOM      9  C   UNL     1       7.648  30.218  21.833  1.00  0.00    -0.028 C 
ATOM     10  C   UNL     1       8.905  29.857  21.053  1.00  0.00     0.008 C 
ATOM     11  C   UNL     1      10.151  30.724  21.395  1.00  0.00     0.012 C 
ATOM     12  C   UNL     1       9.216  28.368  21.226  1.00  0.00     0.012 C 
ENDROOT
BRANCH   5  13
ATOM     13  C   UNL     1      12.134  33.005  21.085  1.00  0.00    -0.014 C 
ATOM     14  C   UNL     1      12.042  33.933  19.856  1.00  0.00     0.007 C 
ATOM     15  C   UNL     1      13.478  33.276  21.786  1.00  0.00     0.007 C 
ENDBRANCH   5  13
TORSDOF 1
ENDMDL
MODEL 9
REMARK VINA RESULT:    -5.911      1.627      1.747
REMARK INTER + INTRA:          -6.491
REMARK INTER:                  -6.242
REMARK INTRA:                  -0.249
REMARK UNBOUND:                -0.235
REMARK SMILES CC(C)[C@@H]1CC[C@H](C)[C@H]2C=C[C@H](C)C[C@@H]21
REMARK SMILES IDX 8 1 7 2 6 3 5 4 4 5 15 6 9 7 10 8 11 9 12 10 14 11 13 12
REMARK SMILES IDX 2 13 1 14 3 15
REMARK H PARENT
REMARK Flexibility Score: inf
ROOT
ATOM      1  C   UNL     1       9.139  31.807  18.881  1.00  0.00     0.008 C 
ATOM      2  C   UNL     1       9.391  32.547  20.206  1.00  0.00    -0.007 C 
ATOM      3  C   UNL     1       8.573  31.869  21.341  1.00  0.00     0.004 C 
ATOM      4  C   UNL     1       9.194  32.019  22.749  1.00  0.00     0.004 C 
ATOM      5  C   UNL     1       9.920  33.376  22.904  1.00  0.00    -0.005 C 
ATOM      6  C   UNL     1      11.097  33.490  21.860  1.00  0.00    -0.000 C 
ATOM      7  C   UNL     1      10.883  32.590  20.608  1.00  0.00     0.018 C 
ATOM      8  C   UNL     1      11.849  33.029  19.533  1.00  0.00    -0.027 C 
ATOM      9  C   UNL     1      13.112  33.354  19.853  1.00  0.00    -0.028 C 
ATOM     10  C   UNL     1      13.594  33.502  21.290  1.00  0.00     0.008 C 
ATOM     11  C   UNL     1      12.524  33.167  22.369  1.00  0.00     0.012 C 
ATOM     12  C   UNL     1      14.860  32.669  21.504  1.00  0.00     0.012 C 
ENDROOT
BRANCH   5  13
ATOM     13  C   UNL     1      10.316  33.729  24.380  1.00  0.00    -0.014 C 
ATOM     14  C   UNL     1       9.292  34.700  25.001  1.00  0.00     0.007 C 
ATOM     15  C   UNL     1      10.417  32.494  25.295  1.00  0.00     0.007 C 
ENDBRANCH   5  13
TORSDOF 1
ENDMDL
