MODEL 1
REMARK VINA RESULT:    -0.232      0.000      0.000
REMARK INTER + INTRA:          -0.908
REMARK INTER:                  -0.314
REMARK INTRA:                  -0.594
REMARK UNBOUND:                -0.594
REMARK SMILES COc1ccc(-c2cc(=O)c3c(OC)c(OC)c(OC)c(OC)c3o2)cc1
REMARK SMILES IDX 7 1 8 2 9 3 10 4 11 5 24 6 25 7 21 8 18 9 15 10 12 11 6 12
REMARK SMILES IDX 3 13 4 14 27 15 5 16 26 17 2 18 1 19 22 20 23 21 13 22 14 23
REMARK SMILES IDX 19 24 20 25 16 26 17 27
REMARK H PARENT
REMARK Flexibility Score: inf
ROOT
ATOM      1  C   UNL     1      26.057  28.945  47.554  1.00  0.00     0.138 A 
ATOM      2  C   UNL     1      27.119  28.049  47.372  1.00  0.00     0.100 A 
ATOM      3  C   UNL     1      26.848  26.692  47.191  1.00  0.00     0.197 A 
ATOM      4  O   UNL     1      27.816  25.901  47.029  1.00  0.00    -0.289 OA
ATOM      5  C   UNL     1      25.509  26.237  47.188  1.00  0.00     0.115 A 
ATOM      6  C   UNL     1      24.497  27.206  47.361  1.00  0.00     0.188 A 
ATOM      7  O   UNL     1      24.809  28.487  47.535  1.00  0.00    -0.452 OA
ATOM      8  C   UNL     1      23.154  26.837  47.364  1.00  0.00     0.209 A 
ATOM      9  C   UNL     1      22.787  25.500  47.127  1.00  0.00     0.211 A 
ATOM     10  C   UNL     1      23.783  24.497  47.018  1.00  0.00     0.208 A 
ATOM     11  C   UNL     1      25.157  24.871  47.036  1.00  0.00     0.179 A 
ENDROOT
BRANCH   1  12
ATOM     12  C   UNL     1      26.281  30.399  47.755  1.00  0.00     0.018 A 
ATOM     13  C   UNL     1      26.773  33.152  48.154  1.00  0.00     0.118 A 
ATOM     14  C   UNL     1      27.562  32.192  48.793  1.00  0.00     0.047 A 
ATOM     15  C   UNL     1      25.737  32.731  47.301  1.00  0.00     0.047 A 
ATOM     16  C   UNL     1      27.324  30.829  48.594  1.00  0.00     0.016 A 
ATOM     17  C   UNL     1      25.496  31.368  47.100  1.00  0.00     0.016 A 
BRANCH  13  18
ATOM     18  O   UNL     1      27.051  34.507  48.388  1.00  0.00    -0.497 OA
ATOM     19  C   UNL     1      26.428  35.586  47.699  1.00  0.00     0.278 C 
ENDBRANCH  13  18
ENDBRANCH   1  12
BRANCH   8  20
ATOM     20  O   UNL     1      22.197  27.830  47.610  1.00  0.00    -0.490 OA
ATOM     21  C   UNL     1      21.740  28.150  48.920  1.00  0.00     0.278 C 
ENDBRANCH   8  20
BRANCH  11  22
ATOM     22  O   UNL     1      26.205  23.934  46.908  1.00  0.00    -0.492 OA
ATOM     23  C   UNL     1      26.667  23.006  47.884  1.00  0.00     0.278 C 
ENDBRANCH  11  22
BRANCH   9  24
ATOM     24  O   UNL     1      21.437  25.171  46.976  1.00  0.00    -0.490 OA
ATOM     25  C   UNL     1      20.611  24.820  48.082  1.00  0.00     0.279 C 
ENDBRANCH   9  24
BRANCH  10  26
ATOM     26  O   UNL     1      23.461  23.135  46.875  1.00  0.00    -0.490 OA
ATOM     27  C   UNL     1      23.148  22.210  47.911  1.00  0.00     0.278 C 
ENDBRANCH  10  26
TORSDOF 6
ENDMDL
MODEL 2
REMARK VINA RESULT:    -0.228      2.429      4.052
REMARK INTER + INTRA:          -0.903
REMARK INTER:                  -0.230
REMARK INTRA:                  -0.673
REMARK UNBOUND:                -0.594
REMARK SMILES COc1ccc(-c2cc(=O)c3c(OC)c(OC)c(OC)c(OC)c3o2)cc1
REMARK SMILES IDX 7 1 8 2 9 3 10 4 11 5 24 6 25 7 21 8 18 9 15 10 12 11 6 12
REMARK SMILES IDX 3 13 4 14 27 15 5 16 26 17 2 18 1 19 22 20 23 21 13 22 14 23
REMARK SMILES IDX 19 24 20 25 16 26 17 27
REMARK H PARENT
REMARK Flexibility Score: inf
ROOT
ATOM      1  C   UNL     1      24.807  26.239  47.639  1.00  0.00     0.138 A 
ATOM      2  C   UNL     1      24.929  24.844  47.690  1.00  0.00     0.100 A 
ATOM      3  C   UNL     1      23.791  24.063  47.897  1.00  0.00     0.197 A 
ATOM      4  O   UNL     1      23.920  22.810  47.940  1.00  0.00    -0.289 OA
ATOM      5  C   UNL     1      22.529  24.685  48.048  1.00  0.00     0.115 A 
ATOM      6  C   UNL     1      22.490  26.093  47.966  1.00  0.00     0.188 A 
ATOM      7  O   UNL     1      23.605  26.792  47.772  1.00  0.00    -0.452 OA
ATOM      8  C   UNL     1      21.285  26.779  48.099  1.00  0.00     0.209 A 
ATOM      9  C   UNL     1      20.080  26.069  48.249  1.00  0.00     0.211 A 
ATOM     10  C   UNL     1      20.098  24.659  48.401  1.00  0.00     0.208 A 
ATOM     11  C   UNL     1      21.333  23.960  48.287  1.00  0.00     0.179 A 
ENDROOT
BRANCH   1  12
ATOM     12  C   UNL     1      25.980  27.123  47.425  1.00  0.00     0.018 A 
ATOM     13  C   UNL     1      28.183  28.854  47.058  1.00  0.00     0.118 A 
ATOM     14  C   UNL     1      26.926  29.367  47.391  1.00  0.00     0.047 A 
ATOM     15  C   UNL     1      28.340  27.463  46.918  1.00  0.00     0.047 A 
ATOM     16  C   UNL     1      25.836  28.514  47.577  1.00  0.00     0.016 A 
ATOM     17  C   UNL     1      27.250  26.606  47.104  1.00  0.00     0.016 A 
BRANCH  13  18
ATOM     18  O   UNL     1      29.245  29.753  46.879  1.00  0.00    -0.497 OA
ATOM     19  C   UNL     1      29.157  31.155  47.106  1.00  0.00     0.278 C 
ENDBRANCH  13  18
ENDBRANCH   1  12
BRANCH   8  20
ATOM     20  O   UNL     1      21.316  28.180  48.080  1.00  0.00    -0.490 OA
ATOM     21  C   UNL     1      21.227  28.934  46.875  1.00  0.00     0.278 C 
ENDBRANCH   8  20
BRANCH  11  22
ATOM     22  O   UNL     1      21.430  22.556  48.401  1.00  0.00    -0.492 OA
ATOM     23  C   UNL     1      21.258  21.765  49.572  1.00  0.00     0.278 C 
ENDBRANCH  11  22
BRANCH   9  24
ATOM     24  O   UNL     1      18.864  26.758  48.222  1.00  0.00    -0.490 OA
ATOM     25  C   UNL     1      18.126  26.952  47.019  1.00  0.00     0.279 C 
ENDBRANCH   9  24
BRANCH  10  26
ATOM     26  O   UNL     1      18.928  23.918  48.647  1.00  0.00    -0.490 OA
ATOM     27  C   UNL     1      18.099  23.272  47.688  1.00  0.00     0.278 C 
ENDBRANCH  10  26
TORSDOF 6
ENDMDL
MODEL 3
REMARK VINA RESULT:    -0.225      1.747      2.180
REMARK INTER + INTRA:          -0.898
REMARK INTER:                  -0.204
REMARK INTRA:                  -0.693
REMARK UNBOUND:                -0.594
REMARK SMILES COc1ccc(-c2cc(=O)c3c(OC)c(OC)c(OC)c(OC)c3o2)cc1
REMARK SMILES IDX 7 1 8 2 9 3 10 4 11 5 24 6 25 7 21 8 18 9 15 10 12 11 6 12
REMARK SMILES IDX 3 13 4 14 27 15 5 16 26 17 2 18 1 19 22 20 23 21 13 22 14 23
REMARK SMILES IDX 19 24 20 25 16 26 17 27
REMARK H PARENT
REMARK Flexibility Score: inf
ROOT
ATOM      1  C   UNL     1      24.604  30.422  47.784  1.00  0.00     0.138 A 
ATOM      2  C   UNL     1      25.781  29.691  47.576  1.00  0.00     0.100 A 
ATOM      3  C   UNL     1      25.730  28.297  47.564  1.00  0.00     0.197 A 
ATOM      4  O   UNL     1      26.799  27.657  47.376  1.00  0.00    -0.289 OA
ATOM      5  C   UNL     1      24.493  27.637  47.754  1.00  0.00     0.115 A 
ATOM      6  C   UNL     1      23.352  28.447  47.939  1.00  0.00     0.188 A 
ATOM      7  O   UNL     1      23.455  29.772  47.948  1.00  0.00    -0.452 OA
ATOM      8  C   UNL     1      22.097  27.871  48.127  1.00  0.00     0.209 A 
ATOM      9  C   UNL     1      21.942  26.475  48.067  1.00  0.00     0.211 A 
ATOM     10  C   UNL     1      23.081  25.637  47.950  1.00  0.00     0.208 A 
ATOM     11  C   UNL     1      24.366  26.224  47.779  1.00  0.00     0.179 A 
ENDROOT
BRANCH   1  12
ATOM     12  C   UNL     1      24.594  31.906  47.813  1.00  0.00     0.018 A 
ATOM     13  C   UNL     1      24.560  34.729  47.934  1.00  0.00     0.118 A 
ATOM     14  C   UNL     1      23.836  33.971  48.859  1.00  0.00     0.047 A 
ATOM     15  C   UNL     1      25.315  34.068  46.947  1.00  0.00     0.047 A 
ATOM     16  C   UNL     1      23.855  32.575  48.804  1.00  0.00     0.016 A 
ATOM     17  C   UNL     1      25.335  32.671  46.890  1.00  0.00     0.016 A 
BRANCH  13  18
ATOM     18  O   UNL     1      24.507  36.128  48.029  1.00  0.00    -0.497 OA
ATOM     19  C   UNL     1      23.692  36.959  47.210  1.00  0.00     0.278 C 
ENDBRANCH  13  18
ENDBRANCH   1  12
BRANCH   8  20
ATOM     20  O   UNL     1      21.011  28.721  48.376  1.00  0.00    -0.490 OA
ATOM     21  C   UNL     1      20.542  29.004  49.690  1.00  0.00     0.278 C 
ENDBRANCH   8  20
BRANCH  11  22
ATOM     22  O   UNL     1      25.542  25.458  47.631  1.00  0.00    -0.492 OA
ATOM     23  C   UNL     1      26.193  24.663  48.616  1.00  0.00     0.278 C 
ENDBRANCH  11  22
BRANCH   9  24
ATOM     24  O   UNL     1      20.660  25.919  48.099  1.00  0.00    -0.490 OA
ATOM     25  C   UNL     1      19.877  25.746  46.922  1.00  0.00     0.279 C 
ENDBRANCH   9  24
BRANCH  10  26
ATOM     26  O   UNL     1      22.983  24.234  47.981  1.00  0.00    -0.490 OA
ATOM     27  C   UNL     1      22.792  23.358  46.875  1.00  0.00     0.278 C 
ENDBRANCH  10  26
TORSDOF 6
ENDMDL
MODEL 4
REMARK VINA RESULT:    -0.217      2.760      4.561
REMARK INTER + INTRA:          -0.888
REMARK INTER:                  -0.177
REMARK INTRA:                  -0.710
REMARK UNBOUND:                -0.594
REMARK SMILES COc1ccc(-c2cc(=O)c3c(OC)c(OC)c(OC)c(OC)c3o2)cc1
REMARK SMILES IDX 7 1 8 2 9 3 10 4 11 5 24 6 25 7 21 8 18 9 15 10 12 11 6 12
REMARK SMILES IDX 3 13 4 14 27 15 5 16 26 17 2 18 1 19 22 20 23 21 13 22 14 23
REMARK SMILES IDX 19 24 20 25 16 26 17 27
REMARK H PARENT
REMARK Flexibility Score: inf
ROOT
ATOM      1  C   UNL     1      22.759  29.939  50.011  1.00  0.00     0.138 A 
ATOM      2  C   UNL     1      21.455  29.433  50.096  1.00  0.00     0.100 A 
ATOM      3  C   UNL     1      21.155  28.209  49.498  1.00  0.00     0.197 A 
ATOM      4  O   UNL     1      19.976  27.769  49.585  1.00  0.00    -0.289 OA
ATOM      5  C   UNL     1      22.166  27.490  48.818  1.00  0.00     0.115 A 
ATOM      6  C   UNL     1      23.457  28.061  48.794  1.00  0.00     0.188 A 
ATOM      7  O   UNL     1      23.691  29.234  49.375  1.00  0.00    -0.452 OA
ATOM      8  C   UNL     1      24.508  27.412  48.149  1.00  0.00     0.209 A 
ATOM      9  C   UNL     1      24.309  26.145  47.572  1.00  0.00     0.211 A 
ATOM     10  C   UNL     1      23.009  25.580  47.525  1.00  0.00     0.208 A 
ATOM     11  C   UNL     1      21.930  26.253  48.164  1.00  0.00     0.179 A 
ENDROOT
BRANCH   1  12
ATOM     12  C   UNL     1      23.140  31.237  50.623  1.00  0.00     0.018 A 
ATOM     13  C   UNL     1      23.933  33.687  51.784  1.00  0.00     0.118 A 
ATOM     14  C   UNL     1      24.758  32.563  51.872  1.00  0.00     0.047 A 
ATOM     15  C   UNL     1      22.706  33.587  51.102  1.00  0.00     0.047 A 
ATOM     16  C   UNL     1      24.371  31.350  51.294  1.00  0.00     0.016 A 
ATOM     17  C   UNL     1      22.317  32.375  50.523  1.00  0.00     0.016 A 
BRANCH  13  18
ATOM     18  O   UNL     1      24.365  34.880  52.382  1.00  0.00    -0.497 OA
ATOM     19  C   UNL     1      25.692  35.389  52.292  1.00  0.00     0.278 C 
ENDBRANCH  13  18
ENDBRANCH   1  12
BRANCH   8  20
ATOM     20  O   UNL     1      25.750  28.058  48.095  1.00  0.00    -0.490 OA
ATOM     21  C   UNL     1      26.175  28.813  46.965  1.00  0.00     0.278 C 
ENDBRANCH   8  20
BRANCH  11  22
ATOM     22  O   UNL     1      20.614  25.744  48.182  1.00  0.00    -0.492 OA
ATOM     23  C   UNL     1      19.719  25.606  47.084  1.00  0.00     0.278 C 
ENDBRANCH  11  22
BRANCH   9  24
ATOM     24  O   UNL     1      25.403  25.436  47.069  1.00  0.00    -0.490 OA
ATOM     25  C   UNL     1      26.188  24.570  47.883  1.00  0.00     0.279 C 
ENDBRANCH   9  24
BRANCH  10  26
ATOM     26  O   UNL     1      22.747  24.360  46.875  1.00  0.00    -0.490 OA
ATOM     27  C   UNL     1      22.756  23.058  47.449  1.00  0.00     0.278 C 
ENDBRANCH  10  26
TORSDOF 6
ENDMDL
MODEL 5
REMARK VINA RESULT:    -0.212      4.635      7.065
REMARK INTER + INTRA:          -0.881
REMARK INTER:                  -0.154
REMARK INTRA:                  -0.727
REMARK UNBOUND:                -0.594
REMARK SMILES COc1ccc(-c2cc(=O)c3c(OC)c(OC)c(OC)c(OC)c3o2)cc1
REMARK SMILES IDX 7 1 8 2 9 3 10 4 11 5 24 6 25 7 21 8 18 9 15 10 12 11 6 12
REMARK SMILES IDX 3 13 4 14 27 15 5 16 26 17 2 18 1 19 22 20 23 21 13 22 14 23
REMARK SMILES IDX 19 24 20 25 16 26 17 27
REMARK H PARENT
REMARK Flexibility Score: inf
ROOT
ATOM      1  C   UNL     1      30.154  27.289  50.065  1.00  0.00     0.138 A 
ATOM      2  C   UNL     1      29.551  28.546  50.205  1.00  0.00     0.100 A 
ATOM      3  C   UNL     1      28.311  28.782  49.610  1.00  0.00     0.197 A 
ATOM      4  O   UNL     1      27.784  29.919  49.747  1.00  0.00    -0.289 OA
ATOM      5  C   UNL     1      27.675  27.751  48.878  1.00  0.00     0.115 A 
ATOM      6  C   UNL     1      28.341  26.509  48.801  1.00  0.00     0.188 A 
ATOM      7  O   UNL     1      29.525  26.337  49.381  1.00  0.00    -0.452 OA
ATOM      8  C   UNL     1      27.776  25.444  48.103  1.00  0.00     0.209 A 
ATOM      9  C   UNL     1      26.501  25.574  47.524  1.00  0.00     0.211 A 
ATOM     10  C   UNL     1      25.840  26.829  47.531  1.00  0.00     0.208 A 
ATOM     11  C   UNL     1      26.427  27.924  48.225  1.00  0.00     0.179 A 
ENDROOT
BRANCH   1  12
ATOM     12  C   UNL     1      31.473  26.978  50.671  1.00  0.00     0.018 A 
ATOM     13  C   UNL     1      33.990  26.333  51.781  1.00  0.00     0.118 A 
ATOM     14  C   UNL     1      33.234  25.357  51.125  1.00  0.00     0.047 A 
ATOM     15  C   UNL     1      33.487  27.643  51.873  1.00  0.00     0.047 A 
ATOM     16  C   UNL     1      31.991  25.674  50.571  1.00  0.00     0.016 A 
ATOM     17  C   UNL     1      32.243  27.963  51.320  1.00  0.00     0.016 A 
BRANCH  13  18
ATOM     18  O   UNL     1      35.231  25.963  52.322  1.00  0.00    -0.497 OA
ATOM     19  C   UNL     1      35.838  24.688  52.142  1.00  0.00     0.278 C 
ENDBRANCH  13  18
ENDBRANCH   1  12
BRANCH   8  20
ATOM     20  O   UNL     1      28.513  24.257  47.999  1.00  0.00    -0.490 OA
ATOM     21  C   UNL     1      29.335  23.959  46.875  1.00  0.00     0.278 C 
ENDBRANCH   8  20
BRANCH  11  22
ATOM     22  O   UNL     1      25.820  29.197  48.298  1.00  0.00    -0.492 OA
ATOM     23  C   UNL     1      25.615  30.125  47.238  1.00  0.00     0.278 C 
ENDBRANCH  11  22
BRANCH   9  24
ATOM     24  O   UNL     1      25.878  24.454  46.966  1.00  0.00    -0.490 OA
ATOM     25  C   UNL     1      25.088  23.557  47.741  1.00  0.00     0.279 C 
ENDBRANCH   9  24
BRANCH  10  26
ATOM     26  O   UNL     1      24.608  27.029  46.883  1.00  0.00    -0.490 OA
ATOM     27  C   UNL     1      23.306  26.875  47.438  1.00  0.00     0.278 C 
ENDBRANCH  10  26
TORSDOF 6
ENDMDL
MODEL 6
REMARK VINA RESULT:    -0.210      3.414      5.537
REMARK INTER + INTRA:          -0.877
REMARK INTER:                  -0.166
REMARK INTRA:                  -0.712
REMARK UNBOUND:                -0.594
REMARK SMILES COc1ccc(-c2cc(=O)c3c(OC)c(OC)c(OC)c(OC)c3o2)cc1
REMARK SMILES IDX 7 1 8 2 9 3 10 4 11 5 24 6 25 7 21 8 18 9 15 10 12 11 6 12
REMARK SMILES IDX 3 13 4 14 27 15 5 16 26 17 2 18 1 19 22 20 23 21 13 22 14 23
REMARK SMILES IDX 19 24 20 25 16 26 17 27
REMARK H PARENT
REMARK Flexibility Score: inf
ROOT
ATOM      1  C   UNL     1      24.760  26.814  47.999  1.00  0.00     0.138 A 
ATOM      2  C   UNL     1      23.950  27.891  47.616  1.00  0.00     0.100 A 
ATOM      3  C   UNL     1      22.564  27.785  47.740  1.00  0.00     0.197 A 
ATOM      4  O   UNL     1      21.852  28.765  47.391  1.00  0.00    -0.289 OA
ATOM      5  C   UNL     1      21.993  26.598  48.256  1.00  0.00     0.115 A 
ATOM      6  C   UNL     1      22.880  25.568  48.635  1.00  0.00     0.188 A 
ATOM      7  O   UNL     1      24.193  25.716  48.491  1.00  0.00    -0.452 OA
ATOM      8  C   UNL     1      22.394  24.370  49.157  1.00  0.00     0.209 A 
ATOM      9  C   UNL     1      21.015  24.201  49.374  1.00  0.00     0.211 A 
ATOM     10  C   UNL     1      20.099  25.193  48.941  1.00  0.00     0.208 A 
ATOM     11  C   UNL     1      20.593  26.408  48.388  1.00  0.00     0.179 A 
ENDROOT
BRANCH   1  12
ATOM     12  C   UNL     1      26.240  26.864  47.887  1.00  0.00     0.018 A 
ATOM     13  C   UNL     1      29.058  26.893  47.696  1.00  0.00     0.118 A 
ATOM     14  C   UNL     1      28.417  26.011  48.571  1.00  0.00     0.047 A 
ATOM     15  C   UNL     1      28.282  27.760  46.904  1.00  0.00     0.047 A 
ATOM     16  C   UNL     1      27.023  25.991  48.664  1.00  0.00     0.016 A 
ATOM     17  C   UNL     1      26.887  27.742  46.996  1.00  0.00     0.016 A 
BRANCH  13  18
ATOM     18  O   UNL     1      30.460  26.876  47.641  1.00  0.00    -0.497 OA
ATOM     19  C   UNL     1      31.286  26.038  48.442  1.00  0.00     0.278 C 
ENDBRANCH  13  18
ENDBRANCH   1  12
BRANCH   8  20
ATOM     20  O   UNL     1      23.315  23.356  49.450  1.00  0.00    -0.490 OA
ATOM     21  C   UNL     1      23.524  22.237  48.594  1.00  0.00     0.278 C 
ENDBRANCH   8  20
BRANCH  11  22
ATOM     22  O   UNL     1      19.747  27.452  47.957  1.00  0.00    -0.492 OA
ATOM     23  C   UNL     1      18.822  27.431  46.875  1.00  0.00     0.278 C 
ENDBRANCH  11  22
BRANCH   9  24
ATOM     24  O   UNL     1      20.556  23.062  50.042  1.00  0.00    -0.490 OA
ATOM     25  C   UNL     1      20.491  22.988  51.463  1.00  0.00     0.279 C 
ENDBRANCH   9  24
BRANCH  10  26
ATOM     26  O   UNL     1      18.706  25.025  49.052  1.00  0.00    -0.490 OA
ATOM     27  C   UNL     1      17.875  25.413  50.140  1.00  0.00     0.278 C 
ENDBRANCH  10  26
TORSDOF 6
ENDMDL
MODEL 7
REMARK VINA RESULT:    -0.208      2.682      2.874
REMARK INTER + INTRA:          -0.875
REMARK INTER:                  -0.147
REMARK INTRA:                  -0.727
REMARK UNBOUND:                -0.594
REMARK SMILES COc1ccc(-c2cc(=O)c3c(OC)c(OC)c(OC)c(OC)c3o2)cc1
REMARK SMILES IDX 7 1 8 2 9 3 10 4 11 5 24 6 25 7 21 8 18 9 15 10 12 11 6 12
REMARK SMILES IDX 3 13 4 14 27 15 5 16 26 17 2 18 1 19 22 20 23 21 13 22 14 23
REMARK SMILES IDX 19 24 20 25 16 26 17 27
REMARK H PARENT
REMARK Flexibility Score: inf
ROOT
ATOM      1  C   UNL     1      24.539  29.569  49.339  1.00  0.00     0.138 A 
ATOM      2  C   UNL     1      25.389  29.136  48.313  1.00  0.00     0.100 A 
ATOM      3  C   UNL     1      25.251  27.842  47.808  1.00  0.00     0.197 A 
ATOM      4  O   UNL     1      26.025  27.471  46.885  1.00  0.00    -0.289 OA
ATOM      5  C   UNL     1      24.253  26.986  48.329  1.00  0.00     0.115 A 
ATOM      6  C   UNL     1      23.426  27.506  49.348  1.00  0.00     0.188 A 
ATOM      7  O   UNL     1      23.603  28.744  49.800  1.00  0.00    -0.452 OA
ATOM      8  C   UNL     1      22.417  26.726  49.910  1.00  0.00     0.209 A 
ATOM      9  C   UNL     1      22.167  25.432  49.418  1.00  0.00     0.211 A 
ATOM     10  C   UNL     1      23.024  24.863  48.442  1.00  0.00     0.208 A 
ATOM     11  C   UNL     1      24.069  25.652  47.884  1.00  0.00     0.179 A 
ENDROOT
BRANCH   1  12
ATOM     12  C   UNL     1      24.639  30.931  49.920  1.00  0.00     0.018 A 
ATOM     13  C   UNL     1      24.794  33.501  51.083  1.00  0.00     0.118 A 
ATOM     14  C   UNL     1      23.781  32.614  51.458  1.00  0.00     0.047 A 
ATOM     15  C   UNL     1      25.742  33.094  50.126  1.00  0.00     0.047 A 
ATOM     16  C   UNL     1      23.704  31.341  50.888  1.00  0.00     0.016 A 
ATOM     17  C   UNL     1      25.667  31.820  49.554  1.00  0.00     0.016 A 
BRANCH  13  18
ATOM     18  O   UNL     1      24.827  34.769  51.683  1.00  0.00    -0.497 OA
ATOM     19  C   UNL     1      24.051  35.142  52.817  1.00  0.00     0.278 C 
ENDBRANCH  13  18
ENDBRANCH   1  12
BRANCH   8  20
ATOM     20  O   UNL     1      21.674  27.268  50.966  1.00  0.00    -0.490 OA
ATOM     21  C   UNL     1      21.966  26.994  52.332  1.00  0.00     0.278 C 
ENDBRANCH   8  20
BRANCH  11  22
ATOM     22  O   UNL     1      24.947  25.165  46.892  1.00  0.00    -0.492 OA
ATOM     23  C   UNL     1      25.942  24.156  47.030  1.00  0.00     0.278 C 
ENDBRANCH  11  22
BRANCH   9  24
ATOM     24  O   UNL     1      21.055  24.722  49.878  1.00  0.00    -0.490 OA
ATOM     25  C   UNL     1      19.773  24.837  49.268  1.00  0.00     0.279 C 
ENDBRANCH   9  24
BRANCH  10  26
ATOM     26  O   UNL     1      22.869  23.539  47.991  1.00  0.00    -0.490 OA
ATOM     27  C   UNL     1      22.106  23.093  46.875  1.00  0.00     0.278 C 
ENDBRANCH  10  26
TORSDOF 6
ENDMDL
MODEL 8
REMARK VINA RESULT:    -0.203      2.383      4.419
REMARK INTER + INTRA:          -0.868
REMARK INTER:                  -0.270
REMARK INTRA:                  -0.598
REMARK UNBOUND:                -0.594
REMARK SMILES COc1ccc(-c2cc(=O)c3c(OC)c(OC)c(OC)c(OC)c3o2)cc1
REMARK SMILES IDX 7 1 8 2 9 3 10 4 11 5 24 6 25 7 21 8 18 9 15 10 12 11 6 12
REMARK SMILES IDX 3 13 4 14 27 15 5 16 26 17 2 18 1 19 22 20 23 21 13 22 14 23
REMARK SMILES IDX 19 24 20 25 16 26 17 27
REMARK H PARENT
REMARK Flexibility Score: inf
ROOT
ATOM      1  C   UNL     1      27.277  28.246  47.796  1.00  0.00     0.138 A 
ATOM      2  C   UNL     1      26.196  29.099  47.535  1.00  0.00     0.100 A 
ATOM      3  C   UNL     1      24.926  28.555  47.338  1.00  0.00     0.197 A 
ATOM      4  O   UNL     1      23.966  29.338  47.104  1.00  0.00    -0.289 OA
ATOM      5  C   UNL     1      24.741  27.154  47.411  1.00  0.00     0.115 A 
ATOM      6  C   UNL     1      25.878  26.368  47.697  1.00  0.00     0.188 A 
ATOM      7  O   UNL     1      27.068  26.935  47.870  1.00  0.00    -0.452 OA
ATOM      8  C   UNL     1      25.777  24.982  47.790  1.00  0.00     0.209 A 
ATOM      9  C   UNL     1      24.524  24.354  47.668  1.00  0.00     0.211 A 
ATOM     10  C   UNL     1      23.379  25.113  47.315  1.00  0.00     0.208 A 
ATOM     11  C   UNL     1      23.486  26.528  47.198  1.00  0.00     0.179 A 
ENDROOT
BRANCH   1  12
ATOM     12  C   UNL     1      28.652  28.764  48.010  1.00  0.00     0.018 A 
ATOM     13  C   UNL     1      31.294  29.686  48.398  1.00  0.00     0.118 A 
ATOM     14  C   UNL     1      31.002  28.321  48.471  1.00  0.00     0.047 A 
ATOM     15  C   UNL     1      30.257  30.595  48.119  1.00  0.00     0.047 A 
ATOM     16  C   UNL     1      29.698  27.861  48.275  1.00  0.00     0.016 A 
ATOM     17  C   UNL     1      28.950  30.137  47.923  1.00  0.00     0.016 A 
BRANCH  13  18
ATOM     18  O   UNL     1      32.620  30.097  48.604  1.00  0.00    -0.497 OA
ATOM     19  C   UNL     1      33.057  31.451  48.562  1.00  0.00     0.278 C 
ENDBRANCH  13  18
ENDBRANCH   1  12
BRANCH   8  20
ATOM     20  O   UNL     1      26.950  24.246  48.006  1.00  0.00    -0.490 OA
ATOM     21  C   UNL     1      27.732  23.718  46.940  1.00  0.00     0.278 C 
ENDBRANCH   8  20
BRANCH  11  22
ATOM     22  O   UNL     1      22.388  27.353  46.875  1.00  0.00    -0.492 OA
ATOM     23  C   UNL     1      21.275  27.682  47.699  1.00  0.00     0.278 C 
ENDBRANCH  11  22
BRANCH   9  24
ATOM     24  O   UNL     1      24.410  22.984  47.920  1.00  0.00    -0.490 OA
ATOM     25  C   UNL     1      24.438  22.014  46.878  1.00  0.00     0.279 C 
ENDBRANCH   9  24
BRANCH  10  26
ATOM     26  O   UNL     1      22.125  24.515  47.089  1.00  0.00    -0.490 OA
ATOM     27  C   UNL     1      21.201  24.054  48.069  1.00  0.00     0.278 C 
ENDBRANCH  10  26
TORSDOF 6
ENDMDL
MODEL 9
REMARK VINA RESULT:     0.385      2.935      4.508
REMARK INTER + INTRA:          -0.074
REMARK INTER:                   0.576
REMARK INTRA:                  -0.650
REMARK UNBOUND:                -0.594
REMARK SMILES COc1ccc(-c2cc(=O)c3c(OC)c(OC)c(OC)c(OC)c3o2)cc1
REMARK SMILES IDX 7 1 8 2 9 3 10 4 11 5 24 6 25 7 21 8 18 9 15 10 12 11 6 12
REMARK SMILES IDX 3 13 4 14 27 15 5 16 26 17 2 18 1 19 22 20 23 21 13 22 14 23
REMARK SMILES IDX 19 24 20 25 16 26 17 27
REMARK H PARENT
REMARK Flexibility Score: inf
ROOT
ATOM      1  C   UNL     1      28.384  26.842  47.996  1.00  0.00     0.138 A 
ATOM      2  C   UNL     1      28.166  25.463  48.120  1.00  0.00     0.100 A 
ATOM      3  C   UNL     1      26.867  24.963  48.023  1.00  0.00     0.197 A 
ATOM      4  O   UNL     1      26.690  23.720  48.138  1.00  0.00    -0.289 OA
ATOM      5  C   UNL     1      25.787  25.849  47.796  1.00  0.00     0.115 A 
ATOM      6  C   UNL     1      26.095  27.220  47.665  1.00  0.00     0.188 A 
ATOM      7  O   UNL     1      27.350  27.647  47.770  1.00  0.00    -0.452 OA
ATOM      8  C   UNL     1      25.087  28.154  47.434  1.00  0.00     0.209 A 
ATOM      9  C   UNL     1      23.756  27.732  47.262  1.00  0.00     0.211 A 
ATOM     10  C   UNL     1      23.411  26.370  47.454  1.00  0.00     0.208 A 
ATOM     11  C   UNL     1      24.438  25.418  47.712  1.00  0.00     0.179 A 
ENDROOT
BRANCH   1  12
ATOM     12  C   UNL     1      29.742  27.435  48.093  1.00  0.00     0.018 A 
ATOM     13  C   UNL     1      32.348  28.516  48.232  1.00  0.00     0.118 A 
ATOM     14  C   UNL     1      32.152  27.188  47.841  1.00  0.00     0.047 A 
ATOM     15  C   UNL     1      31.230  29.311  48.545  1.00  0.00     0.047 A 
ATOM     16  C   UNL     1      30.864  26.652  47.767  1.00  0.00     0.016 A 
ATOM     17  C   UNL     1      29.940  28.776  48.472  1.00  0.00     0.016 A 
BRANCH  13  18
ATOM     18  O   UNL     1      33.661  29.007  48.293  1.00  0.00    -0.497 OA
ATOM     19  C   UNL     1      34.042  30.330  47.933  1.00  0.00     0.278 C 
ENDBRANCH  13  18
ENDBRANCH   1  12
BRANCH   8  20
ATOM     20  O   UNL     1      25.441  29.509  47.383  1.00  0.00    -0.490 OA
ATOM     21  C   UNL     1      25.449  30.345  48.535  1.00  0.00     0.278 C 
ENDBRANCH   8  20
BRANCH  11  22
ATOM     22  O   UNL     1      24.177  24.042  47.890  1.00  0.00    -0.492 OA
ATOM     23  C   UNL     1      23.754  23.102  46.908  1.00  0.00     0.278 C 
ENDBRANCH  11  22
BRANCH   9  24
ATOM     24  O   UNL     1      22.783  28.656  46.875  1.00  0.00    -0.490 OA
ATOM     25  C   UNL     1      21.986  29.363  47.821  1.00  0.00     0.279 C 
ENDBRANCH   9  24
BRANCH  10  26
ATOM     26  O   UNL     1      22.080  25.918  47.385  1.00  0.00    -0.490 OA
ATOM     27  C   UNL     1      21.165  25.764  48.464  1.00  0.00     0.278 C 
ENDBRANCH  10  26
TORSDOF 6
ENDMDL
