MODEL 1
REMARK VINA RESULT:    15.131      0.000      0.000
REMARK INTER + INTRA:          26.782
REMARK INTER:                  27.514
REMARK INTRA:                  -0.732
REMARK UNBOUND:                -0.732
REMARK SMILES CCCCCCCCCCCCCCCC(=O)[O-]
REMARK SMILES IDX 9 1 10 2 11 3 12 4 13 5 14 6 15 7 16 8 17 9 18 10 8 11 7 12
REMARK SMILES IDX 6 13 5 14 4 15 3 16 2 17 1 18
REMARK H PARENT
REMARK Flexibility Score: inf
ROOT
ATOM      1  C   UNL     1     -15.596 -12.486 -22.382  1.00  0.00     0.000 C 
ENDROOT
BRANCH   1   2
ATOM      2  C   UNL     1     -16.500 -13.705 -22.636  1.00  0.00     0.000 C 
BRANCH   2   3
ATOM      3  C   UNL     1     -17.241 -13.627 -23.984  1.00  0.00     0.000 C 
BRANCH   3   4
ATOM      4  C   UNL     1     -18.524 -12.774 -23.970  1.00  0.00     0.000 C 
BRANCH   4   5
ATOM      5  C   UNL     1     -19.569 -13.252 -24.994  1.00  0.00     0.000 C 
BRANCH   5   6
ATOM      6  C   UNL     1     -21.011 -13.027 -24.514  1.00  0.00     0.006 C 
BRANCH   6   7
ATOM      7  C   UNL     1     -21.759 -14.339 -24.240  1.00  0.00     0.053 C 
BRANCH   7   8
ATOM      8  C   UNL     1     -22.163 -14.419 -22.802  1.00  0.00     0.041 C 
ATOM      9  O   UNL     1     -21.800 -13.528 -21.991  1.00  0.00    -0.550 OA
ATOM     10  O   UNL     1     -22.899 -15.507 -22.347  1.00  0.00    -0.550 OA
ENDBRANCH   7   8
ENDBRANCH   6   7
ENDBRANCH   5   6
ENDBRANCH   4   5
ENDBRANCH   3   4
ENDBRANCH   2   3
ENDBRANCH   1   2
BRANCH   1  11
ATOM     11  C   UNL     1     -14.663 -12.183 -23.565  1.00  0.00     0.000 C 
BRANCH  11  12
ATOM     12  C   UNL     1     -13.744 -10.977 -23.308  1.00  0.00    -0.000 C 
BRANCH  12  13
ATOM     13  C   UNL     1     -14.382  -9.682 -23.835  1.00  0.00    -0.000 C 
BRANCH  13  14
ATOM     14  C   UNL     1     -14.147  -8.483 -22.902  1.00  0.00    -0.000 C 
BRANCH  14  15
ATOM     15  C   UNL     1     -12.863  -8.619 -22.072  1.00  0.00    -0.000 C 
BRANCH  15  16
ATOM     16  C   UNL     1     -12.952  -7.783 -20.785  1.00  0.00    -0.000 C 
BRANCH  16  17
ATOM     17  C   UNL     1     -12.199  -8.425 -19.610  1.00  0.00    -0.003 C 
ATOM     18  C   UNL     1     -13.012  -8.423 -18.316  1.00  0.00     0.004 C 
ENDBRANCH  16  17
ENDBRANCH  15  16
ENDBRANCH  14  15
ENDBRANCH  13  14
ENDBRANCH  12  13
ENDBRANCH  11  12
ENDBRANCH   1  11
TORSDOF 14
ENDMDL
MODEL 2
REMARK VINA RESULT:    15.560      1.751      2.707
REMARK INTER + INTRA:          27.562
REMARK INTER:                  28.207
REMARK INTRA:                  -0.645
REMARK UNBOUND:                -0.732
REMARK SMILES CCCCCCCCCCCCCCCC(=O)[O-]
REMARK SMILES IDX 9 1 10 2 11 3 12 4 13 5 14 6 15 7 16 8 17 9 18 10 8 11 7 12
REMARK SMILES IDX 6 13 5 14 4 15 3 16 2 17 1 18
REMARK H PARENT
REMARK Flexibility Score: inf
ROOT
ATOM      1  C   UNL     1     -15.720 -12.641 -22.140  1.00  0.00     0.000 C 
ENDROOT
BRANCH   1   2
ATOM      2  C   UNL     1     -16.660 -13.817 -22.459  1.00  0.00     0.000 C 
BRANCH   2   3
ATOM      3  C   UNL     1     -17.236 -13.751 -23.886  1.00  0.00     0.000 C 
BRANCH   3   4
ATOM      4  C   UNL     1     -18.432 -12.795 -24.059  1.00  0.00     0.000 C 
BRANCH   4   5
ATOM      5  C   UNL     1     -19.486 -13.330 -25.044  1.00  0.00     0.000 C 
BRANCH   5   6
ATOM      6  C   UNL     1     -20.923 -13.009 -24.603  1.00  0.00     0.006 C 
BRANCH   6   7
ATOM      7  C   UNL     1     -21.755 -14.268 -24.325  1.00  0.00     0.053 C 
BRANCH   7   8
ATOM      8  C   UNL     1     -22.092 -14.361 -22.870  1.00  0.00     0.041 C 
ATOM      9  O   UNL     1     -21.745 -13.445 -22.080  1.00  0.00    -0.550 OA
ATOM     10  O   UNL     1     -22.746 -15.484 -22.379  1.00  0.00    -0.550 OA
ENDBRANCH   7   8
ENDBRANCH   6   7
ENDBRANCH   5   6
ENDBRANCH   4   5
ENDBRANCH   3   4
ENDBRANCH   2   3
ENDBRANCH   1   2
BRANCH   1  11
ATOM     11  C   UNL     1     -14.838 -12.247 -23.336  1.00  0.00     0.000 C 
BRANCH  11  12
ATOM     12  C   UNL     1     -13.956 -11.021 -23.049  1.00  0.00    -0.000 C 
BRANCH  12  13
ATOM     13  C   UNL     1     -14.343  -9.845 -23.959  1.00  0.00    -0.000 C 
BRANCH  13  14
ATOM     14  C   UNL     1     -14.008  -8.479 -23.338  1.00  0.00    -0.000 C 
BRANCH  14  15
ATOM     15  C   UNL     1     -15.066  -7.410 -23.652  1.00  0.00    -0.000 C 
BRANCH  15  16
ATOM     16  C   UNL     1     -14.697  -6.632 -24.925  1.00  0.00    -0.000 C 
BRANCH  16  17
ATOM     17  C   UNL     1     -14.398  -5.151 -24.647  1.00  0.00    -0.003 C 
ATOM     18  C   UNL     1     -13.006  -4.730 -25.119  1.00  0.00     0.004 C 
ENDBRANCH  16  17
ENDBRANCH  15  16
ENDBRANCH  14  15
ENDBRANCH  13  14
ENDBRANCH  12  13
ENDBRANCH  11  12
ENDBRANCH   1  11
TORSDOF 14
ENDMDL
MODEL 3
REMARK VINA RESULT:    16.611      3.897      8.760
REMARK INTER + INTRA:          29.474
REMARK INTER:                  30.201
REMARK INTRA:                  -0.726
REMARK UNBOUND:                -0.732
REMARK SMILES CCCCCCCCCCCCCCCC(=O)[O-]
REMARK SMILES IDX 9 1 10 2 11 3 12 4 13 5 14 6 15 7 16 8 17 9 18 10 8 11 7 12
REMARK SMILES IDX 6 13 5 14 4 15 3 16 2 17 1 18
REMARK H PARENT
REMARK Flexibility Score: inf
ROOT
ATOM      1  C   UNL     1     -14.369 -12.016 -23.821  1.00  0.00     0.000 C 
ENDROOT
BRANCH   1   2
ATOM      2  C   UNL     1     -13.699 -10.690 -23.416  1.00  0.00     0.000 C 
BRANCH   2   3
ATOM      3  C   UNL     1     -14.673  -9.498 -23.442  1.00  0.00     0.000 C 
BRANCH   3   4
ATOM      4  C   UNL     1     -14.059  -8.149 -23.018  1.00  0.00     0.000 C 
BRANCH   4   5
ATOM      5  C   UNL     1     -12.855  -8.313 -22.074  1.00  0.00     0.000 C 
BRANCH   5   6
ATOM      6  C   UNL     1     -13.146  -7.805 -20.653  1.00  0.00     0.006 C 
BRANCH   6   7
ATOM      7  C   UNL     1     -12.194  -8.395 -19.604  1.00  0.00     0.053 C 
BRANCH   7   8
ATOM      8  C   UNL     1     -12.922  -8.648 -18.322  1.00  0.00     0.041 C 
ATOM      9  O   UNL     1     -12.832  -9.767 -17.752  1.00  0.00    -0.550 OA
ATOM     10  O   UNL     1     -13.740  -7.664 -17.781  1.00  0.00    -0.550 OA
ENDBRANCH   7   8
ENDBRANCH   6   7
ENDBRANCH   5   6
ENDBRANCH   4   5
ENDBRANCH   3   4
ENDBRANCH   2   3
ENDBRANCH   1   2
BRANCH   1  11
ATOM     11  C   UNL     1     -15.273 -12.585 -22.716  1.00  0.00     0.000 C 
BRANCH  11  12
ATOM     12  C   UNL     1     -16.256 -13.647 -23.235  1.00  0.00    -0.000 C 
BRANCH  12  13
ATOM     13  C   UNL     1     -17.702 -13.133 -23.166  1.00  0.00    -0.000 C 
BRANCH  13  14
ATOM     14  C   UNL     1     -18.473 -13.353 -24.478  1.00  0.00    -0.000 C 
BRANCH  14  15
ATOM     15  C   UNL     1     -19.899 -12.783 -24.430  1.00  0.00    -0.000 C 
BRANCH  15  16
ATOM     16  C   UNL     1     -20.897 -13.751 -25.086  1.00  0.00    -0.000 C 
BRANCH  16  17
ATOM     17  C   UNL     1     -21.915 -14.318 -24.085  1.00  0.00    -0.003 C 
ATOM     18  C   UNL     1     -21.800 -13.681 -22.700  1.00  0.00     0.004 C 
ENDBRANCH  16  17
ENDBRANCH  15  16
ENDBRANCH  14  15
ENDBRANCH  13  14
ENDBRANCH  12  13
ENDBRANCH  11  12
ENDBRANCH   1  11
TORSDOF 14
ENDMDL
MODEL 4
REMARK VINA RESULT:    16.871      3.915      8.664
REMARK INTER + INTRA:          29.946
REMARK INTER:                  30.763
REMARK INTRA:                  -0.816
REMARK UNBOUND:                -0.732
REMARK SMILES CCCCCCCCCCCCCCCC(=O)[O-]
REMARK SMILES IDX 9 1 10 2 11 3 12 4 13 5 14 6 15 7 16 8 17 9 18 10 8 11 7 12
REMARK SMILES IDX 6 13 5 14 4 15 3 16 2 17 1 18
REMARK H PARENT
REMARK Flexibility Score: inf
ROOT
ATOM      1  C   UNL     1     -15.813 -12.390 -22.502  1.00  0.00     0.000 C 
ENDROOT
BRANCH   1   2
ATOM      2  C   UNL     1     -14.388 -12.285 -23.075  1.00  0.00     0.000 C 
BRANCH   2   3
ATOM      3  C   UNL     1     -14.255 -11.187 -24.146  1.00  0.00     0.000 C 
BRANCH   3   4
ATOM      4  C   UNL     1     -13.543  -9.904 -23.676  1.00  0.00     0.000 C 
BRANCH   4   5
ATOM      5  C   UNL     1     -14.525  -8.775 -23.316  1.00  0.00     0.000 C 
BRANCH   5   6
ATOM      6  C   UNL     1     -13.857  -7.643 -22.520  1.00  0.00     0.006 C 
BRANCH   6   7
ATOM      7  C   UNL     1     -12.764  -8.150 -21.569  1.00  0.00     0.053 C 
BRANCH   7   8
ATOM      8  C   UNL     1     -13.112  -7.821 -20.151  1.00  0.00     0.041 C 
ATOM      9  O   UNL     1     -13.996  -6.962 -19.898  1.00  0.00    -0.550 OA
ATOM     10  O   UNL     1     -12.423  -8.429 -19.108  1.00  0.00    -0.550 OA
ENDBRANCH   7   8
ENDBRANCH   6   7
ENDBRANCH   5   6
ENDBRANCH   4   5
ENDBRANCH   3   4
ENDBRANCH   2   3
ENDBRANCH   1   2
BRANCH   1  11
ATOM     11  C   UNL     1     -16.484 -13.734 -22.826  1.00  0.00     0.000 C 
BRANCH  11  12
ATOM     12  C   UNL     1     -17.305 -13.694 -24.125  1.00  0.00    -0.000 C 
BRANCH  12  13
ATOM     13  C   UNL     1     -18.601 -12.894 -23.929  1.00  0.00    -0.000 C 
BRANCH  13  14
ATOM     14  C   UNL     1     -19.688 -13.262 -24.952  1.00  0.00    -0.000 C 
BRANCH  14  15
ATOM     15  C   UNL     1     -21.109 -13.091 -24.396  1.00  0.00    -0.000 C 
BRANCH  15  16
ATOM     16  C   UNL     1     -21.881 -14.419 -24.449  1.00  0.00    -0.000 C 
BRANCH  16  17
ATOM     17  C   UNL     1     -22.517 -14.788 -23.100  1.00  0.00    -0.003 C 
ATOM     18  C   UNL     1     -21.941 -13.982 -21.936  1.00  0.00     0.004 C 
ENDBRANCH  16  17
ENDBRANCH  15  16
ENDBRANCH  14  15
ENDBRANCH  13  14
ENDBRANCH  12  13
ENDBRANCH  11  12
ENDBRANCH   1  11
TORSDOF 14
ENDMDL
MODEL 5
REMARK VINA RESULT:    17.101      3.388      8.353
REMARK INTER + INTRA:          30.366
REMARK INTER:                  30.880
REMARK INTRA:                  -0.514
REMARK UNBOUND:                -0.732
REMARK SMILES CCCCCCCCCCCCCCCC(=O)[O-]
REMARK SMILES IDX 9 1 10 2 11 3 12 4 13 5 14 6 15 7 16 8 17 9 18 10 8 11 7 12
REMARK SMILES IDX 6 13 5 14 4 15 3 16 2 17 1 18
REMARK H PARENT
REMARK Flexibility Score: inf
ROOT
ATOM      1  C   UNL     1     -16.530 -13.698 -22.538  1.00  0.00     0.000 C 
ENDROOT
BRANCH   1   2
ATOM      2  C   UNL     1     -15.475 -12.588 -22.376  1.00  0.00     0.000 C 
BRANCH   2   3
ATOM      3  C   UNL     1     -14.741 -12.267 -23.691  1.00  0.00     0.000 C 
BRANCH   3   4
ATOM      4  C   UNL     1     -13.585 -11.257 -23.559  1.00  0.00     0.000 C 
BRANCH   4   5
ATOM      5  C   UNL     1     -14.029  -9.806 -23.809  1.00  0.00     0.000 C 
BRANCH   5   6
ATOM      6  C   UNL     1     -13.484  -8.832 -22.752  1.00  0.00     0.006 C 
BRANCH   6   7
ATOM      7  C   UNL     1     -13.949  -7.387 -22.979  1.00  0.00     0.053 C 
BRANCH   7   8
ATOM      8  C   UNL     1     -15.301  -7.368 -23.619  1.00  0.00     0.041 C 
ATOM      9  O   UNL     1     -16.297  -7.840 -23.010  1.00  0.00    -0.550 OA
ATOM     10  O   UNL     1     -15.453  -6.875 -24.909  1.00  0.00    -0.550 OA
ENDBRANCH   7   8
ENDBRANCH   6   7
ENDBRANCH   5   6
ENDBRANCH   4   5
ENDBRANCH   3   4
ENDBRANCH   2   3
ENDBRANCH   1   2
BRANCH   1  11
ATOM     11  C   UNL     1     -17.086 -13.783 -23.968  1.00  0.00     0.000 C 
BRANCH  11  12
ATOM     12  C   UNL     1     -18.241 -12.800 -24.219  1.00  0.00    -0.000 C 
BRANCH  12  13
ATOM     13  C   UNL     1     -19.393 -13.490 -24.966  1.00  0.00    -0.000 C 
BRANCH  13  14
ATOM     14  C   UNL     1     -20.776 -13.001 -24.505  1.00  0.00    -0.000 C 
BRANCH  14  15
ATOM     15  C   UNL     1     -21.915 -13.920 -24.971  1.00  0.00    -0.000 C 
BRANCH  15  16
ATOM     16  C   UNL     1     -22.459 -14.755 -23.801  1.00  0.00    -0.000 C 
BRANCH  16  17
ATOM     17  C   UNL     1     -22.058 -14.185 -22.432  1.00  0.00    -0.003 C 
ATOM     18  C   UNL     1     -22.299 -15.170 -21.288  1.00  0.00     0.004 C 
ENDBRANCH  16  17
ENDBRANCH  15  16
ENDBRANCH  14  15
ENDBRANCH  13  14
ENDBRANCH  12  13
ENDBRANCH  11  12
ENDBRANCH   1  11
TORSDOF 14
ENDMDL
MODEL 6
REMARK VINA RESULT:    17.475      4.332      6.864
REMARK INTER + INTRA:          31.046
REMARK INTER:                  31.708
REMARK INTRA:                  -0.663
REMARK UNBOUND:                -0.732
REMARK SMILES CCCCCCCCCCCCCCCC(=O)[O-]
REMARK SMILES IDX 9 1 10 2 11 3 12 4 13 5 14 6 15 7 16 8 17 9 18 10 8 11 7 12
REMARK SMILES IDX 6 13 5 14 4 15 3 16 2 17 1 18
REMARK H PARENT
REMARK Flexibility Score: inf
ROOT
ATOM      1  C   UNL     1     -16.811 -14.493 -21.381  1.00  0.00     0.000 C 
ENDROOT
BRANCH   1   2
ATOM      2  C   UNL     1     -16.287 -13.292 -22.189  1.00  0.00     0.000 C 
BRANCH   2   3
ATOM      3  C   UNL     1     -16.550 -13.429 -23.700  1.00  0.00     0.000 C 
BRANCH   3   4
ATOM      4  C   UNL     1     -17.964 -13.916 -24.071  1.00  0.00     0.000 C 
BRANCH   4   5
ATOM      5  C   UNL     1     -18.734 -12.908 -24.941  1.00  0.00     0.000 C 
BRANCH   5   6
ATOM      6  C   UNL     1     -20.136 -12.603 -24.391  1.00  0.00     0.006 C 
BRANCH   6   7
ATOM      7  C   UNL     1     -21.145 -13.723 -24.680  1.00  0.00     0.053 C 
BRANCH   7   8
ATOM      8  C   UNL     1     -21.864 -14.114 -23.428  1.00  0.00     0.041 C 
ATOM      9  O   UNL     1     -21.699 -13.454 -22.369  1.00  0.00    -0.550 OA
ATOM     10  O   UNL     1     -22.678 -15.241 -23.417  1.00  0.00    -0.550 OA
ENDBRANCH   7   8
ENDBRANCH   6   7
ENDBRANCH   5   6
ENDBRANCH   4   5
ENDBRANCH   3   4
ENDBRANCH   2   3
ENDBRANCH   1   2
BRANCH   1  11
ATOM     11  C   UNL     1     -16.066 -14.682 -20.050  1.00  0.00     0.000 C 
BRANCH  11  12
ATOM     12  C   UNL     1     -16.504 -15.947 -19.295  1.00  0.00    -0.000 C 
BRANCH  12  13
ATOM     13  C   UNL     1     -17.488 -15.597 -18.168  1.00  0.00    -0.000 C 
BRANCH  13  14
ATOM     14  C   UNL     1     -16.863 -15.735 -16.770  1.00  0.00    -0.000 C 
BRANCH  14  15
ATOM     15  C   UNL     1     -17.610 -16.743 -15.884  1.00  0.00    -0.000 C 
BRANCH  15  16
ATOM     16  C   UNL     1     -19.131 -16.567 -16.017  1.00  0.00    -0.000 C 
BRANCH  16  17
ATOM     17  C   UNL     1     -19.857 -17.893 -16.291  1.00  0.00    -0.003 C 
ATOM     18  C   UNL     1     -21.148 -18.037 -15.485  1.00  0.00     0.004 C 
ENDBRANCH  16  17
ENDBRANCH  15  16
ENDBRANCH  14  15
ENDBRANCH  13  14
ENDBRANCH  12  13
ENDBRANCH  11  12
ENDBRANCH   1  11
TORSDOF 14
ENDMDL
