MODEL 1
REMARK VINA RESULT:    -3.995      0.000      0.000
REMARK INTER + INTRA:          -9.130
REMARK INTER:                  -7.264
REMARK INTRA:                  -1.865
REMARK UNBOUND:                -1.865
REMARK SMILES CCCCCCCCCCCCCCCC(=O)[O-]
REMARK SMILES IDX 9 1 10 2 11 3 12 4 13 5 14 6 15 7 16 8 17 9 18 10 8 11 7 12
REMARK SMILES IDX 6 13 5 14 4 15 3 16 2 17 1 18
REMARK H PARENT
REMARK Flexibility Score: inf
ROOT
ATOM      1  C   UNL     1      -2.860  -1.634  -4.884  1.00  0.00     0.000 C 
ENDROOT
BRANCH   1   2
ATOM      2  C   UNL     1      -3.299  -2.942  -4.200  1.00  0.00     0.000 C 
BRANCH   2   3
ATOM      3  C   UNL     1      -4.397  -3.683  -4.982  1.00  0.00     0.000 C 
BRANCH   3   4
ATOM      4  C   UNL     1      -3.991  -5.117  -5.357  1.00  0.00     0.000 C 
BRANCH   4   5
ATOM      5  C   UNL     1      -3.539  -5.939  -4.137  1.00  0.00     0.000 C 
BRANCH   5   6
ATOM      6  C   UNL     1      -2.151  -6.577  -4.330  1.00  0.00     0.006 C 
BRANCH   6   7
ATOM      7  C   UNL     1      -0.978  -5.692  -3.876  1.00  0.00     0.053 C 
BRANCH   7   8
ATOM      8  C   UNL     1      -0.365  -6.184  -2.601  1.00  0.00     0.041 C 
ATOM      9  O   UNL     1      -1.007  -6.964  -1.849  1.00  0.00    -0.550 OA
ATOM     10  O   UNL     1       0.902  -5.756  -2.229  1.00  0.00    -0.550 OA
ENDBRANCH   7   8
ENDBRANCH   6   7
ENDBRANCH   5   6
ENDBRANCH   4   5
ENDBRANCH   3   4
ENDBRANCH   2   3
ENDBRANCH   1   2
BRANCH   1  11
ATOM     11  C   UNL     1      -2.960  -1.638  -6.424  1.00  0.00     0.000 C 
BRANCH  11  12
ATOM     12  C   UNL     1      -3.639  -0.398  -7.035  1.00  0.00    -0.000 C 
BRANCH  12  13
ATOM     13  C   UNL     1      -3.844   0.732  -6.012  1.00  0.00    -0.000 C 
BRANCH  13  14
ATOM     14  C   UNL     1      -5.115   1.554  -6.286  1.00  0.00    -0.000 C 
BRANCH  14  15
ATOM     15  C   UNL     1      -6.299   1.113  -5.407  1.00  0.00    -0.000 C 
BRANCH  15  16
ATOM     16  C   UNL     1      -5.847   0.492  -4.076  1.00  0.00    -0.000 C 
BRANCH  16  17
ATOM     17  C   UNL     1      -6.559  -0.833  -3.766  1.00  0.00    -0.003 C 
ATOM     18  C   UNL     1      -7.182  -1.428  -5.025  1.00  0.00     0.004 C 
ENDBRANCH  16  17
ENDBRANCH  15  16
ENDBRANCH  14  15
ENDBRANCH  13  14
ENDBRANCH  12  13
ENDBRANCH  11  12
ENDBRANCH   1  11
TORSDOF 14
ENDMDL
MODEL 2
REMARK VINA RESULT:    -3.986      0.969      2.486
REMARK INTER + INTRA:          -9.113
REMARK INTER:                  -7.015
REMARK INTRA:                  -2.099
REMARK UNBOUND:                -1.865
REMARK SMILES CCCCCCCCCCCCCCCC(=O)[O-]
REMARK SMILES IDX 9 1 10 2 11 3 12 4 13 5 14 6 15 7 16 8 17 9 18 10 8 11 7 12
REMARK SMILES IDX 6 13 5 14 4 15 3 16 2 17 1 18
REMARK H PARENT
REMARK Flexibility Score: inf
ROOT
ATOM      1  C   UNL     1      -4.881  -3.710  -4.868  1.00  0.00     0.000 C 
ENDROOT
BRANCH   1   2
ATOM      2  C   UNL     1      -4.902  -5.231  -5.107  1.00  0.00     0.000 C 
BRANCH   2   3
ATOM      3  C   UNL     1      -3.792  -5.969  -4.341  1.00  0.00     0.000 C 
BRANCH   3   4
ATOM      4  C   UNL     1      -2.879  -6.790  -5.267  1.00  0.00     0.000 C 
BRANCH   4   5
ATOM      5  C   UNL     1      -1.677  -5.977  -5.780  1.00  0.00     0.000 C 
BRANCH   5   6
ATOM      6  C   UNL     1      -0.769  -5.476  -4.642  1.00  0.00     0.006 C 
BRANCH   6   7
ATOM      7  C   UNL     1       0.055  -6.578  -3.956  1.00  0.00     0.053 C 
BRANCH   7   8
ATOM      8  C   UNL     1       0.131  -6.380  -2.473  1.00  0.00     0.041 C 
ATOM      9  O   UNL     1      -0.804  -6.781  -1.731  1.00  0.00    -0.550 OA
ATOM     10  O   UNL     1       1.221  -5.725  -1.914  1.00  0.00    -0.550 OA
ENDBRANCH   7   8
ENDBRANCH   6   7
ENDBRANCH   5   6
ENDBRANCH   4   5
ENDBRANCH   3   4
ENDBRANCH   2   3
ENDBRANCH   1   2
BRANCH   1  11
ATOM     11  C   UNL     1      -3.654  -3.189  -4.092  1.00  0.00     0.000 C 
BRANCH  11  12
ATOM     12  C   UNL     1      -2.737  -2.239  -4.886  1.00  0.00    -0.000 C 
BRANCH  12  13
ATOM     13  C   UNL     1      -2.855  -2.435  -6.408  1.00  0.00    -0.000 C 
BRANCH  13  14
ATOM     14  C   UNL     1      -3.453  -1.208  -7.116  1.00  0.00    -0.000 C 
BRANCH  14  15
ATOM     15  C   UNL     1      -2.970   0.118  -6.501  1.00  0.00    -0.000 C 
BRANCH  15  16
ATOM     16  C   UNL     1      -4.132   1.053  -6.130  1.00  0.00    -0.000 C 
BRANCH  16  17
ATOM     17  C   UNL     1      -5.419   0.290  -5.781  1.00  0.00    -0.003 C 
ATOM     18  C   UNL     1      -5.547   0.090  -4.274  1.00  0.00     0.004 C 
ENDBRANCH  16  17
ENDBRANCH  15  16
ENDBRANCH  14  15
ENDBRANCH  13  14
ENDBRANCH  12  13
ENDBRANCH  11  12
ENDBRANCH   1  11
TORSDOF 14
ENDMDL
MODEL 3
REMARK VINA RESULT:    -3.958      0.843      1.613
REMARK INTER + INTRA:          -9.063
REMARK INTER:                  -7.019
REMARK INTRA:                  -2.044
REMARK UNBOUND:                -1.865
REMARK SMILES CCCCCCCCCCCCCCCC(=O)[O-]
REMARK SMILES IDX 9 1 10 2 11 3 12 4 13 5 14 6 15 7 16 8 17 9 18 10 8 11 7 12
REMARK SMILES IDX 6 13 5 14 4 15 3 16 2 17 1 18
REMARK H PARENT
REMARK Flexibility Score: inf
ROOT
ATOM      1  C   UNL     1      -3.691  -2.812  -4.112  1.00  0.00     0.000 C 
ENDROOT
BRANCH   1   2
ATOM      2  C   UNL     1      -4.712  -3.566  -4.983  1.00  0.00     0.000 C 
BRANCH   2   3
ATOM      3  C   UNL     1      -4.491  -5.088  -4.974  1.00  0.00     0.000 C 
BRANCH   3   4
ATOM      4  C   UNL     1      -3.517  -5.551  -6.070  1.00  0.00     0.000 C 
BRANCH   4   5
ATOM      5  C   UNL     1      -2.404  -6.460  -5.521  1.00  0.00     0.000 C 
BRANCH   5   6
ATOM      6  C   UNL     1      -2.223  -6.327  -3.998  1.00  0.00     0.006 C 
BRANCH   6   7
ATOM      7  C   UNL     1      -1.073  -5.398  -3.575  1.00  0.00     0.053 C 
BRANCH   7   8
ATOM      8  C   UNL     1       0.072  -6.158  -2.979  1.00  0.00     0.041 C 
ATOM      9  O   UNL     1       0.787  -5.630  -2.086  1.00  0.00    -0.550 OA
ATOM     10  O   UNL     1       0.369  -7.436  -3.432  1.00  0.00    -0.550 OA
ENDBRANCH   7   8
ENDBRANCH   6   7
ENDBRANCH   5   6
ENDBRANCH   4   5
ENDBRANCH   3   4
ENDBRANCH   2   3
ENDBRANCH   1   2
BRANCH   1  11
ATOM     11  C   UNL     1      -2.806  -1.801  -4.870  1.00  0.00     0.000 C 
BRANCH  11  12
ATOM     12  C   UNL     1      -2.833  -1.934  -6.404  1.00  0.00    -0.000 C 
BRANCH  12  13
ATOM     13  C   UNL     1      -3.620  -0.800  -7.085  1.00  0.00    -0.000 C 
BRANCH  13  14
ATOM     14  C   UNL     1      -3.219   0.591  -6.565  1.00  0.00    -0.000 C 
BRANCH  14  15
ATOM     15  C   UNL     1      -4.413   1.362  -5.973  1.00  0.00    -0.000 C 
BRANCH  15  16
ATOM     16  C   UNL     1      -5.595   0.441  -5.625  1.00  0.00    -0.000 C 
BRANCH  16  17
ATOM     17  C   UNL     1      -5.834   0.329  -4.112  1.00  0.00    -0.003 C 
ATOM     18  C   UNL     1      -6.857  -0.758  -3.798  1.00  0.00     0.004 C 
ENDBRANCH  16  17
ENDBRANCH  15  16
ENDBRANCH  14  15
ENDBRANCH  13  14
ENDBRANCH  12  13
ENDBRANCH  11  12
ENDBRANCH   1  11
TORSDOF 14
ENDMDL
MODEL 4
REMARK VINA RESULT:    -3.917      3.521      7.088
REMARK INTER + INTRA:          -8.989
REMARK INTER:                  -6.900
REMARK INTRA:                  -2.089
REMARK UNBOUND:                -1.865
REMARK SMILES CCCCCCCCCCCCCCCC(=O)[O-]
REMARK SMILES IDX 9 1 10 2 11 3 12 4 13 5 14 6 15 7 16 8 17 9 18 10 8 11 7 12
REMARK SMILES IDX 6 13 5 14 4 15 3 16 2 17 1 18
REMARK H PARENT
REMARK Flexibility Score: inf
ROOT
ATOM      1  C   UNL     1      -4.147  -3.923  -4.513  1.00  0.00     0.000 C 
ENDROOT
BRANCH   1   2
ATOM      2  C   UNL     1      -2.882  -3.152  -4.091  1.00  0.00     0.000 C 
BRANCH   2   3
ATOM      3  C   UNL     1      -2.630  -1.905  -4.956  1.00  0.00     0.000 C 
BRANCH   3   4
ATOM      4  C   UNL     1      -3.615  -1.792  -6.131  1.00  0.00     0.000 C 
BRANCH   4   5
ATOM      5  C   UNL     1      -3.230  -0.675  -7.116  1.00  0.00     0.000 C 
BRANCH   5   6
ATOM      6  C   UNL     1      -3.427   0.734  -6.526  1.00  0.00     0.006 C 
BRANCH   6   7
ATOM      7  C   UNL     1      -4.897   1.143  -6.338  1.00  0.00     0.053 C 
BRANCH   7   8
ATOM      8  C   UNL     1      -5.239   1.362  -4.896  1.00  0.00     0.041 C 
ATOM      9  O   UNL     1      -5.492   2.521  -4.474  1.00  0.00    -0.550 OA
ATOM     10  O   UNL     1      -5.246   0.290  -4.013  1.00  0.00    -0.550 OA
ENDBRANCH   7   8
ENDBRANCH   6   7
ENDBRANCH   5   6
ENDBRANCH   4   5
ENDBRANCH   3   4
ENDBRANCH   2   3
ENDBRANCH   1   2
BRANCH   1  11
ATOM     11  C   UNL     1      -3.892  -5.335  -5.078  1.00  0.00     0.000 C 
BRANCH  11  12
ATOM     12  C   UNL     1      -3.491  -5.380  -6.564  1.00  0.00    -0.000 C 
BRANCH  12  13
ATOM     13  C   UNL     1      -2.023  -5.793  -6.770  1.00  0.00    -0.000 C 
BRANCH  13  14
ATOM     14  C   UNL     1      -1.079  -4.584  -6.878  1.00  0.00    -0.000 C 
BRANCH  14  15
ATOM     15  C   UNL     1       0.098  -4.668  -5.889  1.00  0.00    -0.000 C 
BRANCH  15  16
ATOM     16  C   UNL     1       0.148  -6.013  -5.147  1.00  0.00    -0.000 C 
BRANCH  16  17
ATOM     17  C   UNL     1       0.264  -5.847  -3.624  1.00  0.00    -0.003 C 
ATOM     18  C   UNL     1      -1.019  -6.287  -2.926  1.00  0.00     0.004 C 
ENDBRANCH  16  17
ENDBRANCH  15  16
ENDBRANCH  14  15
ENDBRANCH  13  14
ENDBRANCH  12  13
ENDBRANCH  11  12
ENDBRANCH   1  11
TORSDOF 14
ENDMDL
MODEL 5
REMARK VINA RESULT:    -3.905      3.149      7.053
REMARK INTER + INTRA:          -8.967
REMARK INTER:                  -6.827
REMARK INTRA:                  -2.139
REMARK UNBOUND:                -1.865
REMARK SMILES CCCCCCCCCCCCCCCC(=O)[O-]
REMARK SMILES IDX 9 1 10 2 11 3 12 4 13 5 14 6 15 7 16 8 17 9 18 10 8 11 7 12
REMARK SMILES IDX 6 13 5 14 4 15 3 16 2 17 1 18
REMARK H PARENT
REMARK Flexibility Score: inf
ROOT
ATOM      1  C   UNL     1      -4.033  -3.173  -4.122  1.00  0.00     0.000 C 
ENDROOT
BRANCH   1   2
ATOM      2  C   UNL     1      -2.804  -2.428  -4.675  1.00  0.00     0.000 C 
BRANCH   2   3
ATOM      3  C   UNL     1      -2.602  -2.653  -6.183  1.00  0.00     0.000 C 
BRANCH   3   4
ATOM      4  C   UNL     1      -3.022  -1.437  -7.024  1.00  0.00     0.000 C 
BRANCH   4   5
ATOM      5  C   UNL     1      -3.141  -0.153  -6.185  1.00  0.00     0.000 C 
BRANCH   5   6
ATOM      6  C   UNL     1      -4.517   0.524  -6.325  1.00  0.00     0.006 C 
BRANCH   6   7
ATOM      7  C   UNL     1      -5.690  -0.303  -5.772  1.00  0.00     0.053 C 
BRANCH   7   8
ATOM      8  C   UNL     1      -5.940  -0.021  -4.322  1.00  0.00     0.041 C 
ATOM      9  O   UNL     1      -5.450   1.006  -3.782  1.00  0.00    -0.550 OA
ATOM     10  O   UNL     1      -6.689  -0.909  -3.561  1.00  0.00    -0.550 OA
ENDBRANCH   7   8
ENDBRANCH   6   7
ENDBRANCH   5   6
ENDBRANCH   4   5
ENDBRANCH   3   4
ENDBRANCH   2   3
ENDBRANCH   1   2
BRANCH   1  11
ATOM     11  C   UNL     1      -4.688  -4.169  -5.101  1.00  0.00     0.000 C 
BRANCH  11  12
ATOM     12  C   UNL     1      -4.657  -5.641  -4.652  1.00  0.00    -0.000 C 
BRANCH  12  13
ATOM     13  C   UNL     1      -3.897  -6.547  -5.637  1.00  0.00    -0.000 C 
BRANCH  13  14
ATOM     14  C   UNL     1      -2.435  -6.779  -5.219  1.00  0.00    -0.000 C 
BRANCH  14  15
ATOM     15  C   UNL     1      -2.191  -6.454  -3.734  1.00  0.00    -0.000 C 
BRANCH  15  16
ATOM     16  C   UNL     1      -1.002  -5.503  -3.527  1.00  0.00    -0.000 C 
BRANCH  16  17
ATOM     17  C   UNL     1      -0.036  -5.492  -4.721  1.00  0.00    -0.003 C 
ATOM     18  C   UNL     1       1.172  -6.387  -4.458  1.00  0.00     0.004 C 
ENDBRANCH  16  17
ENDBRANCH  15  16
ENDBRANCH  14  15
ENDBRANCH  13  14
ENDBRANCH  12  13
ENDBRANCH  11  12
ENDBRANCH   1  11
TORSDOF 14
ENDMDL
MODEL 6
REMARK VINA RESULT:    -3.709      1.209      2.552
REMARK INTER + INTRA:          -8.610
REMARK INTER:                  -6.751
REMARK INTRA:                  -1.859
REMARK UNBOUND:                -1.865
REMARK SMILES CCCCCCCCCCCCCCCC(=O)[O-]
REMARK SMILES IDX 9 1 10 2 11 3 12 4 13 5 14 6 15 7 16 8 17 9 18 10 8 11 7 12
REMARK SMILES IDX 6 13 5 14 4 15 3 16 2 17 1 18
REMARK H PARENT
REMARK Flexibility Score: inf
ROOT
ATOM      1  C   UNL     1      -4.295  -2.844  -4.290  1.00  0.00     0.000 C 
ENDROOT
BRANCH   1   2
ATOM      2  C   UNL     1      -2.920  -2.250  -4.650  1.00  0.00     0.000 C 
BRANCH   2   3
ATOM      3  C   UNL     1      -2.398  -2.740  -6.011  1.00  0.00     0.000 C 
BRANCH   3   4
ATOM      4  C   UNL     1      -1.336  -3.843  -5.875  1.00  0.00     0.000 C 
BRANCH   4   5
ATOM      5  C   UNL     1      -1.953  -5.252  -5.827  1.00  0.00     0.000 C 
BRANCH   5   6
ATOM      6  C   UNL     1      -1.503  -6.057  -4.594  1.00  0.00     0.006 C 
BRANCH   6   7
ATOM      7  C   UNL     1      -0.059  -5.776  -4.146  1.00  0.00     0.053 C 
BRANCH   7   8
ATOM      8  C   UNL     1       0.142  -6.063  -2.689  1.00  0.00     0.041 C 
ATOM      9  O   UNL     1       1.296  -6.020  -2.188  1.00  0.00    -0.550 OA
ATOM     10  O   UNL     1      -0.942  -6.409  -1.893  1.00  0.00    -0.550 OA
ENDBRANCH   7   8
ENDBRANCH   6   7
ENDBRANCH   5   6
ENDBRANCH   4   5
ENDBRANCH   3   4
ENDBRANCH   2   3
ENDBRANCH   1   2
BRANCH   1  11
ATOM     11  C   UNL     1      -5.285  -2.956  -5.468  1.00  0.00     0.000 C 
BRANCH  11  12
ATOM     12  C   UNL     1      -6.696  -2.408  -5.188  1.00  0.00    -0.000 C 
BRANCH  12  13
ATOM     13  C   UNL     1      -6.700  -1.296  -4.124  1.00  0.00    -0.000 C 
BRANCH  13  14
ATOM     14  C   UNL     1      -7.624  -0.125  -4.497  1.00  0.00    -0.000 C 
BRANCH  14  15
ATOM     15  C   UNL     1      -6.912   0.932  -5.361  1.00  0.00    -0.000 C 
BRANCH  15  16
ATOM     16  C   UNL     1      -5.534   1.320  -4.800  1.00  0.00    -0.000 C 
BRANCH  16  17
ATOM     17  C   UNL     1      -4.390   1.032  -5.784  1.00  0.00    -0.003 C 
ATOM     18  C   UNL     1      -4.916   0.392  -7.065  1.00  0.00     0.004 C 
ENDBRANCH  16  17
ENDBRANCH  15  16
ENDBRANCH  14  15
ENDBRANCH  13  14
ENDBRANCH  12  13
ENDBRANCH  11  12
ENDBRANCH   1  11
TORSDOF 14
ENDMDL
MODEL 7
REMARK VINA RESULT:    -3.691      1.353      2.901
REMARK INTER + INTRA:          -8.577
REMARK INTER:                  -7.056
REMARK INTRA:                  -1.521
REMARK UNBOUND:                -1.865
REMARK SMILES CCCCCCCCCCCCCCCC(=O)[O-]
REMARK SMILES IDX 9 1 10 2 11 3 12 4 13 5 14 6 15 7 16 8 17 9 18 10 8 11 7 12
REMARK SMILES IDX 6 13 5 14 4 15 3 16 2 17 1 18
REMARK H PARENT
REMARK Flexibility Score: inf
ROOT
ATOM      1  C   UNL     1      -4.430   0.047  -5.492  1.00  0.00     0.000 C 
ENDROOT
BRANCH   1   2
ATOM      2  C   UNL     1      -3.218  -0.642  -6.147  1.00  0.00     0.000 C 
BRANCH   2   3
ATOM      3  C   UNL     1      -2.488  -1.597  -5.189  1.00  0.00     0.000 C 
BRANCH   3   4
ATOM      4  C   UNL     1      -2.582  -3.066  -5.632  1.00  0.00     0.000 C 
BRANCH   4   5
ATOM      5  C   UNL     1      -2.856  -4.019  -4.456  1.00  0.00     0.000 C 
BRANCH   5   6
ATOM      6  C   UNL     1      -2.161  -5.384  -4.622  1.00  0.00     0.006 C 
BRANCH   6   7
ATOM      7  C   UNL     1      -0.656  -5.371  -4.310  1.00  0.00     0.053 C 
BRANCH   7   8
ATOM      8  C   UNL     1      -0.358  -5.951  -2.961  1.00  0.00     0.041 C 
ATOM      9  O   UNL     1       0.688  -5.615  -2.344  1.00  0.00    -0.550 OA
ATOM     10  O   UNL     1      -1.219  -6.884  -2.400  1.00  0.00    -0.550 OA
ENDBRANCH   7   8
ENDBRANCH   6   7
ENDBRANCH   5   6
ENDBRANCH   4   5
ENDBRANCH   3   4
ENDBRANCH   2   3
ENDBRANCH   1   2
BRANCH   1  11
ATOM     11  C   UNL     1      -4.884  -0.567  -4.152  1.00  0.00     0.000 C 
BRANCH  11  12
ATOM     12  C   UNL     1      -6.020  -1.601  -4.261  1.00  0.00    -0.000 C 
BRANCH  12  13
ATOM     13  C   UNL     1      -7.217  -1.085  -5.079  1.00  0.00    -0.000 C 
BRANCH  13  14
ATOM     14  C   UNL     1      -8.266  -0.376  -4.208  1.00  0.00    -0.000 C 
BRANCH  14  15
ATOM     15  C   UNL     1      -8.559   1.056  -4.691  1.00  0.00    -0.000 C 
BRANCH  15  16
ATOM     16  C   UNL     1      -7.466   2.053  -4.271  1.00  0.00    -0.000 C 
BRANCH  16  17
ATOM     17  C   UNL     1      -7.174   3.103  -5.354  1.00  0.00    -0.003 C 
ATOM     18  C   UNL     1      -6.979   2.445  -6.716  1.00  0.00     0.004 C 
ENDBRANCH  16  17
ENDBRANCH  15  16
ENDBRANCH  14  15
ENDBRANCH  13  14
ENDBRANCH  12  13
ENDBRANCH  11  12
ENDBRANCH   1  11
TORSDOF 14
ENDMDL
MODEL 8
REMARK VINA RESULT:    -3.675      3.696      7.628
REMARK INTER + INTRA:          -8.548
REMARK INTER:                  -6.907
REMARK INTRA:                  -1.640
REMARK UNBOUND:                -1.865
REMARK SMILES CCCCCCCCCCCCCCCC(=O)[O-]
REMARK SMILES IDX 9 1 10 2 11 3 12 4 13 5 14 6 15 7 16 8 17 9 18 10 8 11 7 12
REMARK SMILES IDX 6 13 5 14 4 15 3 16 2 17 1 18
REMARK H PARENT
REMARK Flexibility Score: inf
ROOT
ATOM      1  C   UNL     1      -4.244  -3.950  -4.588  1.00  0.00     0.000 C 
ENDROOT
BRANCH   1   2
ATOM      2  C   UNL     1      -2.943  -3.269  -4.122  1.00  0.00     0.000 C 
BRANCH   2   3
ATOM      3  C   UNL     1      -2.171  -2.609  -5.276  1.00  0.00     0.000 C 
BRANCH   3   4
ATOM      4  C   UNL     1      -3.042  -2.399  -6.526  1.00  0.00     0.000 C 
BRANCH   4   5
ATOM      5  C   UNL     1      -3.322  -0.912  -6.805  1.00  0.00     0.000 C 
BRANCH   5   6
ATOM      6  C   UNL     1      -4.192  -0.256  -5.716  1.00  0.00     0.006 C 
BRANCH   6   7
ATOM      7  C   UNL     1      -4.478   1.237  -5.948  1.00  0.00     0.053 C 
BRANCH   7   8
ATOM      8  C   UNL     1      -5.477   1.775  -4.970  1.00  0.00     0.041 C 
ATOM      9  O   UNL     1      -5.625   1.224  -3.847  1.00  0.00    -0.550 OA
ATOM     10  O   UNL     1      -6.266   2.865  -5.311  1.00  0.00    -0.550 OA
ENDBRANCH   7   8
ENDBRANCH   6   7
ENDBRANCH   5   6
ENDBRANCH   4   5
ENDBRANCH   3   4
ENDBRANCH   2   3
ENDBRANCH   1   2
BRANCH   1  11
ATOM     11  C   UNL     1      -4.205  -5.492  -4.598  1.00  0.00     0.000 C 
BRANCH  11  12
ATOM     12  C   UNL     1      -3.307  -6.115  -5.683  1.00  0.00    -0.000 C 
BRANCH  12  13
ATOM     13  C   UNL     1      -2.142  -6.929  -5.093  1.00  0.00    -0.000 C 
BRANCH  13  14
ATOM     14  C   UNL     1      -0.801  -6.179  -5.164  1.00  0.00    -0.000 C 
BRANCH  14  15
ATOM     15  C   UNL     1      -0.300  -5.741  -3.776  1.00  0.00    -0.000 C 
BRANCH  15  16
ATOM     16  C   UNL     1      -1.001  -6.491  -2.633  1.00  0.00    -0.000 C 
BRANCH  16  17
ATOM     17  C   UNL     1      -0.024  -7.295  -1.763  1.00  0.00    -0.003 C 
ATOM     18  C   UNL     1       1.422  -7.013  -2.159  1.00  0.00     0.004 C 
ENDBRANCH  16  17
ENDBRANCH  15  16
ENDBRANCH  14  15
ENDBRANCH  13  14
ENDBRANCH  12  13
ENDBRANCH  11  12
ENDBRANCH   1  11
TORSDOF 14
ENDMDL
MODEL 9
REMARK VINA RESULT:    -3.658      1.276      2.081
REMARK INTER + INTRA:          -8.517
REMARK INTER:                  -7.148
REMARK INTRA:                  -1.370
REMARK UNBOUND:                -1.865
REMARK SMILES CCCCCCCCCCCCCCCC(=O)[O-]
REMARK SMILES IDX 9 1 10 2 11 3 12 4 13 5 14 6 15 7 16 8 17 9 18 10 8 11 7 12
REMARK SMILES IDX 6 13 5 14 4 15 3 16 2 17 1 18
REMARK H PARENT
REMARK Flexibility Score: inf
ROOT
ATOM      1  C   UNL     1      -2.157  -2.931  -6.108  1.00  0.00     0.000 C 
ENDROOT
BRANCH   1   2
ATOM      2  C   UNL     1      -2.847  -4.307  -6.044  1.00  0.00     0.000 C 
BRANCH   2   3
ATOM      3  C   UNL     1      -3.311  -4.674  -4.624  1.00  0.00     0.000 C 
BRANCH   3   4
ATOM      4  C   UNL     1      -3.252  -6.186  -4.356  1.00  0.00     0.000 C 
BRANCH   4   5
ATOM      5  C   UNL     1      -1.810  -6.709  -4.242  1.00  0.00     0.000 C 
BRANCH   5   6
ATOM      6  C   UNL     1      -1.016  -6.025  -3.113  1.00  0.00     0.006 C 
BRANCH   6   7
ATOM      7  C   UNL     1       0.500  -5.956  -3.357  1.00  0.00     0.053 C 
BRANCH   7   8
ATOM      8  C   UNL     1       1.273  -6.674  -2.293  1.00  0.00     0.041 C 
ATOM      9  O   UNL     1       0.811  -6.763  -1.125  1.00  0.00    -0.550 OA
ATOM     10  O   UNL     1       2.517  -7.218  -2.585  1.00  0.00    -0.550 OA
ENDBRANCH   7   8
ENDBRANCH   6   7
ENDBRANCH   5   6
ENDBRANCH   4   5
ENDBRANCH   3   4
ENDBRANCH   2   3
ENDBRANCH   1   2
BRANCH   1  11
ATOM     11  C   UNL     1      -2.834  -1.905  -7.040  1.00  0.00     0.000 C 
BRANCH  11  12
ATOM     12  C   UNL     1      -3.567  -0.757  -6.323  1.00  0.00    -0.000 C 
BRANCH  12  13
ATOM     13  C   UNL     1      -3.674  -0.978  -4.804  1.00  0.00    -0.000 C 
BRANCH  13  14
ATOM     14  C   UNL     1      -5.083  -1.413  -4.368  1.00  0.00    -0.000 C 
BRANCH  14  15
ATOM     15  C   UNL     1      -6.176  -0.903  -5.324  1.00  0.00    -0.000 C 
BRANCH  15  16
ATOM     16  C   UNL     1      -7.217  -0.024  -4.612  1.00  0.00    -0.000 C 
BRANCH  16  17
ATOM     17  C   UNL     1      -6.591   1.200  -3.927  1.00  0.00    -0.003 C 
ATOM     18  C   UNL     1      -5.947   2.131  -4.950  1.00  0.00     0.004 C 
ENDBRANCH  16  17
ENDBRANCH  15  16
ENDBRANCH  14  15
ENDBRANCH  13  14
ENDBRANCH  12  13
ENDBRANCH  11  12
ENDBRANCH   1  11
TORSDOF 14
ENDMDL
