MODEL 1
REMARK VINA RESULT:    -5.870      0.000      0.000
REMARK INTER + INTRA:          -5.870
REMARK INTER:                  -5.870
REMARK INTRA:                   0.000
REMARK UNBOUND:                 0.000
REMARK SMILES CC1=CC[C@@]23C[C@@H]1C(C)(C)[C@@H]2CC[C@H]3C
REMARK SMILES IDX 15 1 14 2 13 3 12 4 11 5 5 6 4 7 3 8 2 9 7 10 6 11 8 12 9 13
REMARK SMILES IDX 10 14 1 15
REMARK H PARENT
REMARK Flexibility Score: inf
ROOT
ATOM      1  C   UNL     1       8.849   7.873  31.118  1.00  0.00     0.008 C 
ATOM      2  C   UNL     1       9.025   6.588  30.295  1.00  0.00    -0.007 C 
ATOM      3  C   UNL     1       9.819   5.537  31.071  1.00  0.00     0.004 C 
ATOM      4  C   UNL     1      10.419   4.638  30.008  1.00  0.00     0.005 C 
ATOM      5  C   UNL     1      10.799   5.596  28.872  1.00  0.00     0.002 C 
ATOM      6  C   UNL     1       9.755   6.736  28.924  1.00  0.00    -0.020 C 
ATOM      7  C   UNL     1      10.449   8.116  28.663  1.00  0.00     0.035 C 
ATOM      8  C   UNL     1      10.953   8.249  27.235  1.00  0.00    -0.027 C 
ATOM      9  C   UNL     1      10.624   7.353  26.276  1.00  0.00    -0.074 C 
ATOM     10  C   UNL     1       9.875   6.074  26.657  1.00  0.00     0.021 C 
ATOM     11  C   UNL     1       8.846   6.446  27.722  1.00  0.00     0.016 C 
ATOM     12  C   UNL     1      10.800   5.058  27.398  1.00  0.00    -0.025 C 
ATOM     13  C   UNL     1      10.219   3.628  27.235  1.00  0.00     0.012 C 
ATOM     14  C   UNL     1      12.241   5.025  26.829  1.00  0.00     0.012 C 
ATOM     15  C   UNL     1      11.041   7.594  24.851  1.00  0.00     0.039 C 
ENDROOT
TORSDOF 0
ENDMDL
MODEL 2
REMARK VINA RESULT:    -5.786     13.294     15.061
REMARK INTER + INTRA:          -5.786
REMARK INTER:                  -5.786
REMARK INTRA:                   0.000
REMARK UNBOUND:                 0.000
REMARK SMILES CC1=CC[C@@]23C[C@@H]1C(C)(C)[C@@H]2CC[C@H]3C
REMARK SMILES IDX 15 1 14 2 13 3 12 4 11 5 5 6 4 7 3 8 2 9 7 10 6 11 8 12 9 13
REMARK SMILES IDX 10 14 1 15
REMARK H PARENT
REMARK Flexibility Score: inf
ROOT
ATOM      1  C   UNL     1       3.379   7.113  16.342  1.00  0.00     0.008 C 
ATOM      2  C   UNL     1       4.876   7.358  16.103  1.00  0.00    -0.007 C 
ATOM      3  C   UNL     1       5.251   8.813  16.382  1.00  0.00     0.004 C 
ATOM      4  C   UNL     1       6.508   9.056  15.569  1.00  0.00     0.005 C 
ATOM      5  C   UNL     1       6.274   8.276  14.270  1.00  0.00     0.002 C 
ATOM      6  C   UNL     1       5.408   7.057  14.666  1.00  0.00    -0.020 C 
ATOM      7  C   UNL     1       4.318   6.792  13.574  1.00  0.00     0.035 C 
ATOM      8  C   UNL     1       4.918   6.307  12.263  1.00  0.00    -0.027 C 
ATOM      9  C   UNL     1       6.219   5.947  12.165  1.00  0.00    -0.074 C 
ATOM     10  C   UNL     1       7.166   6.196  13.341  1.00  0.00     0.021 C 
ATOM     11  C   UNL     1       6.396   5.884  14.623  1.00  0.00     0.016 C 
ATOM     12  C   UNL     1       7.516   7.708  13.496  1.00  0.00    -0.025 C 
ATOM     13  C   UNL     1       8.863   7.845  14.253  1.00  0.00     0.012 C 
ATOM     14  C   UNL     1       7.690   8.432  12.137  1.00  0.00     0.012 C 
ATOM     15  C   UNL     1       6.736   5.355  10.884  1.00  0.00     0.039 C 
ENDROOT
TORSDOF 0
ENDMDL
MODEL 3
REMARK VINA RESULT:    -5.614      4.557      7.288
REMARK INTER + INTRA:          -5.614
REMARK INTER:                  -5.614
REMARK INTRA:                   0.000
REMARK UNBOUND:                 0.000
REMARK SMILES CC1=CC[C@@]23C[C@@H]1C(C)(C)[C@@H]2CC[C@H]3C
REMARK SMILES IDX 15 1 14 2 13 3 12 4 11 5 5 6 4 7 3 8 2 9 7 10 6 11 8 12 9 13
REMARK SMILES IDX 10 14 1 15
REMARK H PARENT
REMARK Flexibility Score: inf
ROOT
ATOM      1  C   UNL     1      10.527   9.170  21.810  1.00  0.00     0.008 C 
ATOM      2  C   UNL     1      11.922   9.658  22.228  1.00  0.00    -0.007 C 
ATOM      3  C   UNL     1      12.859   9.752  21.024  1.00  0.00     0.004 C 
ATOM      4  C   UNL     1      14.255   9.640  21.605  1.00  0.00     0.005 C 
ATOM      5  C   UNL     1      14.114   8.609  22.732  1.00  0.00     0.002 C 
ATOM      6  C   UNL     1      12.677   8.785  23.278  1.00  0.00    -0.020 C 
ATOM      7  C   UNL     1      12.044   7.387  23.589  1.00  0.00     0.035 C 
ATOM      8  C   UNL     1      12.717   6.694  24.764  1.00  0.00    -0.027 C 
ATOM      9  C   UNL     1      13.605   7.339  25.557  1.00  0.00    -0.074 C 
ATOM     10  C   UNL     1      14.088   8.739  25.175  1.00  0.00     0.021 C 
ATOM     11  C   UNL     1      12.888   9.502  24.618  1.00  0.00     0.016 C 
ATOM     12  C   UNL     1      15.076   8.704  23.968  1.00  0.00    -0.025 C 
ATOM     13  C   UNL     1      15.962   9.977  23.997  1.00  0.00     0.012 C 
ATOM     14  C   UNL     1      16.037   7.488  24.006  1.00  0.00     0.012 C 
ATOM     15  C   UNL     1      14.149   6.653  26.780  1.00  0.00     0.039 C 
ENDROOT
TORSDOF 0
ENDMDL
MODEL 4
REMARK VINA RESULT:    -5.611     11.716     13.600
REMARK INTER + INTRA:          -5.611
REMARK INTER:                  -5.611
REMARK INTRA:                   0.000
REMARK UNBOUND:                 0.000
REMARK SMILES CC1=CC[C@@]23C[C@@H]1C(C)(C)[C@@H]2CC[C@H]3C
REMARK SMILES IDX 15 1 14 2 13 3 12 4 11 5 5 6 4 7 3 8 2 9 7 10 6 11 8 12 9 13
REMARK SMILES IDX 10 14 1 15
REMARK H PARENT
REMARK Flexibility Score: inf
ROOT
ATOM      1  C   UNL     1       0.723   8.617  18.371  1.00  0.00     0.008 C 
ATOM      2  C   UNL     1       2.254   8.528  18.462  1.00  0.00    -0.007 C 
ATOM      3  C   UNL     1       2.850   9.813  19.036  1.00  0.00     0.004 C 
ATOM      4  C   UNL     1       4.278   9.844  18.526  1.00  0.00     0.005 C 
ATOM      5  C   UNL     1       4.180   9.292  17.098  1.00  0.00     0.002 C 
ATOM      6  C   UNL     1       3.016   8.275  17.123  1.00  0.00    -0.020 C 
ATOM      7  C   UNL     1       2.163   8.399  15.816  1.00  0.00     0.035 C 
ATOM      8  C   UNL     1       2.923   7.937  14.583  1.00  0.00    -0.027 C 
ATOM      9  C   UNL     1       4.111   7.295  14.677  1.00  0.00    -0.074 C 
ATOM     10  C   UNL     1       4.806   7.179  16.035  1.00  0.00     0.021 C 
ATOM     11  C   UNL     1       3.725   6.915  17.082  1.00  0.00     0.016 C 
ATOM     12  C   UNL     1       5.418   8.539  16.493  1.00  0.00    -0.025 C 
ATOM     13  C   UNL     1       6.563   8.268  17.504  1.00  0.00     0.012 C 
ATOM     14  C   UNL     1       6.033   9.351  15.325  1.00  0.00     0.012 C 
ATOM     15  C   UNL     1       4.764   6.746  13.439  1.00  0.00     0.039 C 
ENDROOT
TORSDOF 0
ENDMDL
MODEL 5
REMARK VINA RESULT:    -5.607     12.123     14.482
REMARK INTER + INTRA:          -5.607
REMARK INTER:                  -5.607
REMARK INTRA:                   0.000
REMARK UNBOUND:                 0.000
REMARK SMILES CC1=CC[C@@]23C[C@@H]1C(C)(C)[C@@H]2CC[C@H]3C
REMARK SMILES IDX 15 1 14 2 13 3 12 4 11 5 5 6 4 7 3 8 2 9 7 10 6 11 8 12 9 13
REMARK SMILES IDX 10 14 1 15
REMARK H PARENT
REMARK Flexibility Score: inf
ROOT
ATOM      1  C   UNL     1       8.257   7.904  12.787  1.00  0.00     0.008 C 
ATOM      2  C   UNL     1       7.186   7.096  13.535  1.00  0.00    -0.007 C 
ATOM      3  C   UNL     1       6.125   6.559  12.574  1.00  0.00     0.004 C 
ATOM      4  C   UNL     1       4.895   6.341  13.432  1.00  0.00     0.005 C 
ATOM      5  C   UNL     1       4.905   7.520  14.413  1.00  0.00     0.002 C 
ATOM      6  C   UNL     1       6.396   7.853  14.649  1.00  0.00    -0.020 C 
ATOM      7  C   UNL     1       6.602   9.404  14.699  1.00  0.00     0.035 C 
ATOM      8  C   UNL     1       5.968  10.032  15.930  1.00  0.00    -0.027 C 
ATOM      9  C   UNL     1       5.487   9.279  16.947  1.00  0.00    -0.074 C 
ATOM     10  C   UNL     1       5.410   7.759  16.795  1.00  0.00     0.021 C 
ATOM     11  C   UNL     1       6.669   7.308  16.057  1.00  0.00     0.016 C 
ATOM     12  C   UNL     1       4.261   7.329  15.832  1.00  0.00    -0.025 C 
ATOM     13  C   UNL     1       3.842   5.870  16.156  1.00  0.00     0.012 C 
ATOM     14  C   UNL     1       2.989   8.203  15.977  1.00  0.00     0.012 C 
ATOM     15  C   UNL     1       4.985   9.945  18.198  1.00  0.00     0.039 C 
ENDROOT
TORSDOF 0
ENDMDL
MODEL 6
REMARK VINA RESULT:    -5.436      4.135      7.011
REMARK INTER + INTRA:          -5.436
REMARK INTER:                  -5.436
REMARK INTRA:                   0.000
REMARK UNBOUND:                 0.000
REMARK SMILES CC1=CC[C@@]23C[C@@H]1C(C)(C)[C@@H]2CC[C@H]3C
REMARK SMILES IDX 15 1 14 2 13 3 12 4 11 5 5 6 4 7 3 8 2 9 7 10 6 11 8 12 9 13
REMARK SMILES IDX 10 14 1 15
REMARK H PARENT
REMARK Flexibility Score: inf
ROOT
ATOM      1  C   UNL     1      18.209   8.616  25.123  1.00  0.00     0.008 C 
ATOM      2  C   UNL     1      16.852   8.681  24.406  1.00  0.00    -0.007 C 
ATOM      3  C   UNL     1      16.493  10.118  24.029  1.00  0.00     0.004 C 
ATOM      4  C   UNL     1      14.981  10.125  23.911  1.00  0.00     0.005 C 
ATOM      5  C   UNL     1      14.510   9.201  25.041  1.00  0.00     0.002 C 
ATOM      6  C   UNL     1      15.622   8.137  25.198  1.00  0.00    -0.020 C 
ATOM      7  C   UNL     1      15.864   7.831  26.715  1.00  0.00     0.035 C 
ATOM      8  C   UNL     1      14.687   7.115  27.357  1.00  0.00    -0.027 C 
ATOM      9  C   UNL     1      13.664   6.622  26.619  1.00  0.00    -0.074 C 
ATOM     10  C   UNL     1      13.586   6.936  25.124  1.00  0.00     0.021 C 
ATOM     11  C   UNL     1      15.008   6.879  24.569  1.00  0.00     0.016 C 
ATOM     12  C   UNL     1      13.163   8.415  24.862  1.00  0.00    -0.025 C 
ATOM     13  C   UNL     1      12.539   8.523  23.446  1.00  0.00     0.012 C 
ATOM     14  C   UNL     1      12.096   8.926  25.863  1.00  0.00     0.012 C 
ATOM     15  C   UNL     1      12.585   5.812  27.283  1.00  0.00     0.039 C 
ENDROOT
TORSDOF 0
ENDMDL
MODEL 7
REMARK VINA RESULT:    -5.398     10.791     13.340
REMARK INTER + INTRA:          -5.398
REMARK INTER:                  -5.398
REMARK INTRA:                   0.000
REMARK UNBOUND:                 0.000
REMARK SMILES CC1=CC[C@@]23C[C@@H]1C(C)(C)[C@@H]2CC[C@H]3C
REMARK SMILES IDX 15 1 14 2 13 3 12 4 11 5 5 6 4 7 3 8 2 9 7 10 6 11 8 12 9 13
REMARK SMILES IDX 10 14 1 15
REMARK H PARENT
REMARK Flexibility Score: inf
ROOT
ATOM      1  C   UNL     1       6.759   8.158  15.728  1.00  0.00     0.008 C 
ATOM      2  C   UNL     1       6.057   8.525  17.044  1.00  0.00    -0.007 C 
ATOM      3  C   UNL     1       6.316   7.471  18.121  1.00  0.00     0.004 C 
ATOM      4  C   UNL     1       5.155   7.607  19.087  1.00  0.00     0.005 C 
ATOM      5  C   UNL     1       3.947   7.897  18.188  1.00  0.00     0.002 C 
ATOM      6  C   UNL     1       4.506   8.687  16.982  1.00  0.00    -0.020 C 
ATOM      7  C   UNL     1       3.819   8.209  15.659  1.00  0.00     0.035 C 
ATOM      8  C   UNL     1       2.349   8.591  15.598  1.00  0.00    -0.027 C 
ATOM      9  C   UNL     1       1.795   9.437  16.499  1.00  0.00    -0.074 C 
ATOM     10  C   UNL     1       2.605   9.888  17.716  1.00  0.00     0.021 C 
ATOM     11  C   UNL     1       4.040  10.125  17.248  1.00  0.00     0.016 C 
ATOM     12  C   UNL     1       2.760   8.746  18.767  1.00  0.00    -0.025 C 
ATOM     13  C   UNL     1       3.036   9.370  20.161  1.00  0.00     0.012 C 
ATOM     14  C   UNL     1       1.485   7.876  18.909  1.00  0.00     0.012 C 
ATOM     15  C   UNL     1       0.370   9.884  16.326  1.00  0.00     0.039 C 
ENDROOT
TORSDOF 0
ENDMDL
MODEL 8
REMARK VINA RESULT:    -5.394      1.262      4.575
REMARK INTER + INTRA:          -5.394
REMARK INTER:                  -5.394
REMARK INTRA:                   0.000
REMARK UNBOUND:                 0.000
REMARK SMILES CC1=CC[C@@]23C[C@@H]1C(C)(C)[C@@H]2CC[C@H]3C
REMARK SMILES IDX 15 1 14 2 13 3 12 4 11 5 5 6 4 7 3 8 2 9 7 10 6 11 8 12 9 13
REMARK SMILES IDX 10 14 1 15
REMARK H PARENT
REMARK Flexibility Score: inf
ROOT
ATOM      1  C   UNL     1      13.870   6.072  25.688  1.00  0.00     0.008 C 
ATOM      2  C   UNL     1      12.382   6.332  25.964  1.00  0.00    -0.007 C 
ATOM      3  C   UNL     1      12.052   7.822  25.859  1.00  0.00     0.004 C 
ATOM      4  C   UNL     1      10.806   8.006  26.703  1.00  0.00     0.005 C 
ATOM      5  C   UNL     1      11.019   7.073  27.901  1.00  0.00     0.002 C 
ATOM      6  C   UNL     1      11.846   5.883  27.360  1.00  0.00    -0.020 C 
ATOM      7  C   UNL     1      12.930   5.459  28.406  1.00  0.00     0.035 C 
ATOM      8  C   UNL     1      12.321   4.843  29.655  1.00  0.00    -0.027 C 
ATOM      9  C   UNL     1      11.009   4.514  29.720  1.00  0.00    -0.074 C 
ATOM     10  C   UNL     1      10.066   4.927  28.588  1.00  0.00     0.021 C 
ATOM     11  C   UNL     1      10.822   4.744  27.273  1.00  0.00     0.016 C 
ATOM     12  C   UNL     1       9.763   6.457  28.612  1.00  0.00    -0.025 C 
ATOM     13  C   UNL     1       8.418   6.721  27.885  1.00  0.00     0.012 C 
ATOM     14  C   UNL     1       9.616   7.023  30.047  1.00  0.00     0.012 C 
ATOM     15  C   UNL     1      10.478   3.792  30.927  1.00  0.00     0.039 C 
ENDROOT
TORSDOF 0
ENDMDL
MODEL 9
REMARK VINA RESULT:    -5.234      9.828     12.558
REMARK INTER + INTRA:          -5.234
REMARK INTER:                  -5.234
REMARK INTRA:                   0.000
REMARK UNBOUND:                 0.000
REMARK SMILES CC1=CC[C@@]23C[C@@H]1C(C)(C)[C@@H]2CC[C@H]3C
REMARK SMILES IDX 15 1 14 2 13 3 12 4 11 5 5 6 4 7 3 8 2 9 7 10 6 11 8 12 9 13
REMARK SMILES IDX 10 14 1 15
REMARK H PARENT
REMARK Flexibility Score: inf
ROOT
ATOM      1  C   UNL     1       2.630   8.249  14.967  1.00  0.00     0.008 C 
ATOM      2  C   UNL     1       3.970   8.382  15.705  1.00  0.00    -0.007 C 
ATOM      3  C   UNL     1       4.869   7.174  15.442  1.00  0.00     0.004 C 
ATOM      4  C   UNL     1       5.816   7.127  16.626  1.00  0.00     0.005 C 
ATOM      5  C   UNL     1       4.946   7.533  17.822  1.00  0.00     0.002 C 
ATOM      6  C   UNL     1       3.897   8.520  17.258  1.00  0.00    -0.020 C 
ATOM      7  C   UNL     1       2.497   8.247  17.905  1.00  0.00     0.035 C 
ATOM      8  C   UNL     1       2.463   8.603  19.383  1.00  0.00    -0.027 C 
ATOM      9  C   UNL     1       3.474   9.279  19.977  1.00  0.00    -0.074 C 
ATOM     10  C   UNL     1       4.767   9.545  19.203  1.00  0.00     0.021 C 
ATOM     11  C   UNL     1       4.379   9.885  17.765  1.00  0.00     0.016 C 
ATOM     12  C   UNL     1       5.624   8.252  19.042  1.00  0.00    -0.025 C 
ATOM     13  C   UNL     1       7.107   8.648  18.811  1.00  0.00     0.012 C 
ATOM     14  C   UNL     1       5.593   7.343  20.297  1.00  0.00     0.012 C 
ATOM     15  C   UNL     1       3.340   9.719  21.409  1.00  0.00     0.039 C 
ENDROOT
TORSDOF 0
ENDMDL
