MODEL 1
REMARK VINA RESULT:    -1.406      0.000      0.000
REMARK INTER + INTRA:          -0.642
REMARK INTER:                  -2.063
REMARK INTRA:                   1.422
REMARK UNBOUND:                 1.422
REMARK SMILES O=C([O-])CCCCCCCC(=O)[O-]
REMARK SMILES IDX 7 1 6 2 5 3 4 4 2 5 1 6 3 7 8 8 9 9 10 10 11 11 12 12 13 13
REMARK H PARENT
REMARK Flexibility Score: inf
ROOT
ATOM      1  C   UNL     1      17.538  21.930  49.162  1.00  0.00     0.000 C 
ENDROOT
BRANCH   1   2
ATOM      2  C   UNL     1      16.764  21.664  50.461  1.00  0.00     0.000 C 
BRANCH   2   3
ATOM      3  C   UNL     1      16.711  20.160  50.770  1.00  0.00     0.006 C 
BRANCH   3   4
ATOM      4  C   UNL     1      16.557  19.881  52.271  1.00  0.00     0.053 C 
BRANCH   4   5
ATOM      5  C   UNL     1      15.125  19.961  52.705  1.00  0.00     0.041 C 
ATOM      6  O   UNL     1      14.837  20.072  53.927  1.00  0.00    -0.550 OA
ATOM      7  O   UNL     1      14.107  19.882  51.764  1.00  0.00    -0.550 OA
ENDBRANCH   4   5
ENDBRANCH   3   4
ENDBRANCH   2   3
ENDBRANCH   1   2
BRANCH   1   8
ATOM      8  C   UNL     1      18.578  20.839  48.849  1.00  0.00     0.000 C 
BRANCH   8   9
ATOM      9  C   UNL     1      19.021  19.992  50.061  1.00  0.00     0.006 C 
BRANCH   9  10
ATOM     10  C   UNL     1      20.469  20.234  50.515  1.00  0.00     0.053 C 
BRANCH  10  11
ATOM     11  C   UNL     1      20.615  20.134  52.004  1.00  0.00     0.041 C 
ATOM     12  O   UNL     1      19.611  19.892  52.723  1.00  0.00    -0.550 OA
ATOM     13  O   UNL     1      21.853  20.343  52.597  1.00  0.00    -0.550 OA
ENDBRANCH  10  11
ENDBRANCH   9  10
ENDBRANCH   8   9
ENDBRANCH   1   8
TORSDOF 8
ENDMDL
MODEL 2
REMARK VINA RESULT:    -0.367      0.878      4.696
REMARK INTER + INTRA:           0.882
REMARK INTER:                   1.026
REMARK INTRA:                  -0.144
REMARK UNBOUND:                 1.422
REMARK SMILES O=C([O-])CCCCCCCC(=O)[O-]
REMARK SMILES IDX 7 1 6 2 5 3 4 4 2 5 1 6 3 7 8 8 9 9 10 10 11 11 12 12 13 13
REMARK H PARENT
REMARK Flexibility Score: inf
ROOT
ATOM      1  C   UNL     1      17.307  21.991  49.402  1.00  0.00     0.000 C 
ENDROOT
BRANCH   1   2
ATOM      2  C   UNL     1      18.399  21.132  48.748  1.00  0.00     0.000 C 
BRANCH   2   3
ATOM      3  C   UNL     1      19.683  21.140  49.591  1.00  0.00     0.006 C 
BRANCH   3   4
ATOM      4  C   UNL     1      19.806  19.890  50.471  1.00  0.00     0.053 C 
BRANCH   4   5
ATOM      5  C   UNL     1      20.156  20.240  51.886  1.00  0.00     0.041 C 
ATOM      6  O   UNL     1      21.232  20.841  52.144  1.00  0.00    -0.550 OA
ATOM      7  O   UNL     1      19.306  19.875  52.922  1.00  0.00    -0.550 OA
ENDBRANCH   4   5
ENDBRANCH   3   4
ENDBRANCH   2   3
ENDBRANCH   1   2
BRANCH   1   8
ATOM      8  C   UNL     1      16.914  21.493  50.805  1.00  0.00     0.000 C 
BRANCH   8   9
ATOM      9  C   UNL     1      16.405  20.037  50.863  1.00  0.00     0.006 C 
BRANCH   9  10
ATOM     10  C   UNL     1      15.000  19.875  51.462  1.00  0.00     0.053 C 
BRANCH  10  11
ATOM     11  C   UNL     1      15.010  19.982  52.957  1.00  0.00     0.041 C 
ATOM     12  O   UNL     1      16.094  19.888  53.590  1.00  0.00    -0.550 OA
ATOM     13  O   UNL     1      13.819  20.150  53.651  1.00  0.00    -0.550 OA
ENDBRANCH  10  11
ENDBRANCH   9  10
ENDBRANCH   8   9
ENDBRANCH   1   8
TORSDOF 8
ENDMDL
MODEL 3
REMARK VINA RESULT:     0.491     17.220     18.385
REMARK INTER + INTRA:           2.142
REMARK INTER:                   2.115
REMARK INTRA:                   0.027
REMARK UNBOUND:                 1.422
REMARK SMILES O=C([O-])CCCCCCCC(=O)[O-]
REMARK SMILES IDX 7 1 6 2 5 3 4 4 2 5 1 6 3 7 8 8 9 9 10 10 11 11 12 12 13 13
REMARK H PARENT
REMARK Flexibility Score: inf
ROOT
ATOM      1  C   UNL     1      14.873  40.118  47.485  1.00  0.00     0.000 C 
ENDROOT
BRANCH   1   2
ATOM      2  C   UNL     1      13.699  39.759  46.563  1.00  0.00     0.000 C 
BRANCH   2   3
ATOM      3  C   UNL     1      13.616  38.241  46.345  1.00  0.00     0.006 C 
BRANCH   3   4
ATOM      4  C   UNL     1      12.945  37.521  47.522  1.00  0.00     0.053 C 
BRANCH   4   5
ATOM      5  C   UNL     1      13.610  36.212  47.823  1.00  0.00     0.041 C 
ATOM      6  O   UNL     1      13.066  35.130  47.478  1.00  0.00    -0.550 OA
ATOM      7  O   UNL     1      14.815  36.187  48.513  1.00  0.00    -0.550 OA
ENDBRANCH   4   5
ENDBRANCH   3   4
ENDBRANCH   2   3
ENDBRANCH   1   2
BRANCH   1   8
ATOM      8  C   UNL     1      15.951  39.020  47.539  1.00  0.00     0.000 C 
BRANCH   8   9
ATOM      9  C   UNL     1      16.812  38.888  46.265  1.00  0.00     0.006 C 
BRANCH   9  10
ATOM     10  C   UNL     1      17.881  37.786  46.329  1.00  0.00     0.053 C 
BRANCH  10  11
ATOM     11  C   UNL     1      19.195  38.306  46.827  1.00  0.00     0.041 C 
ATOM     12  O   UNL     1      20.106  37.506  47.164  1.00  0.00    -0.550 OA
ATOM     13  O   UNL     1      19.400  39.674  46.952  1.00  0.00    -0.550 OA
ENDBRANCH  10  11
ENDBRANCH   9  10
ENDBRANCH   8   9
ENDBRANCH   1   8
TORSDOF 8
ENDMDL
MODEL 4
REMARK VINA RESULT:     0.583     17.201     18.907
REMARK INTER + INTRA:           2.277
REMARK INTER:                   2.302
REMARK INTRA:                  -0.025
REMARK UNBOUND:                 1.422
REMARK SMILES O=C([O-])CCCCCCCC(=O)[O-]
REMARK SMILES IDX 7 1 6 2 5 3 4 4 2 5 1 6 3 7 8 8 9 9 10 10 11 11 12 12 13 13
REMARK H PARENT
REMARK Flexibility Score: inf
ROOT
ATOM      1  C   UNL     1      14.871  40.091  47.479  1.00  0.00     0.000 C 
ENDROOT
BRANCH   1   2
ATOM      2  C   UNL     1      15.947  39.002  47.589  1.00  0.00     0.000 C 
BRANCH   2   3
ATOM      3  C   UNL     1      16.744  38.884  46.281  1.00  0.00     0.006 C 
BRANCH   3   4
ATOM      4  C   UNL     1      17.808  37.780  46.346  1.00  0.00     0.053 C 
BRANCH   4   5
ATOM      5  C   UNL     1      19.125  38.307  46.830  1.00  0.00     0.041 C 
ATOM      6  O   UNL     1      20.045  37.512  47.155  1.00  0.00    -0.550 OA
ATOM      7  O   UNL     1      19.323  39.677  46.951  1.00  0.00    -0.550 OA
ENDBRANCH   4   5
ENDBRANCH   3   4
ENDBRANCH   2   3
ENDBRANCH   1   2
BRANCH   1   8
ATOM      8  C   UNL     1      13.726  39.709  46.522  1.00  0.00     0.000 C 
BRANCH   8   9
ATOM      9  C   UNL     1      13.518  38.193  46.325  1.00  0.00     0.006 C 
BRANCH   9  10
ATOM     10  C   UNL     1      12.926  37.466  47.543  1.00  0.00     0.053 C 
BRANCH  10  11
ATOM     11  C   UNL     1      13.627  36.171  47.819  1.00  0.00     0.041 C 
ATOM     12  O   UNL     1      13.113  35.082  47.454  1.00  0.00    -0.550 OA
ATOM     13  O   UNL     1      14.832  36.165  48.511  1.00  0.00    -0.550 OA
ENDBRANCH  10  11
ENDBRANCH   9  10
ENDBRANCH   8   9
ENDBRANCH   1   8
TORSDOF 8
ENDMDL
MODEL 5
REMARK VINA RESULT:     0.643     17.205     18.941
REMARK INTER + INTRA:           2.365
REMARK INTER:                   2.402
REMARK INTRA:                  -0.037
REMARK UNBOUND:                 1.422
REMARK SMILES O=C([O-])CCCCCCCC(=O)[O-]
REMARK SMILES IDX 7 1 6 2 5 3 4 4 2 5 1 6 3 7 8 8 9 9 10 10 11 11 12 12 13 13
REMARK H PARENT
REMARK Flexibility Score: inf
ROOT
ATOM      1  C   UNL     1      14.862  40.120  47.460  1.00  0.00     0.000 C 
ENDROOT
BRANCH   1   2
ATOM      2  C   UNL     1      15.933  39.027  47.586  1.00  0.00     0.000 C 
BRANCH   2   3
ATOM      3  C   UNL     1      16.728  38.885  46.279  1.00  0.00     0.006 C 
BRANCH   3   4
ATOM      4  C   UNL     1      17.803  37.794  46.369  1.00  0.00     0.053 C 
BRANCH   4   5
ATOM      5  C   UNL     1      19.120  38.349  46.819  1.00  0.00     0.041 C 
ATOM      6  O   UNL     1      19.292  39.594  46.893  1.00  0.00    -0.550 OA
ATOM      7  O   UNL     1      20.167  37.490  47.126  1.00  0.00    -0.550 OA
ENDBRANCH   4   5
ENDBRANCH   3   4
ENDBRANCH   2   3
ENDBRANCH   1   2
BRANCH   1   8
ATOM      8  C   UNL     1      13.711  39.726  46.516  1.00  0.00     0.000 C 
BRANCH   8   9
ATOM      9  C   UNL     1      13.518  38.208  46.319  1.00  0.00     0.006 C 
BRANCH   9  10
ATOM     10  C   UNL     1      12.902  37.481  47.524  1.00  0.00     0.053 C 
BRANCH  10  11
ATOM     11  C   UNL     1      13.594  36.183  47.812  1.00  0.00     0.041 C 
ATOM     12  O   UNL     1      14.703  36.175  48.406  1.00  0.00    -0.550 OA
ATOM     13  O   UNL     1      13.030  34.985  47.391  1.00  0.00    -0.550 OA
ENDBRANCH  10  11
ENDBRANCH   9  10
ENDBRANCH   8   9
ENDBRANCH   1   8
TORSDOF 8
ENDMDL
