MODEL 1
REMARK VINA RESULT:    -5.480      0.000      0.000
REMARK INTER + INTRA:          -6.901
REMARK INTER:                  -6.601
REMARK INTRA:                  -0.300
REMARK UNBOUND:                -0.300
REMARK SMILES Oc1cc(O)c2cc(O)c(-c3ccc(O)c(O)c3)[o+]c2c1
REMARK SMILES IDX 10 1 19 2 20 3 21 4 2 5 3 6 4 7 6 8 7 9 8 10 11 11 12 12
REMARK SMILES IDX 13 13 14 14 18 15 16 16 15 17 17 19 9 21 1 23 5 25
REMARK H PARENT 15 18 17 20 9 22 1 24 5 26
REMARK Flexibility Score: inf
ROOT
ATOM      1  C   UNL     1      48.655  13.817  -3.999  1.00  0.00     0.402 A 
ATOM      2  O   UNL     1      49.698  13.078  -4.369  1.00  0.00    -0.202 OA
ATOM      3  C   UNL     1      50.815  13.594  -4.872  1.00  0.00     0.368 A 
ATOM      4  C   UNL     1      51.856  12.736  -5.235  1.00  0.00     0.162 A 
ATOM      5  C   UNL     1      53.039  13.249  -5.769  1.00  0.00     0.128 A 
ATOM      6  C   UNL     1      53.183  14.630  -5.943  1.00  0.00     0.093 A 
ATOM      7  C   UNL     1      52.155  15.511  -5.588  1.00  0.00     0.136 A 
ATOM      8  C   UNL     1      50.951  14.993  -5.042  1.00  0.00     0.125 A 
ATOM      9  C   UNL     1      49.873  15.801  -4.645  1.00  0.00     0.078 A 
ATOM     10  C   UNL     1      48.720  15.218  -4.110  1.00  0.00     0.223 A 
ENDROOT
BRANCH   1  11
ATOM     11  C   UNL     1      47.462  13.124  -3.460  1.00  0.00     0.087 A 
ATOM     12  C   UNL     1      46.315  13.003  -4.260  1.00  0.00     0.022 A 
ATOM     13  C   UNL     1      45.171  12.371  -3.766  1.00  0.00     0.051 A 
ATOM     14  C   UNL     1      45.149  11.864  -2.463  1.00  0.00     0.157 A 
ATOM     15  C   UNL     1      47.431  12.631  -2.143  1.00  0.00     0.068 A 
ATOM     16  C   UNL     1      46.284  11.998  -1.645  1.00  0.00     0.158 A 
BRANCH  14  17
ATOM     17  O   UNL     1      43.994  11.237  -1.999  1.00  0.00    -0.504 OA
ATOM     18  H   UNL     1      43.226  11.000  -2.615  1.00  0.00     0.293 HD
ENDBRANCH  14  17
BRANCH  16  19
ATOM     19  O   UNL     1      46.264  11.508  -0.340  1.00  0.00    -0.504 OA
ATOM     20  H   UNL     1      46.252  10.513  -0.148  1.00  0.00     0.293 HD
ENDBRANCH  16  19
ENDBRANCH   1  11
BRANCH  10  21
ATOM     21  O   UNL     1      47.669  16.023  -3.670  1.00  0.00    -0.500 OA
ATOM     22  H   UNL     1      46.847  16.183  -4.239  1.00  0.00     0.294 HD
ENDBRANCH  10  21
BRANCH   5  23
ATOM     23  O   UNL     1      54.066  12.377  -6.125  1.00  0.00    -0.507 OA
ATOM     24  H   UNL     1      54.062  11.886  -7.012  1.00  0.00     0.293 HD
ENDBRANCH   5  23
BRANCH   7  25
ATOM     25  O   UNL     1      52.375  16.875  -5.796  1.00  0.00    -0.507 OA
ATOM     26  H   UNL     1      53.268  17.277  -6.041  1.00  0.00     0.293 HD
ENDBRANCH   7  25
TORSDOF 6
ENDMDL
MODEL 2
REMARK VINA RESULT:    -5.229      4.058      7.715
REMARK INTER + INTRA:          -6.599
REMARK INTER:                  -6.975
REMARK INTRA:                   0.376
REMARK UNBOUND:                -0.300
REMARK SMILES Oc1cc(O)c2cc(O)c(-c3ccc(O)c(O)c3)[o+]c2c1
REMARK SMILES IDX 10 1 19 2 20 3 21 4 2 5 3 6 4 7 6 8 7 9 8 10 11 11 12 12
REMARK SMILES IDX 13 13 14 14 18 15 16 16 15 17 17 19 9 21 1 23 5 25
REMARK H PARENT 15 18 17 20 9 22 1 24 5 26
REMARK Flexibility Score: inf
ROOT
ATOM      1  C   UNL     1      46.165  16.465  -4.142  1.00  0.00     0.402 A 
ATOM      2  O   UNL     1      45.269  16.105  -3.226  1.00  0.00    -0.202 OA
ATOM      3  C   UNL     1      44.056  16.643  -3.140  1.00  0.00     0.368 A 
ATOM      4  C   UNL     1      43.186  16.201  -2.141  1.00  0.00     0.162 A 
ATOM      5  C   UNL     1      41.909  16.752  -2.025  1.00  0.00     0.128 A 
ATOM      6  C   UNL     1      41.498  17.752  -2.913  1.00  0.00     0.093 A 
ATOM      7  C   UNL     1      42.352  18.213  -3.923  1.00  0.00     0.136 A 
ATOM      8  C   UNL     1      43.651  17.654  -4.045  1.00  0.00     0.125 A 
ATOM      9  C   UNL     1      44.569  18.044  -5.034  1.00  0.00     0.078 A 
ATOM     10  C   UNL     1      45.830  17.444  -5.096  1.00  0.00     0.223 A 
ENDROOT
BRANCH   1  11
ATOM     11  C   UNL     1      47.487  15.796  -4.129  1.00  0.00     0.087 A 
ATOM     12  C   UNL     1      48.570  16.399  -4.787  1.00  0.00     0.022 A 
ATOM     13  C   UNL     1      49.821  15.777  -4.805  1.00  0.00     0.051 A 
ATOM     14  C   UNL     1      50.006  14.540  -4.181  1.00  0.00     0.157 A 
ATOM     15  C   UNL     1      47.669  14.542  -3.519  1.00  0.00     0.068 A 
ATOM     16  C   UNL     1      48.923  13.916  -3.538  1.00  0.00     0.158 A 
BRANCH  14  17
ATOM     17  O   UNL     1      51.266  13.945  -4.213  1.00  0.00    -0.504 OA
ATOM     18  H   UNL     1      52.105  14.474  -4.418  1.00  0.00     0.293 HD
ENDBRANCH  14  17
BRANCH  16  19
ATOM     19  O   UNL     1      49.096  12.675  -2.926  1.00  0.00    -0.504 OA
ATOM     20  H   UNL     1      49.149  11.819  -3.468  1.00  0.00     0.293 HD
ENDBRANCH  16  19
ENDBRANCH   1  11
BRANCH  10  21
ATOM     21  O   UNL     1      46.723  17.796  -6.107  1.00  0.00    -0.500 OA
ATOM     22  H   UNL     1      47.530  17.224  -6.328  1.00  0.00     0.294 HD
ENDBRANCH  10  21
BRANCH   5  23
ATOM     23  O   UNL     1      41.054  16.297  -1.023  1.00  0.00    -0.507 OA
ATOM     24  H   UNL     1      40.047  16.338  -1.127  1.00  0.00     0.293 HD
ENDBRANCH   5  23
BRANCH   7  25
ATOM     25  O   UNL     1      41.868  19.217  -4.766  1.00  0.00    -0.507 OA
ATOM     26  H   UNL     1      40.991  19.698  -4.635  1.00  0.00     0.293 HD
ENDBRANCH   7  25
TORSDOF 6
ENDMDL
MODEL 3
REMARK VINA RESULT:    -5.218      3.902      5.315
REMARK INTER + INTRA:          -6.586
REMARK INTER:                  -6.468
REMARK INTRA:                  -0.118
REMARK UNBOUND:                -0.300
REMARK SMILES Oc1cc(O)c2cc(O)c(-c3ccc(O)c(O)c3)[o+]c2c1
REMARK SMILES IDX 10 1 19 2 20 3 21 4 2 5 3 6 4 7 6 8 7 9 8 10 11 11 12 12
REMARK SMILES IDX 13 13 14 14 18 15 16 16 15 17 17 19 9 21 1 23 5 25
REMARK H PARENT 15 18 17 20 9 22 1 24 5 26
REMARK Flexibility Score: inf
ROOT
ATOM      1  C   UNL     1      45.916  16.009  -3.678  1.00  0.00     0.402 A 
ATOM      2  O   UNL     1      47.128  16.386  -4.078  1.00  0.00    -0.202 OA
ATOM      3  C   UNL     1      48.186  15.581  -4.057  1.00  0.00     0.368 A 
ATOM      4  C   UNL     1      49.419  16.069  -4.495  1.00  0.00     0.162 A 
ATOM      5  C   UNL     1      50.548  15.248  -4.480  1.00  0.00     0.128 A 
ATOM      6  C   UNL     1      50.444  13.930  -4.024  1.00  0.00     0.093 A 
ATOM      7  C   UNL     1      49.220  13.417  -3.579  1.00  0.00     0.136 A 
ATOM      8  C   UNL     1      48.069  14.248  -3.594  1.00  0.00     0.125 A 
ATOM      9  C   UNL     1      46.799  13.816  -3.180  1.00  0.00     0.078 A 
ATOM     10  C   UNL     1      45.710  14.691  -3.229  1.00  0.00     0.223 A 
ENDROOT
BRANCH   1  11
ATOM     11  C   UNL     1      44.818  17.001  -3.740  1.00  0.00     0.087 A 
ATOM     12  C   UNL     1      44.585  17.697  -4.937  1.00  0.00     0.022 A 
ATOM     13  C   UNL     1      43.568  18.651  -5.014  1.00  0.00     0.051 A 
ATOM     14  C   UNL     1      42.780  18.937  -3.895  1.00  0.00     0.157 A 
ATOM     15  C   UNL     1      44.038  17.304  -2.611  1.00  0.00     0.068 A 
ATOM     16  C   UNL     1      43.018  18.263  -2.685  1.00  0.00     0.158 A 
BRANCH  14  17
ATOM     17  O   UNL     1      41.770  19.893  -4.003  1.00  0.00    -0.504 OA
ATOM     18  H   UNL     1      40.864  19.770  -3.566  1.00  0.00     0.293 HD
ENDBRANCH  14  17
BRANCH  16  19
ATOM     19  O   UNL     1      42.245  18.553  -1.562  1.00  0.00    -0.504 OA
ATOM     20  H   UNL     1      42.188  17.914  -0.777  1.00  0.00     0.293 HD
ENDBRANCH  16  19
ENDBRANCH   1  11
BRANCH  10  21
ATOM     21  O   UNL     1      44.439  14.248  -2.864  1.00  0.00    -0.500 OA
ATOM     22  H   UNL     1      43.600  14.718  -3.180  1.00  0.00     0.294 HD
ENDBRANCH  10  21
BRANCH   5  23
ATOM     23  O   UNL     1      51.770  15.753  -4.922  1.00  0.00    -0.507 OA
ATOM     24  H   UNL     1      52.439  15.169  -5.408  1.00  0.00     0.293 HD
ENDBRANCH   5  23
BRANCH   7  25
ATOM     25  O   UNL     1      49.200  12.092  -3.135  1.00  0.00    -0.507 OA
ATOM     26  H   UNL     1      49.725  11.747  -2.345  1.00  0.00     0.293 HD
ENDBRANCH   7  25
TORSDOF 6
ENDMDL
MODEL 4
REMARK VINA RESULT:    -5.208      3.989      4.938
REMARK INTER + INTRA:          -6.573
REMARK INTER:                  -6.245
REMARK INTRA:                  -0.328
REMARK UNBOUND:                -0.300
REMARK SMILES Oc1cc(O)c2cc(O)c(-c3ccc(O)c(O)c3)[o+]c2c1
REMARK SMILES IDX 10 1 19 2 20 3 21 4 2 5 3 6 4 7 6 8 7 9 8 10 11 11 12 12
REMARK SMILES IDX 13 13 14 14 18 15 16 16 15 17 17 19 9 21 1 23 5 25
REMARK H PARENT 15 18 17 20 9 22 1 24 5 26
REMARK Flexibility Score: inf
ROOT
ATOM      1  C   UNL     1      44.955  16.423  -3.804  1.00  0.00     0.402 A 
ATOM      2  O   UNL     1      45.845  15.501  -3.446  1.00  0.00    -0.202 OA
ATOM      3  C   UNL     1      47.100  15.488  -3.886  1.00  0.00     0.368 A 
ATOM      4  C   UNL     1      47.960  14.475  -3.456  1.00  0.00     0.162 A 
ATOM      5  C   UNL     1      49.280  14.434  -3.905  1.00  0.00     0.128 A 
ATOM      6  C   UNL     1      49.746  15.412  -4.791  1.00  0.00     0.093 A 
ATOM      7  C   UNL     1      48.903  16.437  -5.238  1.00  0.00     0.136 A 
ATOM      8  C   UNL     1      47.560  16.483  -4.782  1.00  0.00     0.125 A 
ATOM      9  C   UNL     1      46.648  17.481  -5.165  1.00  0.00     0.078 A 
ATOM     10  C   UNL     1      45.341  17.463  -4.670  1.00  0.00     0.223 A 
ENDROOT
BRANCH   1  11
ATOM     11  C   UNL     1      43.584  16.324  -3.252  1.00  0.00     0.087 A 
ATOM     12  C   UNL     1      42.641  15.504  -3.891  1.00  0.00     0.022 A 
ATOM     13  C   UNL     1      41.337  15.411  -3.400  1.00  0.00     0.051 A 
ATOM     14  C   UNL     1      40.949  16.146  -2.275  1.00  0.00     0.157 A 
ATOM     15  C   UNL     1      43.187  17.079  -2.133  1.00  0.00     0.068 A 
ATOM     16  C   UNL     1      41.878  16.988  -1.641  1.00  0.00     0.158 A 
BRANCH  14  17
ATOM     17  O   UNL     1      39.641  16.031  -1.807  1.00  0.00    -0.504 OA
ATOM     18  H   UNL     1      39.034  16.836  -1.706  1.00  0.00     0.293 HD
ENDBRANCH  14  17
BRANCH  16  19
ATOM     19  O   UNL     1      41.495  17.735  -0.527  1.00  0.00    -0.504 OA
ATOM     20  H   UNL     1      42.175  18.230   0.039  1.00  0.00     0.293 HD
ENDBRANCH  16  19
ENDBRANCH   1  11
BRANCH  10  21
ATOM     21  O   UNL     1      44.450  18.481  -5.011  1.00  0.00    -0.500 OA
ATOM     22  H   UNL     1      43.850  18.412  -5.824  1.00  0.00     0.294 HD
ENDBRANCH  10  21
BRANCH   5  23
ATOM     23  O   UNL     1      50.124  13.416  -3.464  1.00  0.00    -0.507 OA
ATOM     24  H   UNL     1      49.960  12.933  -2.588  1.00  0.00     0.293 HD
ENDBRANCH   5  23
BRANCH   7  25
ATOM     25  O   UNL     1      49.442  17.373  -6.125  1.00  0.00    -0.507 OA
ATOM     26  H   UNL     1      49.963  18.190  -5.843  1.00  0.00     0.293 HD
ENDBRANCH   7  25
TORSDOF 6
ENDMDL
MODEL 5
REMARK VINA RESULT:    -5.202      4.270      5.437
REMARK INTER + INTRA:          -6.566
REMARK INTER:                  -6.807
REMARK INTRA:                   0.241
REMARK UNBOUND:                -0.300
REMARK SMILES Oc1cc(O)c2cc(O)c(-c3ccc(O)c(O)c3)[o+]c2c1
REMARK SMILES IDX 10 1 19 2 20 3 21 4 2 5 3 6 4 7 6 8 7 9 8 10 11 11 12 12
REMARK SMILES IDX 13 13 14 14 18 15 16 16 15 17 17 19 9 21 1 23 5 25
REMARK H PARENT 15 18 17 20 9 22 1 24 5 26
REMARK Flexibility Score: inf
ROOT
ATOM      1  C   UNL     1      45.133  16.344  -3.400  1.00  0.00     0.402 A 
ATOM      2  O   UNL     1      45.668  15.307  -2.761  1.00  0.00    -0.202 OA
ATOM      3  C   UNL     1      46.790  14.709  -3.151  1.00  0.00     0.368 A 
ATOM      4  C   UNL     1      47.271  13.623  -2.415  1.00  0.00     0.162 A 
ATOM      5  C   UNL     1      48.444  12.974  -2.803  1.00  0.00     0.128 A 
ATOM      6  C   UNL     1      49.141  13.412  -3.935  1.00  0.00     0.093 A 
ATOM      7  C   UNL     1      48.679  14.497  -4.689  1.00  0.00     0.136 A 
ATOM      8  C   UNL     1      47.488  15.161  -4.296  1.00  0.00     0.125 A 
ATOM      9  C   UNL     1      46.957  16.266  -4.983  1.00  0.00     0.078 A 
ATOM     10  C   UNL     1      45.780  16.872  -4.533  1.00  0.00     0.223 A 
ENDROOT
BRANCH   1  11
ATOM     11  C   UNL     1      43.873  16.917  -2.873  1.00  0.00     0.087 A 
ATOM     12  C   UNL     1      43.652  18.300  -2.971  1.00  0.00     0.022 A 
ATOM     13  C   UNL     1      42.480  18.866  -2.463  1.00  0.00     0.051 A 
ATOM     14  C   UNL     1      41.520  18.065  -1.837  1.00  0.00     0.157 A 
ATOM     15  C   UNL     1      42.917  16.116  -2.226  1.00  0.00     0.068 A 
ATOM     16  C   UNL     1      41.741  16.683  -1.714  1.00  0.00     0.158 A 
BRANCH  14  17
ATOM     17  O   UNL     1      40.360  18.658  -1.342  1.00  0.00    -0.504 OA
ATOM     18  H   UNL     1      39.474  18.598  -1.832  1.00  0.00     0.293 HD
ENDBRANCH  14  17
BRANCH  16  19
ATOM     19  O   UNL     1      40.795  15.880  -1.078  1.00  0.00    -0.504 OA
ATOM     20  H   UNL     1      39.822  15.877  -1.365  1.00  0.00     0.293 HD
ENDBRANCH  16  19
ENDBRANCH   1  11
BRANCH  10  21
ATOM     21  O   UNL     1      45.280  17.998  -5.186  1.00  0.00    -0.500 OA
ATOM     22  H   UNL     1      45.150  18.018  -6.190  1.00  0.00     0.294 HD
ENDBRANCH  10  21
BRANCH   5  23
ATOM     23  O   UNL     1      48.910  11.893  -2.056  1.00  0.00    -0.507 OA
ATOM     24  H   UNL     1      49.460  11.155  -2.479  1.00  0.00     0.293 HD
ENDBRANCH   5  23
BRANCH   7  25
ATOM     25  O   UNL     1      49.430  14.871  -5.807  1.00  0.00    -0.507 OA
ATOM     26  H   UNL     1      50.101  15.625  -5.816  1.00  0.00     0.293 HD
ENDBRANCH   7  25
TORSDOF 6
ENDMDL
MODEL 6
REMARK VINA RESULT:    -4.783      3.022      7.287
REMARK INTER + INTRA:          -6.062
REMARK INTER:                  -6.137
REMARK INTRA:                   0.075
REMARK UNBOUND:                -0.300
REMARK SMILES Oc1cc(O)c2cc(O)c(-c3ccc(O)c(O)c3)[o+]c2c1
REMARK SMILES IDX 10 1 19 2 20 3 21 4 2 5 3 6 4 7 6 8 7 9 8 10 11 11 12 12
REMARK SMILES IDX 13 13 14 14 18 15 16 16 15 17 17 19 9 21 1 23 5 25
REMARK H PARENT 15 18 17 20 9 22 1 24 5 26
REMARK Flexibility Score: inf
ROOT
ATOM      1  C   UNL     1      47.789  15.193  -4.102  1.00  0.00     0.402 A 
ATOM      2  O   UNL     1      47.163  16.210  -4.689  1.00  0.00    -0.202 OA
ATOM      3  C   UNL     1      45.927  16.586  -4.375  1.00  0.00     0.368 A 
ATOM      4  C   UNL     1      45.353  17.665  -5.050  1.00  0.00     0.162 A 
ATOM      5  C   UNL     1      44.055  18.078  -4.744  1.00  0.00     0.128 A 
ATOM      6  C   UNL     1      43.326  17.409  -3.755  1.00  0.00     0.093 A 
ATOM      7  C   UNL     1      43.879  16.324  -3.064  1.00  0.00     0.136 A 
ATOM      8  C   UNL     1      45.199  15.902  -3.371  1.00  0.00     0.125 A 
ATOM      9  C   UNL     1      45.839  14.834  -2.721  1.00  0.00     0.078 A 
ATOM     10  C   UNL     1      47.144  14.478  -3.076  1.00  0.00     0.223 A 
ENDROOT
BRANCH   1  11
ATOM     11  C   UNL     1      49.163  14.866  -4.548  1.00  0.00     0.087 A 
ATOM     12  C   UNL     1      49.532  13.522  -4.713  1.00  0.00     0.022 A 
ATOM     13  C   UNL     1      50.829  13.188  -5.113  1.00  0.00     0.051 A 
ATOM     14  C   UNL     1      51.779  14.188  -5.338  1.00  0.00     0.157 A 
ATOM     15  C   UNL     1      50.126  15.869  -4.755  1.00  0.00     0.068 A 
ATOM     16  C   UNL     1      51.428  15.537  -5.154  1.00  0.00     0.158 A 
BRANCH  14  17
ATOM     17  O   UNL     1      53.064  13.826  -5.739  1.00  0.00    -0.504 OA
ATOM     18  H   UNL     1      53.518  12.988  -5.394  1.00  0.00     0.293 HD
ENDBRANCH  14  17
BRANCH  16  19
ATOM     19  O   UNL     1      52.375  16.538  -5.364  1.00  0.00    -0.504 OA
ATOM     20  H   UNL     1      52.969  16.872  -4.613  1.00  0.00     0.293 HD
ENDBRANCH  16  19
ENDBRANCH   1  11
BRANCH  10  21
ATOM     21  O   UNL     1      47.798  13.450  -2.397  1.00  0.00    -0.500 OA
ATOM     22  H   UNL     1      47.503  12.485  -2.482  1.00  0.00     0.294 HD
ENDBRANCH  10  21
BRANCH   5  23
ATOM     23  O   UNL     1      43.499  19.158  -5.428  1.00  0.00    -0.507 OA
ATOM     24  H   UNL     1      43.999  19.626  -6.175  1.00  0.00     0.293 HD
ENDBRANCH   5  23
BRANCH   7  25
ATOM     25  O   UNL     1      43.085  15.706  -2.093  1.00  0.00    -0.507 OA
ATOM     26  H   UNL     1      42.428  14.964  -2.283  1.00  0.00     0.293 HD
ENDBRANCH   7  25
TORSDOF 6
ENDMDL
MODEL 7
REMARK VINA RESULT:    -4.721      4.232      6.477
REMARK INTER + INTRA:          -5.987
REMARK INTER:                  -6.021
REMARK INTRA:                   0.034
REMARK UNBOUND:                -0.300
REMARK SMILES Oc1cc(O)c2cc(O)c(-c3ccc(O)c(O)c3)[o+]c2c1
REMARK SMILES IDX 10 1 19 2 20 3 21 4 2 5 3 6 4 7 6 8 7 9 8 10 11 11 12 12
REMARK SMILES IDX 13 13 14 14 18 15 16 16 15 17 17 19 9 21 1 23 5 25
REMARK H PARENT 15 18 17 20 9 22 1 24 5 26
REMARK Flexibility Score: inf
ROOT
ATOM      1  C   UNL     1      44.952  16.031  -3.384  1.00  0.00     0.402 A 
ATOM      2  O   UNL     1      46.259  15.986  -3.629  1.00  0.00    -0.202 OA
ATOM      3  C   UNL     1      46.995  14.890  -3.467  1.00  0.00     0.368 A 
ATOM      4  C   UNL     1      48.362  14.943  -3.747  1.00  0.00     0.162 A 
ATOM      5  C   UNL     1      49.159  13.809  -3.582  1.00  0.00     0.128 A 
ATOM      6  C   UNL     1      48.586  12.614  -3.133  1.00  0.00     0.093 A 
ATOM      7  C   UNL     1      47.218  12.536  -2.844  1.00  0.00     0.136 A 
ATOM      8  C   UNL     1      46.404  13.686  -3.013  1.00  0.00     0.125 A 
ATOM      9  C   UNL     1      45.022  13.698  -2.762  1.00  0.00     0.078 A 
ATOM     10  C   UNL     1      44.284  14.869  -2.955  1.00  0.00     0.223 A 
ENDROOT
BRANCH   1  11
ATOM     11  C   UNL     1      44.244  17.315  -3.593  1.00  0.00     0.087 A 
ATOM     12  C   UNL     1      43.335  17.768  -2.625  1.00  0.00     0.022 A 
ATOM     13  C   UNL     1      42.641  18.966  -2.811  1.00  0.00     0.051 A 
ATOM     14  C   UNL     1      42.832  19.722  -3.971  1.00  0.00     0.157 A 
ATOM     15  C   UNL     1      44.420  18.066  -4.769  1.00  0.00     0.068 A 
ATOM     16  C   UNL     1      43.723  19.268  -4.959  1.00  0.00     0.158 A 
BRANCH  14  17
ATOM     17  O   UNL     1      42.127  20.914  -4.128  1.00  0.00    -0.504 OA
ATOM     18  H   UNL     1      42.237  21.692  -3.488  1.00  0.00     0.293 HD
ENDBRANCH  14  17
BRANCH  16  19
ATOM     19  O   UNL     1      43.907  20.009  -6.125  1.00  0.00    -0.504 OA
ATOM     20  H   UNL     1      43.730  21.007  -6.153  1.00  0.00     0.293 HD
ENDBRANCH  16  19
ENDBRANCH   1  11
BRANCH  10  21
ATOM     21  O   UNL     1      42.904  14.868  -2.753  1.00  0.00    -0.500 OA
ATOM     22  H   UNL     1      42.497  15.100  -1.855  1.00  0.00     0.294 HD
ENDBRANCH  10  21
BRANCH   5  23
ATOM     23  O   UNL     1      50.521  13.880  -3.868  1.00  0.00    -0.507 OA
ATOM     24  H   UNL     1      50.857  14.058  -4.807  1.00  0.00     0.293 HD
ENDBRANCH   5  23
BRANCH   7  25
ATOM     25  O   UNL     1      46.723  11.308  -2.397  1.00  0.00    -0.507 OA
ATOM     26  H   UNL     1      46.780  10.446  -2.920  1.00  0.00     0.293 HD
ENDBRANCH   7  25
TORSDOF 6
ENDMDL
MODEL 8
REMARK VINA RESULT:    -4.721      5.948      9.490
REMARK INTER + INTRA:          -5.986
REMARK INTER:                  -5.639
REMARK INTRA:                  -0.347
REMARK UNBOUND:                -0.300
REMARK SMILES Oc1cc(O)c2cc(O)c(-c3ccc(O)c(O)c3)[o+]c2c1
REMARK SMILES IDX 10 1 19 2 20 3 21 4 2 5 3 6 4 7 6 8 7 9 8 10 11 11 12 12
REMARK SMILES IDX 13 13 14 14 18 15 16 16 15 17 17 19 9 21 1 23 5 25
REMARK H PARENT 15 18 17 20 9 22 1 24 5 26
REMARK Flexibility Score: inf
ROOT
ATOM      1  C   UNL     1      43.900  17.347  -3.792  1.00  0.00     0.402 A 
ATOM      2  O   UNL     1      43.715  18.364  -2.955  1.00  0.00    -0.202 OA
ATOM      3  C   UNL     1      42.515  18.751  -2.532  1.00  0.00     0.368 A 
ATOM      4  C   UNL     1      42.421  19.834  -1.654  1.00  0.00     0.162 A 
ATOM      5  C   UNL     1      41.175  20.265  -1.197  1.00  0.00     0.128 A 
ATOM      6  C   UNL     1      40.013  19.610  -1.620  1.00  0.00     0.093 A 
ATOM      7  C   UNL     1      40.081  18.522  -2.499  1.00  0.00     0.136 A 
ATOM      8  C   UNL     1      41.346  18.080  -2.965  1.00  0.00     0.125 A 
ATOM      9  C   UNL     1      41.511  16.991  -3.836  1.00  0.00     0.078 A 
ATOM     10  C   UNL     1      42.792  16.610  -4.248  1.00  0.00     0.223 A 
ENDROOT
BRANCH   1  11
ATOM     11  C   UNL     1      45.286  17.018  -4.198  1.00  0.00     0.087 A 
ATOM     12  C   UNL     1      45.832  17.623  -5.342  1.00  0.00     0.022 A 
ATOM     13  C   UNL     1      47.130  17.313  -5.755  1.00  0.00     0.051 A 
ATOM     14  C   UNL     1      47.896  16.385  -5.043  1.00  0.00     0.157 A 
ATOM     15  C   UNL     1      46.051  16.070  -3.496  1.00  0.00     0.068 A 
ATOM     16  C   UNL     1      47.353  15.756  -3.910  1.00  0.00     0.158 A 
BRANCH  14  17
ATOM     17  O   UNL     1      49.189  16.097  -5.478  1.00  0.00    -0.504 OA
ATOM     18  H   UNL     1      49.660  16.662  -6.176  1.00  0.00     0.293 HD
ENDBRANCH  14  17
BRANCH  16  19
ATOM     19  O   UNL     1      48.107  14.820  -3.204  1.00  0.00    -0.504 OA
ATOM     20  H   UNL     1      48.816  15.103  -2.537  1.00  0.00     0.293 HD
ENDBRANCH  16  19
ENDBRANCH   1  11
BRANCH  10  21
ATOM     21  O   UNL     1      42.959  15.499  -5.074  1.00  0.00    -0.500 OA
ATOM     22  H   UNL     1      43.852  15.029  -5.160  1.00  0.00     0.294 HD
ENDBRANCH  10  21
BRANCH   5  23
ATOM     23  O   UNL     1      41.102  21.347  -0.322  1.00  0.00    -0.507 OA
ATOM     24  H   UNL     1      40.641  21.270   0.578  1.00  0.00     0.293 HD
ENDBRANCH   5  23
BRANCH   7  25
ATOM     25  O   UNL     1      38.875  17.924  -2.877  1.00  0.00    -0.507 OA
ATOM     26  H   UNL     1      38.791  17.205  -3.580  1.00  0.00     0.293 HD
ENDBRANCH   7  25
TORSDOF 6
ENDMDL
MODEL 9
REMARK VINA RESULT:    -4.457      4.602      8.653
REMARK INTER + INTRA:          -5.668
REMARK INTER:                  -5.836
REMARK INTRA:                   0.168
REMARK UNBOUND:                -0.300
REMARK SMILES Oc1cc(O)c2cc(O)c(-c3ccc(O)c(O)c3)[o+]c2c1
REMARK SMILES IDX 10 1 19 2 20 3 21 4 2 5 3 6 4 7 6 8 7 9 8 10 11 11 12 12
REMARK SMILES IDX 13 13 14 14 18 15 16 16 15 17 17 19 9 21 1 23 5 25
REMARK H PARENT 15 18 17 20 9 22 1 24 5 26
REMARK Flexibility Score: inf
ROOT
ATOM      1  C   UNL     1      45.358  16.460  -3.526  1.00  0.00     0.402 A 
ATOM      2  O   UNL     1      44.743  17.634  -3.411  1.00  0.00    -0.202 OA
ATOM      3  C   UNL     1      43.543  17.778  -2.856  1.00  0.00     0.368 A 
ATOM      4  C   UNL     1      42.977  19.053  -2.783  1.00  0.00     0.162 A 
ATOM      5  C   UNL     1      41.717  19.233  -2.211  1.00  0.00     0.128 A 
ATOM      6  C   UNL     1      41.017  18.131  -1.707  1.00  0.00     0.093 A 
ATOM      7  C   UNL     1      41.562  16.843  -1.769  1.00  0.00     0.136 A 
ATOM      8  C   UNL     1      42.844  16.656  -2.349  1.00  0.00     0.125 A 
ATOM      9  C   UNL     1      43.475  15.404  -2.441  1.00  0.00     0.078 A 
ATOM     10  C   UNL     1      44.742  15.299  -3.022  1.00  0.00     0.223 A 
ENDROOT
BRANCH   1  11
ATOM     11  C   UNL     1      46.690  16.428  -4.172  1.00  0.00     0.087 A 
ATOM     12  C   UNL     1      46.936  17.246  -5.287  1.00  0.00     0.022 A 
ATOM     13  C   UNL     1      48.179  17.217  -5.924  1.00  0.00     0.051 A 
ATOM     14  C   UNL     1      49.188  16.363  -5.470  1.00  0.00     0.157 A 
ATOM     15  C   UNL     1      47.699  15.554  -3.730  1.00  0.00     0.068 A 
ATOM     16  C   UNL     1      48.946  15.523  -4.370  1.00  0.00     0.158 A 
BRANCH  14  17
ATOM     17  O   UNL     1      50.419  16.358  -6.125  1.00  0.00    -0.504 OA
ATOM     18  H   UNL     1      51.296  16.430  -5.622  1.00  0.00     0.293 HD
ENDBRANCH  14  17
BRANCH  16  19
ATOM     19  O   UNL     1      49.943  14.658  -3.921  1.00  0.00    -0.504 OA
ATOM     20  H   UNL     1      50.134  14.536  -2.932  1.00  0.00     0.293 HD
ENDBRANCH  16  19
ENDBRANCH   1  11
BRANCH  10  21
ATOM     21  O   UNL     1      45.389  14.065  -3.070  1.00  0.00    -0.500 OA
ATOM     22  H   UNL     1      45.811  13.717  -3.922  1.00  0.00     0.294 HD
ENDBRANCH  10  21
BRANCH   5  23
ATOM     23  O   UNL     1      41.169  20.513  -2.146  1.00  0.00    -0.507 OA
ATOM     24  H   UNL     1      40.817  20.981  -2.973  1.00  0.00     0.293 HD
ENDBRANCH   5  23
BRANCH   7  25
ATOM     25  O   UNL     1      40.798  15.795  -1.247  1.00  0.00    -0.507 OA
ATOM     26  H   UNL     1      39.949  15.446  -1.666  1.00  0.00     0.293 HD
ENDBRANCH   7  25
TORSDOF 6
ENDMDL
