MODEL 1
REMARK VINA RESULT:    -6.429      0.000      0.000
REMARK INTER + INTRA:          -8.722
REMARK INTER:                  -8.120
REMARK INTRA:                  -0.603
REMARK UNBOUND:                -0.603
REMARK SMILES O=C(C=Cc1ccc(O)cc1)c1ccc(O)cc1O
REMARK SMILES IDX 4 1 3 2 5 3 6 4 7 5 8 6 11 7 10 8 9 9 2 11 1 12 12 13 18 14
REMARK SMILES IDX 13 15 17 16 14 17 15 18 19 19 16 21
REMARK H PARENT 9 10 19 20 16 22
REMARK Flexibility Score: inf
ROOT
ATOM      1  C   UNL     1      30.976 -92.551  37.496  1.00  0.00     0.012 C 
ATOM      2  C   UNL     1      31.937 -93.408  37.873  1.00  0.00     0.053 C 
ENDROOT
BRANCH   1   3
ATOM      3  C   UNL     1      31.191 -91.093  37.322  1.00  0.00    -0.025 A 
ATOM      4  C   UNL     1      32.159 -90.664  36.398  1.00  0.00     0.012 A 
ATOM      5  C   UNL     1      32.404 -89.301  36.206  1.00  0.00     0.047 A 
ATOM      6  C   UNL     1      31.693 -88.347  36.943  1.00  0.00     0.115 A 
ATOM      7  C   UNL     1      30.490 -90.125  38.070  1.00  0.00     0.012 A 
ATOM      8  C   UNL     1      30.739 -88.764  37.875  1.00  0.00     0.047 A 
BRANCH   6   9
ATOM      9  O   UNL     1      31.928 -86.986  36.759  1.00  0.00    -0.508 OA
ATOM     10  H   UNL     1      31.539 -86.484  35.970  1.00  0.00     0.293 HD
ENDBRANCH   6   9
ENDBRANCH   1   3
BRANCH   2  11
ATOM     11  C   UNL     1      31.701 -94.857  38.043  1.00  0.00     0.189 C 
ATOM     12  O   UNL     1      32.650 -95.575  38.457  1.00  0.00    -0.289 OA
BRANCH  11  13
ATOM     13  C   UNL     1      30.385 -95.488  37.792  1.00  0.00     0.064 A 
ATOM     14  C   UNL     1      29.516 -95.836  38.852  1.00  0.00     0.130 A 
ATOM     15  C   UNL     1      29.970 -95.699  36.466  1.00  0.00     0.020 A 
ATOM     16  C   UNL     1      28.255 -96.375  38.565  1.00  0.00     0.093 A 
ATOM     17  C   UNL     1      28.715 -96.248  36.194  1.00  0.00     0.047 A 
ATOM     18  C   UNL     1      27.854 -96.583  37.240  1.00  0.00     0.119 A 
BRANCH  14  19
ATOM     19  O   UNL     1      29.879 -95.681  40.191  1.00  0.00    -0.507 OA
ATOM     20  H   UNL     1      30.691 -96.127  40.597  1.00  0.00     0.293 HD
ENDBRANCH  14  19
BRANCH  18  21
ATOM     21  O   UNL     1      26.602 -97.125  36.953  1.00  0.00    -0.508 OA
ATOM     22  H   UNL     1      25.790 -96.907  37.518  1.00  0.00     0.293 HD
ENDBRANCH  18  21
ENDBRANCH  11  13
ENDBRANCH   2  11
TORSDOF 6
ENDMDL
MODEL 2
REMARK VINA RESULT:    -5.757      1.264      2.147
REMARK INTER + INTRA:          -7.874
REMARK INTER:                  -7.173
REMARK INTRA:                  -0.702
REMARK UNBOUND:                -0.603
REMARK SMILES O=C(C=Cc1ccc(O)cc1)c1ccc(O)cc1O
REMARK SMILES IDX 4 1 3 2 5 3 6 4 7 5 8 6 11 7 10 8 9 9 2 11 1 12 12 13 18 14
REMARK SMILES IDX 13 15 17 16 14 17 15 18 19 19 16 21
REMARK H PARENT 9 10 19 20 16 22
REMARK Flexibility Score: inf
ROOT
ATOM      1  C   UNL     1      31.134 -92.627  36.689  1.00  0.00     0.012 C 
ATOM      2  C   UNL     1      30.962 -93.446  37.738  1.00  0.00     0.053 C 
ENDROOT
BRANCH   1   3
ATOM      3  C   UNL     1      31.360 -91.166  36.811  1.00  0.00    -0.025 A 
ATOM      4  C   UNL     1      30.578 -90.440  37.724  1.00  0.00     0.012 A 
ATOM      5  C   UNL     1      30.749 -89.059  37.867  1.00  0.00     0.047 A 
ATOM      6  C   UNL     1      31.697 -88.384  37.092  1.00  0.00     0.115 A 
ATOM      7  C   UNL     1      32.304 -90.474  36.023  1.00  0.00     0.012 A 
ATOM      8  C   UNL     1      32.470 -89.094  36.169  1.00  0.00     0.047 A 
BRANCH   6   9
ATOM      9  O   UNL     1      31.877 -87.008  37.226  1.00  0.00    -0.508 OA
ATOM     10  H   UNL     1      31.396 -86.351  36.624  1.00  0.00     0.293 HD
ENDBRANCH   6   9
ENDBRANCH   1   3
BRANCH   2  11
ATOM     11  C   UNL     1      30.735 -94.900  37.595  1.00  0.00     0.189 C 
ATOM     12  O   UNL     1      31.617 -95.690  38.026  1.00  0.00    -0.289 OA
BRANCH  11  13
ATOM     13  C   UNL     1      29.497 -95.462  37.009  1.00  0.00     0.064 A 
ATOM     14  C   UNL     1      29.534 -96.342  35.902  1.00  0.00     0.130 A 
ATOM     15  C   UNL     1      28.260 -95.151  37.597  1.00  0.00     0.020 A 
ATOM     16  C   UNL     1      28.343 -96.898  35.418  1.00  0.00     0.093 A 
ATOM     17  C   UNL     1      27.078 -95.703  37.098  1.00  0.00     0.047 A 
ATOM     18  C   UNL     1      27.116 -96.578  36.012  1.00  0.00     0.119 A 
BRANCH  14  19
ATOM     19  O   UNL     1      30.726 -96.668  35.252  1.00  0.00    -0.507 OA
ATOM     20  H   UNL     1      31.587 -96.867  35.746  1.00  0.00     0.293 HD
ENDBRANCH  14  19
BRANCH  18  21
ATOM     21  O   UNL     1      25.929 -97.125  35.528  1.00  0.00    -0.508 OA
ATOM     22  H   UNL     1      25.084 -97.137  36.087  1.00  0.00     0.293 HD
ENDBRANCH  18  21
ENDBRANCH  11  13
ENDBRANCH   2  11
TORSDOF 6
ENDMDL
MODEL 3
REMARK VINA RESULT:    -5.393     15.939     16.803
REMARK INTER + INTRA:          -7.414
REMARK INTER:                  -6.803
REMARK INTRA:                  -0.611
REMARK UNBOUND:                -0.603
REMARK SMILES O=C(C=Cc1ccc(O)cc1)c1ccc(O)cc1O
REMARK SMILES IDX 4 1 3 2 5 3 6 4 7 5 8 6 11 7 10 8 9 9 2 11 1 12 12 13 18 14
REMARK SMILES IDX 13 15 17 16 14 17 15 18 19 19 16 21
REMARK H PARENT 9 10 19 20 16 22
REMARK Flexibility Score: inf
ROOT
ATOM      1  C   UNL     1      37.901 -78.633  39.166  1.00  0.00     0.012 C 
ATOM      2  C   UNL     1      37.158 -78.776  38.058  1.00  0.00     0.053 C 
ENDROOT
BRANCH   1   3
ATOM      3  C   UNL     1      39.012 -79.543  39.539  1.00  0.00    -0.025 A 
ATOM      4  C   UNL     1      39.963 -79.876  38.560  1.00  0.00     0.012 A 
ATOM      5  C   UNL     1      41.023 -80.737  38.862  1.00  0.00     0.047 A 
ATOM      6  C   UNL     1      41.140 -81.287  40.144  1.00  0.00     0.115 A 
ATOM      7  C   UNL     1      39.130 -80.113  40.823  1.00  0.00     0.012 A 
ATOM      8  C   UNL     1      40.190 -80.974  41.120  1.00  0.00     0.047 A 
BRANCH   6   9
ATOM      9  O   UNL     1      42.192 -82.146  40.456  1.00  0.00    -0.508 OA
ATOM     10  H   UNL     1      42.061 -83.149  40.498  1.00  0.00     0.293 HD
ENDBRANCH   6   9
ENDBRANCH   1   3
BRANCH   2  11
ATOM     11  C   UNL     1      36.053 -77.859  37.706  1.00  0.00     0.189 C 
ATOM     12  O   UNL     1      35.634 -77.060  38.585  1.00  0.00    -0.289 OA
BRANCH  11  13
ATOM     13  C   UNL     1      35.455 -77.811  36.353  1.00  0.00     0.064 A 
ATOM     14  C   UNL     1      34.060 -77.936  36.154  1.00  0.00     0.130 A 
ATOM     15  C   UNL     1      36.288 -77.588  35.244  1.00  0.00     0.020 A 
ATOM     16  C   UNL     1      33.531 -77.824  34.863  1.00  0.00     0.093 A 
ATOM     17  C   UNL     1      35.749 -77.489  33.959  1.00  0.00     0.047 A 
ATOM     18  C   UNL     1      34.372 -77.604  33.765  1.00  0.00     0.119 A 
BRANCH  14  19
ATOM     19  O   UNL     1      33.180 -78.189  37.208  1.00  0.00    -0.507 OA
ATOM     20  H   UNL     1      33.283 -78.977  37.835  1.00  0.00     0.293 HD
ENDBRANCH  14  19
BRANCH  18  21
ATOM     21  O   UNL     1      33.848 -77.498  32.478  1.00  0.00    -0.508 OA
ATOM     22  H   UNL     1      34.215 -76.831  31.810  1.00  0.00     0.293 HD
ENDBRANCH  18  21
ENDBRANCH  11  13
ENDBRANCH   2  11
TORSDOF 6
ENDMDL
MODEL 4
REMARK VINA RESULT:    -5.202     16.703     18.541
REMARK INTER + INTRA:          -7.173
REMARK INTER:                  -6.558
REMARK INTRA:                  -0.615
REMARK UNBOUND:                -0.603
REMARK SMILES O=C(C=Cc1ccc(O)cc1)c1ccc(O)cc1O
REMARK SMILES IDX 4 1 3 2 5 3 6 4 7 5 8 6 11 7 10 8 9 9 2 11 1 12 12 13 18 14
REMARK SMILES IDX 13 15 17 16 14 17 15 18 19 19 16 21
REMARK H PARENT 9 10 19 20 16 22
REMARK Flexibility Score: inf
ROOT
ATOM      1  C   UNL     1      38.358 -78.777  37.035  1.00  0.00     0.012 C 
ATOM      2  C   UNL     1      38.565 -77.579  36.468  1.00  0.00     0.053 C 
ENDROOT
BRANCH   1   3
ATOM      3  C   UNL     1      38.711 -79.097  38.440  1.00  0.00    -0.025 A 
ATOM      4  C   UNL     1      39.974 -79.653  38.704  1.00  0.00     0.012 A 
ATOM      5  C   UNL     1      40.349 -79.980  40.011  1.00  0.00     0.047 A 
ATOM      6  C   UNL     1      39.462 -79.766  41.072  1.00  0.00     0.115 A 
ATOM      7  C   UNL     1      37.818 -78.899  39.514  1.00  0.00     0.012 A 
ATOM      8  C   UNL     1      38.197 -79.228  40.818  1.00  0.00     0.047 A 
BRANCH   6   9
ATOM      9  O   UNL     1      39.824 -80.088  42.378  1.00  0.00    -0.508 OA
ATOM     10  H   UNL     1      39.365 -79.663  43.174  1.00  0.00     0.293 HD
ENDBRANCH   6   9
ENDBRANCH   1   3
BRANCH   2  11
ATOM     11  C   UNL     1      38.208 -77.281  35.065  1.00  0.00     0.189 C 
ATOM     12  O   UNL     1      37.041 -76.876  34.816  1.00  0.00    -0.289 OA
BRANCH  11  13
ATOM     13  C   UNL     1      39.177 -77.395  33.952  1.00  0.00     0.064 A 
ATOM     14  C   UNL     1      38.751 -77.541  32.611  1.00  0.00     0.130 A 
ATOM     15  C   UNL     1      40.551 -77.306  34.229  1.00  0.00     0.020 A 
ATOM     16  C   UNL     1      39.702 -77.584  31.583  1.00  0.00     0.093 A 
ATOM     17  C   UNL     1      41.489 -77.361  33.196  1.00  0.00     0.047 A 
ATOM     18  C   UNL     1      41.069 -77.497  31.873  1.00  0.00     0.119 A 
BRANCH  14  19
ATOM     19  O   UNL     1      37.403 -77.666  32.269  1.00  0.00    -0.507 OA
ATOM     20  H   UNL     1      36.650 -77.412  32.895  1.00  0.00     0.293 HD
ENDBRANCH  14  19
BRANCH  18  21
ATOM     21  O   UNL     1      42.016 -77.546  30.852  1.00  0.00    -0.508 OA
ATOM     22  H   UNL     1      42.742 -76.845  30.770  1.00  0.00     0.293 HD
ENDBRANCH  18  21
ENDBRANCH  11  13
ENDBRANCH   2  11
TORSDOF 6
ENDMDL
MODEL 5
REMARK VINA RESULT:    -5.198     15.970     17.300
REMARK INTER + INTRA:          -7.168
REMARK INTER:                  -6.450
REMARK INTRA:                  -0.718
REMARK UNBOUND:                -0.603
REMARK SMILES O=C(C=Cc1ccc(O)cc1)c1ccc(O)cc1O
REMARK SMILES IDX 4 1 3 2 5 3 6 4 7 5 8 6 11 7 10 8 9 9 2 11 1 12 12 13 18 14
REMARK SMILES IDX 13 15 17 16 14 17 15 18 19 19 16 21
REMARK H PARENT 9 10 19 20 16 22
REMARK Flexibility Score: inf
ROOT
ATOM      1  C   UNL     1      37.740 -78.839  37.777  1.00  0.00     0.012 C 
ATOM      2  C   UNL     1      37.537 -78.666  39.092  1.00  0.00     0.053 C 
ENDROOT
BRANCH   1   3
ATOM      3  C   UNL     1      36.822 -78.331  36.727  1.00  0.00    -0.025 A 
ATOM      4  C   UNL     1      35.449 -78.256  37.016  1.00  0.00     0.012 A 
ATOM      5  C   UNL     1      34.545 -77.792  36.054  1.00  0.00     0.047 A 
ATOM      6  C   UNL     1      34.999 -77.409  34.788  1.00  0.00     0.115 A 
ATOM      7  C   UNL     1      37.269 -77.956  35.443  1.00  0.00     0.012 A 
ATOM      8  C   UNL     1      36.361 -77.494  34.486  1.00  0.00     0.047 A 
BRANCH   6   9
ATOM      9  O   UNL     1      34.107 -76.945  33.823  1.00  0.00    -0.508 OA
ATOM     10  H   UNL     1      34.432 -76.533  32.957  1.00  0.00     0.293 HD
ENDBRANCH   6   9
ENDBRANCH   1   3
BRANCH   2  11
ATOM     11  C   UNL     1      38.463 -79.182  40.123  1.00  0.00     0.189 C 
ATOM     12  O   UNL     1      37.986 -79.531  41.236  1.00  0.00    -0.289 OA
BRANCH  11  13
ATOM     13  C   UNL     1      39.914 -79.348  39.883  1.00  0.00     0.064 A 
ATOM     14  C   UNL     1      40.508 -80.628  39.787  1.00  0.00     0.130 A 
ATOM     15  C   UNL     1      40.712 -78.206  39.697  1.00  0.00     0.020 A 
ATOM     16  C   UNL     1      41.874 -80.739  39.499  1.00  0.00     0.093 A 
ATOM     17  C   UNL     1      42.075 -78.330  39.421  1.00  0.00     0.047 A 
ATOM     18  C   UNL     1      42.659 -79.593  39.318  1.00  0.00     0.119 A 
BRANCH  14  19
ATOM     19  O   UNL     1      39.780 -81.801  39.992  1.00  0.00    -0.507 OA
ATOM     20  H   UNL     1      39.635 -82.494  39.268  1.00  0.00     0.293 HD
ENDBRANCH  14  19
BRANCH  18  21
ATOM     21  O   UNL     1      44.020 -79.701  39.038  1.00  0.00    -0.508 OA
ATOM     22  H   UNL     1      44.415 -79.330  38.182  1.00  0.00     0.293 HD
ENDBRANCH  18  21
ENDBRANCH  11  13
ENDBRANCH   2  11
TORSDOF 6
ENDMDL
MODEL 6
REMARK VINA RESULT:    -5.123     16.579     19.037
REMARK INTER + INTRA:          -7.073
REMARK INTER:                  -6.487
REMARK INTRA:                  -0.586
REMARK UNBOUND:                -0.603
REMARK SMILES O=C(C=Cc1ccc(O)cc1)c1ccc(O)cc1O
REMARK SMILES IDX 4 1 3 2 5 3 6 4 7 5 8 6 11 7 10 8 9 9 2 11 1 12 12 13 18 14
REMARK SMILES IDX 13 15 17 16 14 17 15 18 19 19 16 21
REMARK H PARENT 9 10 19 20 16 22
REMARK Flexibility Score: inf
ROOT
ATOM      1  C   UNL     1      41.579 -78.433  37.052  1.00  0.00     0.012 C 
ATOM      2  C   UNL     1      40.828 -77.847  36.107  1.00  0.00     0.053 C 
ENDROOT
BRANCH   1   3
ATOM      3  C   UNL     1      41.040 -78.937  38.340  1.00  0.00    -0.025 A 
ATOM      4  C   UNL     1      40.695 -78.005  39.333  1.00  0.00     0.012 A 
ATOM      5  C   UNL     1      40.193 -78.432  40.566  1.00  0.00     0.047 A 
ATOM      6  C   UNL     1      40.039 -79.798  40.827  1.00  0.00     0.115 A 
ATOM      7  C   UNL     1      40.895 -80.311  38.618  1.00  0.00     0.012 A 
ATOM      8  C   UNL     1      40.393 -80.734  39.852  1.00  0.00     0.047 A 
BRANCH   6   9
ATOM      9  O   UNL     1      39.538 -80.235  42.052  1.00  0.00    -0.508 OA
ATOM     10  H   UNL     1      39.873 -79.852  42.928  1.00  0.00     0.293 HD
ENDBRANCH   6   9
ENDBRANCH   1   3
BRANCH   2  11
ATOM     11  C   UNL     1      41.384 -77.349  34.831  1.00  0.00     0.189 C 
ATOM     12  O   UNL     1      42.552 -76.876  34.830  1.00  0.00    -0.289 OA
BRANCH  11  13
ATOM     13  C   UNL     1      40.643 -77.427  33.552  1.00  0.00     0.064 A 
ATOM     14  C   UNL     1      41.295 -77.741  32.336  1.00  0.00     0.130 A 
ATOM     15  C   UNL     1      39.252 -77.233  33.554  1.00  0.00     0.020 A 
ATOM     16  C   UNL     1      40.545 -77.864  31.160  1.00  0.00     0.093 A 
ATOM     17  C   UNL     1      38.517 -77.348  32.371  1.00  0.00     0.047 A 
ATOM     18  C   UNL     1      39.159 -77.666  31.174  1.00  0.00     0.119 A 
BRANCH  14  19
ATOM     19  O   UNL     1      42.678 -77.915  32.259  1.00  0.00    -0.507 OA
ATOM     20  H   UNL     1      43.191 -77.879  31.387  1.00  0.00     0.293 HD
ENDBRANCH  14  19
BRANCH  18  21
ATOM     21  O   UNL     1      38.412 -77.782  30.003  1.00  0.00    -0.508 OA
ATOM     22  H   UNL     1      37.616 -78.405  29.943  1.00  0.00     0.293 HD
ENDBRANCH  18  21
ENDBRANCH  11  13
ENDBRANCH   2  11
TORSDOF 6
ENDMDL
MODEL 7
REMARK VINA RESULT:    -5.116     16.296     18.725
REMARK INTER + INTRA:          -7.064
REMARK INTER:                  -6.604
REMARK INTRA:                  -0.460
REMARK UNBOUND:                -0.603
REMARK SMILES O=C(C=Cc1ccc(O)cc1)c1ccc(O)cc1O
REMARK SMILES IDX 4 1 3 2 5 3 6 4 7 5 8 6 11 7 10 8 9 9 2 11 1 12 12 13 18 14
REMARK SMILES IDX 13 15 17 16 14 17 15 18 19 19 16 21
REMARK H PARENT 9 10 19 20 16 22
REMARK Flexibility Score: inf
ROOT
ATOM      1  C   UNL     1      40.988 -77.595  35.153  1.00  0.00     0.012 C 
ATOM      2  C   UNL     1      42.209 -77.594  35.709  1.00  0.00     0.053 C 
ENDROOT
BRANCH   1   3
ATOM      3  C   UNL     1      40.740 -77.396  33.703  1.00  0.00    -0.025 A 
ATOM      4  C   UNL     1      39.425 -77.520  33.225  1.00  0.00     0.012 A 
ATOM      5  C   UNL     1      39.144 -77.350  31.865  1.00  0.00     0.047 A 
ATOM      6  C   UNL     1      40.175 -77.064  30.964  1.00  0.00     0.115 A 
ATOM      7  C   UNL     1      41.775 -77.122  32.785  1.00  0.00     0.012 A 
ATOM      8  C   UNL     1      41.488 -76.954  31.427  1.00  0.00     0.047 A 
BRANCH   6   9
ATOM      9  O   UNL     1      39.906 -76.892  29.607  1.00  0.00    -0.508 OA
ATOM     10  H   UNL     1      39.738 -77.683  28.997  1.00  0.00     0.293 HD
ENDBRANCH   6   9
ENDBRANCH   1   3
BRANCH   2  11
ATOM     11  C   UNL     1      42.434 -77.792  37.156  1.00  0.00     0.189 C 
ATOM     12  O   UNL     1      43.284 -77.064  37.736  1.00  0.00    -0.289 OA
BRANCH  11  13
ATOM     13  C   UNL     1      41.670 -78.775  37.957  1.00  0.00     0.064 A 
ATOM     14  C   UNL     1      41.769 -80.165  37.713  1.00  0.00     0.130 A 
ATOM     15  C   UNL     1      40.867 -78.319  39.015  1.00  0.00     0.020 A 
ATOM     16  C   UNL     1      41.076 -81.063  38.534  1.00  0.00     0.093 A 
ATOM     17  C   UNL     1      40.172 -79.225  39.820  1.00  0.00     0.047 A 
ATOM     18  C   UNL     1      40.276 -80.597  39.585  1.00  0.00     0.119 A 
BRANCH  14  19
ATOM     19  O   UNL     1      42.525 -80.682  36.659  1.00  0.00    -0.507 OA
ATOM     20  H   UNL     1      43.342 -80.217  36.287  1.00  0.00     0.293 HD
ENDBRANCH  14  19
BRANCH  18  21
ATOM     21  O   UNL     1      39.580 -81.488  40.399  1.00  0.00    -0.508 OA
ATOM     22  H   UNL     1      39.312 -81.243  41.344  1.00  0.00     0.293 HD
ENDBRANCH  18  21
ENDBRANCH  11  13
ENDBRANCH   2  11
TORSDOF 6
ENDMDL
MODEL 8
REMARK VINA RESULT:    -5.086     15.542     16.619
REMARK INTER + INTRA:          -7.027
REMARK INTER:                  -6.416
REMARK INTRA:                  -0.610
REMARK UNBOUND:                -0.603
REMARK SMILES O=C(C=Cc1ccc(O)cc1)c1ccc(O)cc1O
REMARK SMILES IDX 4 1 3 2 5 3 6 4 7 5 8 6 11 7 10 8 9 9 2 11 1 12 12 13 18 14
REMARK SMILES IDX 13 15 17 16 14 17 15 18 19 19 16 21
REMARK H PARENT 9 10 19 20 16 22
REMARK Flexibility Score: inf
ROOT
ATOM      1  C   UNL     1      38.465 -78.413  37.826  1.00  0.00     0.012 C 
ATOM      2  C   UNL     1      37.450 -78.756  37.019  1.00  0.00     0.053 C 
ENDROOT
BRANCH   1   3
ATOM      3  C   UNL     1      39.139 -79.356  38.752  1.00  0.00    -0.025 A 
ATOM      4  C   UNL     1      40.188 -80.148  38.256  1.00  0.00     0.012 A 
ATOM      5  C   UNL     1      40.847 -81.057  39.089  1.00  0.00     0.047 A 
ATOM      6  C   UNL     1      40.460 -81.196  40.426  1.00  0.00     0.115 A 
ATOM      7  C   UNL     1      38.745 -79.513  40.097  1.00  0.00     0.012 A 
ATOM      8  C   UNL     1      39.407 -80.425  40.925  1.00  0.00     0.047 A 
BRANCH   6   9
ATOM      9  O   UNL     1      41.110 -82.099  41.265  1.00  0.00    -0.508 OA
ATOM     10  H   UNL     1      41.850 -82.700  40.923  1.00  0.00     0.293 HD
ENDBRANCH   6   9
ENDBRANCH   1   3
BRANCH   2  11
ATOM     11  C   UNL     1      36.790 -77.800  36.105  1.00  0.00     0.189 C 
ATOM     12  O   UNL     1      37.482 -76.875  35.602  1.00  0.00    -0.289 OA
BRANCH  11  13
ATOM     13  C   UNL     1      35.364 -77.914  35.722  1.00  0.00     0.064 A 
ATOM     14  C   UNL     1      34.965 -77.994  34.368  1.00  0.00     0.130 A 
ATOM     15  C   UNL     1      34.390 -77.994  36.731  1.00  0.00     0.020 A 
ATOM     16  C   UNL     1      33.610 -78.162  34.053  1.00  0.00     0.093 A 
ATOM     17  C   UNL     1      33.041 -78.150  36.404  1.00  0.00     0.047 A 
ATOM     18  C   UNL     1      32.648 -78.238  35.068  1.00  0.00     0.119 A 
BRANCH  14  19
ATOM     19  O   UNL     1      35.878 -77.891  33.317  1.00  0.00    -0.507 OA
ATOM     20  H   UNL     1      36.441 -78.668  32.997  1.00  0.00     0.293 HD
ENDBRANCH  14  19
BRANCH  18  21
ATOM     21  O   UNL     1      31.299 -78.399  34.757  1.00  0.00    -0.508 OA
ATOM     22  H   UNL     1      30.872 -77.907  33.981  1.00  0.00     0.293 HD
ENDBRANCH  18  21
ENDBRANCH  11  13
ENDBRANCH   2  11
TORSDOF 6
ENDMDL
