MODEL 1
REMARK VINA RESULT:    -6.725      0.000      0.000
REMARK INTER + INTRA:          -7.638
REMARK INTER:                  -7.905
REMARK INTRA:                   0.267
REMARK UNBOUND:                 0.267
REMARK SMILES O=c1c(O)c(-c2ccc(O)cc2)oc2cc(O)cc(O)c12
REMARK SMILES IDX 5 1 3 2 2 3 1 4 21 5 19 6 18 7 16 8 15 9 14 10 13 11 6 12
REMARK SMILES IDX 7 13 8 14 9 15 12 16 11 17 10 18 4 20 20 22 17 24
REMARK H PARENT 10 19 4 21 20 23 17 25
REMARK Flexibility Score: inf
ROOT
ATOM      1  C   UNL     1       6.080  27.322  59.365  1.00  0.00     0.180 A 
ATOM      2  C   UNL     1       5.615  26.584  60.467  1.00  0.00     0.208 A 
ATOM      3  C   UNL     1       6.534  25.847  61.232  1.00  0.00     0.238 A 
ATOM      4  O   UNL     1       6.103  25.145  62.183  1.00  0.00    -0.285 OA
ATOM      5  C   UNL     1       7.909  25.870  60.894  1.00  0.00     0.111 A 
ATOM      6  C   UNL     1       8.933  25.194  61.622  1.00  0.00     0.134 A 
ATOM      7  C   UNL     1      10.241  25.180  61.122  1.00  0.00     0.093 A 
ATOM      8  C   UNL     1      10.573  25.872  59.955  1.00  0.00     0.123 A 
ATOM      9  C   UNL     1       9.592  26.585  59.270  1.00  0.00     0.094 A 
ATOM     10  C   UNL     1       8.272  26.588  59.724  1.00  0.00     0.146 A 
ATOM     11  O   UNL     1       7.365  27.271  59.035  1.00  0.00    -0.452 OA
ENDROOT
BRANCH   1  12
ATOM     12  C   UNL     1       5.176  28.142  58.527  1.00  0.00     0.021 A 
ATOM     13  C   UNL     1       3.846  27.751  58.282  1.00  0.00     0.016 A 
ATOM     14  C   UNL     1       3.005  28.554  57.508  1.00  0.00     0.047 A 
ATOM     15  C   UNL     1       3.474  29.764  56.980  1.00  0.00     0.115 A 
ATOM     16  C   UNL     1       5.632  29.368  58.013  1.00  0.00     0.016 A 
ATOM     17  C   UNL     1       4.787  30.169  57.238  1.00  0.00     0.047 A 
BRANCH  15  18
ATOM     18  O   UNL     1       2.644  30.572  56.207  1.00  0.00    -0.508 OA
ATOM     19  H   UNL     1       3.017  31.164  55.474  1.00  0.00     0.293 HD
ENDBRANCH  15  18
ENDBRANCH   1  12
BRANCH   2  20
ATOM     20  O   UNL     1       4.251  26.557  60.770  1.00  0.00    -0.502 OA
ATOM     21  H   UNL     1       3.769  25.708  61.037  1.00  0.00     0.293 HD
ENDBRANCH   2  20
BRANCH   6  22
ATOM     22  O   UNL     1       8.726  24.550  62.845  1.00  0.00    -0.507 OA
ATOM     23  H   UNL     1       8.587  23.557  62.956  1.00  0.00     0.293 HD
ENDBRANCH   6  22
BRANCH   8  24
ATOM     24  O   UNL     1      11.881  25.866  59.474  1.00  0.00    -0.508 OA
ATOM     25  H   UNL     1      12.592  25.268  59.877  1.00  0.00     0.293 HD
ENDBRANCH   8  24
TORSDOF 5
ENDMDL
MODEL 2
REMARK VINA RESULT:    -6.608      0.050      1.058
REMARK INTER + INTRA:          -7.500
REMARK INTER:                  -7.784
REMARK INTRA:                   0.284
REMARK UNBOUND:                 0.267
REMARK SMILES O=c1c(O)c(-c2ccc(O)cc2)oc2cc(O)cc(O)c12
REMARK SMILES IDX 5 1 3 2 2 3 1 4 21 5 19 6 18 7 16 8 15 9 14 10 13 11 6 12
REMARK SMILES IDX 7 13 8 14 9 15 12 16 11 17 10 18 4 20 20 22 17 24
REMARK H PARENT 10 19 4 21 20 23 17 25
REMARK Flexibility Score: inf
ROOT
ATOM      1  C   UNL     1       6.082  27.354  59.420  1.00  0.00     0.180 A 
ATOM      2  C   UNL     1       5.618  26.604  60.514  1.00  0.00     0.208 A 
ATOM      3  C   UNL     1       6.535  25.849  61.263  1.00  0.00     0.238 A 
ATOM      4  O   UNL     1       6.105  25.137  62.207  1.00  0.00    -0.285 OA
ATOM      5  C   UNL     1       7.909  25.866  60.917  1.00  0.00     0.111 A 
ATOM      6  C   UNL     1       8.932  25.172  61.629  1.00  0.00     0.134 A 
ATOM      7  C   UNL     1      10.237  25.155  61.122  1.00  0.00     0.093 A 
ATOM      8  C   UNL     1      10.567  25.861  59.963  1.00  0.00     0.123 A 
ATOM      9  C   UNL     1       9.588  26.592  59.294  1.00  0.00     0.094 A 
ATOM     10  C   UNL     1       8.270  26.598  59.756  1.00  0.00     0.146 A 
ATOM     11  O   UNL     1       7.365  27.298  59.082  1.00  0.00    -0.452 OA
ENDROOT
BRANCH   1  12
ATOM     12  C   UNL     1       5.180  28.193  58.600  1.00  0.00     0.021 A 
ATOM     13  C   UNL     1       5.623  29.398  58.022  1.00  0.00     0.016 A 
ATOM     14  C   UNL     1       4.759  30.162  57.232  1.00  0.00     0.047 A 
ATOM     15  C   UNL     1       3.449  29.727  56.996  1.00  0.00     0.115 A 
ATOM     16  C   UNL     1       3.871  27.754  58.340  1.00  0.00     0.016 A 
ATOM     17  C   UNL     1       3.010  28.521  57.550  1.00  0.00     0.047 A 
BRANCH  15  18
ATOM     18  O   UNL     1       2.580  30.480  56.210  1.00  0.00    -0.508 OA
ATOM     19  H   UNL     1       2.546  31.491  56.279  1.00  0.00     0.293 HD
ENDBRANCH  15  18
ENDBRANCH   1  12
BRANCH   2  20
ATOM     20  O   UNL     1       4.255  26.583  60.824  1.00  0.00    -0.502 OA
ATOM     21  H   UNL     1       3.902  26.820  61.743  1.00  0.00     0.293 HD
ENDBRANCH   2  20
BRANCH   6  22
ATOM     22  O   UNL     1       8.727  24.512  62.845  1.00  0.00    -0.507 OA
ATOM     23  H   UNL     1       7.824  24.253  63.213  1.00  0.00     0.293 HD
ENDBRANCH   6  22
BRANCH   8  24
ATOM     24  O   UNL     1      11.872  25.852  59.474  1.00  0.00    -0.508 OA
ATOM     25  H   UNL     1      12.547  25.159  59.774  1.00  0.00     0.293 HD
ENDBRANCH   8  24
TORSDOF 5
ENDMDL
MODEL 3
REMARK VINA RESULT:    -6.237      1.164      6.415
REMARK INTER + INTRA:          -7.064
REMARK INTER:                  -6.871
REMARK INTRA:                  -0.193
REMARK UNBOUND:                 0.267
REMARK SMILES O=c1c(O)c(-c2ccc(O)cc2)oc2cc(O)cc(O)c12
REMARK SMILES IDX 5 1 3 2 2 3 1 4 21 5 19 6 18 7 16 8 15 9 14 10 13 11 6 12
REMARK SMILES IDX 7 13 8 14 9 15 12 16 11 17 10 18 4 20 20 22 17 24
REMARK H PARENT 10 19 4 21 20 23 17 25
REMARK Flexibility Score: inf
ROOT
ATOM      1  C   UNL     1       7.237  26.820  60.044  1.00  0.00     0.180 A 
ATOM      2  C   UNL     1       6.240  26.151  60.775  1.00  0.00     0.208 A 
ATOM      3  C   UNL     1       4.892  26.454  60.524  1.00  0.00     0.238 A 
ATOM      4  O   UNL     1       4.007  25.891  61.219  1.00  0.00    -0.285 OA
ATOM      5  C   UNL     1       4.558  27.410  59.534  1.00  0.00     0.111 A 
ATOM      6  C   UNL     1       3.225  27.765  59.170  1.00  0.00     0.134 A 
ATOM      7  C   UNL     1       3.012  28.818  58.271  1.00  0.00     0.093 A 
ATOM      8  C   UNL     1       4.086  29.483  57.675  1.00  0.00     0.123 A 
ATOM      9  C   UNL     1       5.391  29.103  57.979  1.00  0.00     0.094 A 
ATOM     10  C   UNL     1       5.635  28.081  58.899  1.00  0.00     0.146 A 
ATOM     11  O   UNL     1       6.894  27.758  59.170  1.00  0.00    -0.452 OA
ENDROOT
BRANCH   1  12
ATOM     12  C   UNL     1       8.678  26.536  60.234  1.00  0.00     0.021 A 
ATOM     13  C   UNL     1       9.433  25.877  59.245  1.00  0.00     0.016 A 
ATOM     14  C   UNL     1      10.797  25.642  59.438  1.00  0.00     0.047 A 
ATOM     15  C   UNL     1      11.428  26.073  60.611  1.00  0.00     0.115 A 
ATOM     16  C   UNL     1       9.324  26.985  61.399  1.00  0.00     0.016 A 
ATOM     17  C   UNL     1      10.689  26.747  61.588  1.00  0.00     0.047 A 
BRANCH  15  18
ATOM     18  O   UNL     1      12.787  25.844  60.813  1.00  0.00    -0.508 OA
ATOM     19  H   UNL     1      13.484  26.532  60.551  1.00  0.00     0.293 HD
ENDBRANCH  15  18
ENDBRANCH   1  12
BRANCH   2  20
ATOM     20  O   UNL     1       6.593  25.226  61.762  1.00  0.00    -0.502 OA
ATOM     21  H   UNL     1       6.967  24.311  61.542  1.00  0.00     0.293 HD
ENDBRANCH   2  20
BRANCH   6  22
ATOM     22  O   UNL     1       2.085  27.104  59.636  1.00  0.00    -0.507 OA
ATOM     23  H   UNL     1       1.276  27.561  60.029  1.00  0.00     0.293 HD
ENDBRANCH   6  22
BRANCH   8  24
ATOM     24  O   UNL     1       3.866  30.518  56.769  1.00  0.00    -0.508 OA
ATOM     25  H   UNL     1       3.926  30.370  55.768  1.00  0.00     0.293 HD
ENDBRANCH   8  24
TORSDOF 5
ENDMDL
MODEL 4
REMARK VINA RESULT:    -6.221      1.147      6.437
REMARK INTER + INTRA:          -7.046
REMARK INTER:                  -6.891
REMARK INTRA:                  -0.154
REMARK UNBOUND:                 0.267
REMARK SMILES O=c1c(O)c(-c2ccc(O)cc2)oc2cc(O)cc(O)c12
REMARK SMILES IDX 5 1 3 2 2 3 1 4 21 5 19 6 18 7 16 8 15 9 14 10 13 11 6 12
REMARK SMILES IDX 7 13 8 14 9 15 12 16 11 17 10 18 4 20 20 22 17 24
REMARK H PARENT 10 19 4 21 20 23 17 25
REMARK Flexibility Score: inf
ROOT
ATOM      1  C   UNL     1       7.257  26.905  60.030  1.00  0.00     0.180 A 
ATOM      2  C   UNL     1       6.261  26.221  60.750  1.00  0.00     0.208 A 
ATOM      3  C   UNL     1       4.912  26.505  60.484  1.00  0.00     0.238 A 
ATOM      4  O   UNL     1       4.027  25.929  61.170  1.00  0.00    -0.285 OA
ATOM      5  C   UNL     1       4.574  27.456  59.491  1.00  0.00     0.111 A 
ATOM      6  C   UNL     1       3.240  27.792  59.112  1.00  0.00     0.134 A 
ATOM      7  C   UNL     1       3.022  28.841  58.210  1.00  0.00     0.093 A 
ATOM      8  C   UNL     1       4.093  29.522  57.626  1.00  0.00     0.123 A 
ATOM      9  C   UNL     1       5.400  29.161  57.944  1.00  0.00     0.094 A 
ATOM     10  C   UNL     1       5.649  28.143  58.868  1.00  0.00     0.146 A 
ATOM     11  O   UNL     1       6.909  27.838  59.152  1.00  0.00    -0.452 OA
ENDROOT
BRANCH   1  12
ATOM     12  C   UNL     1       8.699  26.643  60.236  1.00  0.00     0.021 A 
ATOM     13  C   UNL     1       9.339  26.973  61.445  1.00  0.00     0.016 A 
ATOM     14  C   UNL     1      10.697  26.694  61.625  1.00  0.00     0.047 A 
ATOM     15  C   UNL     1      11.429  26.070  60.607  1.00  0.00     0.115 A 
ATOM     16  C   UNL     1       9.436  25.997  59.229  1.00  0.00     0.016 A 
ATOM     17  C   UNL     1      10.794  25.720  59.411  1.00  0.00     0.047 A 
BRANCH  15  18
ATOM     18  O   UNL     1      12.782  25.787  60.775  1.00  0.00    -0.508 OA
ATOM     19  H   UNL     1      13.140  24.843  60.685  1.00  0.00     0.293 HD
ENDBRANCH  15  18
ENDBRANCH   1  12
BRANCH   2  20
ATOM     20  O   UNL     1       6.617  25.302  61.740  1.00  0.00    -0.502 OA
ATOM     21  H   UNL     1       7.037  25.583  62.618  1.00  0.00     0.293 HD
ENDBRANCH   2  20
BRANCH   6  22
ATOM     22  O   UNL     1       2.105  27.114  59.566  1.00  0.00    -0.507 OA
ATOM     23  H   UNL     1       1.465  26.605  58.975  1.00  0.00     0.293 HD
ENDBRANCH   6  22
BRANCH   8  24
ATOM     24  O   UNL     1       3.867  30.554  56.718  1.00  0.00    -0.508 OA
ATOM     25  H   UNL     1       4.215  31.491  56.881  1.00  0.00     0.293 HD
ENDBRANCH   8  24
TORSDOF 5
ENDMDL
MODEL 5
REMARK VINA RESULT:    -6.173      1.746      3.624
REMARK INTER + INTRA:          -6.989
REMARK INTER:                  -7.237
REMARK INTRA:                   0.248
REMARK UNBOUND:                 0.267
REMARK SMILES O=c1c(O)c(-c2ccc(O)cc2)oc2cc(O)cc(O)c12
REMARK SMILES IDX 5 1 3 2 2 3 1 4 21 5 19 6 18 7 16 8 15 9 14 10 13 11 6 12
REMARK SMILES IDX 7 13 8 14 9 15 12 16 11 17 10 18 4 20 20 22 17 24
REMARK H PARENT 10 19 4 21 20 23 17 25
REMARK Flexibility Score: inf
ROOT
ATOM      1  C   UNL     1       5.226  27.309  59.396  1.00  0.00     0.180 A 
ATOM      2  C   UNL     1       6.600  27.017  59.342  1.00  0.00     0.208 A 
ATOM      3  C   UNL     1       7.132  26.072  60.234  1.00  0.00     0.238 A 
ATOM      4  O   UNL     1       8.371  25.855  60.218  1.00  0.00    -0.285 OA
ATOM      5  C   UNL     1       6.279  25.418  61.157  1.00  0.00     0.111 A 
ATOM      6  C   UNL     1       6.703  24.414  62.079  1.00  0.00     0.134 A 
ATOM      7  C   UNL     1       5.801  23.929  63.034  1.00  0.00     0.093 A 
ATOM      8  C   UNL     1       4.473  24.365  63.057  1.00  0.00     0.123 A 
ATOM      9  C   UNL     1       4.036  25.301  62.123  1.00  0.00     0.094 A 
ATOM     10  C   UNL     1       4.921  25.829  61.181  1.00  0.00     0.146 A 
ATOM     11  O   UNL     1       4.466  26.727  60.316  1.00  0.00    -0.452 OA
ENDROOT
BRANCH   1  12
ATOM     12  C   UNL     1       4.589  28.275  58.472  1.00  0.00     0.021 A 
ATOM     13  C   UNL     1       3.287  28.067  57.978  1.00  0.00     0.016 A 
ATOM     14  C   UNL     1       2.698  29.005  57.126  1.00  0.00     0.047 A 
ATOM     15  C   UNL     1       3.392  30.168  56.768  1.00  0.00     0.115 A 
ATOM     16  C   UNL     1       5.270  29.454  58.125  1.00  0.00     0.016 A 
ATOM     17  C   UNL     1       4.677  30.390  57.273  1.00  0.00     0.047 A 
BRANCH  15  18
ATOM     18  O   UNL     1       2.814  31.109  55.920  1.00  0.00    -0.508 OA
ATOM     19  H   UNL     1       2.185  31.821  56.271  1.00  0.00     0.293 HD
ENDBRANCH  15  18
ENDBRANCH   1  12
BRANCH   2  20
ATOM     20  O   UNL     1       7.427  27.690  58.439  1.00  0.00    -0.502 OA
ATOM     21  H   UNL     1       7.103  28.000  57.531  1.00  0.00     0.293 HD
ENDBRANCH   2  20
BRANCH   6  22
ATOM     22  O   UNL     1       7.979  23.844  62.081  1.00  0.00    -0.507 OA
ATOM     23  H   UNL     1       8.779  24.227  62.562  1.00  0.00     0.293 HD
ENDBRANCH   6  22
BRANCH   8  24
ATOM     24  O   UNL     1       3.578  23.866  64.001  1.00  0.00    -0.508 OA
ATOM     25  H   UNL     1       2.614  23.665  63.764  1.00  0.00     0.293 HD
ENDBRANCH   8  24
TORSDOF 5
ENDMDL
MODEL 6
REMARK VINA RESULT:    -5.648      1.103      1.433
REMARK INTER + INTRA:          -6.372
REMARK INTER:                  -6.092
REMARK INTRA:                  -0.280
REMARK UNBOUND:                 0.267
REMARK SMILES O=c1c(O)c(-c2ccc(O)cc2)oc2cc(O)cc(O)c12
REMARK SMILES IDX 5 1 3 2 2 3 1 4 21 5 19 6 18 7 16 8 15 9 14 10 13 11 6 12
REMARK SMILES IDX 7 13 8 14 9 15 12 16 11 17 10 18 4 20 20 22 17 24
REMARK H PARENT 10 19 4 21 20 23 17 25
REMARK Flexibility Score: inf
ROOT
ATOM      1  C   UNL     1       5.906  26.865  60.147  1.00  0.00     0.180 A 
ATOM      2  C   UNL     1       5.268  25.996  61.049  1.00  0.00     0.208 A 
ATOM      3  C   UNL     1       6.050  25.135  61.835  1.00  0.00     0.238 A 
ATOM      4  O   UNL     1       5.470  24.321  62.600  1.00  0.00    -0.285 OA
ATOM      5  C   UNL     1       7.461  25.166  61.722  1.00  0.00     0.111 A 
ATOM      6  C   UNL     1       8.353  24.367  62.499  1.00  0.00     0.134 A 
ATOM      7  C   UNL     1       9.724  24.385  62.212  1.00  0.00     0.093 A 
ATOM      8  C   UNL     1      10.240  25.222  61.220  1.00  0.00     0.123 A 
ATOM      9  C   UNL     1       9.384  26.050  60.498  1.00  0.00     0.094 A 
ATOM     10  C   UNL     1       8.009  26.028  60.736  1.00  0.00     0.146 A 
ATOM     11  O   UNL     1       7.227  26.824  60.018  1.00  0.00    -0.452 OA
ENDROOT
BRANCH   1  12
ATOM     12  C   UNL     1       5.151  27.819  59.303  1.00  0.00     0.021 A 
ATOM     13  C   UNL     1       4.982  29.163  59.686  1.00  0.00     0.016 A 
ATOM     14  C   UNL     1       4.285  30.050  58.861  1.00  0.00     0.047 A 
ATOM     15  C   UNL     1       3.761  29.613  57.638  1.00  0.00     0.115 A 
ATOM     16  C   UNL     1       4.641  27.394  58.065  1.00  0.00     0.016 A 
ATOM     17  C   UNL     1       3.944  28.284  57.242  1.00  0.00     0.047 A 
BRANCH  15  18
ATOM     18  O   UNL     1       3.066  30.488  56.808  1.00  0.00    -0.508 OA
ATOM     19  H   UNL     1       2.064  30.614  56.893  1.00  0.00     0.293 HD
ENDBRANCH  15  18
ENDBRANCH   1  12
BRANCH   2  20
ATOM     20  O   UNL     1       3.873  25.966  61.128  1.00  0.00    -0.502 OA
ATOM     21  H   UNL     1       3.378  25.416  61.820  1.00  0.00     0.293 HD
ENDBRANCH   2  20
BRANCH   6  22
ATOM     22  O   UNL     1       7.952  23.566  63.572  1.00  0.00    -0.507 OA
ATOM     23  H   UNL     1       8.506  22.826  63.976  1.00  0.00     0.293 HD
ENDBRANCH   6  22
BRANCH   8  24
ATOM     24  O   UNL     1      11.608  25.246  60.952  1.00  0.00    -0.508 OA
ATOM     25  H   UNL     1      11.962  25.322  60.006  1.00  0.00     0.293 HD
ENDBRANCH   8  24
TORSDOF 5
ENDMDL
MODEL 7
REMARK VINA RESULT:    -5.631      4.293      6.816
REMARK INTER + INTRA:          -6.352
REMARK INTER:                  -6.110
REMARK INTRA:                  -0.242
REMARK UNBOUND:                 0.267
REMARK SMILES O=c1c(O)c(-c2ccc(O)cc2)oc2cc(O)cc(O)c12
REMARK SMILES IDX 5 1 3 2 2 3 1 4 21 5 19 6 18 7 16 8 15 9 14 10 13 11 6 12
REMARK SMILES IDX 7 13 8 14 9 15 12 16 11 17 10 18 4 20 20 22 17 24
REMARK H PARENT 10 19 4 21 20 23 17 25
REMARK Flexibility Score: inf
ROOT
ATOM      1  C   UNL     1       2.677  27.551  60.748  1.00  0.00     0.180 A 
ATOM      2  C   UNL     1       2.420  28.111  62.011  1.00  0.00     0.208 A 
ATOM      3  C   UNL     1       1.500  27.479  62.863  1.00  0.00     0.238 A 
ATOM      4  O   UNL     1       1.233  28.015  63.969  1.00  0.00    -0.285 OA
ATOM      5  C   UNL     1       0.861  26.285  62.447  1.00  0.00     0.111 A 
ATOM      6  C   UNL     1      -0.057  25.538  63.245  1.00  0.00     0.134 A 
ATOM      7  C   UNL     1      -0.728  24.445  62.684  1.00  0.00     0.093 A 
ATOM      8  C   UNL     1      -0.464  24.032  61.376  1.00  0.00     0.123 A 
ATOM      9  C   UNL     1       0.475  24.718  60.610  1.00  0.00     0.094 A 
ATOM     10  C   UNL     1       1.134  25.835  61.129  1.00  0.00     0.146 A 
ATOM     11  O   UNL     1       2.013  26.467  60.362  1.00  0.00    -0.452 OA
ENDROOT
BRANCH   1  12
ATOM     12  C   UNL     1       3.651  28.145  59.805  1.00  0.00     0.021 A 
ATOM     13  C   UNL     1       4.924  27.576  59.609  1.00  0.00     0.016 A 
ATOM     14  C   UNL     1       5.817  28.142  58.696  1.00  0.00     0.047 A 
ATOM     15  C   UNL     1       5.449  29.273  57.956  1.00  0.00     0.115 A 
ATOM     16  C   UNL     1       3.282  29.267  59.043  1.00  0.00     0.016 A 
ATOM     17  C   UNL     1       4.179  29.831  58.131  1.00  0.00     0.047 A 
BRANCH  15  18
ATOM     18  O   UNL     1       6.332  29.845  57.044  1.00  0.00    -0.508 OA
ATOM     19  H   UNL     1       6.037  30.582  56.414  1.00  0.00     0.293 HD
ENDBRANCH  15  18
ENDBRANCH   1  12
BRANCH   2  20
ATOM     20  O   UNL     1       3.044  29.301  62.392  1.00  0.00    -0.502 OA
ATOM     21  H   UNL     1       3.923  29.318  62.894  1.00  0.00     0.293 HD
ENDBRANCH   2  20
BRANCH   6  22
ATOM     22  O   UNL     1      -0.324  25.810  64.590  1.00  0.00    -0.507 OA
ATOM     23  H   UNL     1      -0.938  26.540  64.918  1.00  0.00     0.293 HD
ENDBRANCH   6  22
BRANCH   8  24
ATOM     24  O   UNL     1      -1.124  22.933  60.831  1.00  0.00    -0.508 OA
ATOM     25  H   UNL     1      -0.965  22.638  59.875  1.00  0.00     0.293 HD
ENDBRANCH   8  24
TORSDOF 5
ENDMDL
MODEL 8
REMARK VINA RESULT:    -5.544      2.600      6.616
REMARK INTER + INTRA:          -6.249
REMARK INTER:                  -5.953
REMARK INTRA:                  -0.296
REMARK UNBOUND:                 0.267
REMARK SMILES O=c1c(O)c(-c2ccc(O)cc2)oc2cc(O)cc(O)c12
REMARK SMILES IDX 5 1 3 2 2 3 1 4 21 5 19 6 18 7 16 8 15 9 14 10 13 11 6 12
REMARK SMILES IDX 7 13 8 14 9 15 12 16 11 17 10 18 4 20 20 22 17 24
REMARK H PARENT 10 19 4 21 20 23 17 25
REMARK Flexibility Score: inf
ROOT
ATOM      1  C   UNL     1       5.566  26.049  61.324  1.00  0.00     0.180 A 
ATOM      2  C   UNL     1       4.168  25.908  61.290  1.00  0.00     0.208 A 
ATOM      3  C   UNL     1       3.436  26.599  60.311  1.00  0.00     0.238 A 
ATOM      4  O   UNL     1       2.181  26.511  60.320  1.00  0.00    -0.285 OA
ATOM      5  C   UNL     1       4.113  27.409  59.367  1.00  0.00     0.111 A 
ATOM      6  C   UNL     1       3.476  28.121  58.307  1.00  0.00     0.134 A 
ATOM      7  C   UNL     1       4.229  28.995  57.513  1.00  0.00     0.093 A 
ATOM      8  C   UNL     1       5.607  29.132  57.700  1.00  0.00     0.123 A 
ATOM      9  C   UNL     1       6.247  28.395  58.693  1.00  0.00     0.094 A 
ATOM     10  C   UNL     1       5.517  27.543  59.525  1.00  0.00     0.146 A 
ATOM     11  O   UNL     1       6.165  26.867  60.466  1.00  0.00    -0.452 OA
ENDROOT
BRANCH   1  12
ATOM     12  C   UNL     1       6.407  25.333  62.310  1.00  0.00     0.021 A 
ATOM     13  C   UNL     1       6.855  24.019  62.076  1.00  0.00     0.016 A 
ATOM     14  C   UNL     1       7.667  23.373  63.011  1.00  0.00     0.047 A 
ATOM     15  C   UNL     1       8.056  24.033  64.184  1.00  0.00     0.115 A 
ATOM     16  C   UNL     1       6.819  25.996  63.479  1.00  0.00     0.016 A 
ATOM     17  C   UNL     1       7.632  25.346  64.412  1.00  0.00     0.047 A 
BRANCH  15  18
ATOM     18  O   UNL     1       8.866  23.399  65.123  1.00  0.00    -0.508 OA
ATOM     19  H   UNL     1       9.266  23.906  65.904  1.00  0.00     0.293 HD
ENDBRANCH  15  18
ENDBRANCH   1  12
BRANCH   2  20
ATOM     20  O   UNL     1       3.518  25.121  62.245  1.00  0.00    -0.502 OA
ATOM     21  H   UNL     1       3.299  25.460  63.173  1.00  0.00     0.293 HD
ENDBRANCH   2  20
BRANCH   6  22
ATOM     22  O   UNL     1       2.125  27.986  57.977  1.00  0.00    -0.507 OA
ATOM     23  H   UNL     1       1.611  28.623  57.387  1.00  0.00     0.293 HD
ENDBRANCH   6  22
BRANCH   8  24
ATOM     24  O   UNL     1       6.351  29.992  56.895  1.00  0.00    -0.508 OA
ATOM     25  H   UNL     1       6.550  30.944  57.177  1.00  0.00     0.293 HD
ENDBRANCH   8  24
TORSDOF 5
ENDMDL
MODEL 9
REMARK VINA RESULT:    -5.478      5.140      6.975
REMARK INTER + INTRA:          -6.171
REMARK INTER:                  -5.907
REMARK INTRA:                  -0.264
REMARK UNBOUND:                 0.267
REMARK SMILES O=c1c(O)c(-c2ccc(O)cc2)oc2cc(O)cc(O)c12
REMARK SMILES IDX 5 1 3 2 2 3 1 4 21 5 19 6 18 7 16 8 15 9 14 10 13 11 6 12
REMARK SMILES IDX 7 13 8 14 9 15 12 16 11 17 10 18 4 20 20 22 17 24
REMARK H PARENT 10 19 4 21 20 23 17 25
REMARK Flexibility Score: inf
ROOT
ATOM      1  C   UNL     1       5.159  31.669  61.983  1.00  0.00     0.180 A 
ATOM      2  C   UNL     1       4.644  30.872  63.020  1.00  0.00     0.208 A 
ATOM      3  C   UNL     1       3.947  29.697  62.695  1.00  0.00     0.238 A 
ATOM      4  O   UNL     1       3.442  29.016  63.626  1.00  0.00    -0.285 OA
ATOM      5  C   UNL     1       3.787  29.325  61.338  1.00  0.00     0.111 A 
ATOM      6  C   UNL     1       3.134  28.136  60.896  1.00  0.00     0.134 A 
ATOM      7  C   UNL     1       2.919  27.935  59.527  1.00  0.00     0.093 A 
ATOM      8  C   UNL     1       3.392  28.849  58.582  1.00  0.00     0.123 A 
ATOM      9  C   UNL     1       4.084  29.983  59.001  1.00  0.00     0.094 A 
ATOM     10  C   UNL     1       4.282  30.229  60.362  1.00  0.00     0.146 A 
ATOM     11  O   UNL     1       4.935  31.328  60.719  1.00  0.00    -0.452 OA
ENDROOT
BRANCH   1  12
ATOM     12  C   UNL     1       5.926  32.907  62.247  1.00  0.00     0.021 A 
ATOM     13  C   UNL     1       5.311  34.173  62.205  1.00  0.00     0.016 A 
ATOM     14  C   UNL     1       6.051  35.327  62.481  1.00  0.00     0.047 A 
ATOM     15  C   UNL     1       7.407  35.231  62.817  1.00  0.00     0.115 A 
ATOM     16  C   UNL     1       7.281  32.819  62.606  1.00  0.00     0.016 A 
ATOM     17  C   UNL     1       8.018  33.975  62.881  1.00  0.00     0.047 A 
BRANCH  15  18
ATOM     18  O   UNL     1       8.154  36.374  63.094  1.00  0.00    -0.508 OA
ATOM     19  H   UNL     1       7.870  37.029  63.813  1.00  0.00     0.293 HD
ENDBRANCH  15  18
ENDBRANCH   1  12
BRANCH   2  20
ATOM     20  O   UNL     1       4.794  31.268  64.352  1.00  0.00    -0.502 OA
ATOM     21  H   UNL     1       5.464  31.971  64.638  1.00  0.00     0.293 HD
ENDBRANCH   2  20
BRANCH   6  22
ATOM     22  O   UNL     1       2.706  27.116  61.750  1.00  0.00    -0.507 OA
ATOM     23  H   UNL     1       3.301  26.619  62.396  1.00  0.00     0.293 HD
ENDBRANCH   6  22
BRANCH   8  24
ATOM     24  O   UNL     1       3.188  28.633  57.221  1.00  0.00    -0.508 OA
ATOM     25  H   UNL     1       2.799  27.765  56.874  1.00  0.00     0.293 HD
ENDBRANCH   8  24
TORSDOF 5
ENDMDL
