MODEL 1
REMARK VINA RESULT:    -5.268      0.000      0.000
REMARK INTER + INTRA:          -5.856
REMARK INTER:                  -5.730
REMARK INTRA:                  -0.127
REMARK UNBOUND:                -0.127
REMARK SMILES Cc1ccc(C(C)C)cc1O
REMARK SMILES IDX 1 1 2 2 10 3 9 4 5 5 4 6 3 7 11 8 6 10 7 11 8 12
REMARK H PARENT 11 9
REMARK Flexibility Score: inf
ROOT
ATOM      1  C   UNL     1       1.992  11.238   9.960  1.00  0.00     0.048 C 
ATOM      2  C   UNL     1       3.185  11.029   9.067  1.00  0.00    -0.009 A 
ATOM      3  C   UNL     1       3.044  10.489   7.770  1.00  0.00     0.118 A 
ATOM      4  C   UNL     1       4.173  10.308   6.964  1.00  0.00     0.050 A 
ATOM      5  C   UNL     1       5.454  10.655   7.427  1.00  0.00    -0.042 A 
ATOM      6  C   UNL     1       5.587  11.193   8.719  1.00  0.00     0.004 A 
ATOM      7  C   UNL     1       4.465  11.377   9.529  1.00  0.00     0.007 A 
ENDROOT
BRANCH   3   8
ATOM      8  O   UNL     1       1.798  10.123   7.254  1.00  0.00    -0.508 OA
ATOM      9  H   UNL     1       1.466   9.167   7.241  1.00  0.00     0.293 HD
ENDBRANCH   3   8
BRANCH   5  10
ATOM     10  C   UNL     1       6.665  10.450   6.535  1.00  0.00     0.013 C 
ATOM     11  C   UNL     1       7.944  10.948   7.219  1.00  0.00     0.012 C 
ATOM     12  C   UNL     1       6.469  11.124   5.172  1.00  0.00     0.012 C 
ENDBRANCH   5  10
TORSDOF 2
ENDMDL
MODEL 2
REMARK VINA RESULT:    -5.170      2.238      3.553
REMARK INTER + INTRA:          -5.750
REMARK INTER:                  -5.625
REMARK INTRA:                  -0.125
REMARK UNBOUND:                -0.127
REMARK SMILES Cc1ccc(C(C)C)cc1O
REMARK SMILES IDX 1 1 2 2 10 3 9 4 5 5 4 6 3 7 11 8 6 10 7 11 8 12
REMARK H PARENT 11 9
REMARK Flexibility Score: inf
ROOT
ATOM      1  C   UNL     1       3.835   9.738   7.407  1.00  0.00     0.048 C 
ATOM      2  C   UNL     1       5.043  10.452   6.865  1.00  0.00    -0.009 A 
ATOM      3  C   UNL     1       6.249  10.512   7.598  1.00  0.00     0.118 A 
ATOM      4  C   UNL     1       7.355  11.184   7.066  1.00  0.00     0.050 A 
ATOM      5  C   UNL     1       7.285  11.805   5.807  1.00  0.00    -0.042 A 
ATOM      6  C   UNL     1       6.083  11.741   5.083  1.00  0.00     0.004 A 
ATOM      7  C   UNL     1       4.975  11.072   5.606  1.00  0.00     0.007 A 
ENDROOT
BRANCH   3   8
ATOM      8  O   UNL     1       6.379   9.916   8.855  1.00  0.00    -0.508 OA
ATOM      9  H   UNL     1       7.257   9.872   9.355  1.00  0.00     0.293 HD
ENDBRANCH   3   8
BRANCH   5  10
ATOM     10  C   UNL     1       8.498  12.528   5.249  1.00  0.00     0.013 C 
ATOM     11  C   UNL     1       8.549  12.423   3.720  1.00  0.00     0.012 C 
ATOM     12  C   UNL     1       9.793  12.005   5.881  1.00  0.00     0.012 C 
ENDBRANCH   5  10
TORSDOF 2
ENDMDL
MODEL 3
REMARK VINA RESULT:    -5.124      2.583      5.033
REMARK INTER + INTRA:          -5.699
REMARK INTER:                  -5.577
REMARK INTRA:                  -0.122
REMARK UNBOUND:                -0.127
REMARK SMILES Cc1ccc(C(C)C)cc1O
REMARK SMILES IDX 1 1 2 2 10 3 9 4 5 5 4 6 3 7 11 8 6 10 7 11 8 12
REMARK H PARENT 11 9
REMARK Flexibility Score: inf
ROOT
ATOM      1  C   UNL     1       8.091  12.346   4.019  1.00  0.00     0.048 C 
ATOM      2  C   UNL     1       7.124  11.642   4.930  1.00  0.00    -0.009 A 
ATOM      3  C   UNL     1       7.535  11.128   6.179  1.00  0.00     0.118 A 
ATOM      4  C   UNL     1       6.610  10.478   7.004  1.00  0.00     0.050 A 
ATOM      5  C   UNL     1       5.271  10.327   6.608  1.00  0.00    -0.042 A 
ATOM      6  C   UNL     1       4.868  10.841   5.363  1.00  0.00     0.004 A 
ATOM      7  C   UNL     1       5.784  11.490   4.534  1.00  0.00     0.007 A 
ENDROOT
BRANCH   3   8
ATOM      8  O   UNL     1       8.853  11.247   6.629  1.00  0.00    -0.508 OA
ATOM      9  H   UNL     1       9.625  11.480   6.018  1.00  0.00     0.293 HD
ENDBRANCH   3   8
BRANCH   5  10
ATOM     10  C   UNL     1       4.285   9.618   7.519  1.00  0.00     0.013 C 
ATOM     11  C   UNL     1       2.975  10.407   7.634  1.00  0.00     0.012 C 
ATOM     12  C   UNL     1       4.896   9.360   8.901  1.00  0.00     0.012 C 
ENDBRANCH   5  10
TORSDOF 2
ENDMDL
MODEL 4
REMARK VINA RESULT:    -5.005      1.893      2.513
REMARK INTER + INTRA:          -5.570
REMARK INTER:                  -5.466
REMARK INTRA:                  -0.104
REMARK UNBOUND:                -0.127
REMARK SMILES Cc1ccc(C(C)C)cc1O
REMARK SMILES IDX 1 1 2 2 10 3 9 4 5 5 4 6 3 7 11 8 6 10 7 11 8 12
REMARK H PARENT 11 9
REMARK Flexibility Score: inf
ROOT
ATOM      1  C   UNL     1       3.072  10.277   9.910  1.00  0.00     0.048 C 
ATOM      2  C   UNL     1       3.858  10.640   8.679  1.00  0.00    -0.009 A 
ATOM      3  C   UNL     1       5.035  11.415   8.764  1.00  0.00     0.118 A 
ATOM      4  C   UNL     1       5.744  11.736   7.601  1.00  0.00     0.050 A 
ATOM      5  C   UNL     1       5.300  11.298   6.342  1.00  0.00    -0.042 A 
ATOM      6  C   UNL     1       4.127  10.527   6.264  1.00  0.00     0.004 A 
ATOM      7  C   UNL     1       3.415  10.202   7.420  1.00  0.00     0.007 A 
ENDROOT
BRANCH   3   8
ATOM      8  O   UNL     1       5.527  11.881   9.987  1.00  0.00    -0.508 OA
ATOM      9  H   UNL     1       5.721  12.857  10.167  1.00  0.00     0.293 HD
ENDBRANCH   3   8
BRANCH   5  10
ATOM     10  C   UNL     1       6.085  11.657   5.093  1.00  0.00     0.013 C 
ATOM     11  C   UNL     1       7.157  10.604   4.792  1.00  0.00     0.012 C 
ATOM     12  C   UNL     1       6.703  13.056   5.211  1.00  0.00     0.012 C 
ENDBRANCH   5  10
TORSDOF 2
ENDMDL
MODEL 5
REMARK VINA RESULT:    -4.998      2.048      4.822
REMARK INTER + INTRA:          -5.563
REMARK INTER:                  -5.462
REMARK INTRA:                  -0.101
REMARK UNBOUND:                -0.127
REMARK SMILES Cc1ccc(C(C)C)cc1O
REMARK SMILES IDX 1 1 2 2 10 3 9 4 5 5 4 6 3 7 11 8 6 10 7 11 8 12
REMARK H PARENT 11 9
REMARK Flexibility Score: inf
ROOT
ATOM      1  C   UNL     1       7.352  11.134   7.282  1.00  0.00     0.048 C 
ATOM      2  C   UNL     1       5.963  11.198   7.857  1.00  0.00    -0.009 A 
ATOM      3  C   UNL     1       5.691  11.926   9.035  1.00  0.00     0.118 A 
ATOM      4  C   UNL     1       4.389  11.967   9.545  1.00  0.00     0.050 A 
ATOM      5  C   UNL     1       3.340  11.290   8.899  1.00  0.00    -0.042 A 
ATOM      6  C   UNL     1       3.617  10.567   7.727  1.00  0.00     0.004 A 
ATOM      7  C   UNL     1       4.914  10.522   7.212  1.00  0.00     0.007 A 
ENDROOT
BRANCH   3   8
ATOM      8  O   UNL     1       6.692  12.619   9.723  1.00  0.00    -0.508 OA
ATOM      9  H   UNL     1       6.641  13.610   9.918  1.00  0.00     0.293 HD
ENDBRANCH   3   8
BRANCH   5  10
ATOM     10  C   UNL     1       1.934  11.348   9.470  1.00  0.00     0.013 C 
ATOM     11  C   UNL     1       1.549  12.784   9.844  1.00  0.00     0.012 C 
ATOM     12  C   UNL     1       1.785  10.406  10.670  1.00  0.00     0.012 C 
ENDBRANCH   5  10
TORSDOF 2
ENDMDL
MODEL 6
REMARK VINA RESULT:    -4.932      2.036      4.234
REMARK INTER + INTRA:          -5.490
REMARK INTER:                  -5.380
REMARK INTRA:                  -0.111
REMARK UNBOUND:                -0.127
REMARK SMILES Cc1ccc(C(C)C)cc1O
REMARK SMILES IDX 1 1 2 2 10 3 9 4 5 5 4 6 3 7 11 8 6 10 7 11 8 12
REMARK H PARENT 11 9
REMARK Flexibility Score: inf
ROOT
ATOM      1  C   UNL     1       7.176  13.124   4.746  1.00  0.00     0.048 C 
ATOM      2  C   UNL     1       6.378  12.421   5.810  1.00  0.00    -0.009 A 
ATOM      3  C   UNL     1       5.647  11.248   5.522  1.00  0.00     0.118 A 
ATOM      4  C   UNL     1       4.916  10.616   6.534  1.00  0.00     0.050 A 
ATOM      5  C   UNL     1       4.896  11.134   7.840  1.00  0.00    -0.042 A 
ATOM      6  C   UNL     1       5.626  12.302   8.120  1.00  0.00     0.004 A 
ATOM      7  C   UNL     1       6.359  12.937   7.116  1.00  0.00     0.007 A 
ENDROOT
BRANCH   3   8
ATOM      8  O   UNL     1       5.627  10.685   4.243  1.00  0.00    -0.508 OA
ATOM      9  H   UNL     1       6.345  10.059   3.904  1.00  0.00     0.293 HD
ENDBRANCH   3   8
BRANCH   5  10
ATOM     10  C   UNL     1       4.095  10.433   8.923  1.00  0.00     0.013 C 
ATOM     11  C   UNL     1       3.760   8.993   8.516  1.00  0.00     0.012 C 
ATOM     12  C   UNL     1       2.824  11.218   9.268  1.00  0.00     0.012 C 
ENDBRANCH   5  10
TORSDOF 2
ENDMDL
MODEL 7
REMARK VINA RESULT:    -4.838     17.555     18.964
REMARK INTER + INTRA:          -5.389
REMARK INTER:                  -5.263
REMARK INTRA:                  -0.126
REMARK UNBOUND:                -0.127
REMARK SMILES Cc1ccc(C(C)C)cc1O
REMARK SMILES IDX 1 1 2 2 10 3 9 4 5 5 4 6 3 7 11 8 6 10 7 11 8 12
REMARK H PARENT 11 9
REMARK Flexibility Score: inf
ROOT
ATOM      1  C   UNL     1      -3.507  11.227  -9.060  1.00  0.00     0.048 C 
ATOM      2  C   UNL     1      -4.670  10.764  -8.226  1.00  0.00    -0.009 A 
ATOM      3  C   UNL     1      -4.876  11.255  -6.918  1.00  0.00     0.118 A 
ATOM      4  C   UNL     1      -5.968  10.805  -6.168  1.00  0.00     0.050 A 
ATOM      5  C   UNL     1      -6.869   9.866  -6.698  1.00  0.00    -0.042 A 
ATOM      6  C   UNL     1      -6.659   9.382  -8.000  1.00  0.00     0.004 A 
ATOM      7  C   UNL     1      -5.572   9.826  -8.755  1.00  0.00     0.007 A 
ENDROOT
BRANCH   3   8
ATOM      8  O   UNL     1      -4.014  12.189  -6.336  1.00  0.00    -0.508 OA
ATOM      9  H   UNL     1      -3.282  11.933  -5.687  1.00  0.00     0.293 HD
ENDBRANCH   3   8
BRANCH   5  10
ATOM     10  C   UNL     1      -8.048   9.392  -5.866  1.00  0.00     0.013 C 
ATOM     11  C   UNL     1      -8.637   8.094  -6.433  1.00  0.00     0.012 C 
ATOM     12  C   UNL     1      -9.120  10.482  -5.754  1.00  0.00     0.012 C 
ENDBRANCH   5  10
TORSDOF 2
ENDMDL
MODEL 8
REMARK VINA RESULT:    -4.834      1.744      4.337
REMARK INTER + INTRA:          -5.385
REMARK INTER:                  -5.259
REMARK INTRA:                  -0.125
REMARK UNBOUND:                -0.127
REMARK SMILES Cc1ccc(C(C)C)cc1O
REMARK SMILES IDX 1 1 2 2 10 3 9 4 5 5 4 6 3 7 11 8 6 10 7 11 8 12
REMARK H PARENT 11 9
REMARK Flexibility Score: inf
ROOT
ATOM      1  C   UNL     1       8.413  11.335   7.076  1.00  0.00     0.048 C 
ATOM      2  C   UNL     1       6.993  11.315   7.572  1.00  0.00    -0.009 A 
ATOM      3  C   UNL     1       5.962  10.712   6.818  1.00  0.00     0.118 A 
ATOM      4  C   UNL     1       4.651  10.709   7.307  1.00  0.00     0.050 A 
ATOM      5  C   UNL     1       4.341  11.300   8.544  1.00  0.00    -0.042 A 
ATOM      6  C   UNL     1       5.372  11.897   9.290  1.00  0.00     0.004 A 
ATOM      7  C   UNL     1       6.682  11.904   8.809  1.00  0.00     0.007 A 
ENDROOT
BRANCH   3   8
ATOM      8  O   UNL     1       6.207  10.110   5.581  1.00  0.00    -0.508 OA
ATOM      9  H   UNL     1       6.401   9.122   5.478  1.00  0.00     0.293 HD
ENDBRANCH   3   8
BRANCH   5  10
ATOM     10  C   UNL     1       2.912  11.284   9.056  1.00  0.00     0.013 C 
ATOM     11  C   UNL     1       2.494  12.667   9.569  1.00  0.00     0.012 C 
ATOM     12  C   UNL     1       2.723  10.214  10.137  1.00  0.00     0.012 C 
ENDBRANCH   5  10
TORSDOF 2
ENDMDL
MODEL 9
REMARK VINA RESULT:    -4.702      1.937      3.088
REMARK INTER + INTRA:          -5.240
REMARK INTER:                  -5.116
REMARK INTRA:                  -0.125
REMARK UNBOUND:                -0.127
REMARK SMILES Cc1ccc(C(C)C)cc1O
REMARK SMILES IDX 1 1 2 2 10 3 9 4 5 5 4 6 3 7 11 8 6 10 7 11 8 12
REMARK H PARENT 11 9
REMARK Flexibility Score: inf
ROOT
ATOM      1  C   UNL     1       4.184   9.592   7.847  1.00  0.00     0.048 C 
ATOM      2  C   UNL     1       5.355  10.333   7.262  1.00  0.00    -0.009 A 
ATOM      3  C   UNL     1       5.310  10.854   5.950  1.00  0.00     0.118 A 
ATOM      4  C   UNL     1       6.416  11.539   5.434  1.00  0.00     0.050 A 
ATOM      5  C   UNL     1       7.578  11.718   6.204  1.00  0.00    -0.042 A 
ATOM      6  C   UNL     1       7.615  11.197   7.509  1.00  0.00     0.004 A 
ATOM      7  C   UNL     1       6.517  10.513   8.031  1.00  0.00     0.007 A 
ENDROOT
BRANCH   3   8
ATOM      8  O   UNL     1       4.185  10.707   5.135  1.00  0.00    -0.508 OA
ATOM      9  H   UNL     1       3.583   9.894   5.167  1.00  0.00     0.293 HD
ENDBRANCH   3   8
BRANCH   5  10
ATOM     10  C   UNL     1       8.765  12.465   5.624  1.00  0.00     0.013 C 
ATOM     11  C   UNL     1       8.684  12.528   4.094  1.00  0.00     0.012 C 
ATOM     12  C   UNL     1      10.089  11.840   6.081  1.00  0.00     0.012 C 
ENDBRANCH   5  10
TORSDOF 2
ENDMDL
