MODEL 1
REMARK VINA RESULT:    -3.139      0.000      0.000
REMARK INTER + INTRA:         -13.871
REMARK INTER:                  -8.277
REMARK INTRA:                  -5.594
REMARK UNBOUND:                -5.594
REMARK SMILES CCCCCCCCCCCCCCCCCCCCCCCCCCCCCC(=O)[O-]
REMARK SMILES IDX 16 1 17 2 18 3 19 4 20 5 21 6 22 7 23 8 24 9 25 10 26 11
REMARK SMILES IDX 27 12 28 13 29 14 30 15 31 16 32 17 15 18 14 19 13 20 12 21
REMARK SMILES IDX 11 22 10 23 9 24 8 25 7 26 6 27 5 28 4 29 3 30 2 31 1 32
REMARK H PARENT
REMARK Flexibility Score: inf
ROOT
ATOM      1  C   UNL     1    -107.926  44.438 -40.579  1.00  0.00     0.000 C 
ENDROOT
BRANCH   1   2
ATOM      2  C   UNL     1    -108.084  44.476 -39.049  1.00  0.00     0.000 C 
BRANCH   2   3
ATOM      3  C   UNL     1    -109.505  44.858 -38.606  1.00  0.00     0.000 C 
BRANCH   3   4
ATOM      4  C   UNL     1    -110.533  44.721 -39.743  1.00  0.00     0.000 C 
BRANCH   4   5
ATOM      5  C   UNL     1    -111.475  43.514 -39.564  1.00  0.00     0.000 C 
BRANCH   5   6
ATOM      6  C   UNL     1    -110.990  42.193 -40.191  1.00  0.00     0.000 C 
BRANCH   6   7
ATOM      7  C   UNL     1    -110.770  41.078 -39.154  1.00  0.00     0.000 C 
BRANCH   7   8
ATOM      8  C   UNL     1    -109.322  41.022 -38.635  1.00  0.00     0.000 C 
BRANCH   8   9
ATOM      9  C   UNL     1    -109.171  41.072 -37.104  1.00  0.00     0.000 C 
BRANCH   9  10
ATOM     10  C   UNL     1    -110.183  42.013 -36.432  1.00  0.00     0.000 C 
BRANCH  10  11
ATOM     11  C   UNL     1    -109.504  42.875 -35.356  1.00  0.00     0.000 C 
BRANCH  11  12
ATOM     12  C   UNL     1    -107.976  42.692 -35.313  1.00  0.00     0.000 C 
BRANCH  12  13
ATOM     13  C   UNL     1    -107.167  43.999 -35.212  1.00  0.00     0.006 C 
BRANCH  13  14
ATOM     14  C   UNL     1    -108.047  45.254 -35.253  1.00  0.00     0.053 C 
BRANCH  14  15
ATOM     15  C   UNL     1    -107.303  46.437 -34.718  1.00  0.00     0.041 C 
ATOM     16  O   UNL     1    -106.101  46.320 -34.360  1.00  0.00    -0.550 OA
ATOM     17  O   UNL     1    -107.944  47.664 -34.588  1.00  0.00    -0.550 OA
ENDBRANCH  14  15
ENDBRANCH  13  14
ENDBRANCH  12  13
ENDBRANCH  11  12
ENDBRANCH  10  11
ENDBRANCH   9  10
ENDBRANCH   8   9
ENDBRANCH   7   8
ENDBRANCH   6   7
ENDBRANCH   5   6
ENDBRANCH   4   5
ENDBRANCH   3   4
ENDBRANCH   2   3
ENDBRANCH   1   2
BRANCH   1  18
ATOM     18  C   UNL     1    -107.466  43.063 -41.088  1.00  0.00     0.000 C 
BRANCH  18  19
ATOM     19  C   UNL     1    -108.096  42.695 -42.445  1.00  0.00     0.000 C 
BRANCH  19  20
ATOM     20  C   UNL     1    -108.950  43.841 -43.024  1.00  0.00     0.000 C 
BRANCH  20  21
ATOM     21  C   UNL     1    -109.146  43.770 -44.552  1.00  0.00     0.000 C 
BRANCH  21  22
ATOM     22  C   UNL     1    -109.110  45.141 -45.255  1.00  0.00     0.000 C 
BRANCH  22  23
ATOM     23  C   UNL     1    -108.615  46.263 -44.329  1.00  0.00     0.000 C 
BRANCH  23  24
ATOM     24  C   UNL     1    -109.420  47.552 -44.550  1.00  0.00    -0.000 C 
BRANCH  24  25
ATOM     25  C   UNL     1    -110.179  48.009 -43.292  1.00  0.00    -0.000 C 
BRANCH  25  26
ATOM     26  C   UNL     1    -109.747  47.321 -41.981  1.00  0.00    -0.000 C 
BRANCH  26  27
ATOM     27  C   UNL     1    -108.879  48.183 -41.046  1.00  0.00    -0.000 C 
BRANCH  27  28
ATOM     28  C   UNL     1    -107.362  47.928 -41.149  1.00  0.00    -0.000 C 
BRANCH  28  29
ATOM     29  C   UNL     1    -106.564  49.140 -41.678  1.00  0.00    -0.000 C 
BRANCH  29  30
ATOM     30  C   UNL     1    -105.136  48.764 -42.108  1.00  0.00    -0.000 C 
BRANCH  30  31
ATOM     31  C   UNL     1    -104.816  49.203 -43.545  1.00  0.00    -0.003 C 
ATOM     32  C   UNL     1    -105.922  48.836 -44.535  1.00  0.00     0.004 C 
ENDBRANCH  30  31
ENDBRANCH  29  30
ENDBRANCH  28  29
ENDBRANCH  27  28
ENDBRANCH  26  27
ENDBRANCH  25  26
ENDBRANCH  24  25
ENDBRANCH  23  24
ENDBRANCH  22  23
ENDBRANCH  21  22
ENDBRANCH  20  21
ENDBRANCH  19  20
ENDBRANCH  18  19
ENDBRANCH   1  18
TORSDOF 28
ENDMDL
MODEL 2
REMARK VINA RESULT:    -3.062      2.106      4.287
REMARK INTER + INTRA:         -13.667
REMARK INTER:                  -7.051
REMARK INTRA:                  -6.615
REMARK UNBOUND:                -5.594
REMARK SMILES CCCCCCCCCCCCCCCCCCCCCCCCCCCCCC(=O)[O-]
REMARK SMILES IDX 16 1 17 2 18 3 19 4 20 5 21 6 22 7 23 8 24 9 25 10 26 11
REMARK SMILES IDX 27 12 28 13 29 14 30 15 31 16 32 17 15 18 14 19 13 20 12 21
REMARK SMILES IDX 11 22 10 23 9 24 8 25 7 26 6 27 5 28 4 29 3 30 2 31 1 32
REMARK H PARENT
REMARK Flexibility Score: inf
ROOT
ATOM      1  C   UNL     1    -112.526  44.097 -41.920  1.00  0.00     0.000 C 
ENDROOT
BRANCH   1   2
ATOM      2  C   UNL     1    -112.164  44.578 -40.504  1.00  0.00     0.000 C 
BRANCH   2   3
ATOM      3  C   UNL     1    -111.613  43.452 -39.615  1.00  0.00     0.000 C 
BRANCH   3   4
ATOM      4  C   UNL     1    -111.319  42.166 -40.407  1.00  0.00     0.000 C 
BRANCH   4   5
ATOM      5  C   UNL     1    -110.349  41.216 -39.679  1.00  0.00     0.000 C 
BRANCH   5   6
ATOM      6  C   UNL     1    -108.855  41.577 -39.791  1.00  0.00     0.000 C 
BRANCH   6   7
ATOM      7  C   UNL     1    -108.374  41.711 -41.246  1.00  0.00     0.000 C 
BRANCH   7   8
ATOM      8  C   UNL     1    -107.735  43.080 -41.540  1.00  0.00     0.000 C 
BRANCH   8   9
ATOM      9  C   UNL     1    -108.674  44.120 -42.175  1.00  0.00     0.000 C 
BRANCH   9  10
ATOM     10  C   UNL     1    -108.852  45.376 -41.310  1.00  0.00     0.000 C 
BRANCH  10  11
ATOM     11  C   UNL     1    -107.893  45.359 -40.109  1.00  0.00     0.000 C 
BRANCH  11  12
ATOM     12  C   UNL     1    -108.620  45.437 -38.755  1.00  0.00     0.000 C 
BRANCH  12  13
ATOM     13  C   UNL     1    -108.034  44.540 -37.649  1.00  0.00     0.006 C 
BRANCH  13  14
ATOM     14  C   UNL     1    -109.108  43.786 -36.855  1.00  0.00     0.053 C 
BRANCH  14  15
ATOM     15  C   UNL     1    -108.479  42.831 -35.891  1.00  0.00     0.041 C 
ATOM     16  O   UNL     1    -108.663  41.590 -36.016  1.00  0.00    -0.550 OA
ATOM     17  O   UNL     1    -107.711  43.310 -34.836  1.00  0.00    -0.550 OA
ENDBRANCH  14  15
ENDBRANCH  13  14
ENDBRANCH  12  13
ENDBRANCH  11  12
ENDBRANCH  10  11
ENDBRANCH   9  10
ENDBRANCH   8   9
ENDBRANCH   7   8
ENDBRANCH   6   7
ENDBRANCH   5   6
ENDBRANCH   4   5
ENDBRANCH   3   4
ENDBRANCH   2   3
ENDBRANCH   1   2
BRANCH   1  18
ATOM     18  C   UNL     1    -112.212  45.149 -42.996  1.00  0.00     0.000 C 
BRANCH  18  19
ATOM     19  C   UNL     1    -112.107  44.539 -44.406  1.00  0.00     0.000 C 
BRANCH  19  20
ATOM     20  C   UNL     1    -111.405  43.167 -44.400  1.00  0.00     0.000 C 
BRANCH  20  21
ATOM     21  C   UNL     1    -110.655  42.837 -45.706  1.00  0.00     0.000 C 
BRANCH  21  22
ATOM     22  C   UNL     1    -109.229  43.418 -45.777  1.00  0.00     0.000 C 
BRANCH  22  23
ATOM     23  C   UNL     1    -109.012  44.292 -47.022  1.00  0.00     0.000 C 
BRANCH  23  24
ATOM     24  C   UNL     1    -108.862  45.770 -46.634  1.00  0.00    -0.000 C 
BRANCH  24  25
ATOM     25  C   UNL     1    -108.806  45.989 -45.112  1.00  0.00    -0.000 C 
BRANCH  25  26
ATOM     26  C   UNL     1    -109.475  47.287 -44.612  1.00  0.00    -0.000 C 
BRANCH  26  27
ATOM     27  C   UNL     1    -108.640  48.110 -43.615  1.00  0.00    -0.000 C 
BRANCH  27  28
ATOM     28  C   UNL     1    -109.462  48.900 -42.576  1.00  0.00    -0.000 C 
BRANCH  28  29
ATOM     29  C   UNL     1    -110.987  48.692 -42.705  1.00  0.00    -0.000 C 
BRANCH  29  30
ATOM     30  C   UNL     1    -111.639  48.266 -41.378  1.00  0.00    -0.000 C 
BRANCH  30  31
ATOM     31  C   UNL     1    -110.673  48.368 -40.187  1.00  0.00    -0.003 C 
ATOM     32  C   UNL     1    -111.287  47.856 -38.883  1.00  0.00     0.004 C 
ENDBRANCH  30  31
ENDBRANCH  29  30
ENDBRANCH  28  29
ENDBRANCH  27  28
ENDBRANCH  26  27
ENDBRANCH  25  26
ENDBRANCH  24  25
ENDBRANCH  23  24
ENDBRANCH  22  23
ENDBRANCH  21  22
ENDBRANCH  20  21
ENDBRANCH  19  20
ENDBRANCH  18  19
ENDBRANCH   1  18
TORSDOF 28
ENDMDL
MODEL 3
REMARK VINA RESULT:    -3.058      1.636      3.136
REMARK INTER + INTRA:         -13.658
REMARK INTER:                  -8.389
REMARK INTRA:                  -5.269
REMARK UNBOUND:                -5.594
REMARK SMILES CCCCCCCCCCCCCCCCCCCCCCCCCCCCCC(=O)[O-]
REMARK SMILES IDX 16 1 17 2 18 3 19 4 20 5 21 6 22 7 23 8 24 9 25 10 26 11
REMARK SMILES IDX 27 12 28 13 29 14 30 15 31 16 32 17 15 18 14 19 13 20 12 21
REMARK SMILES IDX 11 22 10 23 9 24 8 25 7 26 6 27 5 28 4 29 3 30 2 31 1 32
REMARK H PARENT
REMARK Flexibility Score: inf
ROOT
ATOM      1  C   UNL     1    -109.827  44.885 -42.022  1.00  0.00     0.000 C 
ENDROOT
BRANCH   1   2
ATOM      2  C   UNL     1    -108.785  44.358 -41.019  1.00  0.00     0.000 C 
BRANCH   2   3
ATOM      3  C   UNL     1    -107.793  43.371 -41.655  1.00  0.00     0.000 C 
BRANCH   3   4
ATOM      4  C   UNL     1    -108.226  41.905 -41.476  1.00  0.00     0.000 C 
BRANCH   4   5
ATOM      5  C   UNL     1    -108.885  41.632 -40.110  1.00  0.00     0.000 C 
BRANCH   5   6
ATOM      6  C   UNL     1    -110.215  40.855 -40.156  1.00  0.00     0.000 C 
BRANCH   6   7
ATOM      7  C   UNL     1    -111.194  41.267 -39.043  1.00  0.00     0.000 C 
BRANCH   7   8
ATOM      8  C   UNL     1    -110.727  42.512 -38.268  1.00  0.00     0.000 C 
BRANCH   8   9
ATOM      9  C   UNL     1    -111.606  43.763 -38.445  1.00  0.00     0.000 C 
BRANCH   9  10
ATOM     10  C   UNL     1    -110.893  45.061 -38.035  1.00  0.00     0.000 C 
BRANCH  10  11
ATOM     11  C   UNL     1    -109.868  44.798 -36.920  1.00  0.00     0.000 C 
BRANCH  11  12
ATOM     12  C   UNL     1    -108.467  45.342 -37.249  1.00  0.00     0.000 C 
BRANCH  12  13
ATOM     13  C   UNL     1    -107.305  44.615 -36.545  1.00  0.00     0.006 C 
BRANCH  13  14
ATOM     14  C   UNL     1    -107.693  44.057 -35.170  1.00  0.00     0.053 C 
BRANCH  14  15
ATOM     15  C   UNL     1    -106.519  44.080 -34.242  1.00  0.00     0.041 C 
ATOM     16  O   UNL     1    -106.168  45.158 -33.691  1.00  0.00    -0.550 OA
ATOM     17  O   UNL     1    -105.794  42.918 -34.006  1.00  0.00    -0.550 OA
ENDBRANCH  14  15
ENDBRANCH  13  14
ENDBRANCH  12  13
ENDBRANCH  11  12
ENDBRANCH  10  11
ENDBRANCH   9  10
ENDBRANCH   8   9
ENDBRANCH   7   8
ENDBRANCH   6   7
ENDBRANCH   5   6
ENDBRANCH   4   5
ENDBRANCH   3   4
ENDBRANCH   2   3
ENDBRANCH   1   2
BRANCH   1  18
ATOM     18  C   UNL     1    -111.212  44.249 -41.818  1.00  0.00     0.000 C 
BRANCH  18  19
ATOM     19  C   UNL     1    -111.529  43.176 -42.875  1.00  0.00     0.000 C 
BRANCH  19  20
ATOM     20  C   UNL     1    -111.544  43.748 -44.307  1.00  0.00     0.000 C 
BRANCH  20  21
ATOM     21  C   UNL     1    -110.675  42.963 -45.309  1.00  0.00     0.000 C 
BRANCH  21  22
ATOM     22  C   UNL     1    -109.225  43.474 -45.421  1.00  0.00     0.000 C 
BRANCH  22  23
ATOM     23  C   UNL     1    -108.921  44.081 -46.799  1.00  0.00     0.000 C 
BRANCH  23  24
ATOM     24  C   UNL     1    -108.852  45.613 -46.719  1.00  0.00    -0.000 C 
BRANCH  24  25
ATOM     25  C   UNL     1    -108.956  46.146 -45.279  1.00  0.00    -0.000 C 
BRANCH  25  26
ATOM     26  C   UNL     1    -108.156  47.435 -44.998  1.00  0.00    -0.000 C 
BRANCH  26  27
ATOM     27  C   UNL     1    -108.244  47.957 -43.553  1.00  0.00    -0.000 C 
BRANCH  27  28
ATOM     28  C   UNL     1    -106.966  48.643 -43.031  1.00  0.00    -0.000 C 
BRANCH  28  29
ATOM     29  C   UNL     1    -106.958  48.859 -41.502  1.00  0.00    -0.000 C 
BRANCH  29  30
ATOM     30  C   UNL     1    -107.630  47.704 -40.740  1.00  0.00    -0.000 C 
BRANCH  30  31
ATOM     31  C   UNL     1    -108.588  48.197 -39.645  1.00  0.00    -0.003 C 
ATOM     32  C   UNL     1    -110.059  48.051 -40.036  1.00  0.00     0.004 C 
ENDBRANCH  30  31
ENDBRANCH  29  30
ENDBRANCH  28  29
ENDBRANCH  27  28
ENDBRANCH  26  27
ENDBRANCH  25  26
ENDBRANCH  24  25
ENDBRANCH  23  24
ENDBRANCH  22  23
ENDBRANCH  21  22
ENDBRANCH  20  21
ENDBRANCH  19  20
ENDBRANCH  18  19
ENDBRANCH   1  18
TORSDOF 28
ENDMDL
MODEL 4
REMARK VINA RESULT:    -3.019     11.849     15.047
REMARK INTER + INTRA:         -13.555
REMARK INTER:                  -8.505
REMARK INTRA:                  -5.050
REMARK UNBOUND:                -5.594
REMARK SMILES CCCCCCCCCCCCCCCCCCCCCCCCCCCCCC(=O)[O-]
REMARK SMILES IDX 16 1 17 2 18 3 19 4 20 5 21 6 22 7 23 8 24 9 25 10 26 11
REMARK SMILES IDX 27 12 28 13 29 14 30 15 31 16 32 17 15 18 14 19 13 20 12 21
REMARK SMILES IDX 11 22 10 23 9 24 8 25 7 26 6 27 5 28 4 29 3 30 2 31 1 32
REMARK H PARENT
REMARK Flexibility Score: inf
ROOT
ATOM      1  C   UNL     1    -108.023  33.250 -37.239  1.00  0.00     0.000 C 
ENDROOT
BRANCH   1   2
ATOM      2  C   UNL     1    -108.295  32.958 -35.753  1.00  0.00     0.000 C 
BRANCH   2   3
ATOM      3  C   UNL     1    -107.677  31.631 -35.284  1.00  0.00     0.000 C 
BRANCH   3   4
ATOM      4  C   UNL     1    -106.757  31.809 -34.063  1.00  0.00     0.000 C 
BRANCH   4   5
ATOM      5  C   UNL     1    -105.857  33.057 -34.163  1.00  0.00     0.000 C 
BRANCH   5   6
ATOM      6  C   UNL     1    -105.139  33.464 -32.861  1.00  0.00     0.000 C 
BRANCH   6   7
ATOM      7  C   UNL     1    -105.032  32.313 -31.846  1.00  0.00     0.000 C 
BRANCH   7   8
ATOM      8  C   UNL     1    -105.847  32.569 -30.565  1.00  0.00     0.000 C 
BRANCH   8   9
ATOM      9  C   UNL     1    -107.146  31.753 -30.441  1.00  0.00     0.000 C 
BRANCH   9  10
ATOM     10  C   UNL     1    -108.399  32.634 -30.318  1.00  0.00     0.000 C 
BRANCH  10  11
ATOM     11  C   UNL     1    -108.182  33.998 -30.992  1.00  0.00     0.000 C 
BRANCH  11  12
ATOM     12  C   UNL     1    -108.971  34.155 -32.304  1.00  0.00     0.000 C 
BRANCH  12  13
ATOM     13  C   UNL     1    -109.756  35.473 -32.438  1.00  0.00     0.006 C 
BRANCH  13  14
ATOM     14  C   UNL     1    -109.653  36.093 -33.837  1.00  0.00     0.053 C 
BRANCH  14  15
ATOM     15  C   UNL     1    -110.722  35.552 -34.734  1.00  0.00     0.041 C 
ATOM     16  O   UNL     1    -111.644  34.835 -34.259  1.00  0.00    -0.550 OA
ATOM     17  O   UNL     1    -110.686  35.813 -36.098  1.00  0.00    -0.550 OA
ENDBRANCH  14  15
ENDBRANCH  13  14
ENDBRANCH  12  13
ENDBRANCH  11  12
ENDBRANCH  10  11
ENDBRANCH   9  10
ENDBRANCH   8   9
ENDBRANCH   7   8
ENDBRANCH   6   7
ENDBRANCH   5   6
ENDBRANCH   4   5
ENDBRANCH   3   4
ENDBRANCH   2   3
ENDBRANCH   1   2
BRANCH   1  18
ATOM     18  C   UNL     1    -106.908  32.363 -37.818  1.00  0.00     0.000 C 
BRANCH  18  19
ATOM     19  C   UNL     1    -105.555  33.094 -37.897  1.00  0.00     0.000 C 
BRANCH  19  20
ATOM     20  C   UNL     1    -104.378  32.125 -38.130  1.00  0.00     0.000 C 
BRANCH  20  21
ATOM     21  C   UNL     1    -103.623  31.730 -36.845  1.00  0.00     0.000 C 
BRANCH  21  22
ATOM     22  C   UNL     1    -104.102  30.408 -36.214  1.00  0.00     0.000 C 
BRANCH  22  23
ATOM     23  C   UNL     1    -103.473  30.153 -34.836  1.00  0.00     0.000 C 
BRANCH  23  24
ATOM     24  C   UNL     1    -102.580  31.329 -34.415  1.00  0.00    -0.000 C 
BRANCH  24  25
ATOM     25  C   UNL     1    -101.342  30.887 -33.614  1.00  0.00    -0.000 C 
BRANCH  25  26
ATOM     26  C   UNL     1    -100.007  30.952 -34.385  1.00  0.00    -0.000 C 
BRANCH  26  27
ATOM     27  C   UNL     1     -99.885  29.971 -35.565  1.00  0.00    -0.000 C 
BRANCH  27  28
ATOM     28  C   UNL     1     -99.964  30.620 -36.961  1.00  0.00    -0.000 C 
BRANCH  28  29
ATOM     29  C   UNL     1    -100.014  32.163 -36.925  1.00  0.00    -0.000 C 
BRANCH  29  30
ATOM     30  C   UNL     1     -98.725  32.808 -37.462  1.00  0.00    -0.000 C 
BRANCH  30  31
ATOM     31  C   UNL     1     -98.343  32.290 -38.858  1.00  0.00    -0.003 C 
ATOM     32  C   UNL     1     -97.080  32.953 -39.409  1.00  0.00     0.004 C 
ENDBRANCH  30  31
ENDBRANCH  29  30
ENDBRANCH  28  29
ENDBRANCH  27  28
ENDBRANCH  26  27
ENDBRANCH  25  26
ENDBRANCH  24  25
ENDBRANCH  23  24
ENDBRANCH  22  23
ENDBRANCH  21  22
ENDBRANCH  20  21
ENDBRANCH  19  20
ENDBRANCH  18  19
ENDBRANCH   1  18
TORSDOF 28
ENDMDL
MODEL 5
REMARK VINA RESULT:    -2.987      1.763      3.959
REMARK INTER + INTRA:         -13.469
REMARK INTER:                  -6.796
REMARK INTRA:                  -6.673
REMARK UNBOUND:                -5.594
REMARK SMILES CCCCCCCCCCCCCCCCCCCCCCCCCCCCCC(=O)[O-]
REMARK SMILES IDX 16 1 17 2 18 3 19 4 20 5 21 6 22 7 23 8 24 9 25 10 26 11
REMARK SMILES IDX 27 12 28 13 29 14 30 15 31 16 32 17 15 18 14 19 13 20 12 21
REMARK SMILES IDX 11 22 10 23 9 24 8 25 7 26 6 27 5 28 4 29 3 30 2 31 1 32
REMARK H PARENT
REMARK Flexibility Score: inf
ROOT
ATOM      1  C   UNL     1    -108.405  42.811 -42.199  1.00  0.00     0.000 C 
ENDROOT
BRANCH   1   2
ATOM      2  C   UNL     1    -107.374  43.319 -41.176  1.00  0.00     0.000 C 
BRANCH   2   3
ATOM      3  C   UNL     1    -108.027  43.972 -39.946  1.00  0.00     0.000 C 
BRANCH   3   4
ATOM      4  C   UNL     1    -108.035  45.509 -40.031  1.00  0.00     0.000 C 
BRANCH   4   5
ATOM      5  C   UNL     1    -109.241  46.147 -39.314  1.00  0.00     0.000 C 
BRANCH   5   6
ATOM      6  C   UNL     1    -110.469  45.232 -39.136  1.00  0.00     0.000 C 
BRANCH   6   7
ATOM      7  C   UNL     1    -111.453  45.308 -40.316  1.00  0.00     0.000 C 
BRANCH   7   8
ATOM      8  C   UNL     1    -111.791  43.925 -40.901  1.00  0.00     0.000 C 
BRANCH   8   9
ATOM      9  C   UNL     1    -111.863  42.779 -39.877  1.00  0.00     0.000 C 
BRANCH   9  10
ATOM     10  C   UNL     1    -111.101  41.523 -40.327  1.00  0.00     0.000 C 
BRANCH  10  11
ATOM     11  C   UNL     1    -110.121  41.054 -39.241  1.00  0.00     0.000 C 
BRANCH  11  12
ATOM     12  C   UNL     1    -110.388  41.698 -37.869  1.00  0.00     0.000 C 
BRANCH  12  13
ATOM     13  C   UNL     1    -109.126  42.066 -37.066  1.00  0.00     0.006 C 
BRANCH  13  14
ATOM     14  C   UNL     1    -109.215  43.450 -36.411  1.00  0.00     0.053 C 
BRANCH  14  15
ATOM     15  C   UNL     1    -107.866  43.900 -35.945  1.00  0.00     0.041 C 
ATOM     16  O   UNL     1    -107.234  44.779 -36.590  1.00  0.00    -0.550 OA
ATOM     17  O   UNL     1    -107.292  43.330 -34.815  1.00  0.00    -0.550 OA
ENDBRANCH  14  15
ENDBRANCH  13  14
ENDBRANCH  12  13
ENDBRANCH  11  12
ENDBRANCH  10  11
ENDBRANCH   9  10
ENDBRANCH   8   9
ENDBRANCH   7   8
ENDBRANCH   6   7
ENDBRANCH   5   6
ENDBRANCH   4   5
ENDBRANCH   3   4
ENDBRANCH   2   3
ENDBRANCH   1   2
BRANCH   1  18
ATOM     18  C   UNL     1    -108.858  43.912 -43.172  1.00  0.00     0.000 C 
BRANCH  18  19
ATOM     19  C   UNL     1    -109.911  43.412 -44.179  1.00  0.00     0.000 C 
BRANCH  19  20
ATOM     20  C   UNL     1    -109.487  43.656 -45.641  1.00  0.00     0.000 C 
BRANCH  20  21
ATOM     21  C   UNL     1    -108.796  45.013 -45.879  1.00  0.00     0.000 C 
BRANCH  21  22
ATOM     22  C   UNL     1    -109.476  45.885 -46.953  1.00  0.00     0.000 C 
BRANCH  22  23
ATOM     23  C   UNL     1    -108.928  47.320 -46.977  1.00  0.00     0.000 C 
BRANCH  23  24
ATOM     24  C   UNL     1    -107.787  47.489 -45.963  1.00  0.00    -0.000 C 
BRANCH  24  25
ATOM     25  C   UNL     1    -107.759  48.885 -45.317  1.00  0.00    -0.000 C 
BRANCH  25  26
ATOM     26  C   UNL     1    -108.005  48.907 -43.794  1.00  0.00    -0.000 C 
BRANCH  26  27
ATOM     27  C   UNL     1    -108.431  47.560 -43.181  1.00  0.00    -0.000 C 
BRANCH  27  28
ATOM     28  C   UNL     1    -109.903  47.489 -42.727  1.00  0.00    -0.000 C 
BRANCH  28  29
ATOM     29  C   UNL     1    -110.914  47.520 -43.894  1.00  0.00    -0.000 C 
BRANCH  29  30
ATOM     30  C   UNL     1    -111.939  46.376 -43.815  1.00  0.00    -0.000 C 
BRANCH  30  31
ATOM     31  C   UNL     1    -112.911  46.371 -45.006  1.00  0.00    -0.003 C 
ATOM     32  C   UNL     1    -112.916  45.040 -45.759  1.00  0.00     0.004 C 
ENDBRANCH  30  31
ENDBRANCH  29  30
ENDBRANCH  28  29
ENDBRANCH  27  28
ENDBRANCH  26  27
ENDBRANCH  25  26
ENDBRANCH  24  25
ENDBRANCH  23  24
ENDBRANCH  22  23
ENDBRANCH  21  22
ENDBRANCH  20  21
ENDBRANCH  19  20
ENDBRANCH  18  19
ENDBRANCH   1  18
TORSDOF 28
ENDMDL
MODEL 6
REMARK VINA RESULT:    -2.966      2.560      4.973
REMARK INTER + INTRA:         -13.414
REMARK INTER:                  -8.062
REMARK INTRA:                  -5.352
REMARK UNBOUND:                -5.594
REMARK SMILES CCCCCCCCCCCCCCCCCCCCCCCCCCCCCC(=O)[O-]
REMARK SMILES IDX 16 1 17 2 18 3 19 4 20 5 21 6 22 7 23 8 24 9 25 10 26 11
REMARK SMILES IDX 27 12 28 13 29 14 30 15 31 16 32 17 15 18 14 19 13 20 12 21
REMARK SMILES IDX 11 22 10 23 9 24 8 25 7 26 6 27 5 28 4 29 3 30 2 31 1 32
REMARK H PARENT
REMARK Flexibility Score: inf
ROOT
ATOM      1  C   UNL     1    -109.965  42.035 -39.232  1.00  0.00     0.000 C 
ENDROOT
BRANCH   1   2
ATOM      2  C   UNL     1    -109.235  42.154 -37.883  1.00  0.00     0.000 C 
BRANCH   2   3
ATOM      3  C   UNL     1    -109.463  43.511 -37.199  1.00  0.00     0.000 C 
BRANCH   3   4
ATOM      4  C   UNL     1    -108.216  44.411 -37.246  1.00  0.00     0.000 C 
BRANCH   4   5
ATOM      5  C   UNL     1    -108.545  45.909 -37.086  1.00  0.00     0.000 C 
BRANCH   5   6
ATOM      6  C   UNL     1    -109.627  46.244 -36.040  1.00  0.00     0.000 C 
BRANCH   6   7
ATOM      7  C   UNL     1    -109.043  46.599 -34.662  1.00  0.00     0.000 C 
BRANCH   7   8
ATOM      8  C   UNL     1    -107.671  47.290 -34.755  1.00  0.00     0.000 C 
BRANCH   8   9
ATOM      9  C   UNL     1    -106.566  46.674 -33.878  1.00  0.00     0.000 C 
BRANCH   9  10
ATOM     10  C   UNL     1    -105.822  45.522 -34.571  1.00  0.00     0.000 C 
BRANCH  10  11
ATOM     11  C   UNL     1    -105.872  44.243 -33.721  1.00  0.00     0.000 C 
BRANCH  11  12
ATOM     12  C   UNL     1    -107.233  43.527 -33.790  1.00  0.00     0.000 C 
BRANCH  12  13
ATOM     13  C   UNL     1    -107.195  42.113 -34.400  1.00  0.00     0.006 C 
BRANCH  13  14
ATOM     14  C   UNL     1    -107.614  41.021 -33.408  1.00  0.00     0.053 C 
BRANCH  14  15
ATOM     15  C   UNL     1    -108.206  39.852 -34.131  1.00  0.00     0.041 C 
ATOM     16  O   UNL     1    -108.698  40.002 -35.282  1.00  0.00    -0.550 OA
ATOM     17  O   UNL     1    -108.242  38.602 -33.525  1.00  0.00    -0.550 OA
ENDBRANCH  14  15
ENDBRANCH  13  14
ENDBRANCH  12  13
ENDBRANCH  11  12
ENDBRANCH  10  11
ENDBRANCH   9  10
ENDBRANCH   8   9
ENDBRANCH   7   8
ENDBRANCH   6   7
ENDBRANCH   5   6
ENDBRANCH   4   5
ENDBRANCH   3   4
ENDBRANCH   2   3
ENDBRANCH   1   2
BRANCH   1  18
ATOM     18  C   UNL     1    -109.002  41.761 -40.398  1.00  0.00     0.000 C 
BRANCH  18  19
ATOM     19  C   UNL     1    -107.820  42.748 -40.432  1.00  0.00     0.000 C 
BRANCH  19  20
ATOM     20  C   UNL     1    -107.994  43.835 -41.511  1.00  0.00     0.000 C 
BRANCH  20  21
ATOM     21  C   UNL     1    -108.370  45.223 -40.953  1.00  0.00     0.000 C 
BRANCH  21  22
ATOM     22  C   UNL     1    -109.850  45.357 -40.545  1.00  0.00     0.000 C 
BRANCH  22  23
ATOM     23  C   UNL     1    -110.636  46.284 -41.484  1.00  0.00     0.000 C 
BRANCH  23  24
ATOM     24  C   UNL     1    -111.694  45.497 -42.272  1.00  0.00    -0.000 C 
BRANCH  24  25
ATOM     25  C   UNL     1    -111.713  43.999 -41.920  1.00  0.00    -0.000 C 
BRANCH  25  26
ATOM     26  C   UNL     1    -111.216  43.058 -43.037  1.00  0.00    -0.000 C 
BRANCH  26  27
ATOM     27  C   UNL     1    -110.876  43.748 -44.370  1.00  0.00    -0.000 C 
BRANCH  27  28
ATOM     28  C   UNL     1    -109.377  43.759 -44.732  1.00  0.00    -0.000 C 
BRANCH  28  29
ATOM     29  C   UNL     1    -108.964  44.952 -45.623  1.00  0.00    -0.000 C 
BRANCH  29  30
ATOM     30  C   UNL     1    -109.408  46.305 -45.040  1.00  0.00    -0.000 C 
BRANCH  30  31
ATOM     31  C   UNL     1    -108.255  47.316 -44.949  1.00  0.00    -0.003 C 
ATOM     32  C   UNL     1    -108.076  47.882 -43.540  1.00  0.00     0.004 C 
ENDBRANCH  30  31
ENDBRANCH  29  30
ENDBRANCH  28  29
ENDBRANCH  27  28
ENDBRANCH  26  27
ENDBRANCH  25  26
ENDBRANCH  24  25
ENDBRANCH  23  24
ENDBRANCH  22  23
ENDBRANCH  21  22
ENDBRANCH  20  21
ENDBRANCH  19  20
ENDBRANCH  18  19
ENDBRANCH   1  18
TORSDOF 28
ENDMDL
MODEL 7
REMARK VINA RESULT:    -2.952      3.927      8.920
REMARK INTER + INTRA:         -13.379
REMARK INTER:                  -8.310
REMARK INTRA:                  -5.069
REMARK UNBOUND:                -5.594
REMARK SMILES CCCCCCCCCCCCCCCCCCCCCCCCCCCCCC(=O)[O-]
REMARK SMILES IDX 16 1 17 2 18 3 19 4 20 5 21 6 22 7 23 8 24 9 25 10 26 11
REMARK SMILES IDX 27 12 28 13 29 14 30 15 31 16 32 17 15 18 14 19 13 20 12 21
REMARK SMILES IDX 11 22 10 23 9 24 8 25 7 26 6 27 5 28 4 29 3 30 2 31 1 32
REMARK H PARENT
REMARK Flexibility Score: inf
ROOT
ATOM      1  C   UNL     1    -111.255  43.976 -37.522  1.00  0.00     0.000 C 
ENDROOT
BRANCH   1   2
ATOM      2  C   UNL     1    -110.869  43.246 -38.821  1.00  0.00     0.000 C 
BRANCH   2   3
ATOM      3  C   UNL     1    -111.105  41.729 -38.746  1.00  0.00     0.000 C 
BRANCH   3   4
ATOM      4  C   UNL     1    -110.336  40.959 -39.833  1.00  0.00     0.000 C 
BRANCH   4   5
ATOM      5  C   UNL     1    -108.877  41.431 -39.990  1.00  0.00     0.000 C 
BRANCH   5   6
ATOM      6  C   UNL     1    -108.415  41.695 -41.436  1.00  0.00     0.000 C 
BRANCH   6   7
ATOM      7  C   UNL     1    -107.570  42.974 -41.575  1.00  0.00     0.000 C 
BRANCH   7   8
ATOM      8  C   UNL     1    -107.631  43.869 -40.325  1.00  0.00     0.000 C 
BRANCH   8   9
ATOM      9  C   UNL     1    -108.082  45.318 -40.577  1.00  0.00     0.000 C 
BRANCH   9  10
ATOM     10  C   UNL     1    -109.314  45.414 -41.491  1.00  0.00     0.000 C 
BRANCH  10  11
ATOM     11  C   UNL     1    -109.079  46.419 -42.629  1.00  0.00     0.000 C 
BRANCH  11  12
ATOM     12  C   UNL     1    -109.048  45.759 -44.019  1.00  0.00     0.000 C 
BRANCH  12  13
ATOM     13  C   UNL     1    -109.816  44.428 -44.126  1.00  0.00     0.006 C 
BRANCH  13  14
ATOM     14  C   UNL     1    -109.128  43.410 -45.044  1.00  0.00     0.053 C 
BRANCH  14  15
ATOM     15  C   UNL     1    -109.601  43.569 -46.455  1.00  0.00     0.041 C 
ATOM     16  O   UNL     1    -108.847  43.254 -47.415  1.00  0.00    -0.550 OA
ATOM     17  O   UNL     1    -110.864  44.090 -46.713  1.00  0.00    -0.550 OA
ENDBRANCH  14  15
ENDBRANCH  13  14
ENDBRANCH  12  13
ENDBRANCH  11  12
ENDBRANCH  10  11
ENDBRANCH   9  10
ENDBRANCH   8   9
ENDBRANCH   7   8
ENDBRANCH   6   7
ENDBRANCH   5   6
ENDBRANCH   4   5
ENDBRANCH   3   4
ENDBRANCH   2   3
ENDBRANCH   1   2
BRANCH   1  18
ATOM     18  C   UNL     1    -110.134  43.937 -36.471  1.00  0.00     0.000 C 
BRANCH  18  19
ATOM     19  C   UNL     1    -108.735  43.825 -37.105  1.00  0.00     0.000 C 
BRANCH  19  20
ATOM     20  C   UNL     1    -107.843  45.039 -36.776  1.00  0.00     0.000 C 
BRANCH  20  21
ATOM     21  C   UNL     1    -108.625  46.337 -36.490  1.00  0.00     0.000 C 
BRANCH  21  22
ATOM     22  C   UNL     1    -108.322  46.964 -35.115  1.00  0.00     0.000 C 
BRANCH  22  23
ATOM     23  C   UNL     1    -108.328  45.926 -33.982  1.00  0.00     0.000 C 
BRANCH  23  24
ATOM     24  C   UNL     1    -107.025  45.990 -33.173  1.00  0.00    -0.000 C 
BRANCH  24  25
ATOM     25  C   UNL     1    -105.838  45.323 -33.891  1.00  0.00    -0.000 C 
BRANCH  25  26
ATOM     26  C   UNL     1    -105.824  43.781 -33.837  1.00  0.00    -0.000 C 
BRANCH  26  27
ATOM     27  C   UNL     1    -106.256  43.169 -32.492  1.00  0.00    -0.000 C 
BRANCH  27  28
ATOM     28  C   UNL     1    -107.336  42.074 -32.593  1.00  0.00    -0.000 C 
BRANCH  28  29
ATOM     29  C   UNL     1    -108.017  42.001 -33.978  1.00  0.00    -0.000 C 
BRANCH  29  30
ATOM     30  C   UNL     1    -108.149  40.557 -34.494  1.00  0.00    -0.000 C 
BRANCH  30  31
ATOM     31  C   UNL     1    -108.803  40.485 -35.883  1.00  0.00    -0.003 C 
ATOM     32  C   UNL     1    -109.951  39.476 -35.943  1.00  0.00     0.004 C 
ENDBRANCH  30  31
ENDBRANCH  29  30
ENDBRANCH  28  29
ENDBRANCH  27  28
ENDBRANCH  26  27
ENDBRANCH  25  26
ENDBRANCH  24  25
ENDBRANCH  23  24
ENDBRANCH  22  23
ENDBRANCH  21  22
ENDBRANCH  20  21
ENDBRANCH  19  20
ENDBRANCH  18  19
ENDBRANCH   1  18
TORSDOF 28
ENDMDL
MODEL 8
REMARK VINA RESULT:    -2.927      2.464      5.256
REMARK INTER + INTRA:         -13.312
REMARK INTER:                  -7.522
REMARK INTRA:                  -5.790
REMARK UNBOUND:                -5.594
REMARK SMILES CCCCCCCCCCCCCCCCCCCCCCCCCCCCCC(=O)[O-]
REMARK SMILES IDX 16 1 17 2 18 3 19 4 20 5 21 6 22 7 23 8 24 9 25 10 26 11
REMARK SMILES IDX 27 12 28 13 29 14 30 15 31 16 32 17 15 18 14 19 13 20 12 21
REMARK SMILES IDX 11 22 10 23 9 24 8 25 7 26 6 27 5 28 4 29 3 30 2 31 1 32
REMARK H PARENT
REMARK Flexibility Score: inf
ROOT
ATOM      1  C   UNL     1    -108.188  44.671 -41.284  1.00  0.00     0.000 C 
ENDROOT
BRANCH   1   2
ATOM      2  C   UNL     1    -108.236  45.819 -40.260  1.00  0.00     0.000 C 
BRANCH   2   3
ATOM      3  C   UNL     1    -108.071  45.331 -38.811  1.00  0.00     0.000 C 
BRANCH   3   4
ATOM      4  C   UNL     1    -109.234  45.774 -37.906  1.00  0.00     0.000 C 
BRANCH   4   5
ATOM      5  C   UNL     1    -108.970  45.509 -36.410  1.00  0.00     0.000 C 
BRANCH   5   6
ATOM      6  C   UNL     1    -108.596  46.747 -35.572  1.00  0.00     0.000 C 
BRANCH   6   7
ATOM      7  C   UNL     1    -107.230  46.614 -34.877  1.00  0.00     0.000 C 
BRANCH   7   8
ATOM      8  C   UNL     1    -106.557  45.254 -35.138  1.00  0.00     0.000 C 
BRANCH   8   9
ATOM      9  C   UNL     1    -105.990  44.553 -33.891  1.00  0.00     0.000 C 
BRANCH   9  10
ATOM     10  C   UNL     1    -106.603  45.068 -32.580  1.00  0.00     0.000 C 
BRANCH  10  11
ATOM     11  C   UNL     1    -107.565  44.033 -31.977  1.00  0.00     0.000 C 
BRANCH  11  12
ATOM     12  C   UNL     1    -108.958  44.051 -32.632  1.00  0.00     0.000 C 
BRANCH  12  13
ATOM     13  C   UNL     1    -109.433  42.696 -33.188  1.00  0.00     0.006 C 
BRANCH  13  14
ATOM     14  C   UNL     1    -109.004  42.460 -34.642  1.00  0.00     0.053 C 
BRANCH  14  15
ATOM     15  C   UNL     1    -108.209  41.198 -34.759  1.00  0.00     0.041 C 
ATOM     16  O   UNL     1    -108.524  40.328 -35.615  1.00  0.00    -0.550 OA
ATOM     17  O   UNL     1    -107.137  40.967 -33.905  1.00  0.00    -0.550 OA
ENDBRANCH  14  15
ENDBRANCH  13  14
ENDBRANCH  12  13
ENDBRANCH  11  12
ENDBRANCH  10  11
ENDBRANCH   9  10
ENDBRANCH   8   9
ENDBRANCH   7   8
ENDBRANCH   6   7
ENDBRANCH   5   6
ENDBRANCH   4   5
ENDBRANCH   3   4
ENDBRANCH   2   3
ENDBRANCH   1   2
BRANCH   1  18
ATOM     18  C   UNL     1    -107.790  43.330 -40.645  1.00  0.00     0.000 C 
BRANCH  18  19
ATOM     19  C   UNL     1    -108.529  42.135 -41.275  1.00  0.00     0.000 C 
BRANCH  19  20
ATOM     20  C   UNL     1    -109.172  41.218 -40.215  1.00  0.00     0.000 C 
BRANCH  20  21
ATOM     21  C   UNL     1    -109.120  41.780 -38.780  1.00  0.00     0.000 C 
BRANCH  21  22
ATOM     22  C   UNL     1    -110.483  42.253 -38.240  1.00  0.00     0.000 C 
BRANCH  22  23
ATOM     23  C   UNL     1    -111.658  41.756 -39.096  1.00  0.00     0.000 C 
BRANCH  23  24
ATOM     24  C   UNL     1    -112.490  42.935 -39.623  1.00  0.00    -0.000 C 
BRANCH  24  25
ATOM     25  C   UNL     1    -111.623  44.106 -40.118  1.00  0.00    -0.000 C 
BRANCH  25  26
ATOM     26  C   UNL     1    -111.926  44.583 -41.554  1.00  0.00    -0.000 C 
BRANCH  26  27
ATOM     27  C   UNL     1    -111.740  43.517 -42.649  1.00  0.00    -0.000 C 
BRANCH  27  28
ATOM     28  C   UNL     1    -111.298  44.065 -44.021  1.00  0.00    -0.000 C 
BRANCH  28  29
ATOM     29  C   UNL     1    -109.927  43.529 -44.489  1.00  0.00    -0.000 C 
BRANCH  29  30
ATOM     30  C   UNL     1    -108.958  44.656 -44.888  1.00  0.00    -0.000 C 
BRANCH  30  31
ATOM     31  C   UNL     1    -109.580  46.052 -44.731  1.00  0.00    -0.003 C 
ATOM     32  C   UNL     1    -108.550  47.119 -44.357  1.00  0.00     0.004 C 
ENDBRANCH  30  31
ENDBRANCH  29  30
ENDBRANCH  28  29
ENDBRANCH  27  28
ENDBRANCH  26  27
ENDBRANCH  25  26
ENDBRANCH  24  25
ENDBRANCH  23  24
ENDBRANCH  22  23
ENDBRANCH  21  22
ENDBRANCH  20  21
ENDBRANCH  19  20
ENDBRANCH  18  19
ENDBRANCH   1  18
TORSDOF 28
ENDMDL
MODEL 9
REMARK VINA RESULT:    -2.920      2.120      4.644
REMARK INTER + INTRA:         -13.293
REMARK INTER:                  -7.993
REMARK INTRA:                  -5.300
REMARK UNBOUND:                -5.594
REMARK SMILES CCCCCCCCCCCCCCCCCCCCCCCCCCCCCC(=O)[O-]
REMARK SMILES IDX 16 1 17 2 18 3 19 4 20 5 21 6 22 7 23 8 24 9 25 10 26 11
REMARK SMILES IDX 27 12 28 13 29 14 30 15 31 16 32 17 15 18 14 19 13 20 12 21
REMARK SMILES IDX 11 22 10 23 9 24 8 25 7 26 6 27 5 28 4 29 3 30 2 31 1 32
REMARK H PARENT
REMARK Flexibility Score: inf
ROOT
ATOM      1  C   UNL     1    -108.769  43.879 -42.663  1.00  0.00     0.000 C 
ENDROOT
BRANCH   1   2
ATOM      2  C   UNL     1    -107.703  43.050 -41.926  1.00  0.00     0.000 C 
BRANCH   2   3
ATOM      3  C   UNL     1    -107.707  43.289 -40.407  1.00  0.00     0.000 C 
BRANCH   3   4
ATOM      4  C   UNL     1    -108.939  42.675 -39.719  1.00  0.00     0.000 C 
BRANCH   4   5
ATOM      5  C   UNL     1    -109.424  43.494 -38.506  1.00  0.00     0.000 C 
BRANCH   5   6
ATOM      6  C   UNL     1    -108.314  44.057 -37.597  1.00  0.00     0.000 C 
BRANCH   6   7
ATOM      7  C   UNL     1    -108.762  44.229 -36.135  1.00  0.00     0.000 C 
BRANCH   7   8
ATOM      8  C   UNL     1    -109.447  45.583 -35.876  1.00  0.00     0.000 C 
BRANCH   8   9
ATOM      9  C   UNL     1    -108.559  46.820 -36.094  1.00  0.00     0.000 C 
BRANCH   9  10
ATOM     10  C   UNL     1    -108.568  47.785 -34.899  1.00  0.00     0.000 C 
BRANCH  10  11
ATOM     11  C   UNL     1    -107.669  47.267 -33.765  1.00  0.00     0.000 C 
BRANCH  11  12
ATOM     12  C   UNL     1    -106.258  46.882 -34.243  1.00  0.00     0.000 C 
BRANCH  12  13
ATOM     13  C   UNL     1    -105.935  45.378 -34.173  1.00  0.00     0.006 C 
BRANCH  13  14
ATOM     14  C   UNL     1    -106.292  44.751 -32.819  1.00  0.00     0.053 C 
BRANCH  14  15
ATOM     15  C   UNL     1    -106.153  43.262 -32.875  1.00  0.00     0.041 C 
ATOM     16  O   UNL     1    -105.760  42.702 -33.934  1.00  0.00    -0.550 OA
ATOM     17  O   UNL     1    -106.484  42.488 -31.769  1.00  0.00    -0.550 OA
ENDBRANCH  14  15
ENDBRANCH  13  14
ENDBRANCH  12  13
ENDBRANCH  11  12
ENDBRANCH  10  11
ENDBRANCH   9  10
ENDBRANCH   8   9
ENDBRANCH   7   8
ENDBRANCH   6   7
ENDBRANCH   5   6
ENDBRANCH   4   5
ENDBRANCH   3   4
ENDBRANCH   2   3
ENDBRANCH   1   2
BRANCH   1  18
ATOM     18  C   UNL     1    -108.961  43.427 -44.120  1.00  0.00     0.000 C 
BRANCH  18  19
ATOM     19  C   UNL     1    -109.767  44.442 -44.952  1.00  0.00     0.000 C 
BRANCH  19  20
ATOM     20  C   UNL     1    -108.889  45.189 -45.976  1.00  0.00     0.000 C 
BRANCH  20  21
ATOM     21  C   UNL     1    -108.851  46.718 -45.776  1.00  0.00     0.000 C 
BRANCH  21  22
ATOM     22  C   UNL     1    -109.193  47.174 -44.344  1.00  0.00     0.000 C 
BRANCH  22  23
ATOM     23  C   UNL     1    -107.957  47.661 -43.572  1.00  0.00     0.000 C 
BRANCH  23  24
ATOM     24  C   UNL     1    -108.338  48.106 -42.153  1.00  0.00    -0.000 C 
BRANCH  24  25
ATOM     25  C   UNL     1    -107.788  47.169 -41.062  1.00  0.00    -0.000 C 
BRANCH  25  26
ATOM     26  C   UNL     1    -108.770  46.855 -39.914  1.00  0.00    -0.000 C 
BRANCH  26  27
ATOM     27  C   UNL     1    -110.253  47.115 -40.232  1.00  0.00    -0.000 C 
BRANCH  27  28
ATOM     28  C   UNL     1    -111.072  45.857 -40.585  1.00  0.00    -0.000 C 
BRANCH  28  29
ATOM     29  C   UNL     1    -111.725  45.916 -41.984  1.00  0.00    -0.000 C 
BRANCH  29  30
ATOM     30  C   UNL     1    -112.553  44.659 -42.301  1.00  0.00    -0.000 C 
BRANCH  30  31
ATOM     31  C   UNL     1    -112.188  43.469 -41.400  1.00  0.00    -0.003 C 
ATOM     32  C   UNL     1    -111.977  42.175 -42.187  1.00  0.00     0.004 C 
ENDBRANCH  30  31
ENDBRANCH  29  30
ENDBRANCH  28  29
ENDBRANCH  27  28
ENDBRANCH  26  27
ENDBRANCH  25  26
ENDBRANCH  24  25
ENDBRANCH  23  24
ENDBRANCH  22  23
ENDBRANCH  21  22
ENDBRANCH  20  21
ENDBRANCH  19  20
ENDBRANCH  18  19
ENDBRANCH   1  18
TORSDOF 28
ENDMDL
