MODEL 1
REMARK VINA RESULT:    -3.687      0.000      0.000
REMARK INTER + INTRA:          -5.314
REMARK INTER:                  -4.980
REMARK INTRA:                  -0.333
REMARK UNBOUND:                -0.333
REMARK SMILES CCCCCCCC(=O)[O-]
REMARK SMILES IDX 5 1 6 2 7 3 8 4 9 5 10 6 4 7 3 8 2 9 1 10
REMARK H PARENT
REMARK Flexibility Score: inf
ROOT
ATOM      1  C   UNL     1      35.147  23.630 221.865  1.00  0.00     0.000 C 
ENDROOT
BRANCH   1   2
ATOM      2  C   UNL     1      36.205  24.569 222.466  1.00  0.00     0.006 C 
BRANCH   2   3
ATOM      3  C   UNL     1      36.561  24.207 223.914  1.00  0.00     0.053 C 
BRANCH   3   4
ATOM      4  C   UNL     1      36.812  25.445 224.715  1.00  0.00     0.041 C 
ATOM      5  O   UNL     1      36.012  25.786 225.625  1.00  0.00    -0.550 OA
ATOM      6  O   UNL     1      37.907  26.251 224.424  1.00  0.00    -0.550 OA
ENDBRANCH   3   4
ENDBRANCH   2   3
ENDBRANCH   1   2
BRANCH   1   7
ATOM      7  C   UNL     1      34.779  23.999 220.420  1.00  0.00     0.000 C 
BRANCH   7   8
ATOM      8  C   UNL     1      36.005  24.527 219.660  1.00  0.00    -0.000 C 
BRANCH   8   9
ATOM      9  C   UNL     1      36.734  23.425 218.875  1.00  0.00    -0.003 C 
ATOM     10  C   UNL     1      37.952  22.876 219.618  1.00  0.00     0.004 C 
ENDBRANCH   8   9
ENDBRANCH   7   8
ENDBRANCH   1   7
TORSDOF 6
ENDMDL
MODEL 2
REMARK VINA RESULT:    -3.597      2.015      2.182
REMARK INTER + INTRA:          -5.191
REMARK INTER:                  -4.786
REMARK INTRA:                  -0.405
REMARK UNBOUND:                -0.333
REMARK SMILES CCCCCCCC(=O)[O-]
REMARK SMILES IDX 5 1 6 2 7 3 8 4 9 5 10 6 4 7 3 8 2 9 1 10
REMARK H PARENT
REMARK Flexibility Score: inf
ROOT
ATOM      1  C   UNL     1      35.878  23.874 222.574  1.00  0.00     0.000 C 
ENDROOT
BRANCH   1   2
ATOM      2  C   UNL     1      36.753  25.113 222.825  1.00  0.00     0.006 C 
BRANCH   2   3
ATOM      3  C   UNL     1      37.907  24.834 223.796  1.00  0.00     0.053 C 
BRANCH   3   4
ATOM      4  C   UNL     1      38.651  23.604 223.383  1.00  0.00     0.041 C 
ATOM      5  O   UNL     1      38.621  22.572 224.103  1.00  0.00    -0.550 OA
ATOM      6  O   UNL     1      39.418  23.613 222.224  1.00  0.00    -0.550 OA
ENDBRANCH   3   4
ENDBRANCH   2   3
ENDBRANCH   1   2
BRANCH   1   7
ATOM      7  C   UNL     1      35.157  23.923 221.219  1.00  0.00     0.000 C 
BRANCH   7   8
ATOM      8  C   UNL     1      35.976  24.713 220.189  1.00  0.00    -0.000 C 
BRANCH   8   9
ATOM      9  C   UNL     1      36.465  23.837 219.024  1.00  0.00    -0.003 C 
ATOM     10  C   UNL     1      37.647  22.948 219.407  1.00  0.00     0.004 C 
ENDBRANCH   8   9
ENDBRANCH   7   8
ENDBRANCH   1   7
TORSDOF 6
ENDMDL
MODEL 3
REMARK VINA RESULT:    -3.522      3.264      3.779
REMARK INTER + INTRA:          -5.091
REMARK INTER:                  -4.827
REMARK INTRA:                  -0.264
REMARK UNBOUND:                -0.333
REMARK SMILES CCCCCCCC(=O)[O-]
REMARK SMILES IDX 5 1 6 2 7 3 8 4 9 5 10 6 4 7 3 8 2 9 1 10
REMARK H PARENT
REMARK Flexibility Score: inf
ROOT
ATOM      1  C   UNL     1      37.585  24.161 222.951  1.00  0.00     0.000 C 
ENDROOT
BRANCH   1   2
ATOM      2  C   UNL     1      38.839  23.319 223.231  1.00  0.00     0.006 C 
BRANCH   2   3
ATOM      3  C   UNL     1      40.139  24.093 222.975  1.00  0.00     0.053 C 
BRANCH   3   4
ATOM      4  C   UNL     1      41.322  23.284 223.405  1.00  0.00     0.041 C 
ATOM      5  O   UNL     1      41.681  22.281 222.735  1.00  0.00    -0.550 OA
ATOM      6  O   UNL     1      41.998  23.609 224.574  1.00  0.00    -0.550 OA
ENDBRANCH   3   4
ENDBRANCH   2   3
ENDBRANCH   1   2
BRANCH   1   7
ATOM      7  C   UNL     1      36.554  23.419 222.087  1.00  0.00     0.000 C 
BRANCH   7   8
ATOM      8  C   UNL     1      35.938  24.358 221.040  1.00  0.00    -0.000 C 
BRANCH   8   9
ATOM      9  C   UNL     1      36.300  23.958 219.601  1.00  0.00    -0.003 C 
ATOM     10  C   UNL     1      37.564  23.103 219.525  1.00  0.00     0.004 C 
ENDBRANCH   8   9
ENDBRANCH   7   8
ENDBRANCH   1   7
TORSDOF 6
ENDMDL
MODEL 4
REMARK VINA RESULT:    -3.405      3.304      4.561
REMARK INTER + INTRA:          -4.933
REMARK INTER:                  -4.555
REMARK INTRA:                  -0.378
REMARK UNBOUND:                -0.333
REMARK SMILES CCCCCCCC(=O)[O-]
REMARK SMILES IDX 5 1 6 2 7 3 8 4 9 5 10 6 4 7 3 8 2 9 1 10
REMARK H PARENT
REMARK Flexibility Score: inf
ROOT
ATOM      1  C   UNL     1      37.021  23.935 224.186  1.00  0.00     0.000 C 
ENDROOT
BRANCH   1   2
ATOM      2  C   UNL     1      36.500  23.157 222.967  1.00  0.00     0.006 C 
BRANCH   2   3
ATOM      3  C   UNL     1      35.610  24.013 222.057  1.00  0.00     0.053 C 
BRANCH   3   4
ATOM      4  C   UNL     1      36.104  23.962 220.646  1.00  0.00     0.041 C 
ATOM      5  O   UNL     1      37.285  23.600 220.400  1.00  0.00    -0.550 OA
ATOM      6  O   UNL     1      35.276  24.360 219.604  1.00  0.00    -0.550 OA
ENDBRANCH   3   4
ENDBRANCH   2   3
ENDBRANCH   1   2
BRANCH   1   7
ATOM      7  C   UNL     1      37.991  25.062 223.801  1.00  0.00     0.000 C 
BRANCH   7   8
ATOM      8  C   UNL     1      39.444  24.656 224.087  1.00  0.00    -0.000 C 
BRANCH   8   9
ATOM      9  C   UNL     1      40.153  24.085 222.848  1.00  0.00    -0.003 C 
ATOM     10  C   UNL     1      41.198  23.026 223.199  1.00  0.00     0.004 C 
ENDBRANCH   8   9
ENDBRANCH   7   8
ENDBRANCH   1   7
TORSDOF 6
ENDMDL
MODEL 5
REMARK VINA RESULT:    -3.405      3.045      4.953
REMARK INTER + INTRA:          -4.932
REMARK INTER:                  -4.489
REMARK INTRA:                  -0.444
REMARK UNBOUND:                -0.333
REMARK SMILES CCCCCCCC(=O)[O-]
REMARK SMILES IDX 5 1 6 2 7 3 8 4 9 5 10 6 4 7 3 8 2 9 1 10
REMARK H PARENT
REMARK Flexibility Score: inf
ROOT
ATOM      1  C   UNL     1      36.711  22.707 223.485  1.00  0.00     0.000 C 
ENDROOT
BRANCH   1   2
ATOM      2  C   UNL     1      36.023  23.567 222.413  1.00  0.00     0.006 C 
BRANCH   2   3
ATOM      3  C   UNL     1      36.825  23.634 221.106  1.00  0.00     0.053 C 
BRANCH   3   4
ATOM      4  C   UNL     1      35.956  24.109 219.985  1.00  0.00     0.041 C 
ATOM      5  O   UNL     1      36.471  24.613 218.953  1.00  0.00    -0.550 OA
ATOM      6  O   UNL     1      34.573  24.040 220.100  1.00  0.00    -0.550 OA
ENDBRANCH   3   4
ENDBRANCH   2   3
ENDBRANCH   1   2
BRANCH   1   7
ATOM      7  C   UNL     1      37.338  23.548 224.607  1.00  0.00     0.000 C 
BRANCH   7   8
ATOM      8  C   UNL     1      38.857  23.673 224.415  1.00  0.00    -0.000 C 
BRANCH   8   9
ATOM      9  C   UNL     1      39.303  25.121 224.157  1.00  0.00    -0.003 C 
ATOM     10  C   UNL     1      38.139  26.112 224.178  1.00  0.00     0.004 C 
ENDBRANCH   8   9
ENDBRANCH   7   8
ENDBRANCH   1   7
TORSDOF 6
ENDMDL
MODEL 6
REMARK VINA RESULT:    -3.401      2.687      3.402
REMARK INTER + INTRA:          -4.927
REMARK INTER:                  -4.579
REMARK INTRA:                  -0.348
REMARK UNBOUND:                -0.333
REMARK SMILES CCCCCCCC(=O)[O-]
REMARK SMILES IDX 5 1 6 2 7 3 8 4 9 5 10 6 4 7 3 8 2 9 1 10
REMARK H PARENT
REMARK Flexibility Score: inf
ROOT
ATOM      1  C   UNL     1      36.846  23.143 223.248  1.00  0.00     0.000 C 
ENDROOT
BRANCH   1   2
ATOM      2  C   UNL     1      38.044  23.601 224.095  1.00  0.00     0.006 C 
BRANCH   2   3
ATOM      3  C   UNL     1      39.232  22.633 224.010  1.00  0.00     0.053 C 
BRANCH   3   4
ATOM      4  C   UNL     1      40.446  23.341 223.499  1.00  0.00     0.041 C 
ATOM      5  O   UNL     1      40.330  24.291 222.681  1.00  0.00    -0.550 OA
ATOM      6  O   UNL     1      41.712  22.921 223.890  1.00  0.00    -0.550 OA
ENDBRANCH   3   4
ENDBRANCH   2   3
ENDBRANCH   1   2
BRANCH   1   7
ATOM      7  C   UNL     1      36.643  24.003 221.993  1.00  0.00     0.000 C 
BRANCH   7   8
ATOM      8  C   UNL     1      37.442  23.441 220.808  1.00  0.00    -0.000 C 
BRANCH   8   9
ATOM      9  C   UNL     1      36.779  23.738 219.453  1.00  0.00    -0.003 C 
ATOM     10  C   UNL     1      35.339  24.229 219.595  1.00  0.00     0.004 C 
ENDBRANCH   8   9
ENDBRANCH   7   8
ENDBRANCH   1   7
TORSDOF 6
ENDMDL
MODEL 7
REMARK VINA RESULT:    -3.322      1.212      2.092
REMARK INTER + INTRA:          -4.820
REMARK INTER:                  -4.545
REMARK INTRA:                  -0.275
REMARK UNBOUND:                -0.333
REMARK SMILES CCCCCCCC(=O)[O-]
REMARK SMILES IDX 5 1 6 2 7 3 8 4 9 5 10 6 4 7 3 8 2 9 1 10
REMARK H PARENT
REMARK Flexibility Score: inf
ROOT
ATOM      1  C   UNL     1      36.701  22.833 223.227  1.00  0.00     0.000 C 
ENDROOT
BRANCH   1   2
ATOM      2  C   UNL     1      37.621  23.275 224.377  1.00  0.00     0.006 C 
BRANCH   2   3
ATOM      3  C   UNL     1      38.482  24.492 224.010  1.00  0.00     0.053 C 
BRANCH   3   4
ATOM      4  C   UNL     1      38.053  25.690 224.796  1.00  0.00     0.041 C 
ATOM      5  O   UNL     1      38.898  26.556 225.144  1.00  0.00    -0.550 OA
ATOM      6  O   UNL     1      36.727  25.827 225.187  1.00  0.00    -0.550 OA
ENDBRANCH   3   4
ENDBRANCH   2   3
ENDBRANCH   1   2
BRANCH   1   7
ATOM      7  C   UNL     1      36.891  23.677 221.958  1.00  0.00     0.000 C 
BRANCH   7   8
ATOM      8  C   UNL     1      35.541  23.967 221.286  1.00  0.00    -0.000 C 
BRANCH   8   9
ATOM      9  C   UNL     1      35.686  24.329 219.799  1.00  0.00    -0.003 C 
ATOM     10  C   UNL     1      36.869  23.627 219.132  1.00  0.00     0.004 C 
ENDBRANCH   8   9
ENDBRANCH   7   8
ENDBRANCH   1   7
TORSDOF 6
ENDMDL
MODEL 8
REMARK VINA RESULT:    -3.241      3.945      4.608
REMARK INTER + INTRA:          -4.712
REMARK INTER:                  -4.444
REMARK INTRA:                  -0.267
REMARK UNBOUND:                -0.333
REMARK SMILES CCCCCCCC(=O)[O-]
REMARK SMILES IDX 5 1 6 2 7 3 8 4 9 5 10 6 4 7 3 8 2 9 1 10
REMARK H PARENT
REMARK Flexibility Score: inf
ROOT
ATOM      1  C   UNL     1      38.626  23.569 223.512  1.00  0.00     0.000 C 
ENDROOT
BRANCH   1   2
ATOM      2  C   UNL     1      39.851  23.668 222.589  1.00  0.00     0.006 C 
BRANCH   2   3
ATOM      3  C   UNL     1      41.167  23.373 223.321  1.00  0.00     0.053 C 
BRANCH   3   4
ATOM      4  C   UNL     1      41.514  21.922 223.206  1.00  0.00     0.041 C 
ATOM      5  O   UNL     1      41.044  21.090 224.025  1.00  0.00    -0.550 OA
ATOM      6  O   UNL     1      42.397  21.495 222.221  1.00  0.00    -0.550 OA
ENDBRANCH   3   4
ENDBRANCH   2   3
ENDBRANCH   1   2
BRANCH   1   7
ATOM      7  C   UNL     1      37.416  24.350 222.976  1.00  0.00     0.000 C 
BRANCH   7   8
ATOM      8  C   UNL     1      36.572  23.476 222.037  1.00  0.00    -0.000 C 
BRANCH   8   9
ATOM      9  C   UNL     1      36.187  24.204 220.739  1.00  0.00    -0.003 C 
ATOM     10  C   UNL     1      36.938  23.675 219.518  1.00  0.00     0.004 C 
ENDBRANCH   8   9
ENDBRANCH   7   8
ENDBRANCH   1   7
TORSDOF 6
ENDMDL
MODEL 9
REMARK VINA RESULT:    -3.135      4.001      5.350
REMARK INTER + INTRA:          -4.568
REMARK INTER:                  -4.278
REMARK INTRA:                  -0.290
REMARK UNBOUND:                -0.333
REMARK SMILES CCCCCCCC(=O)[O-]
REMARK SMILES IDX 5 1 6 2 7 3 8 4 9 5 10 6 4 7 3 8 2 9 1 10
REMARK H PARENT
REMARK Flexibility Score: inf
ROOT
ATOM      1  C   UNL     1      38.799  23.492 223.561  1.00  0.00     0.000 C 
ENDROOT
BRANCH   1   2
ATOM      2  C   UNL     1      37.543  24.225 223.064  1.00  0.00     0.006 C 
BRANCH   2   3
ATOM      3  C   UNL     1      36.636  23.330 222.209  1.00  0.00     0.053 C 
BRANCH   3   4
ATOM      4  C   UNL     1      36.776  23.678 220.761  1.00  0.00     0.041 C 
ATOM      5  O   UNL     1      35.869  24.323 220.173  1.00  0.00    -0.550 OA
ATOM      6  O   UNL     1      37.887  23.247 220.046  1.00  0.00    -0.550 OA
ENDBRANCH   3   4
ENDBRANCH   2   3
ENDBRANCH   1   2
BRANCH   1   7
ATOM      7  C   UNL     1      40.085  23.997 222.890  1.00  0.00     0.000 C 
BRANCH   7   8
ATOM      8  C   UNL     1      41.265  23.062 223.192  1.00  0.00    -0.000 C 
BRANCH   8   9
ATOM      9  C   UNL     1      41.594  22.990 224.692  1.00  0.00    -0.003 C 
ATOM     10  C   UNL     1      42.104  24.318 225.251  1.00  0.00     0.004 C 
ENDBRANCH   8   9
ENDBRANCH   7   8
ENDBRANCH   1   7
TORSDOF 6
ENDMDL
