MODEL 1
REMARK VINA RESULT:    -4.803      0.000      0.000
REMARK INTER + INTRA:          -5.653
REMARK INTER:                  -5.505
REMARK INTRA:                  -0.148
REMARK UNBOUND:                -0.148
REMARK SMILES O=C([O-])C=Cc1ccc(O)cc1
REMARK SMILES IDX 6 1 7 2 12 3 8 4 11 5 9 6 5 7 4 8 2 9 1 10 3 11 10 12
REMARK H PARENT 10 13
REMARK Flexibility Score: inf
ROOT
ATOM      1  C   UNL     1      20.318  -0.663 -19.686  1.00  0.00    -0.025 A 
ATOM      2  C   UNL     1      20.848   0.634 -19.588  1.00  0.00     0.012 A 
ATOM      3  C   UNL     1      20.414  -1.344 -20.918  1.00  0.00     0.012 A 
ATOM      4  C   UNL     1      21.482   1.230 -20.683  1.00  0.00     0.047 A 
ATOM      5  C   UNL     1      21.048  -0.745 -22.011  1.00  0.00     0.047 A 
ATOM      6  C   UNL     1      21.586   0.544 -21.895  1.00  0.00     0.115 A 
ENDROOT
BRANCH   1   7
ATOM      7  C   UNL     1      19.645  -1.247 -18.501  1.00  0.00     0.010 C 
ATOM      8  C   UNL     1      18.878  -0.544 -17.656  1.00  0.00     0.025 C 
BRANCH   8   9
ATOM      9  C   UNL     1      18.216  -1.161 -16.496  1.00  0.00     0.064 C 
ATOM     10  O   UNL     1      17.651  -0.457 -15.615  1.00  0.00    -0.545 OA
ATOM     11  O   UNL     1      18.210  -2.545 -16.368  1.00  0.00    -0.545 OA
ENDBRANCH   8   9
ENDBRANCH   1   7
BRANCH   6  12
ATOM     12  O   UNL     1      22.221   1.149 -22.977  1.00  0.00    -0.508 OA
ATOM     13  H   UNL     1      22.477   2.129 -22.960  1.00  0.00     0.293 HD
ENDBRANCH   6  12
TORSDOF 3
ENDMDL
MODEL 2
REMARK VINA RESULT:    -4.796      0.108      1.683
REMARK INTER + INTRA:          -5.644
REMARK INTER:                  -5.505
REMARK INTRA:                  -0.139
REMARK UNBOUND:                -0.148
REMARK SMILES O=C([O-])C=Cc1ccc(O)cc1
REMARK SMILES IDX 6 1 7 2 12 3 8 4 11 5 9 6 5 7 4 8 2 9 1 10 3 11 10 12
REMARK H PARENT 10 13
REMARK Flexibility Score: inf
ROOT
ATOM      1  C   UNL     1      20.246  -0.601 -19.729  1.00  0.00    -0.025 A 
ATOM      2  C   UNL     1      20.365  -1.313 -20.934  1.00  0.00     0.012 A 
ATOM      3  C   UNL     1      20.857   0.666 -19.626  1.00  0.00     0.012 A 
ATOM      4  C   UNL     1      21.054  -0.766 -22.020  1.00  0.00     0.047 A 
ATOM      5  C   UNL     1      21.546   1.210 -20.715  1.00  0.00     0.047 A 
ATOM      6  C   UNL     1      21.644   0.496 -21.916  1.00  0.00     0.115 A 
ENDROOT
BRANCH   1   7
ATOM      7  C   UNL     1      19.515  -1.228 -18.601  1.00  0.00     0.010 C 
ATOM      8  C   UNL     1      18.929  -0.536 -17.615  1.00  0.00     0.025 C 
BRANCH   8   9
ATOM      9  C   UNL     1      18.200  -1.193 -16.517  1.00  0.00     0.064 C 
ATOM     10  O   UNL     1      18.238  -2.444 -16.365  1.00  0.00    -0.545 OA
ATOM     11  O   UNL     1      17.459  -0.421 -15.631  1.00  0.00    -0.545 OA
ENDBRANCH   8   9
ENDBRANCH   1   7
BRANCH   6  12
ATOM     12  O   UNL     1      22.327   1.029 -23.007  1.00  0.00    -0.508 OA
ATOM     13  H   UNL     1      21.894   1.095 -23.921  1.00  0.00     0.293 HD
ENDBRANCH   6  12
TORSDOF 3
ENDMDL
MODEL 3
REMARK VINA RESULT:    -4.672     14.650     15.860
REMARK INTER + INTRA:          -5.502
REMARK INTER:                  -5.367
REMARK INTRA:                  -0.136
REMARK UNBOUND:                -0.148
REMARK SMILES O=C([O-])C=Cc1ccc(O)cc1
REMARK SMILES IDX 6 1 7 2 12 3 8 4 11 5 9 6 5 7 4 8 2 9 1 10 3 11 10 12
REMARK H PARENT 10 13
REMARK Flexibility Score: inf
ROOT
ATOM      1  C   UNL     1       8.679  -5.330 -10.630  1.00  0.00    -0.025 A 
ATOM      2  C   UNL     1      10.027  -5.722 -10.612  1.00  0.00     0.012 A 
ATOM      3  C   UNL     1       7.975  -5.264  -9.410  1.00  0.00     0.012 A 
ATOM      4  C   UNL     1      10.668  -6.017  -9.404  1.00  0.00     0.047 A 
ATOM      5  C   UNL     1       8.618  -5.560  -8.204  1.00  0.00     0.047 A 
ATOM      6  C   UNL     1       9.968  -5.936  -8.198  1.00  0.00     0.115 A 
ENDROOT
BRANCH   1   7
ATOM      7  C   UNL     1       8.041  -5.038 -11.937  1.00  0.00     0.010 C 
ATOM      8  C   UNL     1       7.713  -3.805 -12.348  1.00  0.00     0.025 C 
BRANCH   8   9
ATOM      9  C   UNL     1       7.091  -3.552 -13.658  1.00  0.00     0.064 C 
ATOM     10  O   UNL     1       7.068  -4.441 -14.552  1.00  0.00    -0.545 OA
ATOM     11  O   UNL     1       6.518  -2.312 -13.914  1.00  0.00    -0.545 OA
ENDBRANCH   8   9
ENDBRANCH   1   7
BRANCH   6  12
ATOM     12  O   UNL     1      10.619  -6.231  -7.003  1.00  0.00    -0.508 OA
ATOM     13  H   UNL     1      11.195  -5.545  -6.531  1.00  0.00     0.293 HD
ENDBRANCH   6  12
TORSDOF 3
ENDMDL
MODEL 4
REMARK VINA RESULT:    -4.641     18.439     19.925
REMARK INTER + INTRA:          -5.467
REMARK INTER:                  -5.328
REMARK INTRA:                  -0.140
REMARK UNBOUND:                -0.148
REMARK SMILES O=C([O-])C=Cc1ccc(O)cc1
REMARK SMILES IDX 6 1 7 2 12 3 8 4 11 5 9 6 5 7 4 8 2 9 1 10 3 11 10 12
REMARK H PARENT 10 13
REMARK Flexibility Score: inf
ROOT
ATOM      1  C   UNL     1       4.809   5.345  -8.945  1.00  0.00    -0.025 A 
ATOM      2  C   UNL     1       6.009   4.656  -9.189  1.00  0.00     0.012 A 
ATOM      3  C   UNL     1       4.038   4.988  -7.820  1.00  0.00     0.012 A 
ATOM      4  C   UNL     1       6.443   3.650  -8.320  1.00  0.00     0.047 A 
ATOM      5  C   UNL     1       4.474   3.981  -6.952  1.00  0.00     0.047 A 
ATOM      6  C   UNL     1       5.680   3.311  -7.199  1.00  0.00     0.115 A 
ENDROOT
BRANCH   1   7
ATOM      7  C   UNL     1       4.386   6.396  -9.902  1.00  0.00     0.010 C 
ATOM      8  C   UNL     1       5.052   7.543 -10.093  1.00  0.00     0.025 C 
BRANCH   8   9
ATOM      9  C   UNL     1       4.608   8.559 -11.062  1.00  0.00     0.064 C 
ATOM     10  O   UNL     1       3.875   8.251 -12.041  1.00  0.00    -0.545 OA
ATOM     11  O   UNL     1       5.002   9.881 -10.895  1.00  0.00    -0.545 OA
ENDBRANCH   8   9
ENDBRANCH   1   7
BRANCH   6  12
ATOM     12  O   UNL     1       6.125   2.308  -6.341  1.00  0.00    -0.508 OA
ATOM     13  H   UNL     1       5.824   2.268  -5.374  1.00  0.00     0.293 HD
ENDBRANCH   6  12
TORSDOF 3
ENDMDL
MODEL 5
REMARK VINA RESULT:    -4.592      1.038      5.665
REMARK INTER + INTRA:          -5.411
REMARK INTER:                  -5.260
REMARK INTRA:                  -0.152
REMARK UNBOUND:                -0.148
REMARK SMILES O=C([O-])C=Cc1ccc(O)cc1
REMARK SMILES IDX 6 1 7 2 12 3 8 4 11 5 9 6 5 7 4 8 2 9 1 10 3 11 10 12
REMARK H PARENT 10 13
REMARK Flexibility Score: inf
ROOT
ATOM      1  C   UNL     1      19.908  -1.155 -19.697  1.00  0.00    -0.025 A 
ATOM      2  C   UNL     1      19.669  -0.142 -18.754  1.00  0.00     0.012 A 
ATOM      3  C   UNL     1      19.512  -2.473 -19.392  1.00  0.00     0.012 A 
ATOM      4  C   UNL     1      19.027  -0.430 -17.545  1.00  0.00     0.047 A 
ATOM      5  C   UNL     1      18.870  -2.758 -18.182  1.00  0.00     0.047 A 
ATOM      6  C   UNL     1      18.624  -1.736 -17.257  1.00  0.00     0.115 A 
ENDROOT
BRANCH   1   7
ATOM      7  C   UNL     1      20.603  -0.801 -20.959  1.00  0.00     0.010 C 
ATOM      8  C   UNL     1      21.225   0.367 -21.166  1.00  0.00     0.025 C 
BRANCH   8   9
ATOM      9  C   UNL     1      21.915   0.679 -22.428  1.00  0.00     0.064 C 
ATOM     10  O   UNL     1      21.935   1.852 -22.890  1.00  0.00    -0.545 OA
ATOM     11  O   UNL     1      22.557  -0.338 -23.125  1.00  0.00    -0.545 OA
ENDBRANCH   8   9
ENDBRANCH   1   7
BRANCH   6  12
ATOM     12  O   UNL     1      17.985  -2.008 -16.049  1.00  0.00    -0.508 OA
ATOM     13  H   UNL     1      18.439  -2.546 -15.320  1.00  0.00     0.293 HD
ENDBRANCH   6  12
TORSDOF 3
ENDMDL
MODEL 6
REMARK VINA RESULT:    -4.426      1.255      1.788
REMARK INTER + INTRA:          -5.221
REMARK INTER:                  -5.081
REMARK INTRA:                  -0.140
REMARK UNBOUND:                -0.148
REMARK SMILES O=C([O-])C=Cc1ccc(O)cc1
REMARK SMILES IDX 6 1 7 2 12 3 8 4 11 5 9 6 5 7 4 8 2 9 1 10 3 11 10 12
REMARK H PARENT 10 13
REMARK Flexibility Score: inf
ROOT
ATOM      1  C   UNL     1      19.465  -0.827 -18.554  1.00  0.00    -0.025 A 
ATOM      2  C   UNL     1      20.648  -0.141 -18.230  1.00  0.00     0.012 A 
ATOM      3  C   UNL     1      19.027  -0.831 -19.894  1.00  0.00     0.012 A 
ATOM      4  C   UNL     1      21.390   0.506 -19.223  1.00  0.00     0.047 A 
ATOM      5  C   UNL     1      19.772  -0.182 -20.884  1.00  0.00     0.047 A 
ATOM      6  C   UNL     1      20.958   0.486 -20.551  1.00  0.00     0.115 A 
ENDROOT
BRANCH   1   7
ATOM      7  C   UNL     1      18.707  -1.489 -17.464  1.00  0.00     0.010 C 
ATOM      8  C   UNL     1      18.127  -0.829 -16.452  1.00  0.00     0.025 C 
BRANCH   8   9
ATOM      9  C   UNL     1      17.371  -1.518 -15.394  1.00  0.00     0.064 C 
ATOM     10  O   UNL     1      17.741  -2.639 -14.951  1.00  0.00    -0.545 OA
ATOM     11  O   UNL     1      16.229  -0.923 -14.871  1.00  0.00    -0.545 OA
ENDBRANCH   8   9
ENDBRANCH   1   7
BRANCH   6  12
ATOM     12  O   UNL     1      21.708   1.134 -21.529  1.00  0.00    -0.508 OA
ATOM     13  H   UNL     1      22.432   1.801 -21.286  1.00  0.00     0.293 HD
ENDBRANCH   6  12
TORSDOF 3
ENDMDL
MODEL 7
REMARK VINA RESULT:    -4.353     15.078     16.278
REMARK INTER + INTRA:          -5.136
REMARK INTER:                  -5.002
REMARK INTRA:                  -0.134
REMARK UNBOUND:                -0.148
REMARK SMILES O=C([O-])C=Cc1ccc(O)cc1
REMARK SMILES IDX 6 1 7 2 12 3 8 4 11 5 9 6 5 7 4 8 2 9 1 10 3 11 10 12
REMARK H PARENT 10 13
REMARK Flexibility Score: inf
ROOT
ATOM      1  C   UNL     1       8.373  -5.684 -10.283  1.00  0.00    -0.025 A 
ATOM      2  C   UNL     1       8.338  -6.816 -11.114  1.00  0.00     0.012 A 
ATOM      3  C   UNL     1       8.039  -4.429 -10.831  1.00  0.00     0.012 A 
ATOM      4  C   UNL     1       7.955  -6.705 -12.455  1.00  0.00     0.047 A 
ATOM      5  C   UNL     1       7.656  -4.321 -12.172  1.00  0.00     0.047 A 
ATOM      6  C   UNL     1       7.612  -5.460 -12.987  1.00  0.00     0.115 A 
ENDROOT
BRANCH   1   7
ATOM      7  C   UNL     1       8.797  -5.852  -8.871  1.00  0.00     0.010 C 
ATOM      8  C   UNL     1       7.962  -5.764  -7.827  1.00  0.00     0.025 C 
BRANCH   8   9
ATOM      9  C   UNL     1       8.416  -5.948  -6.439  1.00  0.00     0.064 C 
ATOM     10  O   UNL     1       7.760  -6.652  -5.625  1.00  0.00    -0.545 OA
ATOM     11  O   UNL     1       9.591  -5.337  -6.018  1.00  0.00    -0.545 OA
ENDBRANCH   8   9
ENDBRANCH   1   7
BRANCH   6  12
ATOM     12  O   UNL     1       7.231  -5.364 -14.323  1.00  0.00    -0.508 OA
ATOM     13  H   UNL     1       6.271  -5.516 -14.612  1.00  0.00     0.293 HD
ENDBRANCH   6  12
TORSDOF 3
ENDMDL
MODEL 8
REMARK VINA RESULT:    -4.333     14.939     18.491
REMARK INTER + INTRA:          -5.114
REMARK INTER:                  -4.977
REMARK INTRA:                  -0.137
REMARK UNBOUND:                -0.148
REMARK SMILES O=C([O-])C=Cc1ccc(O)cc1
REMARK SMILES IDX 6 1 7 2 12 3 8 4 11 5 9 6 5 7 4 8 2 9 1 10 3 11 10 12
REMARK H PARENT 10 13
REMARK Flexibility Score: inf
ROOT
ATOM      1  C   UNL     1       8.466  -6.601  -7.492  1.00  0.00    -0.025 A 
ATOM      2  C   UNL     1       8.085  -7.944  -7.337  1.00  0.00     0.012 A 
ATOM      3  C   UNL     1       8.404  -5.744  -6.373  1.00  0.00     0.012 A 
ATOM      4  C   UNL     1       7.674  -8.429  -6.092  1.00  0.00     0.047 A 
ATOM      5  C   UNL     1       7.992  -6.233  -5.129  1.00  0.00     0.047 A 
ATOM      6  C   UNL     1       7.628  -7.578  -4.985  1.00  0.00     0.115 A 
ENDROOT
BRANCH   1   7
ATOM      7  C   UNL     1       8.884  -6.130  -8.835  1.00  0.00     0.010 C 
ATOM      8  C   UNL     1       8.144  -5.320  -9.605  1.00  0.00     0.025 C 
BRANCH   8   9
ATOM      9  C   UNL     1       8.596  -4.864 -10.929  1.00  0.00     0.064 C 
ATOM     10  O   UNL     1       9.824  -4.766 -11.202  1.00  0.00    -0.545 OA
ATOM     11  O   UNL     1       7.655  -4.536 -11.897  1.00  0.00    -0.545 OA
ENDBRANCH   8   9
ENDBRANCH   1   7
BRANCH   6  12
ATOM     12  O   UNL     1       7.218  -8.075  -3.750  1.00  0.00    -0.508 OA
ATOM     13  H   UNL     1       6.297  -8.478  -3.621  1.00  0.00     0.293 HD
ENDBRANCH   6  12
TORSDOF 3
ENDMDL
