MODEL 1
REMARK VINA RESULT:    -4.656      0.000      0.000
REMARK INTER + INTRA:          -4.792
REMARK INTER:                  -4.792
REMARK INTRA:                   0.000
REMARK UNBOUND:                 0.000
REMARK SMILES Nc1ncnc2nc[nH]c12
REMARK SMILES IDX 8 1 7 2 6 3 5 4 4 5 3 6 2 7 10 8 9 9 1 11
REMARK H PARENT 9 10 1 12 1 13
REMARK Flexibility Score: inf
ROOT
ATOM      1  C   UNL     1       4.680   1.793  17.942  1.00  0.00     0.199 A 
ATOM      2  N   UNL     1       5.666   2.662  18.297  1.00  0.00    -0.217 NA
ATOM      3  C   UNL     1       5.566   3.610  17.350  1.00  0.00     0.182 A 
ATOM      4  N   UNL     1       6.328   4.723  17.237  1.00  0.00    -0.215 NA
ATOM      5  C   UNL     1       6.075   5.577  16.199  1.00  0.00     0.226 A 
ATOM      6  N   UNL     1       5.074   5.304  15.302  1.00  0.00    -0.217 NA
ATOM      7  C   UNL     1       4.302   4.182  15.415  1.00  0.00     0.152 A 
ATOM      8  C   UNL     1       4.573   3.322  16.477  1.00  0.00     0.127 A 
ATOM      9  N   UNL     1       3.994   2.170  16.834  1.00  0.00    -0.340 N 
ATOM     10  H   UNL     1       3.202   1.668  16.375  1.00  0.00     0.168 HD
ENDROOT
BRANCH   7  11
ATOM     11  N   UNL     1       3.264   3.919  14.469  1.00  0.00    -0.382 N 
ATOM     12  H   UNL     1       2.511   4.623  14.312  1.00  0.00     0.158 HD
ATOM     13  H   UNL     1       3.238   3.029  13.924  1.00  0.00     0.158 HD
ENDBRANCH   7  11
TORSDOF 1
ENDMDL
MODEL 2
REMARK VINA RESULT:    -4.619      0.838      2.904
REMARK INTER + INTRA:          -4.754
REMARK INTER:                  -4.754
REMARK INTRA:                   0.000
REMARK UNBOUND:                 0.000
REMARK SMILES Nc1ncnc2nc[nH]c12
REMARK SMILES IDX 8 1 7 2 6 3 5 4 4 5 3 6 2 7 10 8 9 9 1 11
REMARK H PARENT 9 10 1 12 1 13
REMARK Flexibility Score: inf
ROOT
ATOM      1  C   UNL     1       6.620   6.235  16.068  1.00  0.00     0.199 A 
ATOM      2  N   UNL     1       6.912   5.478  17.161  1.00  0.00    -0.217 NA
ATOM      3  C   UNL     1       6.075   4.437  17.018  1.00  0.00     0.182 A 
ATOM      4  N   UNL     1       5.957   3.375  17.850  1.00  0.00    -0.215 NA
ATOM      5  C   UNL     1       5.043   2.407  17.535  1.00  0.00     0.226 A 
ATOM      6  N   UNL     1       4.272   2.518  16.407  1.00  0.00    -0.217 NA
ATOM      7  C   UNL     1       4.390   3.588  15.565  1.00  0.00     0.152 A 
ATOM      8  C   UNL     1       5.324   4.565  15.899  1.00  0.00     0.127 A 
ATOM      9  N   UNL     1       5.654   5.704  15.277  1.00  0.00    -0.340 N 
ATOM     10  H   UNL     1       5.266   6.100  14.393  1.00  0.00     0.168 HD
ENDROOT
BRANCH   7  11
ATOM     11  N   UNL     1       3.577   3.682  14.395  1.00  0.00    -0.382 N 
ATOM     12  H   UNL     1       2.941   4.500  14.265  1.00  0.00     0.158 HD
ATOM     13  H   UNL     1       3.600   2.947  13.655  1.00  0.00     0.158 HD
ENDBRANCH   7  11
TORSDOF 1
ENDMDL
MODEL 3
REMARK VINA RESULT:    -4.214      1.407      3.222
REMARK INTER + INTRA:          -4.337
REMARK INTER:                  -4.337
REMARK INTRA:                   0.000
REMARK UNBOUND:                 0.000
REMARK SMILES Nc1ncnc2nc[nH]c12
REMARK SMILES IDX 8 1 7 2 6 3 5 4 4 5 3 6 2 7 10 8 9 9 1 11
REMARK H PARENT 9 10 1 12 1 13
REMARK Flexibility Score: inf
ROOT
ATOM      1  C   UNL     1       6.262   5.806  15.401  1.00  0.00     0.199 A 
ATOM      2  N   UNL     1       7.020   6.044  16.506  1.00  0.00    -0.217 NA
ATOM      3  C   UNL     1       6.511   5.173  17.394  1.00  0.00     0.182 A 
ATOM      4  N   UNL     1       6.914   4.996  18.674  1.00  0.00    -0.215 NA
ATOM      5  C   UNL     1       6.271   4.055  19.429  1.00  0.00     0.226 A 
ATOM      6  N   UNL     1       5.247   3.314  18.895  1.00  0.00    -0.217 NA
ATOM      7  C   UNL     1       4.840   3.490  17.603  1.00  0.00     0.152 A 
ATOM      8  C   UNL     1       5.504   4.453  16.847  1.00  0.00     0.127 A 
ATOM      9  N   UNL     1       5.327   4.839  15.578  1.00  0.00    -0.340 N 
ATOM     10  H   UNL     1       4.636   4.487  14.879  1.00  0.00     0.168 HD
ENDROOT
BRANCH   7  11
ATOM     11  N   UNL     1       3.771   2.707  17.067  1.00  0.00    -0.382 N 
ATOM     12  H   UNL     1       2.822   3.126  16.958  1.00  0.00     0.158 HD
ATOM     13  H   UNL     1       3.916   1.715  16.779  1.00  0.00     0.158 HD
ENDBRANCH   7  11
TORSDOF 1
ENDMDL
MODEL 4
REMARK VINA RESULT:    -4.207      1.501      3.018
REMARK INTER + INTRA:          -4.330
REMARK INTER:                  -4.330
REMARK INTRA:                   0.000
REMARK UNBOUND:                 0.000
REMARK SMILES Nc1ncnc2nc[nH]c12
REMARK SMILES IDX 8 1 7 2 6 3 5 4 4 5 3 6 2 7 10 8 9 9 1 11
REMARK H PARENT 9 10 1 12 1 13
REMARK Flexibility Score: inf
ROOT
ATOM      1  C   UNL     1       4.253   7.004  16.832  1.00  0.00     0.199 A 
ATOM      2  N   UNL     1       4.657   6.322  17.939  1.00  0.00    -0.217 NA
ATOM      3  C   UNL     1       4.615   5.046  17.519  1.00  0.00     0.182 A 
ATOM      4  N   UNL     1       4.928   3.947  18.245  1.00  0.00    -0.215 NA
ATOM      5  C   UNL     1       4.823   2.724  17.642  1.00  0.00     0.226 A 
ATOM      6  N   UNL     1       4.412   2.624  16.337  1.00  0.00    -0.217 NA
ATOM      7  C   UNL     1       4.098   3.733  15.603  1.00  0.00     0.152 A 
ATOM      8  C   UNL     1       4.208   4.970  16.231  1.00  0.00     0.127 A 
ATOM      9  N   UNL     1       3.972   6.205  15.772  1.00  0.00    -0.340 N 
ATOM     10  H   UNL     1       3.646   6.497  14.823  1.00  0.00     0.168 HD
ENDROOT
BRANCH   7  11
ATOM     11  N   UNL     1       3.672   3.605  14.245  1.00  0.00    -0.382 N 
ATOM     12  H   UNL     1       4.368   3.391  13.498  1.00  0.00     0.158 HD
ATOM     13  H   UNL     1       2.671   3.721  13.976  1.00  0.00     0.158 HD
ENDBRANCH   7  11
TORSDOF 1
ENDMDL
MODEL 5
REMARK VINA RESULT:    -4.126      9.487     10.070
REMARK INTER + INTRA:          -4.246
REMARK INTER:                  -4.246
REMARK INTRA:                   0.000
REMARK UNBOUND:                 0.000
REMARK SMILES Nc1ncnc2nc[nH]c12
REMARK SMILES IDX 8 1 7 2 6 3 5 4 4 5 3 6 2 7 10 8 9 9 1 11
REMARK H PARENT 9 10 1 12 1 13
REMARK Flexibility Score: inf
ROOT
ATOM      1  C   UNL     1      -2.942  -0.022  13.185  1.00  0.00     0.199 A 
ATOM      2  N   UNL     1      -3.125   1.259  12.762  1.00  0.00    -0.217 NA
ATOM      3  C   UNL     1      -2.769   1.186  11.468  1.00  0.00     0.182 A 
ATOM      4  N   UNL     1      -2.767   2.201  10.572  1.00  0.00    -0.215 NA
ATOM      5  C   UNL     1      -2.369   1.931   9.292  1.00  0.00     0.226 A 
ATOM      6  N   UNL     1      -1.984   0.664   8.935  1.00  0.00    -0.217 NA
ATOM      7  C   UNL     1      -1.987  -0.362   9.838  1.00  0.00     0.152 A 
ATOM      8  C   UNL     1      -2.394  -0.072  11.137  1.00  0.00     0.127 A 
ATOM      9  N   UNL     1      -2.496  -0.859  12.214  1.00  0.00    -0.340 N 
ATOM     10  H   UNL     1      -2.285  -1.878  12.300  1.00  0.00     0.168 HD
ENDROOT
BRANCH   7  11
ATOM     11  N   UNL     1      -1.583  -1.675   9.443  1.00  0.00    -0.382 N 
ATOM     12  H   UNL     1      -0.761  -2.128   9.900  1.00  0.00     0.158 HD
ATOM     13  H   UNL     1      -2.093  -2.200   8.700  1.00  0.00     0.158 HD
ENDBRANCH   7  11
TORSDOF 1
ENDMDL
MODEL 6
REMARK VINA RESULT:    -4.105      1.469      1.469
REMARK INTER + INTRA:          -4.224
REMARK INTER:                  -4.224
REMARK INTRA:                   0.000
REMARK UNBOUND:                 0.000
REMARK SMILES Nc1ncnc2nc[nH]c12
REMARK SMILES IDX 8 1 7 2 6 3 5 4 4 5 3 6 2 7 10 8 9 9 1 11
REMARK H PARENT 9 10 1 12 1 13
REMARK Flexibility Score: inf
ROOT
ATOM      1  C   UNL     1       4.807   1.944  17.205  1.00  0.00     0.199 A 
ATOM      2  N   UNL     1       5.900   2.668  17.568  1.00  0.00    -0.217 NA
ATOM      3  C   UNL     1       5.453   3.931  17.465  1.00  0.00     0.182 A 
ATOM      4  N   UNL     1       6.157   5.060  17.718  1.00  0.00    -0.215 NA
ATOM      5  C   UNL     1       5.526   6.263  17.556  1.00  0.00     0.226 A 
ATOM      6  N   UNL     1       4.218   6.315  17.148  1.00  0.00    -0.217 NA
ATOM      7  C   UNL     1       3.506   5.176  16.894  1.00  0.00     0.152 A 
ATOM      8  C   UNL     1       4.161   3.959  17.062  1.00  0.00     0.127 A 
ATOM      9  N   UNL     1       3.728   2.705  16.890  1.00  0.00    -0.340 N 
ATOM     10  H   UNL     1       2.784   2.376  16.586  1.00  0.00     0.168 HD
ENDROOT
BRANCH   7  11
ATOM     11  N   UNL     1       2.144   5.253  16.470  1.00  0.00    -0.382 N 
ATOM     12  H   UNL     1       1.377   4.994  17.129  1.00  0.00     0.158 HD
ATOM     13  H   UNL     1       1.890   5.566  15.508  1.00  0.00     0.158 HD
ENDBRANCH   7  11
TORSDOF 1
ENDMDL
MODEL 7
REMARK VINA RESULT:    -4.083      1.855      3.344
REMARK INTER + INTRA:          -4.202
REMARK INTER:                  -4.202
REMARK INTRA:                   0.000
REMARK UNBOUND:                 0.000
REMARK SMILES Nc1ncnc2nc[nH]c12
REMARK SMILES IDX 8 1 7 2 6 3 5 4 4 5 3 6 2 7 10 8 9 9 1 11
REMARK H PARENT 9 10 1 12 1 13
REMARK Flexibility Score: inf
ROOT
ATOM      1  C   UNL     1       3.047   5.296  16.425  1.00  0.00     0.199 A 
ATOM      2  N   UNL     1       3.945   6.211  16.882  1.00  0.00    -0.217 NA
ATOM      3  C   UNL     1       4.704   5.475  17.711  1.00  0.00     0.182 A 
ATOM      4  N   UNL     1       5.762   5.910  18.437  1.00  0.00    -0.215 NA
ATOM      5  C   UNL     1       6.415   5.007  19.230  1.00  0.00     0.226 A 
ATOM      6  N   UNL     1       6.003   3.699  19.282  1.00  0.00    -0.217 NA
ATOM      7  C   UNL     1       4.937   3.259  18.550  1.00  0.00     0.152 A 
ATOM      8  C   UNL     1       4.282   4.190  17.748  1.00  0.00     0.127 A 
ATOM      9  N   UNL     1       3.227   4.051  16.936  1.00  0.00    -0.340 N 
ATOM     10  H   UNL     1       2.665   3.194  16.736  1.00  0.00     0.168 HD
ENDROOT
BRANCH   7  11
ATOM     11  N   UNL     1       4.525   1.893  18.619  1.00  0.00    -0.382 N 
ATOM     12  H   UNL     1       4.728   1.329  19.474  1.00  0.00     0.158 HD
ATOM     13  H   UNL     1       4.021   1.436  17.829  1.00  0.00     0.158 HD
ENDBRANCH   7  11
TORSDOF 1
ENDMDL
MODEL 8
REMARK VINA RESULT:    -4.053      1.513      2.375
REMARK INTER + INTRA:          -4.171
REMARK INTER:                  -4.171
REMARK INTRA:                   0.000
REMARK UNBOUND:                 0.000
REMARK SMILES Nc1ncnc2nc[nH]c12
REMARK SMILES IDX 8 1 7 2 6 3 5 4 4 5 3 6 2 7 10 8 9 9 1 11
REMARK H PARENT 9 10 1 12 1 13
REMARK Flexibility Score: inf
ROOT
ATOM      1  C   UNL     1       7.010   4.408  19.460  1.00  0.00     0.199 A 
ATOM      2  N   UNL     1       7.676   5.199  18.575  1.00  0.00    -0.217 NA
ATOM      3  C   UNL     1       6.888   5.138  17.488  1.00  0.00     0.182 A 
ATOM      4  N   UNL     1       7.097   5.758  16.303  1.00  0.00    -0.215 NA
ATOM      5  C   UNL     1       6.177   5.575  15.307  1.00  0.00     0.226 A 
ATOM      6  N   UNL     1       5.077   4.782  15.514  1.00  0.00    -0.217 NA
ATOM      7  C   UNL     1       4.864   4.157  16.710  1.00  0.00     0.152 A 
ATOM      8  C   UNL     1       5.809   4.352  17.713  1.00  0.00     0.127 A 
ATOM      9  N   UNL     1       5.865   3.877  18.962  1.00  0.00    -0.340 N 
ATOM     10  H   UNL     1       5.192   3.244  19.450  1.00  0.00     0.168 HD
ENDROOT
BRANCH   7  11
ATOM     11  N   UNL     1       3.710   3.336  16.902  1.00  0.00    -0.382 N 
ATOM     12  H   UNL     1       3.731   2.561  17.600  1.00  0.00     0.158 HD
ATOM     13  H   UNL     1       2.835   3.492  16.356  1.00  0.00     0.158 HD
ENDBRANCH   7  11
TORSDOF 1
ENDMDL
MODEL 9
REMARK VINA RESULT:    -3.985      1.928      3.732
REMARK INTER + INTRA:          -4.102
REMARK INTER:                  -4.102
REMARK INTRA:                   0.000
REMARK UNBOUND:                 0.000
REMARK SMILES Nc1ncnc2nc[nH]c12
REMARK SMILES IDX 8 1 7 2 6 3 5 4 4 5 3 6 2 7 10 8 9 9 1 11
REMARK H PARENT 9 10 1 12 1 13
REMARK Flexibility Score: inf
ROOT
ATOM      1  C   UNL     1       8.857   6.599  17.294  1.00  0.00     0.199 A 
ATOM      2  N   UNL     1       8.861   5.533  18.140  1.00  0.00    -0.217 NA
ATOM      3  C   UNL     1       7.706   4.920  17.831  1.00  0.00     0.182 A 
ATOM      4  N   UNL     1       7.218   3.787  18.391  1.00  0.00    -0.215 NA
ATOM      5  C   UNL     1       6.016   3.312  17.942  1.00  0.00     0.226 A 
ATOM      6  N   UNL     1       5.332   3.971  16.952  1.00  0.00    -0.217 NA
ATOM      7  C   UNL     1       5.824   5.113  16.386  1.00  0.00     0.152 A 
ATOM      8  C   UNL     1       7.048   5.585  16.853  1.00  0.00     0.127 A 
ATOM      9  N   UNL     1       7.762   6.658  16.495  1.00  0.00    -0.340 N 
ATOM     10  H   UNL     1       7.539   7.379  15.773  1.00  0.00     0.168 HD
ENDROOT
BRANCH   7  11
ATOM     11  N   UNL     1       5.095   5.782  15.356  1.00  0.00    -0.382 N 
ATOM     12  H   UNL     1       5.531   6.576  14.838  1.00  0.00     0.158 HD
ATOM     13  H   UNL     1       4.124   5.496  15.103  1.00  0.00     0.158 HD
ENDBRANCH   7  11
TORSDOF 1
ENDMDL
