MODEL 1
REMARK VINA RESULT:    -5.666      0.000      0.000
REMARK INTER + INTRA:          -5.666
REMARK INTER:                  -5.666
REMARK INTRA:                   0.000
REMARK UNBOUND:                 0.000
REMARK SMILES O=c1ccc2ccccc2o1
REMARK SMILES IDX 7 1 8 2 9 3 10 4 5 5 6 6 4 7 3 8 2 9 1 10 11 11
REMARK H PARENT
REMARK Flexibility Score: inf
ROOT
ATOM      1  C   UNL     1       5.521  -0.033 -22.606  1.00  0.00     0.001 A 
ATOM      2  C   UNL     1       4.429   0.525 -21.934  1.00  0.00     0.004 A 
ATOM      3  C   UNL     1       3.215  -0.167 -21.864  1.00  0.00     0.048 A 
ATOM      4  C   UNL     1       3.090  -1.423 -22.468  1.00  0.00     0.138 A 
ATOM      5  C   UNL     1       4.193  -1.988 -23.149  1.00  0.00     0.018 A 
ATOM      6  C   UNL     1       5.406  -1.288 -23.214  1.00  0.00     0.012 A 
ATOM      7  C   UNL     1       4.038  -3.244 -23.741  1.00  0.00     0.019 A 
ATOM      8  C   UNL     1       2.810  -3.898 -23.647  1.00  0.00     0.094 A 
ATOM      9  C   UNL     1       1.762  -3.278 -22.958  1.00  0.00     0.336 A 
ATOM     10  O   UNL     1       0.646  -3.854 -22.862  1.00  0.00    -0.246 OA
ATOM     11  O   UNL     1       1.935  -2.082 -22.401  1.00  0.00    -0.423 OA
ENDROOT
TORSDOF 0
ENDMDL
MODEL 2
REMARK VINA RESULT:    -5.460      4.291      5.987
REMARK INTER + INTRA:          -5.460
REMARK INTER:                  -5.460
REMARK INTRA:                   0.000
REMARK UNBOUND:                 0.000
REMARK SMILES O=c1ccc2ccccc2o1
REMARK SMILES IDX 7 1 8 2 9 3 10 4 5 5 6 6 4 7 3 8 2 9 1 10 11 11
REMARK H PARENT
REMARK Flexibility Score: inf
ROOT
ATOM      1  C   UNL     1       5.341   6.504 -22.876  1.00  0.00     0.001 A 
ATOM      2  C   UNL     1       4.158   6.449 -22.132  1.00  0.00     0.004 A 
ATOM      3  C   UNL     1       3.625   5.215 -21.746  1.00  0.00     0.048 A 
ATOM      4  C   UNL     1       4.276   4.029 -22.102  1.00  0.00     0.138 A 
ATOM      5  C   UNL     1       5.472   4.083 -22.854  1.00  0.00     0.018 A 
ATOM      6  C   UNL     1       6.000   5.324 -23.238  1.00  0.00     0.012 A 
ATOM      7  C   UNL     1       6.100   2.882 -23.195  1.00  0.00     0.019 A 
ATOM      8  C   UNL     1       5.533   1.675 -22.789  1.00  0.00     0.094 A 
ATOM      9  C   UNL     1       4.347   1.697 -22.047  1.00  0.00     0.336 A 
ATOM     10  O   UNL     1       3.822   0.616 -21.671  1.00  0.00    -0.246 OA
ATOM     11  O   UNL     1       3.770   2.854 -21.734  1.00  0.00    -0.423 OA
ENDROOT
TORSDOF 0
ENDMDL
MODEL 3
REMARK VINA RESULT:    -5.429      1.512      3.797
REMARK INTER + INTRA:          -5.429
REMARK INTER:                  -5.429
REMARK INTRA:                   0.000
REMARK UNBOUND:                 0.000
REMARK SMILES O=c1ccc2ccccc2o1
REMARK SMILES IDX 7 1 8 2 9 3 10 4 5 5 6 6 4 7 3 8 2 9 1 10 11 11
REMARK H PARENT
REMARK Flexibility Score: inf
ROOT
ATOM      1  C   UNL     1       2.886  -4.074 -23.634  1.00  0.00     0.001 A 
ATOM      2  C   UNL     1       1.762  -3.572 -22.971  1.00  0.00     0.004 A 
ATOM      3  C   UNL     1       1.794  -2.297 -22.397  1.00  0.00     0.048 A 
ATOM      4  C   UNL     1       2.953  -1.518 -22.483  1.00  0.00     0.138 A 
ATOM      5  C   UNL     1       4.091  -2.025 -23.152  1.00  0.00     0.018 A 
ATOM      6  C   UNL     1       4.052  -3.305 -23.726  1.00  0.00     0.012 A 
ATOM      7  C   UNL     1       5.234  -1.225 -23.223  1.00  0.00     0.019 A 
ATOM      8  C   UNL     1       5.222   0.040 -22.637  1.00  0.00     0.094 A 
ATOM      9  C   UNL     1       4.060   0.477 -21.990  1.00  0.00     0.336 A 
ATOM     10  O   UNL     1       4.030   1.616 -21.455  1.00  0.00    -0.246 OA
ATOM     11  O   UNL     1       2.984  -0.305 -21.937  1.00  0.00    -0.423 OA
ENDROOT
TORSDOF 0
ENDMDL
MODEL 4
REMARK VINA RESULT:    -5.367      1.150      2.110
REMARK INTER + INTRA:          -5.367
REMARK INTER:                  -5.367
REMARK INTRA:                   0.000
REMARK UNBOUND:                 0.000
REMARK SMILES O=c1ccc2ccccc2o1
REMARK SMILES IDX 7 1 8 2 9 3 10 4 5 5 6 6 4 7 3 8 2 9 1 10 11 11
REMARK H PARENT
REMARK Flexibility Score: inf
ROOT
ATOM      1  C   UNL     1       4.604   0.451 -22.075  1.00  0.00     0.001 A 
ATOM      2  C   UNL     1       5.561  -0.249 -22.816  1.00  0.00     0.004 A 
ATOM      3  C   UNL     1       5.284  -1.537 -23.286  1.00  0.00     0.048 A 
ATOM      4  C   UNL     1       4.046  -2.129 -23.018  1.00  0.00     0.138 A 
ATOM      5  C   UNL     1       3.077  -1.423 -22.268  1.00  0.00     0.018 A 
ATOM      6  C   UNL     1       3.362  -0.132 -21.799  1.00  0.00     0.012 A 
ATOM      7  C   UNL     1       1.849  -2.040 -22.016  1.00  0.00     0.019 A 
ATOM      8  C   UNL     1       1.616  -3.325 -22.505  1.00  0.00     0.094 A 
ATOM      9  C   UNL     1       2.621  -3.964 -23.239  1.00  0.00     0.336 A 
ATOM     10  O   UNL     1       2.428  -5.125 -23.688  1.00  0.00    -0.246 OA
ATOM     11  O   UNL     1       3.781  -3.355 -23.466  1.00  0.00    -0.423 OA
ENDROOT
TORSDOF 0
ENDMDL
MODEL 5
REMARK VINA RESULT:    -5.196      1.821      4.458
REMARK INTER + INTRA:          -5.196
REMARK INTER:                  -5.196
REMARK INTRA:                   0.000
REMARK UNBOUND:                 0.000
REMARK SMILES O=c1ccc2ccccc2o1
REMARK SMILES IDX 7 1 8 2 9 3 10 4 5 5 6 6 4 7 3 8 2 9 1 10 11 11
REMARK H PARENT
REMARK Flexibility Score: inf
ROOT
ATOM      1  C   UNL     1       0.029  -4.026 -23.352  1.00  0.00     0.001 A 
ATOM      2  C   UNL     1       0.987  -5.044 -23.368  1.00  0.00     0.004 A 
ATOM      3  C   UNL     1       2.350  -4.730 -23.334  1.00  0.00     0.048 A 
ATOM      4  C   UNL     1       2.759  -3.394 -23.283  1.00  0.00     0.138 A 
ATOM      5  C   UNL     1       1.792  -2.363 -23.268  1.00  0.00     0.018 A 
ATOM      6  C   UNL     1       0.427  -2.685 -23.303  1.00  0.00     0.012 A 
ATOM      7  C   UNL     1       2.231  -1.037 -23.217  1.00  0.00     0.019 A 
ATOM      8  C   UNL     1       3.599  -0.770 -23.184  1.00  0.00     0.094 A 
ATOM      9  C   UNL     1       4.500  -1.841 -23.202  1.00  0.00     0.336 A 
ATOM     10  O   UNL     1       5.739  -1.620 -23.173  1.00  0.00    -0.246 OA
ATOM     11  O   UNL     1       4.056  -3.095 -23.250  1.00  0.00    -0.423 OA
ENDROOT
TORSDOF 0
ENDMDL
MODEL 6
REMARK VINA RESULT:    -5.163      2.695      4.090
REMARK INTER + INTRA:          -5.163
REMARK INTER:                  -5.163
REMARK INTRA:                   0.000
REMARK UNBOUND:                 0.000
REMARK SMILES O=c1ccc2ccccc2o1
REMARK SMILES IDX 7 1 8 2 9 3 10 4 5 5 6 6 4 7 3 8 2 9 1 10 11 11
REMARK H PARENT
REMARK Flexibility Score: inf
ROOT
ATOM      1  C   UNL     1       0.520  -2.555 -23.993  1.00  0.00     0.001 A 
ATOM      2  C   UNL     1       0.994  -3.229 -22.863  1.00  0.00     0.004 A 
ATOM      3  C   UNL     1       2.361  -3.485 -22.717  1.00  0.00     0.048 A 
ATOM      4  C   UNL     1       3.261  -3.067 -23.703  1.00  0.00     0.138 A 
ATOM      5  C   UNL     1       2.784  -2.387 -24.846  1.00  0.00     0.018 A 
ATOM      6  C   UNL     1       1.412  -2.133 -24.986  1.00  0.00     0.012 A 
ATOM      7  C   UNL     1       3.707  -1.981 -25.814  1.00  0.00     0.019 A 
ATOM      8  C   UNL     1       5.061  -2.257 -25.627  1.00  0.00     0.094 A 
ATOM      9  C   UNL     1       5.462  -2.936 -24.470  1.00  0.00     0.336 A 
ATOM     10  O   UNL     1       6.680  -3.194 -24.284  1.00  0.00    -0.246 OA
ATOM     11  O   UNL     1       4.563  -3.311 -23.564  1.00  0.00    -0.423 OA
ENDROOT
TORSDOF 0
ENDMDL
MODEL 7
REMARK VINA RESULT:    -5.096      2.820      4.162
REMARK INTER + INTRA:          -5.096
REMARK INTER:                  -5.096
REMARK INTRA:                   0.000
REMARK UNBOUND:                 0.000
REMARK SMILES O=c1ccc2ccccc2o1
REMARK SMILES IDX 7 1 8 2 9 3 10 4 5 5 6 6 4 7 3 8 2 9 1 10 11 11
REMARK H PARENT
REMARK Flexibility Score: inf
ROOT
ATOM      1  C   UNL     1       0.859  -3.319 -22.874  1.00  0.00     0.001 A 
ATOM      2  C   UNL     1       0.320  -2.653 -23.979  1.00  0.00     0.004 A 
ATOM      3  C   UNL     1       1.158  -2.178 -24.994  1.00  0.00     0.048 A 
ATOM      4  C   UNL     1       2.541  -2.370 -24.906  1.00  0.00     0.138 A 
ATOM      5  C   UNL     1       3.088  -3.043 -23.790  1.00  0.00     0.018 A 
ATOM      6  C   UNL     1       2.241  -3.516 -22.776  1.00  0.00     0.012 A 
ATOM      7  C   UNL     1       4.473  -3.221 -23.730  1.00  0.00     0.019 A 
ATOM      8  C   UNL     1       5.270  -2.732 -24.764  1.00  0.00     0.094 A 
ATOM      9  C   UNL     1       4.661  -2.074 -25.839  1.00  0.00     0.336 A 
ATOM     10  O   UNL     1       5.365  -1.626 -26.781  1.00  0.00    -0.246 OA
ATOM     11  O   UNL     1       3.339  -1.919 -25.872  1.00  0.00    -0.423 OA
ENDROOT
TORSDOF 0
ENDMDL
MODEL 8
REMARK VINA RESULT:    -5.003      2.870      4.583
REMARK INTER + INTRA:          -5.003
REMARK INTER:                  -5.003
REMARK INTRA:                   0.000
REMARK UNBOUND:                 0.000
REMARK SMILES O=c1ccc2ccccc2o1
REMARK SMILES IDX 7 1 8 2 9 3 10 4 5 5 6 6 4 7 3 8 2 9 1 10 11 11
REMARK H PARENT
REMARK Flexibility Score: inf
ROOT
ATOM      1  C   UNL     1       4.705  -2.669 -24.238  1.00  0.00     0.001 A 
ATOM      2  C   UNL     1       3.862  -2.147 -25.224  1.00  0.00     0.004 A 
ATOM      3  C   UNL     1       3.582  -0.777 -25.258  1.00  0.00     0.048 A 
ATOM      4  C   UNL     1       4.146   0.077 -24.305  1.00  0.00     0.138 A 
ATOM      5  C   UNL     1       4.998  -0.450 -23.307  1.00  0.00     0.018 A 
ATOM      6  C   UNL     1       5.274  -1.825 -23.279  1.00  0.00     0.012 A 
ATOM      7  C   UNL     1       5.548   0.428 -22.368  1.00  0.00     0.019 A 
ATOM      8  C   UNL     1       5.242   1.786 -22.440  1.00  0.00     0.094 A 
ATOM      9  C   UNL     1       4.390   2.237 -23.455  1.00  0.00     0.336 A 
ATOM     10  O   UNL     1       4.103   3.460 -23.536  1.00  0.00    -0.246 OA
ATOM     11  O   UNL     1       3.881   1.381 -24.337  1.00  0.00    -0.423 OA
ENDROOT
TORSDOF 0
ENDMDL
MODEL 9
REMARK VINA RESULT:    -4.962      2.315      2.921
REMARK INTER + INTRA:          -4.962
REMARK INTER:                  -4.962
REMARK INTRA:                   0.000
REMARK UNBOUND:                 0.000
REMARK SMILES O=c1ccc2ccccc2o1
REMARK SMILES IDX 7 1 8 2 9 3 10 4 5 5 6 6 4 7 3 8 2 9 1 10 11 11
REMARK H PARENT
REMARK Flexibility Score: inf
ROOT
ATOM      1  C   UNL     1       5.291  -2.134 -25.584  1.00  0.00     0.001 A 
ATOM      2  C   UNL     1       5.459  -2.902 -24.427  1.00  0.00     0.004 A 
ATOM      3  C   UNL     1       4.347  -3.295 -23.675  1.00  0.00     0.048 A 
ATOM      4  C   UNL     1       3.061  -2.921 -24.078  1.00  0.00     0.138 A 
ATOM      5  C   UNL     1       2.890  -2.144 -25.247  1.00  0.00     0.018 A 
ATOM      6  C   UNL     1       4.009  -1.754 -25.996  1.00  0.00     0.012 A 
ATOM      7  C   UNL     1       1.593  -1.787 -25.626  1.00  0.00     0.019 A 
ATOM      8  C   UNL     1       0.514  -2.201 -24.846  1.00  0.00     0.094 A 
ATOM      9  C   UNL     1       0.758  -2.967 -23.701  1.00  0.00     0.336 A 
ATOM     10  O   UNL     1      -0.204  -3.351 -22.985  1.00  0.00    -0.246 OA
ATOM     11  O   UNL     1       2.003  -3.295 -23.363  1.00  0.00    -0.423 OA
ENDROOT
TORSDOF 0
ENDMDL
