MODEL 1
REMARK VINA RESULT:    -5.722      0.000      0.000
REMARK INTER + INTRA:          -8.555
REMARK INTER:                  -7.730
REMARK INTRA:                  -0.826
REMARK UNBOUND:                -0.826
REMARK SMILES CC(=O)CCC=C(C)CCC=C(C)C
REMARK SMILES IDX 7 1 6 2 8 3 9 4 10 5 11 6 13 7 12 8 14 9 5 10 4 11 2 12 3 13
REMARK SMILES IDX 1 14
REMARK H PARENT
REMARK Flexibility Score: inf
ROOT
ATOM      1  C   UNL     1      71.605  62.774  27.093  1.00  0.00    -0.077 C 
ATOM      2  C   UNL     1      71.915  62.358  25.844  1.00  0.00    -0.028 C 
ATOM      3  C   UNL     1      71.004  64.134  27.357  1.00  0.00     0.039 C 
ENDROOT
BRANCH   1   4
ATOM      4  C   UNL     1      71.856  61.841  28.259  1.00  0.00     0.034 C 
BRANCH   4   5
ATOM      5  C   UNL     1      71.178  60.485  28.030  1.00  0.00     0.032 C 
BRANCH   5   6
ATOM      6  C   UNL     1      69.693  60.658  27.825  1.00  0.00    -0.028 C 
ATOM      7  C   UNL     1      69.722  59.598  25.556  1.00  0.00     0.039 C 
ATOM      8  C   UNL     1      69.021  60.243  26.729  1.00  0.00    -0.080 C 
ATOM      9  C   UNL     1      67.530  60.451  26.679  1.00  0.00     0.039 C 
ENDBRANCH   5   6
ENDBRANCH   4   5
ENDBRANCH   1   4
BRANCH   2  10
ATOM     10  C   UNL     1      71.755  63.195  24.598  1.00  0.00     0.035 C 
BRANCH  10  11
ATOM     11  C   UNL     1      71.430  62.340  23.365  1.00  0.00     0.079 C 
BRANCH  11  12
ATOM     12  C   UNL     1      71.738  63.068  22.082  1.00  0.00     0.130 C 
ATOM     13  O   UNL     1      72.097  64.235  22.114  1.00  0.00    -0.300 OA
ATOM     14  C   UNL     1      71.570  62.380  20.761  1.00  0.00     0.087 C 
ENDBRANCH  11  12
ENDBRANCH  10  11
ENDBRANCH   2  10
TORSDOF 6
ENDMDL
MODEL 2
REMARK VINA RESULT:    -5.424      1.443      2.340
REMARK INTER + INTRA:          -8.153
REMARK INTER:                  -7.555
REMARK INTRA:                  -0.598
REMARK UNBOUND:                -0.826
REMARK SMILES CC(=O)CCC=C(C)CCC=C(C)C
REMARK SMILES IDX 7 1 6 2 8 3 9 4 10 5 11 6 13 7 12 8 14 9 5 10 4 11 2 12 3 13
REMARK SMILES IDX 1 14
REMARK H PARENT
REMARK Flexibility Score: inf
ROOT
ATOM      1  C   UNL     1      71.378  61.971  25.524  1.00  0.00    -0.077 C 
ATOM      2  C   UNL     1      71.717  62.893  24.593  1.00  0.00    -0.028 C 
ATOM      3  C   UNL     1      70.763  60.644  25.148  1.00  0.00     0.039 C 
ENDROOT
BRANCH   1   4
ATOM      4  C   UNL     1      71.635  62.277  26.984  1.00  0.00     0.034 C 
BRANCH   4   5
ATOM      5  C   UNL     1      71.286  61.073  27.865  1.00  0.00     0.032 C 
BRANCH   5   6
ATOM      6  C   UNL     1      70.524  61.510  29.091  1.00  0.00    -0.028 C 
ATOM      7  C   UNL     1      68.289  61.014  28.074  1.00  0.00     0.039 C 
ATOM      8  C   UNL     1      69.178  61.467  29.209  1.00  0.00    -0.080 C 
ATOM      9  C   UNL     1      68.556  61.903  30.509  1.00  0.00     0.039 C 
ENDBRANCH   5   6
ENDBRANCH   4   5
ENDBRANCH   1   4
BRANCH   2  10
ATOM     10  C   UNL     1      71.483  62.737  23.110  1.00  0.00     0.035 C 
BRANCH  10  11
ATOM     11  C   UNL     1      72.031  63.928  22.311  1.00  0.00     0.079 C 
BRANCH  11  12
ATOM     12  C   UNL     1      72.335  63.552  20.883  1.00  0.00     0.130 C 
ATOM     13  O   UNL     1      73.049  64.273  20.202  1.00  0.00    -0.300 OA
ATOM     14  C   UNL     1      71.737  62.317  20.280  1.00  0.00     0.087 C 
ENDBRANCH  11  12
ENDBRANCH  10  11
ENDBRANCH   2  10
TORSDOF 6
ENDMDL
MODEL 3
REMARK VINA RESULT:    -5.375      2.359      6.035
REMARK INTER + INTRA:          -8.086
REMARK INTER:                  -7.454
REMARK INTRA:                  -0.632
REMARK UNBOUND:                -0.826
REMARK SMILES CC(=O)CCC=C(C)CCC=C(C)C
REMARK SMILES IDX 7 1 6 2 8 3 9 4 10 5 11 6 13 7 12 8 14 9 5 10 4 11 2 12 3 13
REMARK SMILES IDX 1 14
REMARK H PARENT
REMARK Flexibility Score: inf
ROOT
ATOM      1  C   UNL     1      71.436  62.144  25.540  1.00  0.00    -0.077 C 
ATOM      2  C   UNL     1      70.554  61.182  25.183  1.00  0.00    -0.028 C 
ATOM      3  C   UNL     1      72.123  62.140  26.885  1.00  0.00     0.039 C 
ENDROOT
BRANCH   1   4
ATOM      4  C   UNL     1      71.750  63.250  24.555  1.00  0.00     0.034 C 
BRANCH   4   5
ATOM      5  C   UNL     1      71.375  62.834  23.129  1.00  0.00     0.032 C 
BRANCH   5   6
ATOM      6  C   UNL     1      72.075  63.706  22.116  1.00  0.00    -0.028 C 
ATOM      7  C   UNL     1      71.644  62.125  20.222  1.00  0.00     0.039 C 
ATOM      8  C   UNL     1      72.183  63.412  20.801  1.00  0.00    -0.080 C 
ATOM      9  C   UNL     1      72.880  64.397  19.900  1.00  0.00     0.039 C 
ENDBRANCH   5   6
ENDBRANCH   4   5
ENDBRANCH   1   4
BRANCH   2  10
ATOM     10  C   UNL     1      70.120  60.045  26.077  1.00  0.00     0.035 C 
BRANCH  10  11
ATOM     11  C   UNL     1      68.687  60.233  26.595  1.00  0.00     0.079 C 
BRANCH  11  12
ATOM     12  C   UNL     1      68.661  60.910  27.941  1.00  0.00     0.130 C 
ATOM     13  O   UNL     1      67.824  61.768  28.175  1.00  0.00    -0.300 OA
ATOM     14  C   UNL     1      69.680  60.562  28.984  1.00  0.00     0.087 C 
ENDBRANCH  11  12
ENDBRANCH  10  11
ENDBRANCH   2  10
TORSDOF 6
ENDMDL
MODEL 4
REMARK VINA RESULT:    -5.105      2.710      6.272
REMARK INTER + INTRA:          -7.721
REMARK INTER:                  -7.152
REMARK INTRA:                  -0.569
REMARK UNBOUND:                -0.826
REMARK SMILES CC(=O)CCC=C(C)CCC=C(C)C
REMARK SMILES IDX 7 1 6 2 8 3 9 4 10 5 11 6 13 7 12 8 14 9 5 10 4 11 2 12 3 13
REMARK SMILES IDX 1 14
REMARK H PARENT
REMARK Flexibility Score: inf
ROOT
ATOM      1  C   UNL     1      71.052  61.055  25.129  1.00  0.00    -0.077 C 
ATOM      2  C   UNL     1      71.552  61.944  26.018  1.00  0.00    -0.028 C 
ATOM      3  C   UNL     1      70.192  59.892  25.561  1.00  0.00     0.039 C 
ENDROOT
BRANCH   1   4
ATOM      4  C   UNL     1      71.355  61.243  23.658  1.00  0.00     0.034 C 
BRANCH   4   5
ATOM      5  C   UNL     1      71.381  62.731  23.291  1.00  0.00     0.032 C 
BRANCH   5   6
ATOM      6  C   UNL     1      71.758  62.917  21.842  1.00  0.00    -0.028 C 
ATOM      7  C   UNL     1      72.603  65.248  22.197  1.00  0.00     0.039 C 
ATOM      8  C   UNL     1      72.330  64.034  21.340  1.00  0.00    -0.080 C 
ATOM      9  C   UNL     1      72.685  64.062  19.876  1.00  0.00     0.039 C 
ENDBRANCH   5   6
ENDBRANCH   4   5
ENDBRANCH   1   4
BRANCH   2  10
ATOM     10  C   UNL     1      71.363  61.859  27.514  1.00  0.00     0.035 C 
BRANCH  10  11
ATOM     11  C   UNL     1      70.072  62.549  27.973  1.00  0.00     0.079 C 
BRANCH  11  12
ATOM     12  C   UNL     1      69.226  61.643  28.831  1.00  0.00     0.130 C 
ATOM     13  O   UNL     1      69.586  61.368  29.965  1.00  0.00    -0.300 OA
ATOM     14  C   UNL     1      67.962  61.048  28.288  1.00  0.00     0.087 C 
ENDBRANCH  11  12
ENDBRANCH  10  11
ENDBRANCH   2  10
TORSDOF 6
ENDMDL
MODEL 5
REMARK VINA RESULT:    -4.821      1.514      2.575
REMARK INTER + INTRA:          -7.338
REMARK INTER:                  -6.798
REMARK INTRA:                  -0.540
REMARK UNBOUND:                -0.826
REMARK SMILES CC(=O)CCC=C(C)CCC=C(C)C
REMARK SMILES IDX 7 1 6 2 8 3 9 4 10 5 11 6 13 7 12 8 14 9 5 10 4 11 2 12 3 13
REMARK SMILES IDX 1 14
REMARK H PARENT
REMARK Flexibility Score: inf
ROOT
ATOM      1  C   UNL     1      71.083  61.498  25.223  1.00  0.00    -0.077 C 
ATOM      2  C   UNL     1      71.004  61.871  23.925  1.00  0.00    -0.028 C 
ATOM      3  C   UNL     1      71.905  62.269  26.228  1.00  0.00     0.039 C 
ENDROOT
BRANCH   1   4
ATOM      4  C   UNL     1      70.313  60.278  25.681  1.00  0.00     0.034 C 
BRANCH   4   5
ATOM      5  C   UNL     1      70.514  60.035  27.181  1.00  0.00     0.032 C 
BRANCH   5   6
ATOM      6  C   UNL     1      69.312  60.501  27.964  1.00  0.00    -0.028 C 
ATOM      7  C   UNL     1      70.687  61.805  29.602  1.00  0.00     0.039 C 
ATOM      8  C   UNL     1      69.372  61.317  29.040  1.00  0.00    -0.080 C 
ATOM      9  C   UNL     1      68.083  61.729  29.701  1.00  0.00     0.039 C 
ENDBRANCH   5   6
ENDBRANCH   4   5
ENDBRANCH   1   4
BRANCH   2  10
ATOM     10  C   UNL     1      71.747  63.040  23.324  1.00  0.00     0.035 C 
BRANCH  10  11
ATOM     11  C   UNL     1      71.664  63.051  21.791  1.00  0.00     0.079 C 
BRANCH  11  12
ATOM     12  C   UNL     1      72.420  64.212  21.197  1.00  0.00     0.130 C 
ATOM     13  O   UNL     1      72.839  64.143  20.052  1.00  0.00    -0.300 OA
ATOM     14  C   UNL     1      72.695  65.437  22.016  1.00  0.00     0.087 C 
ENDBRANCH  11  12
ENDBRANCH  10  11
ENDBRANCH   2  10
TORSDOF 6
ENDMDL
MODEL 6
REMARK VINA RESULT:    -4.819      2.521      6.184
REMARK INTER + INTRA:          -7.335
REMARK INTER:                  -6.924
REMARK INTRA:                  -0.411
REMARK UNBOUND:                -0.826
REMARK SMILES CC(=O)CCC=C(C)CCC=C(C)C
REMARK SMILES IDX 7 1 6 2 8 3 9 4 10 5 11 6 13 7 12 8 14 9 5 10 4 11 2 12 3 13
REMARK SMILES IDX 1 14
REMARK H PARENT
REMARK Flexibility Score: inf
ROOT
ATOM      1  C   UNL     1      70.820  61.388  25.154  1.00  0.00    -0.077 C 
ATOM      2  C   UNL     1      70.205  61.719  26.313  1.00  0.00    -0.028 C 
ATOM      3  C   UNL     1      70.754  59.990  24.585  1.00  0.00     0.039 C 
ENDROOT
BRANCH   1   4
ATOM      4  C   UNL     1      71.587  62.454  24.403  1.00  0.00     0.034 C 
BRANCH   4   5
ATOM      5  C   UNL     1      71.134  62.525  22.940  1.00  0.00     0.032 C 
BRANCH   5   6
ATOM      6  C   UNL     1      71.945  63.542  22.178  1.00  0.00    -0.028 C 
ATOM      7  C   UNL     1      71.878  62.231  20.045  1.00  0.00     0.039 C 
ATOM      8  C   UNL     1      72.268  63.436  20.869  1.00  0.00    -0.080 C 
ATOM      9  C   UNL     1      73.054  64.550  20.230  1.00  0.00     0.039 C 
ENDBRANCH   5   6
ENDBRANCH   4   5
ENDBRANCH   1   4
BRANCH   2  10
ATOM     10  C   UNL     1      69.441  60.750  27.184  1.00  0.00     0.035 C 
BRANCH  10  11
ATOM     11  C   UNL     1      70.332  60.114  28.259  1.00  0.00     0.079 C 
BRANCH  11  12
ATOM     12  C   UNL     1      71.283  61.114  28.864  1.00  0.00     0.130 C 
ATOM     13  O   UNL     1      70.878  61.916  29.693  1.00  0.00    -0.300 OA
ATOM     14  C   UNL     1      72.716  61.158  28.429  1.00  0.00     0.087 C 
ENDBRANCH  11  12
ENDBRANCH  10  11
ENDBRANCH   2  10
TORSDOF 6
ENDMDL
MODEL 7
REMARK VINA RESULT:    -4.817      1.785      2.622
REMARK INTER + INTRA:          -7.333
REMARK INTER:                  -6.627
REMARK INTRA:                  -0.706
REMARK UNBOUND:                -0.826
REMARK SMILES CC(=O)CCC=C(C)CCC=C(C)C
REMARK SMILES IDX 7 1 6 2 8 3 9 4 10 5 11 6 13 7 12 8 14 9 5 10 4 11 2 12 3 13
REMARK SMILES IDX 1 14
REMARK H PARENT
REMARK Flexibility Score: inf
ROOT
ATOM      1  C   UNL     1      71.638  61.881  28.169  1.00  0.00    -0.077 C 
ATOM      2  C   UNL     1      71.317  62.622  27.083  1.00  0.00    -0.028 C 
ATOM      3  C   UNL     1      72.907  61.065  28.233  1.00  0.00     0.039 C 
ENDROOT
BRANCH   1   4
ATOM      4  C   UNL     1      70.701  61.882  29.358  1.00  0.00     0.034 C 
BRANCH   4   5
ATOM      5  C   UNL     1      70.018  60.519  29.516  1.00  0.00     0.032 C 
BRANCH   5   6
ATOM      6  C   UNL     1      69.229  60.169  28.279  1.00  0.00    -0.028 C 
ATOM      7  C   UNL     1      67.542  61.984  28.648  1.00  0.00     0.039 C 
ATOM      8  C   UNL     1      68.128  60.834  27.863  1.00  0.00    -0.080 C 
ATOM      9  C   UNL     1      67.464  60.393  26.585  1.00  0.00     0.039 C 
ENDBRANCH   5   6
ENDBRANCH   4   5
ENDBRANCH   1   4
BRANCH   2  10
ATOM     10  C   UNL     1      72.137  62.683  25.816  1.00  0.00     0.035 C 
BRANCH  10  11
ATOM     11  C   UNL     1      71.276  62.487  24.561  1.00  0.00     0.079 C 
BRANCH  11  12
ATOM     12  C   UNL     1      71.258  61.048  24.114  1.00  0.00     0.130 C 
ATOM     13  O   UNL     1      71.758  60.736  23.044  1.00  0.00    -0.300 OA
ATOM     14  C   UNL     1      70.597  59.999  24.957  1.00  0.00     0.087 C 
ENDBRANCH  11  12
ENDBRANCH  10  11
ENDBRANCH   2  10
TORSDOF 6
ENDMDL
MODEL 8
REMARK VINA RESULT:    -4.796      1.196      3.187
REMARK INTER + INTRA:          -7.304
REMARK INTER:                  -6.680
REMARK INTRA:                  -0.624
REMARK UNBOUND:                -0.826
REMARK SMILES CC(=O)CCC=C(C)CCC=C(C)C
REMARK SMILES IDX 7 1 6 2 8 3 9 4 10 5 11 6 13 7 12 8 14 9 5 10 4 11 2 12 3 13
REMARK SMILES IDX 1 14
REMARK H PARENT
REMARK Flexibility Score: inf
ROOT
ATOM      1  C   UNL     1      70.144  60.657  25.857  1.00  0.00    -0.077 C 
ATOM      2  C   UNL     1      70.657  61.799  25.343  1.00  0.00    -0.028 C 
ATOM      3  C   UNL     1      70.295  59.327  25.156  1.00  0.00     0.039 C 
ENDROOT
BRANCH   1   4
ATOM      4  C   UNL     1      69.409  60.715  27.178  1.00  0.00     0.034 C 
BRANCH   4   5
ATOM      5  C   UNL     1      70.238  61.457  28.233  1.00  0.00     0.032 C 
BRANCH   5   6
ATOM      6  C   UNL     1      71.529  60.727  28.507  1.00  0.00    -0.028 C 
ATOM      7  C   UNL     1      72.950  62.551  27.545  1.00  0.00     0.039 C 
ATOM      8  C   UNL     1      72.757  61.216  28.226  1.00  0.00    -0.080 C 
ATOM      9  C   UNL     1      73.961  60.388  28.591  1.00  0.00     0.039 C 
ENDBRANCH   5   6
ENDBRANCH   4   5
ENDBRANCH   1   4
BRANCH   2  10
ATOM     10  C   UNL     1      71.378  61.895  24.020  1.00  0.00     0.035 C 
BRANCH  10  11
ATOM     11  C   UNL     1      71.633  63.350  23.605  1.00  0.00     0.079 C 
BRANCH  11  12
ATOM     12  C   UNL     1      71.882  63.475  22.124  1.00  0.00     0.130 C 
ATOM     13  O   UNL     1      72.404  64.486  21.677  1.00  0.00    -0.300 OA
ATOM     14  C   UNL     1      71.459  62.383  21.189  1.00  0.00     0.087 C 
ENDBRANCH  11  12
ENDBRANCH  10  11
ENDBRANCH   2  10
TORSDOF 6
ENDMDL
MODEL 9
REMARK VINA RESULT:    -4.712      3.371      6.092
REMARK INTER + INTRA:          -7.191
REMARK INTER:                  -6.325
REMARK INTRA:                  -0.866
REMARK UNBOUND:                -0.826
REMARK SMILES CC(=O)CCC=C(C)CCC=C(C)C
REMARK SMILES IDX 7 1 6 2 8 3 9 4 10 5 11 6 13 7 12 8 14 9 5 10 4 11 2 12 3 13
REMARK SMILES IDX 1 14
REMARK H PARENT
REMARK Flexibility Score: inf
ROOT
ATOM      1  C   UNL     1      69.553  60.161  26.681  1.00  0.00    -0.077 C 
ATOM      2  C   UNL     1      70.303  59.871  27.769  1.00  0.00    -0.028 C 
ATOM      3  C   UNL     1      68.126  60.642  26.799  1.00  0.00     0.039 C 
ENDROOT
BRANCH   1   4
ATOM      4  C   UNL     1      70.169  60.010  25.306  1.00  0.00     0.034 C 
BRANCH   4   5
ATOM      5  C   UNL     1      71.319  61.003  25.111  1.00  0.00     0.032 C 
BRANCH   5   6
ATOM      6  C   UNL     1      70.984  62.338  25.728  1.00  0.00    -0.028 C 
ATOM      7  C   UNL     1      72.874  62.232  27.369  1.00  0.00     0.039 C 
ATOM      8  C   UNL     1      71.688  62.914  26.728  1.00  0.00    -0.080 C 
ATOM      9  C   UNL     1      71.257  64.271  27.220  1.00  0.00     0.039 C 
ENDBRANCH   5   6
ENDBRANCH   4   5
ENDBRANCH   1   4
BRANCH   2  10
ATOM     10  C   UNL     1      69.808  59.939  29.193  1.00  0.00     0.035 C 
BRANCH  10  11
ATOM     11  C   UNL     1      70.144  61.281  29.858  1.00  0.00     0.079 C 
BRANCH  11  12
ATOM     12  C   UNL     1      69.029  61.759  30.752  1.00  0.00     0.130 C 
ATOM     13  O   UNL     1      69.216  61.870  31.954  1.00  0.00    -0.300 OA
ATOM     14  C   UNL     1      67.677  62.066  30.180  1.00  0.00     0.087 C 
ENDBRANCH  11  12
ENDBRANCH  10  11
ENDBRANCH   2  10
TORSDOF 6
ENDMDL
