MODEL 1
REMARK VINA RESULT:    -5.269      0.000      0.000
REMARK INTER + INTRA:          -6.125
REMARK INTER:                  -6.039
REMARK INTRA:                  -0.087
REMARK UNBOUND:                -0.087
REMARK SMILES COc1cc(C(=O)[O-])ccc1O
REMARK SMILES IDX 5 1 9 2 4 3 10 4 3 5 11 6 6 7 7 8 8 9 2 10 1 11 12 12
REMARK H PARENT 12 13
REMARK Flexibility Score: inf
ROOT
ATOM      1  C   UNL     1      13.804  45.280   4.636  1.00  0.00     0.001 A 
ATOM      2  C   UNL     1      14.179  44.352   3.651  1.00  0.00     0.014 A 
ATOM      3  C   UNL     1      14.691  45.550   5.695  1.00  0.00     0.060 A 
ATOM      4  C   UNL     1      15.415  43.707   3.722  1.00  0.00     0.051 A 
ATOM      5  C   UNL     1      15.940  44.901   5.771  1.00  0.00     0.161 A 
ATOM      6  C   UNL     1      16.295  43.975   4.773  1.00  0.00     0.157 A 
ENDROOT
BRANCH   1   7
ATOM      7  C   UNL     1      12.492  45.961   4.555  1.00  0.00     0.072 C 
ATOM      8  O   UNL     1      11.685  45.914   5.522  1.00  0.00    -0.545 OA
ATOM      9  O   UNL     1      12.132  46.664   3.411  1.00  0.00    -0.545 OA
ENDBRANCH   1   7
BRANCH   5  10
ATOM     10  O   UNL     1      16.844  45.150   6.816  1.00  0.00    -0.493 OA
ATOM     11  C   UNL     1      16.535  45.029   8.201  1.00  0.00     0.278 C 
ENDBRANCH   5  10
BRANCH   6  12
ATOM     12  O   UNL     1      17.522  43.312   4.811  1.00  0.00    -0.504 OA
ATOM     13  H   UNL     1      18.355  43.691   4.378  1.00  0.00     0.293 HD
ENDBRANCH   6  12
TORSDOF 3
ENDMDL
MODEL 2
REMARK VINA RESULT:    -5.156      2.659      4.407
REMARK INTER + INTRA:          -5.996
REMARK INTER:                  -5.900
REMARK INTRA:                  -0.096
REMARK UNBOUND:                -0.087
REMARK SMILES COc1cc(C(=O)[O-])ccc1O
REMARK SMILES IDX 5 1 9 2 4 3 10 4 3 5 11 6 6 7 7 8 8 9 2 10 1 11 12 12
REMARK H PARENT 12 13
REMARK Flexibility Score: inf
ROOT
ATOM      1  C   UNL     1      16.128  43.748   5.974  1.00  0.00     0.001 A 
ATOM      2  C   UNL     1      16.534  44.874   6.707  1.00  0.00     0.014 A 
ATOM      3  C   UNL     1      15.693  42.602   6.665  1.00  0.00     0.060 A 
ATOM      4  C   UNL     1      16.505  44.857   8.102  1.00  0.00     0.051 A 
ATOM      5  C   UNL     1      15.662  42.578   8.074  1.00  0.00     0.161 A 
ATOM      6  C   UNL     1      16.073  43.719   8.788  1.00  0.00     0.157 A 
ENDROOT
BRANCH   1   7
ATOM      7  C   UNL     1      16.160  43.772   4.494  1.00  0.00     0.072 C 
ATOM      8  O   UNL     1      15.333  44.468   3.846  1.00  0.00    -0.545 OA
ATOM      9  O   UNL     1      17.104  43.026   3.797  1.00  0.00    -0.545 OA
ENDBRANCH   1   7
BRANCH   5  10
ATOM     10  O   UNL     1      15.234  41.449   8.790  1.00  0.00    -0.493 OA
ATOM     11  C   UNL     1      16.057  40.330   9.105  1.00  0.00     0.278 C 
ENDBRANCH   5  10
BRANCH   6  12
ATOM     12  O   UNL     1      16.058  43.738  10.183  1.00  0.00    -0.504 OA
ATOM     13  H   UNL     1      16.241  44.580  10.714  1.00  0.00     0.293 HD
ENDBRANCH   6  12
TORSDOF 3
ENDMDL
MODEL 3
REMARK VINA RESULT:    -5.114      2.476      4.044
REMARK INTER + INTRA:          -5.948
REMARK INTER:                  -5.846
REMARK INTRA:                  -0.103
REMARK UNBOUND:                -0.087
REMARK SMILES COc1cc(C(=O)[O-])ccc1O
REMARK SMILES IDX 5 1 9 2 4 3 10 4 3 5 11 6 6 7 7 8 8 9 2 10 1 11 12 12
REMARK H PARENT 12 13
REMARK Flexibility Score: inf
ROOT
ATOM      1  C   UNL     1      15.713  43.540   5.671  1.00  0.00     0.001 A 
ATOM      2  C   UNL     1      16.398  42.606   6.463  1.00  0.00     0.014 A 
ATOM      3  C   UNL     1      14.829  44.444   6.290  1.00  0.00     0.060 A 
ATOM      4  C   UNL     1      16.205  42.574   7.846  1.00  0.00     0.051 A 
ATOM      5  C   UNL     1      14.629  44.416   7.685  1.00  0.00     0.161 A 
ATOM      6  C   UNL     1      15.327  43.470   8.459  1.00  0.00     0.157 A 
ENDROOT
BRANCH   1   7
ATOM      7  C   UNL     1      15.922  43.570   4.206  1.00  0.00     0.072 C 
ATOM      8  O   UNL     1      16.963  43.075   3.697  1.00  0.00    -0.545 OA
ATOM      9  O   UNL     1      14.973  44.146   3.370  1.00  0.00    -0.545 OA
ENDBRANCH   1   7
BRANCH   5  10
ATOM     10  O   UNL     1      13.753  45.304   8.329  1.00  0.00    -0.493 OA
ATOM     11  C   UNL     1      12.343  45.127   8.420  1.00  0.00     0.278 C 
ENDBRANCH   5  10
BRANCH   6  12
ATOM     12  O   UNL     1      15.159  43.409   9.843  1.00  0.00    -0.504 OA
ATOM     13  H   UNL     1      14.326  43.756  10.303  1.00  0.00     0.293 HD
ENDBRANCH   6  12
TORSDOF 3
ENDMDL
MODEL 4
REMARK VINA RESULT:    -5.087      1.817      2.091
REMARK INTER + INTRA:          -5.917
REMARK INTER:                  -5.821
REMARK INTRA:                  -0.096
REMARK UNBOUND:                -0.087
REMARK SMILES COc1cc(C(=O)[O-])ccc1O
REMARK SMILES IDX 5 1 9 2 4 3 10 4 3 5 11 6 6 7 7 8 8 9 2 10 1 11 12 12
REMARK H PARENT 12 13
REMARK Flexibility Score: inf
ROOT
ATOM      1  C   UNL     1      14.555  43.748   4.496  1.00  0.00     0.001 A 
ATOM      2  C   UNL     1      15.723  43.475   3.766  1.00  0.00     0.014 A 
ATOM      3  C   UNL     1      14.654  43.994   5.878  1.00  0.00     0.060 A 
ATOM      4  C   UNL     1      16.965  43.448   4.404  1.00  0.00     0.051 A 
ATOM      5  C   UNL     1      15.905  43.968   6.527  1.00  0.00     0.161 A 
ATOM      6  C   UNL     1      17.062  43.692   5.776  1.00  0.00     0.157 A 
ENDROOT
BRANCH   1   7
ATOM      7  C   UNL     1      13.242  43.776   3.815  1.00  0.00     0.072 C 
ATOM      8  O   UNL     1      12.569  44.841   3.763  1.00  0.00    -0.545 OA
ATOM      9  O   UNL     1      12.730  42.627   3.223  1.00  0.00    -0.545 OA
ENDBRANCH   1   7
BRANCH   5  10
ATOM     10  O   UNL     1      16.033  44.209   7.905  1.00  0.00    -0.493 OA
ATOM     11  C   UNL     1      15.658  43.290   8.925  1.00  0.00     0.278 C 
ENDBRANCH   5  10
BRANCH   6  12
ATOM     12  O   UNL     1      18.320  43.657   6.379  1.00  0.00    -0.504 OA
ATOM     13  H   UNL     1      18.645  42.855   6.905  1.00  0.00     0.293 HD
ENDBRANCH   6  12
TORSDOF 3
ENDMDL
MODEL 5
REMARK VINA RESULT:    -4.926      1.349      4.374
REMARK INTER + INTRA:          -5.732
REMARK INTER:                  -5.635
REMARK INTRA:                  -0.097
REMARK UNBOUND:                -0.087
REMARK SMILES COc1cc(C(=O)[O-])ccc1O
REMARK SMILES IDX 5 1 9 2 4 3 10 4 3 5 11 6 6 7 7 8 8 9 2 10 1 11 12 12
REMARK H PARENT 12 13
REMARK Flexibility Score: inf
ROOT
ATOM      1  C   UNL     1      15.951  44.906   5.918  1.00  0.00     0.001 A 
ATOM      2  C   UNL     1      15.839  44.580   4.557  1.00  0.00     0.014 A 
ATOM      3  C   UNL     1      14.926  45.654   6.528  1.00  0.00     0.060 A 
ATOM      4  C   UNL     1      14.728  44.992   3.820  1.00  0.00     0.051 A 
ATOM      5  C   UNL     1      13.802  46.073   5.789  1.00  0.00     0.161 A 
ATOM      6  C   UNL     1      13.711  45.735   4.426  1.00  0.00     0.157 A 
ENDROOT
BRANCH   1   7
ATOM      7  C   UNL     1      17.131  44.466   6.695  1.00  0.00     0.072 C 
ATOM      8  O   UNL     1      17.959  43.657   6.199  1.00  0.00    -0.545 OA
ATOM      9  O   UNL     1      17.342  44.940   7.985  1.00  0.00    -0.545 OA
ENDBRANCH   1   7
BRANCH   5  10
ATOM     10  O   UNL     1      12.765  46.821   6.371  1.00  0.00    -0.493 OA
ATOM     11  C   UNL     1      11.929  46.360   7.426  1.00  0.00     0.278 C 
ENDBRANCH   5  10
BRANCH   6  12
ATOM     12  O   UNL     1      12.615  46.130   3.658  1.00  0.00    -0.504 OA
ATOM     13  H   UNL     1      12.598  47.005   3.150  1.00  0.00     0.293 HD
ENDBRANCH   6  12
TORSDOF 3
ENDMDL
MODEL 6
REMARK VINA RESULT:    -4.890      2.699      4.973
REMARK INTER + INTRA:          -5.692
REMARK INTER:                  -5.592
REMARK INTRA:                  -0.100
REMARK UNBOUND:                -0.087
REMARK SMILES COc1cc(C(=O)[O-])ccc1O
REMARK SMILES IDX 5 1 9 2 4 3 10 4 3 5 11 6 6 7 7 8 8 9 2 10 1 11 12 12
REMARK H PARENT 12 13
REMARK Flexibility Score: inf
ROOT
ATOM      1  C   UNL     1      16.247  42.758   6.928  1.00  0.00     0.001 A 
ATOM      2  C   UNL     1      17.129  43.249   5.953  1.00  0.00     0.014 A 
ATOM      3  C   UNL     1      14.867  42.731   6.651  1.00  0.00     0.060 A 
ATOM      4  C   UNL     1      16.644  43.704   4.725  1.00  0.00     0.051 A 
ATOM      5  C   UNL     1      14.371  43.190   5.414  1.00  0.00     0.161 A 
ATOM      6  C   UNL     1      15.274  43.678   4.451  1.00  0.00     0.157 A 
ENDROOT
BRANCH   1   7
ATOM      7  C   UNL     1      16.766  42.276   8.227  1.00  0.00     0.072 C 
ATOM      8  O   UNL     1      16.220  41.304   8.815  1.00  0.00    -0.545 OA
ATOM      9  O   UNL     1      17.865  42.890   8.818  1.00  0.00    -0.545 OA
ENDBRANCH   1   7
BRANCH   5  10
ATOM     10  O   UNL     1      13.000  43.176   5.110  1.00  0.00    -0.493 OA
ATOM     11  C   UNL     1      12.267  42.016   4.732  1.00  0.00     0.278 C 
ENDBRANCH   5  10
BRANCH   6  12
ATOM     12  O   UNL     1      14.826  44.141   3.213  1.00  0.00    -0.504 OA
ATOM     13  H   UNL     1      13.972  44.676   3.113  1.00  0.00     0.293 HD
ENDBRANCH   6  12
TORSDOF 3
ENDMDL
MODEL 7
REMARK VINA RESULT:    -4.804      2.387      4.443
REMARK INTER + INTRA:          -5.592
REMARK INTER:                  -5.514
REMARK INTRA:                  -0.078
REMARK UNBOUND:                -0.087
REMARK SMILES COc1cc(C(=O)[O-])ccc1O
REMARK SMILES IDX 5 1 9 2 4 3 10 4 3 5 11 6 6 7 7 8 8 9 2 10 1 11 12 12
REMARK H PARENT 12 13
REMARK Flexibility Score: inf
ROOT
ATOM      1  C   UNL     1      16.219  43.315   7.036  1.00  0.00     0.001 A 
ATOM      2  C   UNL     1      16.774  42.997   5.787  1.00  0.00     0.014 A 
ATOM      3  C   UNL     1      15.360  44.425   7.142  1.00  0.00     0.060 A 
ATOM      4  C   UNL     1      16.477  43.772   4.664  1.00  0.00     0.051 A 
ATOM      5  C   UNL     1      15.057  45.211   6.011  1.00  0.00     0.161 A 
ATOM      6  C   UNL     1      15.625  44.874   4.769  1.00  0.00     0.157 A 
ENDROOT
BRANCH   1   7
ATOM      7  C   UNL     1      16.537  42.490   8.223  1.00  0.00     0.072 C 
ATOM      8  O   UNL     1      15.703  41.653   8.664  1.00  0.00    -0.545 OA
ATOM      9  O   UNL     1      17.760  42.627   8.870  1.00  0.00    -0.545 OA
ENDBRANCH   1   7
BRANCH   5  10
ATOM     10  O   UNL     1      14.205  46.325   6.086  1.00  0.00    -0.493 OA
ATOM     11  C   UNL     1      13.005  46.375   6.851  1.00  0.00     0.278 C 
ENDBRANCH   5  10
BRANCH   6  12
ATOM     12  O   UNL     1      15.351  45.625   3.625  1.00  0.00    -0.504 OA
ATOM     13  H   UNL     1      15.918  46.418   3.350  1.00  0.00     0.293 HD
ENDBRANCH   6  12
TORSDOF 3
ENDMDL
MODEL 8
REMARK VINA RESULT:    -4.797      1.704      2.762
REMARK INTER + INTRA:          -5.585
REMARK INTER:                  -5.491
REMARK INTRA:                  -0.094
REMARK UNBOUND:                -0.087
REMARK SMILES COc1cc(C(=O)[O-])ccc1O
REMARK SMILES IDX 5 1 9 2 4 3 10 4 3 5 11 6 6 7 7 8 8 9 2 10 1 11 12 12
REMARK H PARENT 12 13
REMARK Flexibility Score: inf
ROOT
ATOM      1  C   UNL     1      13.542  45.166   5.311  1.00  0.00     0.001 A 
ATOM      2  C   UNL     1      12.870  45.371   6.526  1.00  0.00     0.014 A 
ATOM      3  C   UNL     1      14.944  45.034   5.317  1.00  0.00     0.060 A 
ATOM      4  C   UNL     1      13.583  45.443   7.724  1.00  0.00     0.051 A 
ATOM      5  C   UNL     1      15.668  45.105   6.524  1.00  0.00     0.161 A 
ATOM      6  C   UNL     1      14.974  45.312   7.731  1.00  0.00     0.157 A 
ENDROOT
BRANCH   1   7
ATOM      7  C   UNL     1      12.782  45.090   4.043  1.00  0.00     0.072 C 
ATOM      8  O   UNL     1      12.273  46.126   3.537  1.00  0.00    -0.545 OA
ATOM      9  O   UNL     1      12.617  43.872   3.392  1.00  0.00    -0.545 OA
ENDBRANCH   1   7
BRANCH   5  10
ATOM     10  O   UNL     1      17.066  44.978   6.561  1.00  0.00    -0.493 OA
ATOM     11  C   UNL     1      17.765  43.739   6.624  1.00  0.00     0.278 C 
ENDBRANCH   5  10
BRANCH   6  12
ATOM     12  O   UNL     1      15.652  45.389   8.947  1.00  0.00    -0.504 OA
ATOM     13  H   UNL     1      16.653  45.536   9.000  1.00  0.00     0.293 HD
ENDBRANCH   6  12
TORSDOF 3
ENDMDL
MODEL 9
REMARK VINA RESULT:    -4.773      3.338      5.438
REMARK INTER + INTRA:          -5.557
REMARK INTER:                  -5.455
REMARK INTRA:                  -0.102
REMARK UNBOUND:                -0.087
REMARK SMILES COc1cc(C(=O)[O-])ccc1O
REMARK SMILES IDX 5 1 9 2 4 3 10 4 3 5 11 6 6 7 7 8 8 9 2 10 1 11 12 12
REMARK H PARENT 12 13
REMARK Flexibility Score: inf
ROOT
ATOM      1  C   UNL     1      15.719  41.963   8.423  1.00  0.00     0.001 A 
ATOM      2  C   UNL     1      17.006  42.515   8.510  1.00  0.00     0.014 A 
ATOM      3  C   UNL     1      14.715  42.671   7.735  1.00  0.00     0.060 A 
ATOM      4  C   UNL     1      17.286  43.751   7.923  1.00  0.00     0.051 A 
ATOM      5  C   UNL     1      14.993  43.919   7.141  1.00  0.00     0.161 A 
ATOM      6  C   UNL     1      16.290  44.454   7.241  1.00  0.00     0.157 A 
ENDROOT
BRANCH   1   7
ATOM      7  C   UNL     1      15.427  40.653   9.046  1.00  0.00     0.072 C 
ATOM      8  O   UNL     1      16.331  39.783   9.163  1.00  0.00    -0.545 OA
ATOM      9  O   UNL     1      14.149  40.362   9.512  1.00  0.00    -0.545 OA
ENDBRANCH   1   7
BRANCH   5  10
ATOM     10  O   UNL     1      14.011  44.648   6.450  1.00  0.00    -0.493 OA
ATOM     11  C   UNL     1      13.633  44.416   5.097  1.00  0.00     0.278 C 
ENDBRANCH   5  10
BRANCH   6  12
ATOM     12  O   UNL     1      16.607  45.685   6.667  1.00  0.00    -0.504 OA
ATOM     13  H   UNL     1      17.437  45.821   6.104  1.00  0.00     0.293 HD
ENDBRANCH   6  12
TORSDOF 3
ENDMDL
