MODEL 1
REMARK VINA RESULT:    -3.711      0.000      0.000
REMARK INTER + INTRA:          -7.340
REMARK INTER:                  -6.531
REMARK INTRA:                  -0.809
REMARK UNBOUND:                -0.809
REMARK SMILES CCCCCCCCCCCCCCC(=O)[O-]
REMARK SMILES IDX 9 1 10 2 11 3 12 4 13 5 14 6 15 7 16 8 17 9 8 10 7 11 6 12
REMARK SMILES IDX 5 13 4 14 3 15 2 16 1 17
REMARK H PARENT
REMARK Flexibility Score: inf
ROOT
ATOM      1  C   UNL     1       5.465 -36.914  20.497  1.00  0.00     0.000 C 
ENDROOT
BRANCH   1   2
ATOM      2  C   UNL     1       5.159 -35.485  20.991  1.00  0.00     0.000 C 
BRANCH   2   3
ATOM      3  C   UNL     1       6.124 -34.943  22.061  1.00  0.00     0.000 C 
BRANCH   3   4
ATOM      4  C   UNL     1       5.396 -34.374  23.288  1.00  0.00     0.000 C 
BRANCH   4   5
ATOM      5  C   UNL     1       6.050 -34.857  24.587  1.00  0.00     0.006 C 
BRANCH   5   6
ATOM      6  C   UNL     1       5.064 -35.671  25.430  1.00  0.00     0.053 C 
BRANCH   6   7
ATOM      7  C   UNL     1       5.492 -37.102  25.503  1.00  0.00     0.041 C 
ATOM      8  O   UNL     1       5.846 -37.603  26.602  1.00  0.00    -0.550 OA
ATOM      9  O   UNL     1       5.451 -37.899  24.365  1.00  0.00    -0.550 OA
ENDBRANCH   6   7
ENDBRANCH   5   6
ENDBRANCH   4   5
ENDBRANCH   3   4
ENDBRANCH   2   3
ENDBRANCH   1   2
BRANCH   1  10
ATOM     10  C   UNL     1       4.862 -37.273  19.128  1.00  0.00     0.000 C 
BRANCH  10  11
ATOM     11  C   UNL     1       3.823 -36.245  18.646  1.00  0.00    -0.000 C 
BRANCH  11  12
ATOM     12  C   UNL     1       2.571 -36.919  18.045  1.00  0.00    -0.000 C 
BRANCH  12  13
ATOM     13  C   UNL     1       2.146 -36.329  16.689  1.00  0.00    -0.000 C 
BRANCH  13  14
ATOM     14  C   UNL     1       3.256 -35.500  16.025  1.00  0.00    -0.000 C 
BRANCH  14  15
ATOM     15  C   UNL     1       3.324 -35.712  14.505  1.00  0.00    -0.000 C 
BRANCH  15  16
ATOM     16  C   UNL     1       4.533 -36.559  14.081  1.00  0.00    -0.003 C 
ATOM     17  C   UNL     1       4.291 -38.039  14.357  1.00  0.00     0.004 C 
ENDBRANCH  15  16
ENDBRANCH  14  15
ENDBRANCH  13  14
ENDBRANCH  12  13
ENDBRANCH  11  12
ENDBRANCH  10  11
ENDBRANCH   1  10
TORSDOF 13
ENDMDL
MODEL 2
REMARK VINA RESULT:    -3.297      1.780      2.711
REMARK INTER + INTRA:          -6.612
REMARK INTER:                  -5.982
REMARK INTRA:                  -0.631
REMARK UNBOUND:                -0.809
REMARK SMILES CCCCCCCCCCCCCCC(=O)[O-]
REMARK SMILES IDX 9 1 10 2 11 3 12 4 13 5 14 6 15 7 16 8 17 9 8 10 7 11 6 12
REMARK SMILES IDX 5 13 4 14 3 15 2 16 1 17
REMARK H PARENT
REMARK Flexibility Score: inf
ROOT
ATOM      1  C   UNL     1       4.857 -34.790  21.693  1.00  0.00     0.000 C 
ENDROOT
BRANCH   1   2
ATOM      2  C   UNL     1       6.010 -34.792  22.717  1.00  0.00     0.000 C 
BRANCH   2   3
ATOM      3  C   UNL     1       5.578 -34.940  24.188  1.00  0.00     0.000 C 
BRANCH   3   4
ATOM      4  C   UNL     1       5.350 -36.401  24.599  1.00  0.00     0.000 C 
BRANCH   4   5
ATOM      5  C   UNL     1       5.910 -37.363  23.545  1.00  0.00     0.006 C 
BRANCH   5   6
ATOM      6  C   UNL     1       5.234 -38.734  23.637  1.00  0.00     0.053 C 
BRANCH   6   7
ATOM      7  C   UNL     1       5.746 -39.644  22.565  1.00  0.00     0.041 C 
ATOM      8  O   UNL     1       6.116 -39.173  21.458  1.00  0.00    -0.550 OA
ATOM      9  O   UNL     1       5.862 -41.007  22.807  1.00  0.00    -0.550 OA
ENDBRANCH   6   7
ENDBRANCH   5   6
ENDBRANCH   4   5
ENDBRANCH   3   4
ENDBRANCH   2   3
ENDBRANCH   1   2
BRANCH   1  10
ATOM     10  C   UNL     1       5.284 -34.996  20.230  1.00  0.00     0.000 C 
BRANCH  10  11
ATOM     11  C   UNL     1       5.083 -36.444  19.749  1.00  0.00    -0.000 C 
BRANCH  11  12
ATOM     12  C   UNL     1       3.658 -36.685  19.206  1.00  0.00    -0.000 C 
BRANCH  12  13
ATOM     13  C   UNL     1       3.576 -36.675  17.670  1.00  0.00    -0.000 C 
BRANCH  13  14
ATOM     14  C   UNL     1       2.146 -36.463  17.149  1.00  0.00    -0.000 C 
BRANCH  14  15
ATOM     15  C   UNL     1       2.113 -35.872  15.731  1.00  0.00    -0.000 C 
BRANCH  15  16
ATOM     16  C   UNL     1       3.515 -35.538  15.199  1.00  0.00    -0.003 C 
ATOM     17  C   UNL     1       3.937 -36.519  14.110  1.00  0.00     0.004 C 
ENDBRANCH  15  16
ENDBRANCH  14  15
ENDBRANCH  13  14
ENDBRANCH  12  13
ENDBRANCH  11  12
ENDBRANCH  10  11
ENDBRANCH   1  10
TORSDOF 13
ENDMDL
MODEL 3
REMARK VINA RESULT:    -3.217      3.957      8.047
REMARK INTER + INTRA:          -6.471
REMARK INTER:                  -5.518
REMARK INTRA:                  -0.953
REMARK UNBOUND:                -0.809
REMARK SMILES CCCCCCCCCCCCCCC(=O)[O-]
REMARK SMILES IDX 9 1 10 2 11 3 12 4 13 5 14 6 15 7 16 8 17 9 8 10 7 11 6 12
REMARK SMILES IDX 5 13 4 14 3 15 2 16 1 17
REMARK H PARENT
REMARK Flexibility Score: inf
ROOT
ATOM      1  C   UNL     1       5.798 -35.310  21.713  1.00  0.00     0.000 C 
ENDROOT
BRANCH   1   2
ATOM      2  C   UNL     1       5.153 -35.104  20.327  1.00  0.00     0.000 C 
BRANCH   2   3
ATOM      3  C   UNL     1       4.955 -36.389  19.501  1.00  0.00     0.000 C 
BRANCH   3   4
ATOM      4  C   UNL     1       3.476 -36.743  19.293  1.00  0.00     0.000 C 
BRANCH   4   5
ATOM      5  C   UNL     1       3.152 -36.896  17.803  1.00  0.00     0.006 C 
BRANCH   5   6
ATOM      6  C   UNL     1       3.663 -35.695  17.002  1.00  0.00     0.053 C 
BRANCH   6   7
ATOM      7  C   UNL     1       3.020 -35.652  15.652  1.00  0.00     0.041 C 
ATOM      8  O   UNL     1       3.728 -35.682  14.612  1.00  0.00    -0.550 OA
ATOM      9  O   UNL     1       1.635 -35.630  15.542  1.00  0.00    -0.550 OA
ENDBRANCH   6   7
ENDBRANCH   5   6
ENDBRANCH   4   5
ENDBRANCH   3   4
ENDBRANCH   2   3
ENDBRANCH   1   2
BRANCH   1  10
ATOM     10  C   UNL     1       5.073 -34.614  22.878  1.00  0.00     0.000 C 
BRANCH  10  11
ATOM     11  C   UNL     1       6.029 -34.195  24.009  1.00  0.00    -0.000 C 
BRANCH  11  12
ATOM     12  C   UNL     1       6.125 -35.264  25.118  1.00  0.00    -0.000 C 
BRANCH  12  13
ATOM     13  C   UNL     1       4.963 -36.273  25.100  1.00  0.00    -0.000 C 
BRANCH  13  14
ATOM     14  C   UNL     1       5.374 -37.666  25.602  1.00  0.00    -0.000 C 
BRANCH  14  15
ATOM     15  C   UNL     1       5.032 -38.781  24.602  1.00  0.00    -0.000 C 
BRANCH  15  16
ATOM     16  C   UNL     1       5.478 -38.446  23.171  1.00  0.00    -0.003 C 
ATOM     17  C   UNL     1       5.748 -39.715  22.368  1.00  0.00     0.004 C 
ENDBRANCH  15  16
ENDBRANCH  14  15
ENDBRANCH  13  14
ENDBRANCH  12  13
ENDBRANCH  11  12
ENDBRANCH  10  11
ENDBRANCH   1  10
TORSDOF 13
ENDMDL
MODEL 4
REMARK VINA RESULT:    -2.967      1.696      3.398
REMARK INTER + INTRA:          -6.032
REMARK INTER:                  -5.148
REMARK INTRA:                  -0.884
REMARK UNBOUND:                -0.809
REMARK SMILES CCCCCCCCCCCCCCC(=O)[O-]
REMARK SMILES IDX 9 1 10 2 11 3 12 4 13 5 14 6 15 7 16 8 17 9 8 10 7 11 6 12
REMARK SMILES IDX 5 13 4 14 3 15 2 16 1 17
REMARK H PARENT
REMARK Flexibility Score: inf
ROOT
ATOM      1  C   UNL     1       5.260 -34.296  23.218  1.00  0.00     0.000 C 
ENDROOT
BRANCH   1   2
ATOM      2  C   UNL     1       6.125 -35.307  23.998  1.00  0.00     0.000 C 
BRANCH   2   3
ATOM      3  C   UNL     1       5.593 -35.682  25.394  1.00  0.00     0.000 C 
BRANCH   3   4
ATOM      4  C   UNL     1       5.371 -37.192  25.562  1.00  0.00     0.000 C 
BRANCH   4   5
ATOM      5  C   UNL     1       4.833 -37.816  24.270  1.00  0.00     0.006 C 
BRANCH   5   6
ATOM      6  C   UNL     1       5.471 -39.184  24.012  1.00  0.00     0.053 C 
BRANCH   6   7
ATOM      7  C   UNL     1       5.733 -39.374  22.552  1.00  0.00     0.041 C 
ATOM      8  O   UNL     1       5.846 -40.534  22.074  1.00  0.00    -0.550 OA
ATOM      9  O   UNL     1       5.802 -38.272  21.708  1.00  0.00    -0.550 OA
ENDBRANCH   6   7
ENDBRANCH   5   6
ENDBRANCH   4   5
ENDBRANCH   3   4
ENDBRANCH   2   3
ENDBRANCH   1   2
BRANCH   1  10
ATOM     10  C   UNL     1       4.703 -34.811  21.879  1.00  0.00     0.000 C 
BRANCH  10  11
ATOM     11  C   UNL     1       5.794 -34.981  20.807  1.00  0.00    -0.000 C 
BRANCH  11  12
ATOM     12  C   UNL     1       5.206 -35.020  19.379  1.00  0.00    -0.000 C 
BRANCH  12  13
ATOM     13  C   UNL     1       4.730 -36.418  18.949  1.00  0.00    -0.000 C 
BRANCH  13  14
ATOM     14  C   UNL     1       3.328 -36.404  18.319  1.00  0.00    -0.000 C 
BRANCH  14  15
ATOM     15  C   UNL     1       3.343 -36.799  16.835  1.00  0.00    -0.000 C 
BRANCH  15  16
ATOM     16  C   UNL     1       3.196 -35.588  15.901  1.00  0.00    -0.003 C 
ATOM     17  C   UNL     1       3.362 -35.997  14.441  1.00  0.00     0.004 C 
ENDBRANCH  15  16
ENDBRANCH  14  15
ENDBRANCH  13  14
ENDBRANCH  12  13
ENDBRANCH  11  12
ENDBRANCH  10  11
ENDBRANCH   1  10
TORSDOF 13
ENDMDL
MODEL 5
REMARK VINA RESULT:    -2.705      3.907      8.584
REMARK INTER + INTRA:          -5.570
REMARK INTER:                  -4.858
REMARK INTRA:                  -0.712
REMARK UNBOUND:                -0.809
REMARK SMILES CCCCCCCCCCCCCCC(=O)[O-]
REMARK SMILES IDX 9 1 10 2 11 3 12 4 13 5 14 6 15 7 16 8 17 9 8 10 7 11 6 12
REMARK SMILES IDX 5 13 4 14 3 15 2 16 1 17
REMARK H PARENT
REMARK Flexibility Score: inf
ROOT
ATOM      1  C   UNL     1       3.264 -37.056  19.961  1.00  0.00     0.000 C 
ENDROOT
BRANCH   1   2
ATOM      2  C   UNL     1       2.378 -37.153  18.703  1.00  0.00     0.000 C 
BRANCH   2   3
ATOM      3  C   UNL     1       3.053 -36.708  17.392  1.00  0.00     0.000 C 
BRANCH   3   4
ATOM      4  C   UNL     1       2.078 -36.031  16.419  1.00  0.00     0.000 C 
BRANCH   4   5
ATOM      5  C   UNL     1       2.834 -35.319  15.291  1.00  0.00     0.006 C 
BRANCH   5   6
ATOM      6  C   UNL     1       2.982 -36.229  14.068  1.00  0.00     0.053 C 
BRANCH   6   7
ATOM      7  C   UNL     1       4.296 -36.944  14.102  1.00  0.00     0.041 C 
ATOM      8  O   UNL     1       5.364 -36.318  13.875  1.00  0.00    -0.550 OA
ATOM      9  O   UNL     1       4.345 -38.292  14.435  1.00  0.00    -0.550 OA
ENDBRANCH   6   7
ENDBRANCH   5   6
ENDBRANCH   4   5
ENDBRANCH   3   4
ENDBRANCH   2   3
ENDBRANCH   1   2
BRANCH   1  10
ATOM     10  C   UNL     1       4.678 -36.499  19.721  1.00  0.00     0.000 C 
BRANCH  10  11
ATOM     11  C   UNL     1       5.726 -37.102  20.674  1.00  0.00    -0.000 C 
BRANCH  11  12
ATOM     12  C   UNL     1       5.678 -36.457  22.076  1.00  0.00    -0.000 C 
BRANCH  12  13
ATOM     13  C   UNL     1       5.471 -34.932  22.044  1.00  0.00    -0.000 C 
BRANCH  13  14
ATOM     14  C   UNL     1       5.419 -34.307  23.447  1.00  0.00    -0.000 C 
BRANCH  14  15
ATOM     15  C   UNL     1       6.109 -35.178  24.508  1.00  0.00    -0.000 C 
BRANCH  15  16
ATOM     16  C   UNL     1       5.116 -35.779  25.514  1.00  0.00    -0.003 C 
ATOM     17  C   UNL     1       5.417 -37.252  25.771  1.00  0.00     0.004 C 
ENDBRANCH  15  16
ENDBRANCH  14  15
ENDBRANCH  13  14
ENDBRANCH  12  13
ENDBRANCH  11  12
ENDBRANCH  10  11
ENDBRANCH   1  10
TORSDOF 13
ENDMDL
MODEL 6
REMARK VINA RESULT:    -2.343      3.936      7.982
REMARK INTER + INTRA:          -4.932
REMARK INTER:                  -4.048
REMARK INTRA:                  -0.884
REMARK UNBOUND:                -0.809
REMARK SMILES CCCCCCCCCCCCCCC(=O)[O-]
REMARK SMILES IDX 9 1 10 2 11 3 12 4 13 5 14 6 15 7 16 8 17 9 8 10 7 11 6 12
REMARK SMILES IDX 5 13 4 14 3 15 2 16 1 17
REMARK H PARENT
REMARK Flexibility Score: inf
ROOT
ATOM      1  C   UNL     1       5.446 -38.954  21.523  1.00  0.00     0.000 C 
ENDROOT
BRANCH   1   2
ATOM      2  C   UNL     1       5.591 -37.480  21.096  1.00  0.00     0.000 C 
BRANCH   2   3
ATOM      3  C   UNL     1       5.299 -37.199  19.610  1.00  0.00     0.000 C 
BRANCH   3   4
ATOM      4  C   UNL     1       3.988 -36.431  19.394  1.00  0.00     0.000 C 
BRANCH   4   5
ATOM      5  C   UNL     1       3.367 -36.775  18.036  1.00  0.00     0.006 C 
BRANCH   5   6
ATOM      6  C   UNL     1       3.796 -35.770  16.963  1.00  0.00     0.053 C 
BRANCH   6   7
ATOM      7  C   UNL     1       3.097 -36.051  15.671  1.00  0.00     0.041 C 
ATOM      8  O   UNL     1       1.885 -35.742  15.525  1.00  0.00    -0.550 OA
ATOM      9  O   UNL     1       3.797 -36.610  14.609  1.00  0.00    -0.550 OA
ENDBRANCH   6   7
ENDBRANCH   5   6
ENDBRANCH   4   5
ENDBRANCH   3   4
ENDBRANCH   2   3
ENDBRANCH   1   2
BRANCH   1  10
ATOM     10  C   UNL     1       5.801 -39.245  22.992  1.00  0.00     0.000 C 
BRANCH  10  11
ATOM     11  C   UNL     1       4.819 -38.594  23.982  1.00  0.00    -0.000 C 
BRANCH  11  12
ATOM     12  C   UNL     1       5.528 -38.080  25.253  1.00  0.00    -0.000 C 
BRANCH  12  13
ATOM     13  C   UNL     1       4.952 -36.755  25.784  1.00  0.00    -0.000 C 
BRANCH  13  14
ATOM     14  C   UNL     1       5.833 -35.543  25.443  1.00  0.00    -0.000 C 
BRANCH  14  15
ATOM     15  C   UNL     1       5.994 -35.336  23.930  1.00  0.00    -0.000 C 
BRANCH  15  16
ATOM     16  C   UNL     1       5.360 -34.025  23.442  1.00  0.00    -0.003 C 
ATOM     17  C   UNL     1       4.659 -34.218  22.102  1.00  0.00     0.004 C 
ENDBRANCH  15  16
ENDBRANCH  14  15
ENDBRANCH  13  14
ENDBRANCH  12  13
ENDBRANCH  11  12
ENDBRANCH  10  11
ENDBRANCH   1  10
TORSDOF 13
ENDMDL
MODEL 7
REMARK VINA RESULT:    -2.101      3.640      8.278
REMARK INTER + INTRA:          -4.507
REMARK INTER:                  -3.777
REMARK INTRA:                  -0.730
REMARK UNBOUND:                -0.809
REMARK SMILES CCCCCCCCCCCCCCC(=O)[O-]
REMARK SMILES IDX 9 1 10 2 11 3 12 4 13 5 14 6 15 7 16 8 17 9 8 10 7 11 6 12
REMARK SMILES IDX 5 13 4 14 3 15 2 16 1 17
REMARK H PARENT
REMARK Flexibility Score: inf
ROOT
ATOM      1  C   UNL     1       4.551 -35.881  20.063  1.00  0.00     0.000 C 
ENDROOT
BRANCH   1   2
ATOM      2  C   UNL     1       3.913 -36.570  18.840  1.00  0.00     0.000 C 
BRANCH   2   3
ATOM      3  C   UNL     1       2.593 -37.312  19.122  1.00  0.00     0.000 C 
BRANCH   3   4
ATOM      4  C   UNL     1       1.385 -36.663  18.432  1.00  0.00     0.000 C 
BRANCH   4   5
ATOM      5  C   UNL     1       1.378 -36.971  16.931  1.00  0.00     0.006 C 
BRANCH   5   6
ATOM      6  C   UNL     1       1.711 -35.721  16.111  1.00  0.00     0.053 C 
BRANCH   6   7
ATOM      7  C   UNL     1       3.149 -35.732  15.698  1.00  0.00     0.041 C 
ATOM      8  O   UNL     1       3.921 -34.808  16.064  1.00  0.00    -0.550 OA
ATOM      9  O   UNL     1       3.648 -36.791  14.950  1.00  0.00    -0.550 OA
ENDBRANCH   6   7
ENDBRANCH   5   6
ENDBRANCH   4   5
ENDBRANCH   3   4
ENDBRANCH   2   3
ENDBRANCH   1   2
BRANCH   1  10
ATOM     10  C   UNL     1       5.551 -36.745  20.851  1.00  0.00     0.000 C 
BRANCH  10  11
ATOM     11  C   UNL     1       6.125 -36.020  22.080  1.00  0.00    -0.000 C 
BRANCH  11  12
ATOM     12  C   UNL     1       5.504 -34.621  22.274  1.00  0.00    -0.000 C 
BRANCH  12  13
ATOM     13  C   UNL     1       5.483 -34.156  23.741  1.00  0.00    -0.000 C 
BRANCH  13  14
ATOM     14  C   UNL     1       6.125 -35.172  24.699  1.00  0.00    -0.000 C 
BRANCH  14  15
ATOM     15  C   UNL     1       5.092 -35.880  25.589  1.00  0.00    -0.000 C 
BRANCH  15  16
ATOM     16  C   UNL     1       5.524 -37.302  25.977  1.00  0.00    -0.003 C 
ATOM     17  C   UNL     1       5.258 -38.286  24.843  1.00  0.00     0.004 C 
ENDBRANCH  15  16
ENDBRANCH  14  15
ENDBRANCH  13  14
ENDBRANCH  12  13
ENDBRANCH  11  12
ENDBRANCH  10  11
ENDBRANCH   1  10
TORSDOF 13
ENDMDL
MODEL 8
REMARK VINA RESULT:    -2.077      1.544      2.446
REMARK INTER + INTRA:          -4.465
REMARK INTER:                  -3.812
REMARK INTRA:                  -0.653
REMARK UNBOUND:                -0.809
REMARK SMILES CCCCCCCCCCCCCCC(=O)[O-]
REMARK SMILES IDX 9 1 10 2 11 3 12 4 13 5 14 6 15 7 16 8 17 9 8 10 7 11 6 12
REMARK SMILES IDX 5 13 4 14 3 15 2 16 1 17
REMARK H PARENT
REMARK Flexibility Score: inf
ROOT
ATOM      1  C   UNL     1       5.542 -36.276  21.505  1.00  0.00     0.000 C 
ENDROOT
BRANCH   1   2
ATOM      2  C   UNL     1       5.945 -37.757  21.363  1.00  0.00     0.000 C 
BRANCH   2   3
ATOM      3  C   UNL     1       4.973 -38.763  22.008  1.00  0.00     0.000 C 
BRANCH   3   4
ATOM      4  C   UNL     1       5.668 -39.723  22.983  1.00  0.00     0.000 C 
BRANCH   4   5
ATOM      5  C   UNL     1       5.404 -39.316  24.437  1.00  0.00     0.006 C 
BRANCH   5   6
ATOM      6  C   UNL     1       4.778 -37.920  24.513  1.00  0.00     0.053 C 
BRANCH   6   7
ATOM      7  C   UNL     1       5.534 -37.058  25.473  1.00  0.00     0.041 C 
ATOM      8  O   UNL     1       5.912 -37.523  26.580  1.00  0.00    -0.550 OA
ATOM      9  O   UNL     1       5.865 -35.754  25.125  1.00  0.00    -0.550 OA
ENDBRANCH   6   7
ENDBRANCH   5   6
ENDBRANCH   4   5
ENDBRANCH   3   4
ENDBRANCH   2   3
ENDBRANCH   1   2
BRANCH   1  10
ATOM     10  C   UNL     1       5.318 -35.531  20.177  1.00  0.00     0.000 C 
BRANCH  10  11
ATOM     11  C   UNL     1       4.739 -36.437  19.077  1.00  0.00    -0.000 C 
BRANCH  11  12
ATOM     12  C   UNL     1       3.257 -36.788  19.331  1.00  0.00    -0.000 C 
BRANCH  12  13
ATOM     13  C   UNL     1       2.401 -36.799  18.053  1.00  0.00    -0.000 C 
BRANCH  13  14
ATOM     14  C   UNL     1       3.209 -36.465  16.789  1.00  0.00    -0.000 C 
BRANCH  14  15
ATOM     15  C   UNL     1       2.369 -35.748  15.721  1.00  0.00    -0.000 C 
BRANCH  15  16
ATOM     16  C   UNL     1       3.021 -35.790  14.331  1.00  0.00    -0.003 C 
ATOM     17  C   UNL     1       4.130 -36.836  14.276  1.00  0.00     0.004 C 
ENDBRANCH  15  16
ENDBRANCH  14  15
ENDBRANCH  13  14
ENDBRANCH  12  13
ENDBRANCH  11  12
ENDBRANCH  10  11
ENDBRANCH   1  10
TORSDOF 13
ENDMDL
MODEL 9
REMARK VINA RESULT:    -1.736      3.814      8.184
REMARK INTER + INTRA:          -3.865
REMARK INTER:                  -3.298
REMARK INTRA:                  -0.567
REMARK UNBOUND:                -0.809
REMARK SMILES CCCCCCCCCCCCCCC(=O)[O-]
REMARK SMILES IDX 9 1 10 2 11 3 12 4 13 5 14 6 15 7 16 8 17 9 8 10 7 11 6 12
REMARK SMILES IDX 5 13 4 14 3 15 2 16 1 17
REMARK H PARENT
REMARK Flexibility Score: inf
ROOT
ATOM      1  C   UNL     1       5.302 -36.609  21.119  1.00  0.00     0.000 C 
ENDROOT
BRANCH   1   2
ATOM      2  C   UNL     1       5.545 -35.437  20.147  1.00  0.00     0.000 C 
BRANCH   2   3
ATOM      3  C   UNL     1       4.680 -35.455  18.873  1.00  0.00     0.000 C 
BRANCH   3   4
ATOM      4  C   UNL     1       3.803 -36.710  18.765  1.00  0.00     0.000 C 
BRANCH   4   5
ATOM      5  C   UNL     1       2.928 -36.662  17.508  1.00  0.00     0.006 C 
BRANCH   5   6
ATOM      6  C   UNL     1       3.498 -35.683  16.477  1.00  0.00     0.053 C 
BRANCH   6   7
ATOM      7  C   UNL     1       3.555 -36.319  15.124  1.00  0.00     0.041 C 
ATOM      8  O   UNL     1       3.913 -37.520  15.003  1.00  0.00    -0.550 OA
ATOM      9  O   UNL     1       3.163 -35.601  14.001  1.00  0.00    -0.550 OA
ENDBRANCH   6   7
ENDBRANCH   5   6
ENDBRANCH   4   5
ENDBRANCH   3   4
ENDBRANCH   2   3
ENDBRANCH   1   2
BRANCH   1  10
ATOM     10  C   UNL     1       5.797 -37.980  20.625  1.00  0.00     0.000 C 
BRANCH  10  11
ATOM     11  C   UNL     1       6.125 -38.946  21.777  1.00  0.00    -0.000 C 
BRANCH  11  12
ATOM     12  C   UNL     1       4.899 -39.218  22.676  1.00  0.00    -0.000 C 
BRANCH  12  13
ATOM     13  C   UNL     1       5.206 -39.119  24.180  1.00  0.00    -0.000 C 
BRANCH  13  14
ATOM     14  C   UNL     1       5.787 -37.754  24.582  1.00  0.00    -0.000 C 
BRANCH  14  15
ATOM     15  C   UNL     1       4.818 -36.931  25.446  1.00  0.00    -0.000 C 
BRANCH  15  16
ATOM     16  C   UNL     1       5.228 -35.454  25.546  1.00  0.00    -0.003 C 
ATOM     17  C   UNL     1       5.858 -34.969  24.245  1.00  0.00     0.004 C 
ENDBRANCH  15  16
ENDBRANCH  14  15
ENDBRANCH  13  14
ENDBRANCH  12  13
ENDBRANCH  11  12
ENDBRANCH  10  11
ENDBRANCH   1  10
TORSDOF 13
ENDMDL
