MODEL 1
REMARK VINA RESULT:     5.241      0.000      0.000
REMARK INTER + INTRA:          11.956
REMARK INTER:                   9.837
REMARK INTRA:                   2.120
REMARK UNBOUND:                 2.120
REMARK SMILES O=C([O-])CCCCCCCCCCCCCCC(=O)[O-]
REMARK SMILES IDX 10 1 9 2 8 3 7 4 6 5 5 6 4 7 2 8 1 9 3 10 11 11 12 12 13 13
REMARK SMILES IDX 14 14 15 15 16 16 17 17 18 18 19 19 20 20
REMARK H PARENT
REMARK Flexibility Score: inf
ROOT
ATOM      1  C   UNL     1      67.471  55.214   8.745  1.00  0.00     0.000 C 
ENDROOT
BRANCH   1   2
ATOM      2  C   UNL     1      68.822  54.521   8.504  1.00  0.00     0.000 C 
BRANCH   2   3
ATOM      3  C   UNL     1      69.814  54.738   9.658  1.00  0.00     0.000 C 
BRANCH   3   4
ATOM      4  C   UNL     1      69.291  54.106  10.954  1.00  0.00     0.000 C 
BRANCH   4   5
ATOM      5  C   UNL     1      67.755  54.081  10.974  1.00  0.00     0.000 C 
BRANCH   5   6
ATOM      6  C   UNL     1      67.189  52.660  11.125  1.00  0.00     0.006 C 
BRANCH   6   7
ATOM      7  C   UNL     1      65.688  52.584  10.813  1.00  0.00     0.053 C 
BRANCH   7   8
ATOM      8  C   UNL     1      65.353  51.268  10.185  1.00  0.00     0.041 C 
ATOM      9  O   UNL     1      65.046  51.207   8.965  1.00  0.00    -0.550 OA
ATOM     10  O   UNL     1      65.432  50.100  10.935  1.00  0.00    -0.550 OA
ENDBRANCH   7   8
ENDBRANCH   6   7
ENDBRANCH   5   6
ENDBRANCH   4   5
ENDBRANCH   3   4
ENDBRANCH   2   3
ENDBRANCH   1   2
BRANCH   1  11
ATOM     11  C   UNL     1      67.621  56.584   9.423  1.00  0.00     0.000 C 
BRANCH  11  12
ATOM     12  C   UNL     1      66.799  56.650  10.716  1.00  0.00     0.000 C 
BRANCH  12  13
ATOM     13  C   UNL     1      65.350  57.060  10.428  1.00  0.00     0.000 C 
BRANCH  13  14
ATOM     14  C   UNL     1      65.298  58.312   9.540  1.00  0.00     0.000 C 
BRANCH  14  15
ATOM     15  C   UNL     1      63.865  58.697   9.138  1.00  0.00     0.000 C 
BRANCH  15  16
ATOM     16  C   UNL     1      62.813  58.185  10.138  1.00  0.00     0.006 C 
BRANCH  16  17
ATOM     17  C   UNL     1      61.901  57.116   9.521  1.00  0.00     0.053 C 
BRANCH  17  18
ATOM     18  C   UNL     1      62.275  55.735   9.968  1.00  0.00     0.041 C 
ATOM     19  O   UNL     1      62.937  55.570  11.026  1.00  0.00    -0.550 OA
ATOM     20  O   UNL     1      61.875  54.631   9.224  1.00  0.00    -0.550 OA
ENDBRANCH  17  18
ENDBRANCH  16  17
ENDBRANCH  15  16
ENDBRANCH  14  15
ENDBRANCH  13  14
ENDBRANCH  12  13
ENDBRANCH  11  12
ENDBRANCH   1  11
TORSDOF 15
ENDMDL
MODEL 2
REMARK VINA RESULT:     5.832      4.339      5.537
REMARK INTER + INTRA:          13.065
REMARK INTER:                  10.577
REMARK INTRA:                   2.488
REMARK UNBOUND:                 2.120
REMARK SMILES O=C([O-])CCCCCCCCCCCCCCC(=O)[O-]
REMARK SMILES IDX 10 1 9 2 8 3 7 4 6 5 5 6 4 7 2 8 1 9 3 10 11 11 12 12 13 13
REMARK SMILES IDX 14 14 15 15 16 16 17 17 18 18 19 19 20 20
REMARK H PARENT
REMARK Flexibility Score: inf
ROOT
ATOM      1  C   UNL     1      67.726  55.811   8.397  1.00  0.00     0.000 C 
ENDROOT
BRANCH   1   2
ATOM      2  C   UNL     1      68.581  54.692   9.013  1.00  0.00     0.000 C 
BRANCH   2   3
ATOM      3  C   UNL     1      68.570  54.716  10.549  1.00  0.00     0.000 C 
BRANCH   3   4
ATOM      4  C   UNL     1      69.992  54.866  11.104  1.00  0.00     0.000 C 
BRANCH   4   5
ATOM      5  C   UNL     1      70.472  56.323  11.002  1.00  0.00     0.000 C 
BRANCH   5   6
ATOM      6  C   UNL     1      71.999  56.452  11.124  1.00  0.00     0.006 C 
BRANCH   6   7
ATOM      7  C   UNL     1      72.471  57.912  11.125  1.00  0.00     0.053 C 
BRANCH   7   8
ATOM      8  C   UNL     1      73.885  58.002  10.644  1.00  0.00     0.041 C 
ATOM      9  O   UNL     1      74.720  57.114  10.959  1.00  0.00    -0.550 OA
ATOM     10  O   UNL     1      74.268  59.039   9.800  1.00  0.00    -0.550 OA
ENDBRANCH   7   8
ENDBRANCH   6   7
ENDBRANCH   5   6
ENDBRANCH   4   5
ENDBRANCH   3   4
ENDBRANCH   2   3
ENDBRANCH   1   2
BRANCH   1  11
ATOM     11  C   UNL     1      66.666  56.350   9.369  1.00  0.00     0.000 C 
BRANCH  11  12
ATOM     12  C   UNL     1      66.329  55.311  10.446  1.00  0.00     0.000 C 
BRANCH  12  13
ATOM     13  C   UNL     1      64.823  55.031  10.490  1.00  0.00     0.000 C 
BRANCH  13  14
ATOM     14  C   UNL     1      64.060  56.217  11.099  1.00  0.00     0.000 C 
BRANCH  14  15
ATOM     15  C   UNL     1      62.538  55.998  11.118  1.00  0.00     0.000 C 
BRANCH  15  16
ATOM     16  C   UNL     1      61.960  55.747   9.714  1.00  0.00     0.006 C 
BRANCH  16  17
ATOM     17  C   UNL     1      62.075  56.983   8.812  1.00  0.00     0.053 C 
BRANCH  17  18
ATOM     18  C   UNL     1      62.858  58.082   9.463  1.00  0.00     0.041 C 
ATOM     19  O   UNL     1      64.049  58.301   9.117  1.00  0.00    -0.550 OA
ATOM     20  O   UNL     1      62.267  58.875  10.439  1.00  0.00    -0.550 OA
ENDBRANCH  17  18
ENDBRANCH  16  17
ENDBRANCH  15  16
ENDBRANCH  14  15
ENDBRANCH  13  14
ENDBRANCH  12  13
ENDBRANCH  11  12
ENDBRANCH   1  11
TORSDOF 15
ENDMDL
