MODEL 1
REMARK VINA RESULT:    -2.502      0.000      0.000
REMARK INTER + INTRA:          -2.502
REMARK INTER:                  -2.502
REMARK INTRA:                   0.000
REMARK UNBOUND:                 0.000
REMARK SMILES CC(=O)[O-]
REMARK SMILES IDX 1 1 2 2 3 3 4 4
REMARK H PARENT
REMARK Flexibility Score: inf
ROOT
ATOM      1  C   UNL     1      17.907  53.029  83.731  1.00  0.00     0.063 C 
ATOM      2  C   UNL     1      17.263  53.180  82.396  1.00  0.00     0.038 C 
ATOM      3  O   UNL     1      17.798  52.672  81.375  1.00  0.00    -0.550 OA
ATOM      4  O   UNL     1      16.099  53.928  82.264  1.00  0.00    -0.550 OA
ENDROOT
TORSDOF 0
ENDMDL
MODEL 2
REMARK VINA RESULT:    -2.494      1.688      1.853
REMARK INTER + INTRA:          -2.494
REMARK INTER:                  -2.494
REMARK INTRA:                   0.000
REMARK UNBOUND:                 0.000
REMARK SMILES CC(=O)[O-]
REMARK SMILES IDX 1 1 2 2 3 3 4 4
REMARK H PARENT
REMARK Flexibility Score: inf
ROOT
ATOM      1  C   UNL     1      19.207  52.118  82.587  1.00  0.00     0.063 C 
ATOM      2  C   UNL     1      17.908  52.802  82.844  1.00  0.00     0.038 C 
ATOM      3  O   UNL     1      17.621  53.197  84.005  1.00  0.00    -0.550 OA
ATOM      4  O   UNL     1      16.986  52.958  81.816  1.00  0.00    -0.550 OA
ENDROOT
TORSDOF 0
ENDMDL
MODEL 3
REMARK VINA RESULT:    -2.477      1.926      2.179
REMARK INTER + INTRA:          -2.477
REMARK INTER:                  -2.477
REMARK INTRA:                   0.000
REMARK UNBOUND:                 0.000
REMARK SMILES CC(=O)[O-]
REMARK SMILES IDX 1 1 2 2 3 3 4 4
REMARK H PARENT
REMARK Flexibility Score: inf
ROOT
ATOM      1  C   UNL     1      17.260  52.901  81.841  1.00  0.00     0.063 C 
ATOM      2  C   UNL     1      18.243  52.454  82.869  1.00  0.00     0.038 C 
ATOM      3  O   UNL     1      19.335  51.937  82.516  1.00  0.00    -0.550 OA
ATOM      4  O   UNL     1      17.934  52.558  84.220  1.00  0.00    -0.550 OA
ENDROOT
TORSDOF 0
ENDMDL
MODEL 4
REMARK VINA RESULT:    -2.112      3.348      3.679
REMARK INTER + INTRA:          -2.112
REMARK INTER:                  -2.112
REMARK INTRA:                   0.000
REMARK UNBOUND:                 0.000
REMARK SMILES CC(=O)[O-]
REMARK SMILES IDX 1 1 2 2 3 3 4 4
REMARK H PARENT
REMARK Flexibility Score: inf
ROOT
ATOM      1  C   UNL     1      15.120  53.967  82.191  1.00  0.00     0.063 C 
ATOM      2  C   UNL     1      13.876  53.964  81.370  1.00  0.00     0.038 C 
ATOM      3  O   UNL     1      13.531  52.923  80.751  1.00  0.00    -0.550 OA
ATOM      4  O   UNL     1      13.124  55.125  81.240  1.00  0.00    -0.550 OA
ENDROOT
TORSDOF 0
ENDMDL
MODEL 5
REMARK VINA RESULT:    -1.838      2.498      3.125
REMARK INTER + INTRA:          -1.838
REMARK INTER:                  -1.838
REMARK INTRA:                   0.000
REMARK UNBOUND:                 0.000
REMARK SMILES CC(=O)[O-]
REMARK SMILES IDX 1 1 2 2 3 3 4 4
REMARK H PARENT
REMARK Flexibility Score: inf
ROOT
ATOM      1  C   UNL     1      13.823  54.365  81.459  1.00  0.00     0.063 C 
ATOM      2  C   UNL     1      14.923  54.101  82.430  1.00  0.00     0.038 C 
ATOM      3  O   UNL     1      16.075  53.806  82.015  1.00  0.00    -0.550 OA
ATOM      4  O   UNL     1      14.667  54.126  83.795  1.00  0.00    -0.550 OA
ENDROOT
TORSDOF 0
ENDMDL
MODEL 6
REMARK VINA RESULT:    -1.690     12.655     13.328
REMARK INTER + INTRA:          -1.690
REMARK INTER:                  -1.690
REMARK INTRA:                   0.000
REMARK UNBOUND:                 0.000
REMARK SMILES CC(=O)[O-]
REMARK SMILES IDX 1 1 2 2 3 3 4 4
REMARK H PARENT
REMARK Flexibility Score: inf
ROOT
ATOM      1  C   UNL     1      25.769  44.880  85.233  1.00  0.00     0.063 C 
ATOM      2  C   UNL     1      27.180  44.787  84.761  1.00  0.00     0.038 C 
ATOM      3  O   UNL     1      27.509  45.286  83.652  1.00  0.00    -0.550 OA
ATOM      4  O   UNL     1      28.124  44.103  85.517  1.00  0.00    -0.550 OA
ENDROOT
TORSDOF 0
ENDMDL
MODEL 7
REMARK VINA RESULT:    -1.622     12.421     12.790
REMARK INTER + INTRA:          -1.622
REMARK INTER:                  -1.622
REMARK INTRA:                   0.000
REMARK UNBOUND:                 0.000
REMARK SMILES CC(=O)[O-]
REMARK SMILES IDX 1 1 2 2 3 3 4 4
REMARK H PARENT
REMARK Flexibility Score: inf
ROOT
ATOM      1  C   UNL     1      27.754  45.126  84.125  1.00  0.00     0.063 C 
ATOM      2  C   UNL     1      26.556  44.919  84.986  1.00  0.00     0.038 C 
ATOM      3  O   UNL     1      25.880  43.861  84.885  1.00  0.00    -0.550 OA
ATOM      4  O   UNL     1      26.148  45.916  85.864  1.00  0.00    -0.550 OA
ENDROOT
TORSDOF 0
ENDMDL
MODEL 8
REMARK VINA RESULT:    -1.619     12.618     12.941
REMARK INTER + INTRA:          -1.619
REMARK INTER:                  -1.619
REMARK INTRA:                   0.000
REMARK UNBOUND:                 0.000
REMARK SMILES CC(=O)[O-]
REMARK SMILES IDX 1 1 2 2 3 3 4 4
REMARK H PARENT
REMARK Flexibility Score: inf
ROOT
ATOM      1  C   UNL     1      25.343  44.618  85.268  1.00  0.00     0.063 C 
ATOM      2  C   UNL     1      26.772  45.013  85.119  1.00  0.00     0.038 C 
ATOM      3  O   UNL     1      27.453  45.318  86.134  1.00  0.00    -0.550 OA
ATOM      4  O   UNL     1      27.344  45.098  83.855  1.00  0.00    -0.550 OA
ENDROOT
TORSDOF 0
ENDMDL
MODEL 9
REMARK VINA RESULT:    -1.603     13.228     13.792
REMARK INTER + INTRA:          -1.603
REMARK INTER:                  -1.603
REMARK INTRA:                   0.000
REMARK UNBOUND:                 0.000
REMARK SMILES CC(=O)[O-]
REMARK SMILES IDX 1 1 2 2 3 3 4 4
REMARK H PARENT
REMARK Flexibility Score: inf
ROOT
ATOM      1  C   UNL     1      23.238  41.177  89.317  1.00  0.00     0.063 C 
ATOM      2  C   UNL     1      22.701  42.531  89.001  1.00  0.00     0.038 C 
ATOM      3  O   UNL     1      22.047  43.170  89.867  1.00  0.00    -0.550 OA
ATOM      4  O   UNL     1      22.874  43.070  87.732  1.00  0.00    -0.550 OA
ENDROOT
TORSDOF 0
ENDMDL
