MODEL 1
REMARK VINA RESULT:    -2.637      0.000      0.000
REMARK INTER + INTRA:          -2.637
REMARK INTER:                  -2.637
REMARK INTRA:                   0.000
REMARK UNBOUND:                 0.000
REMARK SMILES CC1(C)[C@H]2CC[C@]1(C)C(=O)C2
REMARK SMILES IDX 1 1 2 2 4 3 5 4 6 5 7 6 9 7 10 8 11 9 8 10 3 11
REMARK H PARENT
REMARK Flexibility Score: inf
ROOT
ATOM      1  C   UNL     1     -32.761  47.457  40.116  1.00  0.00     0.012 C 
ATOM      2  C   UNL     1     -32.917  45.920  40.328  1.00  0.00    -0.020 C 
ATOM      3  C   UNL     1     -31.918  45.325  41.350  1.00  0.00     0.003 C 
ATOM      4  C   UNL     1     -32.334  46.017  42.677  1.00  0.00     0.005 C 
ATOM      5  C   UNL     1     -33.874  46.121  42.549  1.00  0.00     0.015 C 
ATOM      6  C   UNL     1     -34.142  45.486  41.163  1.00  0.00     0.032 C 
ATOM      7  C   UNL     1     -33.846  44.018  41.348  1.00  0.00     0.139 C 
ATOM      8  O   UNL     1     -34.675  43.128  41.466  1.00  0.00    -0.299 OA
ATOM      9  C   UNL     1     -32.364  43.841  41.471  1.00  0.00     0.080 C 
ATOM     10  C   UNL     1     -35.520  45.799  40.568  1.00  0.00     0.020 C 
ATOM     11  C   UNL     1     -32.828  45.268  38.914  1.00  0.00     0.012 C 
ENDROOT
TORSDOF 0
ENDMDL
MODEL 2
REMARK VINA RESULT:    -2.458      1.314      2.987
REMARK INTER + INTRA:          -2.458
REMARK INTER:                  -2.458
REMARK INTRA:                   0.000
REMARK UNBOUND:                 0.000
REMARK SMILES CC1(C)[C@H]2CC[C@]1(C)C(=O)C2
REMARK SMILES IDX 1 1 2 2 4 3 5 4 6 5 7 6 9 7 10 8 11 9 8 10 3 11
REMARK H PARENT
REMARK Flexibility Score: inf
ROOT
ATOM      1  C   UNL     1     -31.484  44.537  41.612  1.00  0.00     0.012 C 
ATOM      2  C   UNL     1     -32.753  45.436  41.509  1.00  0.00    -0.020 C 
ATOM      3  C   UNL     1     -32.598  46.626  40.531  1.00  0.00     0.003 C 
ATOM      4  C   UNL     1     -32.421  45.920  39.159  1.00  0.00     0.005 C 
ATOM      5  C   UNL     1     -33.349  44.685  39.280  1.00  0.00     0.015 C 
ATOM      6  C   UNL     1     -33.929  44.836  40.707  1.00  0.00     0.032 C 
ATOM      7  C   UNL     1     -34.848  46.030  40.626  1.00  0.00     0.139 C 
ATOM      8  O   UNL     1     -36.067  45.994  40.571  1.00  0.00    -0.299 OA
ATOM      9  C   UNL     1     -34.013  47.268  40.514  1.00  0.00     0.080 C 
ATOM     10  C   UNL     1     -34.567  43.565  41.279  1.00  0.00     0.020 C 
ATOM     11  C   UNL     1     -33.109  45.866  42.965  1.00  0.00     0.012 C 
ENDROOT
TORSDOF 0
ENDMDL
MODEL 3
REMARK VINA RESULT:    -2.232      1.873      3.196
REMARK INTER + INTRA:          -2.232
REMARK INTER:                  -2.232
REMARK INTRA:                   0.000
REMARK UNBOUND:                 0.000
REMARK SMILES CC1(C)[C@H]2CC[C@]1(C)C(=O)C2
REMARK SMILES IDX 1 1 2 2 4 3 5 4 6 5 7 6 9 7 10 8 11 9 8 10 3 11
REMARK H PARENT
REMARK Flexibility Score: inf
ROOT
ATOM      1  C   UNL     1     -34.476  43.854  41.186  1.00  0.00     0.012 C 
ATOM      2  C   UNL     1     -33.968  45.324  41.070  1.00  0.00    -0.020 C 
ATOM      3  C   UNL     1     -33.273  45.848  42.350  1.00  0.00     0.003 C 
ATOM      4  C   UNL     1     -32.021  44.935  42.457  1.00  0.00     0.005 C 
ATOM      5  C   UNL     1     -31.621  44.717  40.976  1.00  0.00     0.015 C 
ATOM      6  C   UNL     1     -32.700  45.522  40.212  1.00  0.00     0.032 C 
ATOM      7  C   UNL     1     -32.386  46.967  40.511  1.00  0.00     0.139 C 
ATOM      8  O   UNL     1     -31.839  47.754  39.754  1.00  0.00    -0.299 OA
ATOM      9  C   UNL     1     -32.757  47.253  41.933  1.00  0.00     0.080 C 
ATOM     10  C   UNL     1     -32.822  45.181  38.722  1.00  0.00     0.020 C 
ATOM     11  C   UNL     1     -35.194  46.181  40.629  1.00  0.00     0.012 C 
ENDROOT
TORSDOF 0
ENDMDL
MODEL 4
REMARK VINA RESULT:    -2.059      1.834      3.133
REMARK INTER + INTRA:          -2.059
REMARK INTER:                  -2.059
REMARK INTRA:                   0.000
REMARK UNBOUND:                 0.000
REMARK SMILES CC1(C)[C@H]2CC[C@]1(C)C(=O)C2
REMARK SMILES IDX 1 1 2 2 4 3 5 4 6 5 7 6 9 7 10 8 11 9 8 10 3 11
REMARK H PARENT
REMARK Flexibility Score: inf
ROOT
ATOM      1  C   UNL     1     -33.261  45.672  42.988  1.00  0.00     0.012 C 
ATOM      2  C   UNL     1     -32.851  45.382  41.513  1.00  0.00    -0.020 C 
ATOM      3  C   UNL     1     -33.928  44.624  40.701  1.00  0.00     0.003 C 
ATOM      4  C   UNL     1     -35.104  45.639  40.661  1.00  0.00     0.005 C 
ATOM      5  C   UNL     1     -34.381  47.005  40.557  1.00  0.00     0.015 C 
ATOM      6  C   UNL     1     -32.887  46.599  40.562  1.00  0.00     0.032 C 
ATOM      7  C   UNL     1     -32.668  45.920  39.233  1.00  0.00     0.139 C 
ATOM      8  O   UNL     1     -32.115  46.409  38.260  1.00  0.00    -0.299 OA
ATOM      9  C   UNL     1     -33.337  44.581  39.265  1.00  0.00     0.080 C 
ATOM     10  C   UNL     1     -31.912  47.740  40.875  1.00  0.00     0.020 C 
ATOM     11  C   UNL     1     -31.478  44.644  41.573  1.00  0.00     0.012 C 
ENDROOT
TORSDOF 0
ENDMDL
MODEL 5
REMARK VINA RESULT:    -1.823      1.470      1.977
REMARK INTER + INTRA:          -1.823
REMARK INTER:                  -1.823
REMARK INTRA:                   0.000
REMARK UNBOUND:                 0.000
REMARK SMILES CC1(C)[C@H]2CC[C@]1(C)C(=O)C2
REMARK SMILES IDX 1 1 2 2 4 3 5 4 6 5 7 6 9 7 10 8 11 9 8 10 3 11
REMARK H PARENT
REMARK Flexibility Score: inf
ROOT
ATOM      1  C   UNL     1     -30.774  46.656  39.497  1.00  0.00     0.012 C 
ATOM      2  C   UNL     1     -32.197  46.030  39.620  1.00  0.00    -0.020 C 
ATOM      3  C   UNL     1     -32.276  44.847  40.615  1.00  0.00     0.003 C 
ATOM      4  C   UNL     1     -31.951  45.523  41.976  1.00  0.00     0.005 C 
ATOM      5  C   UNL     1     -32.614  46.916  41.840  1.00  0.00     0.015 C 
ATOM      6  C   UNL     1     -33.222  46.865  40.417  1.00  0.00     0.032 C 
ATOM      7  C   UNL     1     -34.361  45.880  40.521  1.00  0.00     0.139 C 
ATOM      8  O   UNL     1     -35.548  46.160  40.581  1.00  0.00    -0.299 OA
ATOM      9  C   UNL     1     -33.790  44.502  40.648  1.00  0.00     0.080 C 
ATOM     10  C   UNL     1     -33.598  48.230  39.829  1.00  0.00     0.020 C 
ATOM     11  C   UNL     1     -32.642  45.660  38.172  1.00  0.00     0.012 C 
ENDROOT
TORSDOF 0
ENDMDL
MODEL 6
REMARK VINA RESULT:    -1.219      1.372      2.446
REMARK INTER + INTRA:          -1.219
REMARK INTER:                  -1.219
REMARK INTRA:                   0.000
REMARK UNBOUND:                 0.000
REMARK SMILES CC1(C)[C@H]2CC[C@]1(C)C(=O)C2
REMARK SMILES IDX 1 1 2 2 4 3 5 4 6 5 7 6 9 7 10 8 11 9 8 10 3 11
REMARK H PARENT
REMARK Flexibility Score: inf
ROOT
ATOM      1  C   UNL     1     -32.621  45.250  38.634  1.00  0.00     0.012 C 
ATOM      2  C   UNL     1     -32.397  45.534  40.151  1.00  0.00    -0.020 C 
ATOM      3  C   UNL     1     -32.175  47.029  40.482  1.00  0.00     0.003 C 
ATOM      4  C   UNL     1     -33.533  47.672  40.089  1.00  0.00     0.005 C 
ATOM      5  C   UNL     1     -34.561  46.581  40.480  1.00  0.00     0.015 C 
ATOM      6  C   UNL     1     -33.661  45.451  41.035  1.00  0.00     0.032 C 
ATOM      7  C   UNL     1     -33.125  45.991  42.338  1.00  0.00     0.139 C 
ATOM      8  O   UNL     1     -33.510  45.683  43.455  1.00  0.00    -0.299 OA
ATOM      9  C   UNL     1     -32.112  47.052  42.034  1.00  0.00     0.080 C 
ATOM     10  C   UNL     1     -34.339  44.079  41.133  1.00  0.00     0.020 C 
ATOM     11  C   UNL     1     -31.224  44.612  40.604  1.00  0.00     0.012 C 
ENDROOT
TORSDOF 0
ENDMDL
MODEL 7
REMARK VINA RESULT:    -1.057      1.492      2.581
REMARK INTER + INTRA:          -1.057
REMARK INTER:                  -1.057
REMARK INTRA:                   0.000
REMARK UNBOUND:                 0.000
REMARK SMILES CC1(C)[C@H]2CC[C@]1(C)C(=O)C2
REMARK SMILES IDX 1 1 2 2 4 3 5 4 6 5 7 6 9 7 10 8 11 9 8 10 3 11
REMARK H PARENT
REMARK Flexibility Score: inf
ROOT
ATOM      1  C   UNL     1     -35.469  46.422  40.684  1.00  0.00     0.012 C 
ATOM      2  C   UNL     1     -34.171  45.584  40.473  1.00  0.00    -0.020 C 
ATOM      3  C   UNL     1     -33.230  46.152  39.383  1.00  0.00     0.003 C 
ATOM      4  C   UNL     1     -32.803  47.521  39.979  1.00  0.00     0.005 C 
ATOM      5  C   UNL     1     -32.706  47.225  41.497  1.00  0.00     0.015 C 
ATOM      6  C   UNL     1     -33.100  45.731  41.576  1.00  0.00     0.032 C 
ATOM      7  C   UNL     1     -31.946  44.994  40.943  1.00  0.00     0.139 C 
ATOM      8  O   UNL     1     -31.074  44.379  41.537  1.00  0.00    -0.299 OA
ATOM      9  C   UNL     1     -31.983  45.230  39.464  1.00  0.00     0.080 C 
ATOM     10  C   UNL     1     -33.489  45.243  42.977  1.00  0.00     0.020 C 
ATOM     11  C   UNL     1     -34.630  44.119  40.202  1.00  0.00     0.012 C 
ENDROOT
TORSDOF 0
ENDMDL
MODEL 8
REMARK VINA RESULT:    -1.056      1.444      2.714
REMARK INTER + INTRA:          -1.056
REMARK INTER:                  -1.056
REMARK INTRA:                   0.000
REMARK UNBOUND:                 0.000
REMARK SMILES CC1(C)[C@H]2CC[C@]1(C)C(=O)C2
REMARK SMILES IDX 1 1 2 2 4 3 5 4 6 5 7 6 9 7 10 8 11 9 8 10 3 11
REMARK H PARENT
REMARK Flexibility Score: inf
ROOT
ATOM      1  C   UNL     1     -33.708  48.016  39.735  1.00  0.00     0.012 C 
ATOM      2  C   UNL     1     -32.964  47.009  40.665  1.00  0.00    -0.020 C 
ATOM      3  C   UNL     1     -33.872  46.355  41.733  1.00  0.00     0.003 C 
ATOM      4  C   UNL     1     -34.874  45.535  40.875  1.00  0.00     0.005 C 
ATOM      5  C   UNL     1     -33.999  45.040  39.696  1.00  0.00     0.015 C 
ATOM      6  C   UNL     1     -32.614  45.648  40.024  1.00  0.00     0.032 C 
ATOM      7  C   UNL     1     -32.136  44.886  41.235  1.00  0.00     0.139 C 
ATOM      8  O   UNL     1     -31.297  43.998  41.239  1.00  0.00    -0.299 OA
ATOM      9  C   UNL     1     -32.937  45.323  42.422  1.00  0.00     0.080 C 
ATOM     10  C   UNL     1     -31.630  45.679  38.848  1.00  0.00     0.020 C 
ATOM     11  C   UNL     1     -31.747  47.779  41.265  1.00  0.00     0.012 C 
ENDROOT
TORSDOF 0
ENDMDL
MODEL 9
REMARK VINA RESULT:    -0.519      1.055      2.248
REMARK INTER + INTRA:          -0.519
REMARK INTER:                  -0.519
REMARK INTRA:                   0.000
REMARK UNBOUND:                 0.000
REMARK SMILES CC1(C)[C@H]2CC[C@]1(C)C(=O)C2
REMARK SMILES IDX 1 1 2 2 4 3 5 4 6 5 7 6 9 7 10 8 11 9 8 10 3 11
REMARK H PARENT
REMARK Flexibility Score: inf
ROOT
ATOM      1  C   UNL     1     -32.298  47.762  40.482  1.00  0.00     0.012 C 
ATOM      2  C   UNL     1     -33.334  46.598  40.524  1.00  0.00    -0.020 C 
ATOM      3  C   UNL     1     -33.154  45.560  39.390  1.00  0.00     0.003 C 
ATOM      4  C   UNL     1     -31.760  44.949  39.703  1.00  0.00     0.005 C 
ATOM      5  C   UNL     1     -31.729  44.930  41.252  1.00  0.00     0.015 C 
ATOM      6  C   UNL     1     -33.100  45.542  41.626  1.00  0.00     0.032 C 
ATOM      7  C   UNL     1     -34.111  44.495  41.226  1.00  0.00     0.139 C 
ATOM      8  O   UNL     1     -34.696  43.736  41.984  1.00  0.00    -0.299 OA
ATOM      9  C   UNL     1     -34.200  44.463  39.732  1.00  0.00     0.080 C 
ATOM     10  C   UNL     1     -33.213  46.030  43.076  1.00  0.00     0.020 C 
ATOM     11  C   UNL     1     -34.745  47.262  40.546  1.00  0.00     0.012 C 
ENDROOT
TORSDOF 0
ENDMDL
