MODEL 1
REMARK VINA RESULT:    -3.533      0.000      0.000
REMARK INTER + INTRA:          -5.159
REMARK INTER:                  -4.566
REMARK INTRA:                  -0.594
REMARK UNBOUND:                -0.594
REMARK SMILES C=CC(=O)CCCCC
REMARK SMILES IDX 6 1 7 2 8 3 9 4 5 5 3 6 4 7 2 8 1 9
REMARK H PARENT
REMARK Flexibility Score: inf
ROOT
ATOM      1  C   UNL     1      -2.709  -3.778  11.659  1.00  0.00     0.008 C 
ENDROOT
BRANCH   1   2
ATOM      2  C   UNL     1      -4.231  -3.974  11.748  1.00  0.00     0.000 C 
BRANCH   2   3
ATOM      3  C   UNL     1      -4.704  -5.243  11.021  1.00  0.00    -0.003 C 
ATOM      4  C   UNL     1      -5.513  -4.937   9.761  1.00  0.00     0.004 C 
ENDBRANCH   2   3
ENDBRANCH   1   2
BRANCH   1   5
ATOM      5  C   UNL     1      -2.329  -2.551  10.818  1.00  0.00     0.080 C 
BRANCH   5   6
ATOM      6  C   UNL     1      -2.506  -2.804   9.347  1.00  0.00     0.155 C 
ATOM      7  O   UNL     1      -2.114  -3.899   8.859  1.00  0.00    -0.295 OA
BRANCH   6   8
ATOM      8  C   UNL     1      -3.156  -1.792   8.492  1.00  0.00     0.039 C 
ATOM      9  C   UNL     1      -4.366  -1.302   8.757  1.00  0.00     0.012 C 
ENDBRANCH   6   8
ENDBRANCH   5   6
ENDBRANCH   1   5
TORSDOF 5
ENDMDL
MODEL 2
REMARK VINA RESULT:    -3.477      1.440      3.806
REMARK INTER + INTRA:          -5.087
REMARK INTER:                  -4.597
REMARK INTRA:                  -0.490
REMARK UNBOUND:                -0.594
REMARK SMILES C=CC(=O)CCCCC
REMARK SMILES IDX 6 1 7 2 8 3 9 4 5 5 3 6 4 7 2 8 1 9
REMARK H PARENT
REMARK Flexibility Score: inf
ROOT
ATOM      1  C   UNL     1      -3.037  -2.101   8.465  1.00  0.00     0.008 C 
ENDROOT
BRANCH   1   2
ATOM      2  C   UNL     1      -4.244  -1.259   8.910  1.00  0.00     0.000 C 
BRANCH   2   3
ATOM      3  C   UNL     1      -3.830  -0.010   9.704  1.00  0.00    -0.003 C 
ATOM      4  C   UNL     1      -3.793  -0.253  11.213  1.00  0.00     0.004 C 
ENDBRANCH   2   3
ENDBRANCH   1   2
BRANCH   1   5
ATOM      5  C   UNL     1      -3.171  -3.574   8.879  1.00  0.00     0.080 C 
BRANCH   5   6
ATOM      6  C   UNL     1      -2.965  -3.762  10.356  1.00  0.00     0.155 C 
ATOM      7  O   UNL     1      -1.884  -3.379  10.880  1.00  0.00    -0.295 OA
BRANCH   6   8
ATOM      8  C   UNL     1      -4.029  -4.362  11.185  1.00  0.00     0.039 C 
ATOM      9  C   UNL     1      -5.031  -5.066  10.662  1.00  0.00     0.012 C 
ENDBRANCH   6   8
ENDBRANCH   5   6
ENDBRANCH   1   5
TORSDOF 5
ENDMDL
MODEL 3
REMARK VINA RESULT:    -3.449      1.867      2.265
REMARK INTER + INTRA:          -5.051
REMARK INTER:                  -4.668
REMARK INTRA:                  -0.383
REMARK UNBOUND:                -0.594
REMARK SMILES C=CC(=O)CCCCC
REMARK SMILES IDX 6 1 7 2 8 3 9 4 5 5 3 6 4 7 2 8 1 9
REMARK H PARENT
REMARK Flexibility Score: inf
ROOT
ATOM      1  C   UNL     1      -3.370  -3.883   8.923  1.00  0.00     0.008 C 
ENDROOT
BRANCH   1   2
ATOM      2  C   UNL     1      -3.447  -4.061  10.448  1.00  0.00     0.000 C 
BRANCH   2   3
ATOM      3  C   UNL     1      -4.656  -4.904  10.883  1.00  0.00    -0.003 C 
ATOM      4  C   UNL     1      -5.654  -5.138   9.748  1.00  0.00     0.004 C 
ENDBRANCH   2   3
ENDBRANCH   1   2
BRANCH   1   5
ATOM      5  C   UNL     1      -2.870  -2.487   8.525  1.00  0.00     0.080 C 
BRANCH   5   6
ATOM      6  C   UNL     1      -3.759  -1.400   9.060  1.00  0.00     0.155 C 
ATOM      7  O   UNL     1      -4.946  -1.314   8.643  1.00  0.00    -0.295 OA
BRANCH   6   8
ATOM      8  C   UNL     1      -3.255  -0.462  10.082  1.00  0.00     0.039 C 
ATOM      9  C   UNL     1      -3.871  -0.277  11.248  1.00  0.00     0.012 C 
ENDBRANCH   6   8
ENDBRANCH   5   6
ENDBRANCH   1   5
TORSDOF 5
ENDMDL
MODEL 4
REMARK VINA RESULT:    -3.448      8.528      9.159
REMARK INTER + INTRA:          -5.049
REMARK INTER:                  -4.761
REMARK INTRA:                  -0.289
REMARK UNBOUND:                -0.594
REMARK SMILES C=CC(=O)CCCCC
REMARK SMILES IDX 6 1 7 2 8 3 9 4 5 5 3 6 4 7 2 8 1 9
REMARK H PARENT
REMARK Flexibility Score: inf
ROOT
ATOM      1  C   UNL     1      -5.072   3.083  15.707  1.00  0.00     0.008 C 
ENDROOT
BRANCH   1   2
ATOM      2  C   UNL     1      -4.641   1.857  14.886  1.00  0.00     0.000 C 
BRANCH   2   3
ATOM      3  C   UNL     1      -5.378   1.760  13.541  1.00  0.00    -0.003 C 
ATOM      4  C   UNL     1      -4.761   0.725  12.601  1.00  0.00     0.004 C 
ENDBRANCH   2   3
ENDBRANCH   1   2
BRANCH   1   5
ATOM      5  C   UNL     1      -6.441   2.885  16.373  1.00  0.00     0.080 C 
BRANCH   5   6
ATOM      6  C   UNL     1      -7.392   4.002  16.044  1.00  0.00     0.155 C 
ATOM      7  O   UNL     1      -7.670   4.854  16.931  1.00  0.00    -0.295 OA
BRANCH   6   8
ATOM      8  C   UNL     1      -7.968   4.113  14.690  1.00  0.00     0.039 C 
ATOM      9  C   UNL     1      -9.266   3.939  14.449  1.00  0.00     0.012 C 
ENDBRANCH   6   8
ENDBRANCH   5   6
ENDBRANCH   1   5
TORSDOF 5
ENDMDL
MODEL 5
REMARK VINA RESULT:    -3.401      1.887      4.098
REMARK INTER + INTRA:          -4.989
REMARK INTER:                  -4.504
REMARK INTRA:                  -0.485
REMARK UNBOUND:                -0.594
REMARK SMILES C=CC(=O)CCCCC
REMARK SMILES IDX 6 1 7 2 8 3 9 4 5 5 3 6 4 7 2 8 1 9
REMARK H PARENT
REMARK Flexibility Score: inf
ROOT
ATOM      1  C   UNL     1      -4.306  -1.575   8.907  1.00  0.00     0.008 C 
ENDROOT
BRANCH   1   2
ATOM      2  C   UNL     1      -3.368  -0.360   8.993  1.00  0.00     0.000 C 
BRANCH   2   3
ATOM      3  C   UNL     1      -3.830   0.667  10.039  1.00  0.00    -0.003 C 
ATOM      4  C   UNL     1      -3.946   0.071  11.442  1.00  0.00     0.004 C 
ENDBRANCH   2   3
ENDBRANCH   1   2
BRANCH   1   5
ATOM      5  C   UNL     1      -3.538  -2.905   8.945  1.00  0.00     0.080 C 
BRANCH   5   6
ATOM      6  C   UNL     1      -4.090  -3.841   9.983  1.00  0.00     0.155 C 
ATOM      7  O   UNL     1      -5.007  -4.644   9.662  1.00  0.00    -0.295 OA
BRANCH   6   8
ATOM      8  C   UNL     1      -3.543  -3.836  11.354  1.00  0.00     0.039 C 
ATOM      9  C   UNL     1      -2.341  -3.339  11.642  1.00  0.00     0.012 C 
ENDBRANCH   6   8
ENDBRANCH   5   6
ENDBRANCH   1   5
TORSDOF 5
ENDMDL
MODEL 6
REMARK VINA RESULT:    -3.379      8.032      8.708
REMARK INTER + INTRA:          -4.960
REMARK INTER:                  -4.602
REMARK INTRA:                  -0.358
REMARK UNBOUND:                -0.594
REMARK SMILES C=CC(=O)CCCCC
REMARK SMILES IDX 6 1 7 2 8 3 9 4 5 5 3 6 4 7 2 8 1 9
REMARK H PARENT
REMARK Flexibility Score: inf
ROOT
ATOM      1  C   UNL     1      -6.598   2.808  16.404  1.00  0.00     0.008 C 
ENDROOT
BRANCH   1   2
ATOM      2  C   UNL     1      -7.576   3.993  16.356  1.00  0.00     0.000 C 
BRANCH   2   3
ATOM      3  C   UNL     1      -7.825   4.493  14.924  1.00  0.00    -0.003 C 
ATOM      4  C   UNL     1      -9.133   3.967  14.332  1.00  0.00     0.004 C 
ENDBRANCH   2   3
ENDBRANCH   1   2
BRANCH   1   5
ATOM      5  C   UNL     1      -5.178   3.209  15.979  1.00  0.00     0.080 C 
BRANCH   5   6
ATOM      6  C   UNL     1      -4.640   2.311  14.900  1.00  0.00     0.155 C 
ATOM      7  O   UNL     1      -3.499   1.793  15.042  1.00  0.00    -0.295 OA
BRANCH   6   8
ATOM      8  C   UNL     1      -5.454   2.017  13.704  1.00  0.00     0.039 C 
ATOM      9  C   UNL     1      -5.266   0.927  12.962  1.00  0.00     0.012 C 
ENDBRANCH   6   8
ENDBRANCH   5   6
ENDBRANCH   1   5
TORSDOF 5
ENDMDL
MODEL 7
REMARK VINA RESULT:    -3.341      9.029      9.653
REMARK INTER + INTRA:          -4.911
REMARK INTER:                  -4.659
REMARK INTRA:                  -0.252
REMARK UNBOUND:                -0.594
REMARK SMILES C=CC(=O)CCCCC
REMARK SMILES IDX 6 1 7 2 8 3 9 4 5 5 3 6 4 7 2 8 1 9
REMARK H PARENT
REMARK Flexibility Score: inf
ROOT
ATOM      1  C   UNL     1      -5.604   2.861  16.058  1.00  0.00     0.008 C 
ENDROOT
BRANCH   1   2
ATOM      2  C   UNL     1      -5.436   2.685  14.540  1.00  0.00     0.000 C 
BRANCH   2   3
ATOM      3  C   UNL     1      -4.673   1.402  14.176  1.00  0.00    -0.003 C 
ATOM      4  C   UNL     1      -4.967   0.920  12.756  1.00  0.00     0.004 C 
ENDBRANCH   2   3
ENDBRANCH   1   2
BRANCH   1   5
ATOM      5  C   UNL     1      -7.079   2.859  16.483  1.00  0.00     0.080 C 
BRANCH   5   6
ATOM      6  C   UNL     1      -7.766   4.149  16.129  1.00  0.00     0.155 C 
ATOM      7  O   UNL     1      -8.623   4.155  15.204  1.00  0.00    -0.295 OA
BRANCH   6   8
ATOM      8  C   UNL     1      -7.459   5.384  16.875  1.00  0.00     0.039 C 
ATOM      9  C   UNL     1      -6.667   6.337  16.386  1.00  0.00     0.012 C 
ENDBRANCH   6   8
ENDBRANCH   5   6
ENDBRANCH   1   5
TORSDOF 5
ENDMDL
MODEL 8
REMARK VINA RESULT:    -3.269      8.877      9.910
REMARK INTER + INTRA:          -4.818
REMARK INTER:                  -4.286
REMARK INTRA:                  -0.531
REMARK UNBOUND:                -0.594
REMARK SMILES C=CC(=O)CCCCC
REMARK SMILES IDX 6 1 7 2 8 3 9 4 5 5 3 6 4 7 2 8 1 9
REMARK H PARENT
REMARK Flexibility Score: inf
ROOT
ATOM      1  C   UNL     1      -7.407   4.390  16.005  1.00  0.00     0.008 C 
ENDROOT
BRANCH   1   2
ATOM      2  C   UNL     1      -7.582   4.691  14.508  1.00  0.00     0.000 C 
BRANCH   2   3
ATOM      3  C   UNL     1      -6.618   5.780  14.010  1.00  0.00    -0.003 C 
ATOM      4  C   UNL     1      -6.179   6.735  15.119  1.00  0.00     0.004 C 
ENDBRANCH   2   3
ENDBRANCH   1   2
BRANCH   1   5
ATOM      5  C   UNL     1      -6.749   3.025  16.251  1.00  0.00     0.080 C 
BRANCH   5   6
ATOM      6  C   UNL     1      -5.290   3.032  15.890  1.00  0.00     0.155 C 
ATOM      7  O   UNL     1      -4.525   3.871  16.439  1.00  0.00    -0.295 OA
BRANCH   6   8
ATOM      8  C   UNL     1      -4.757   2.050  14.927  1.00  0.00     0.039 C 
ATOM      9  C   UNL     1      -5.345   1.804  13.757  1.00  0.00     0.012 C 
ENDBRANCH   6   8
ENDBRANCH   5   6
ENDBRANCH   1   5
TORSDOF 5
ENDMDL
MODEL 9
REMARK VINA RESULT:    -3.213     10.114     11.136
REMARK INTER + INTRA:          -4.746
REMARK INTER:                  -4.193
REMARK INTRA:                  -0.552
REMARK UNBOUND:                -0.594
REMARK SMILES C=CC(=O)CCCCC
REMARK SMILES IDX 6 1 7 2 8 3 9 4 5 5 3 6 4 7 2 8 1 9
REMARK H PARENT
REMARK Flexibility Score: inf
ROOT
ATOM      1  C   UNL     1      -6.448   5.834  17.170  1.00  0.00     0.008 C 
ENDROOT
BRANCH   1   2
ATOM      2  C   UNL     1      -6.185   6.999  16.202  1.00  0.00     0.000 C 
BRANCH   2   3
ATOM      3  C   UNL     1      -5.285   6.594  15.023  1.00  0.00    -0.003 C 
ATOM      4  C   UNL     1      -6.077   6.286  13.752  1.00  0.00     0.004 C 
ENDBRANCH   2   3
ENDBRANCH   1   2
BRANCH   1   5
ATOM      5  C   UNL     1      -7.783   5.131  16.883  1.00  0.00     0.080 C 
BRANCH   5   6
ATOM      6  C   UNL     1      -7.595   3.881  16.069  1.00  0.00     0.155 C 
ATOM      7  O   UNL     1      -8.317   3.695  15.052  1.00  0.00    -0.295 OA
BRANCH   6   8
ATOM      8  C   UNL     1      -6.557   2.900  16.441  1.00  0.00     0.039 C 
ATOM      9  C   UNL     1      -5.536   2.601  15.640  1.00  0.00     0.012 C 
ENDBRANCH   6   8
ENDBRANCH   5   6
ENDBRANCH   1   5
TORSDOF 5
ENDMDL
