MODEL 1
REMARK VINA RESULT:    -3.995      0.000      0.000
REMARK INTER + INTRA:          -7.455
REMARK INTER:                  -6.096
REMARK INTRA:                  -1.358
REMARK UNBOUND:                -1.358
REMARK SMILES CCCCCCCCCCC(=O)[O-]
REMARK SMILES IDX 7 1 8 2 9 3 10 4 11 5 12 6 13 7 6 8 5 9 4 10 3 11 2 12 1 13
REMARK H PARENT
REMARK Flexibility Score: inf
ROOT
ATOM      1  C   UNL     1     -35.507  20.620 -29.981  1.00  0.00     0.000 C 
ENDROOT
BRANCH   1   2
ATOM      2  C   UNL     1     -36.370  21.058 -31.184  1.00  0.00     0.000 C 
BRANCH   2   3
ATOM      3  C   UNL     1     -37.880  21.071 -30.887  1.00  0.00     0.006 C 
BRANCH   3   4
ATOM      4  C   UNL     1     -38.193  21.116 -29.387  1.00  0.00     0.053 C 
BRANCH   4   5
ATOM      5  C   UNL     1     -39.666  21.001 -29.157  1.00  0.00     0.041 C 
ATOM      6  O   UNL     1     -40.130  20.036 -28.492  1.00  0.00    -0.550 OA
ATOM      7  O   UNL     1     -40.524  21.984 -29.633  1.00  0.00    -0.550 OA
ENDBRANCH   4   5
ENDBRANCH   3   4
ENDBRANCH   2   3
ENDBRANCH   1   2
BRANCH   1   8
ATOM      8  C   UNL     1     -34.538  19.486 -30.344  1.00  0.00     0.000 C 
BRANCH   8   9
ATOM      9  C   UNL     1     -35.066  18.132 -29.847  1.00  0.00    -0.000 C 
BRANCH   9  10
ATOM     10  C   UNL     1     -35.874  18.252 -28.544  1.00  0.00    -0.000 C 
BRANCH  10  11
ATOM     11  C   UNL     1     -37.287  17.656 -28.669  1.00  0.00    -0.000 C 
BRANCH  11  12
ATOM     12  C   UNL     1     -37.527  16.996 -30.036  1.00  0.00    -0.003 C 
ATOM     13  C   UNL     1     -38.750  17.557 -30.761  1.00  0.00     0.004 C 
ENDBRANCH  11  12
ENDBRANCH  10  11
ENDBRANCH   9  10
ENDBRANCH   8   9
ENDBRANCH   1   8
TORSDOF 9
ENDMDL
MODEL 2
REMARK VINA RESULT:    -3.938      1.476      3.107
REMARK INTER + INTRA:          -7.369
REMARK INTER:                  -6.301
REMARK INTRA:                  -1.068
REMARK UNBOUND:                -1.358
REMARK SMILES CCCCCCCCCCC(=O)[O-]
REMARK SMILES IDX 7 1 8 2 9 3 10 4 11 5 12 6 13 7 6 8 5 9 4 10 3 11 2 12 1 13
REMARK H PARENT
REMARK Flexibility Score: inf
ROOT
ATOM      1  C   UNL     1     -38.078  17.108 -30.407  1.00  0.00     0.000 C 
ENDROOT
BRANCH   1   2
ATOM      2  C   UNL     1     -38.777  18.478 -30.272  1.00  0.00     0.000 C 
BRANCH   2   3
ATOM      3  C   UNL     1     -38.747  19.048 -28.843  1.00  0.00     0.006 C 
BRANCH   3   4
ATOM      4  C   UNL     1     -39.905  20.012 -28.560  1.00  0.00     0.053 C 
BRANCH   4   5
ATOM      5  C   UNL     1     -39.598  21.370 -29.107  1.00  0.00     0.041 C 
ATOM      6  O   UNL     1     -38.427  21.831 -29.040  1.00  0.00    -0.550 OA
ATOM      7  O   UNL     1     -40.593  22.109 -29.734  1.00  0.00    -0.550 OA
ENDBRANCH   4   5
ENDBRANCH   3   4
ENDBRANCH   2   3
ENDBRANCH   1   2
BRANCH   1   8
ATOM      8  C   UNL     1     -36.938  16.937 -29.393  1.00  0.00     0.000 C 
BRANCH   8   9
ATOM      9  C   UNL     1     -35.582  16.816 -30.105  1.00  0.00    -0.000 C 
BRANCH   9  10
ATOM     10  C   UNL     1     -34.611  17.947 -29.729  1.00  0.00    -0.000 C 
BRANCH  10  11
ATOM     11  C   UNL     1     -35.201  19.343 -29.992  1.00  0.00    -0.000 C 
BRANCH  11  12
ATOM     12  C   UNL     1     -35.024  20.291 -28.795  1.00  0.00    -0.003 C 
ATOM     13  C   UNL     1     -35.360  19.629 -27.460  1.00  0.00     0.004 C 
ENDBRANCH  11  12
ENDBRANCH  10  11
ENDBRANCH   9  10
ENDBRANCH   8   9
ENDBRANCH   1   8
TORSDOF 9
ENDMDL
MODEL 3
REMARK VINA RESULT:    -3.916      2.378      4.325
REMARK INTER + INTRA:          -7.335
REMARK INTER:                  -6.002
REMARK INTRA:                  -1.333
REMARK UNBOUND:                -1.358
REMARK SMILES CCCCCCCCCCC(=O)[O-]
REMARK SMILES IDX 7 1 8 2 9 3 10 4 11 5 12 6 13 7 6 8 5 9 4 10 3 11 2 12 1 13
REMARK H PARENT
REMARK Flexibility Score: inf
ROOT
ATOM      1  C   UNL     1     -35.425  19.263 -27.966  1.00  0.00     0.000 C 
ENDROOT
BRANCH   1   2
ATOM      2  C   UNL     1     -34.606  18.261 -28.806  1.00  0.00     0.000 C 
BRANCH   2   3
ATOM      3  C   UNL     1     -35.275  17.882 -30.139  1.00  0.00     0.006 C 
BRANCH   3   4
ATOM      4  C   UNL     1     -35.597  16.387 -30.241  1.00  0.00     0.053 C 
BRANCH   4   5
ATOM      5  C   UNL     1     -37.011  16.127 -29.826  1.00  0.00     0.041 C 
ATOM      6  O   UNL     1     -37.261  15.297 -28.913  1.00  0.00    -0.550 OA
ATOM      7  O   UNL     1     -38.050  16.839 -30.413  1.00  0.00    -0.550 OA
ENDBRANCH   4   5
ENDBRANCH   3   4
ENDBRANCH   2   3
ENDBRANCH   1   2
BRANCH   1   8
ATOM      8  C   UNL     1     -36.588  18.586 -27.226  1.00  0.00     0.000 C 
BRANCH   8   9
ATOM      9  C   UNL     1     -37.941  19.078 -27.763  1.00  0.00    -0.000 C 
BRANCH   9  10
ATOM     10  C   UNL     1     -37.806  20.307 -28.676  1.00  0.00    -0.000 C 
BRANCH  10  11
ATOM     11  C   UNL     1     -38.694  20.213 -29.929  1.00  0.00    -0.000 C 
BRANCH  11  12
ATOM     12  C   UNL     1     -37.904  20.439 -31.228  1.00  0.00    -0.003 C 
ATOM     13  C   UNL     1     -36.633  21.260 -31.014  1.00  0.00     0.004 C 
ENDBRANCH  11  12
ENDBRANCH  10  11
ENDBRANCH   9  10
ENDBRANCH   8   9
ENDBRANCH   1   8
TORSDOF 9
ENDMDL
MODEL 4
REMARK VINA RESULT:    -3.903      1.060      3.044
REMARK INTER + INTRA:          -7.315
REMARK INTER:                  -6.150
REMARK INTRA:                  -1.165
REMARK UNBOUND:                -1.358
REMARK SMILES CCCCCCCCCCC(=O)[O-]
REMARK SMILES IDX 7 1 8 2 9 3 10 4 11 5 12 6 13 7 6 8 5 9 4 10 3 11 2 12 1 13
REMARK H PARENT
REMARK Flexibility Score: inf
ROOT
ATOM      1  C   UNL     1     -37.013  16.948 -29.362  1.00  0.00     0.000 C 
ENDROOT
BRANCH   1   2
ATOM      2  C   UNL     1     -38.139  17.248 -30.374  1.00  0.00     0.000 C 
BRANCH   2   3
ATOM      3  C   UNL     1     -38.600  18.716 -30.366  1.00  0.00     0.006 C 
BRANCH   3   4
ATOM      4  C   UNL     1     -38.582  19.340 -28.966  1.00  0.00     0.053 C 
BRANCH   4   5
ATOM      5  C   UNL     1     -39.858  20.075 -28.705  1.00  0.00     0.041 C 
ATOM      6  O   UNL     1     -40.815  19.497 -28.123  1.00  0.00    -0.550 OA
ATOM      7  O   UNL     1     -39.976  21.413 -29.059  1.00  0.00    -0.550 OA
ENDBRANCH   4   5
ENDBRANCH   3   4
ENDBRANCH   2   3
ENDBRANCH   1   2
BRANCH   1   8
ATOM      8  C   UNL     1     -35.619  17.051 -29.997  1.00  0.00     0.000 C 
BRANCH   8   9
ATOM      9  C   UNL     1     -34.831  18.230 -29.403  1.00  0.00    -0.000 C 
BRANCH   9  10
ATOM     10  C   UNL     1     -34.879  19.483 -30.293  1.00  0.00    -0.000 C 
BRANCH  10  11
ATOM     11  C   UNL     1     -35.140  20.768 -29.488  1.00  0.00    -0.000 C 
BRANCH  11  12
ATOM     12  C   UNL     1     -36.132  21.709 -30.189  1.00  0.00    -0.003 C 
ATOM     13  C   UNL     1     -36.347  21.356 -31.660  1.00  0.00     0.004 C 
ENDBRANCH  11  12
ENDBRANCH  10  11
ENDBRANCH   9  10
ENDBRANCH   8   9
ENDBRANCH   1   8
TORSDOF 9
ENDMDL
MODEL 5
REMARK VINA RESULT:    -3.886      2.116      4.016
REMARK INTER + INTRA:          -7.289
REMARK INTER:                  -6.173
REMARK INTRA:                  -1.116
REMARK UNBOUND:                -1.358
REMARK SMILES CCCCCCCCCCC(=O)[O-]
REMARK SMILES IDX 7 1 8 2 9 3 10 4 11 5 12 6 13 7 6 8 5 9 4 10 3 11 2 12 1 13
REMARK H PARENT
REMARK Flexibility Score: inf
ROOT
ATOM      1  C   UNL     1     -35.181  20.230 -30.112  1.00  0.00     0.000 C 
ENDROOT
BRANCH   1   2
ATOM      2  C   UNL     1     -35.204  19.681 -28.669  1.00  0.00     0.000 C 
BRANCH   2   3
ATOM      3  C   UNL     1     -35.876  18.302 -28.545  1.00  0.00     0.006 C 
BRANCH   3   4
ATOM      4  C   UNL     1     -35.973  17.563 -29.885  1.00  0.00     0.053 C 
BRANCH   4   5
ATOM      5  C   UNL     1     -37.196  16.702 -29.919  1.00  0.00     0.041 C 
ATOM      6  O   UNL     1     -37.240  15.638 -29.246  1.00  0.00    -0.550 OA
ATOM      7  O   UNL     1     -38.306  17.098 -30.654  1.00  0.00    -0.550 OA
ENDBRANCH   4   5
ENDBRANCH   3   4
ENDBRANCH   2   3
ENDBRANCH   1   2
BRANCH   1   8
ATOM      8  C   UNL     1     -36.268  21.289 -30.347  1.00  0.00     0.000 C 
BRANCH   8   9
ATOM      9  C   UNL     1     -37.222  20.857 -31.472  1.00  0.00    -0.000 C 
BRANCH   9  10
ATOM     10  C   UNL     1     -38.666  20.662 -30.983  1.00  0.00    -0.000 C 
BRANCH  10  11
ATOM     11  C   UNL     1     -38.833  20.991 -29.489  1.00  0.00    -0.000 C 
BRANCH  11  12
ATOM     12  C   UNL     1     -39.155  19.746 -28.646  1.00  0.00    -0.003 C 
ATOM     13  C   UNL     1     -40.607  19.711 -28.170  1.00  0.00     0.004 C 
ENDBRANCH  11  12
ENDBRANCH  10  11
ENDBRANCH   9  10
ENDBRANCH   8   9
ENDBRANCH   1   8
TORSDOF 9
ENDMDL
MODEL 6
REMARK VINA RESULT:    -3.848      1.792      3.755
REMARK INTER + INTRA:          -7.231
REMARK INTER:                  -6.212
REMARK INTRA:                  -1.019
REMARK UNBOUND:                -1.358
REMARK SMILES CCCCCCCCCCC(=O)[O-]
REMARK SMILES IDX 7 1 8 2 9 3 10 4 11 5 12 6 13 7 6 8 5 9 4 10 3 11 2 12 1 13
REMARK H PARENT
REMARK Flexibility Score: inf
ROOT
ATOM      1  C   UNL     1     -34.908  19.318 -30.321  1.00  0.00     0.000 C 
ENDROOT
BRANCH   1   2
ATOM      2  C   UNL     1     -35.250  18.126 -29.402  1.00  0.00     0.000 C 
BRANCH   2   3
ATOM      3  C   UNL     1     -36.193  17.098 -30.050  1.00  0.00     0.006 C 
BRANCH   3   4
ATOM      4  C   UNL     1     -37.655  17.279 -29.626  1.00  0.00     0.053 C 
BRANCH   4   5
ATOM      5  C   UNL     1     -38.498  17.653 -30.805  1.00  0.00     0.041 C 
ATOM      6  O   UNL     1     -38.354  18.776 -31.356  1.00  0.00    -0.550 OA
ATOM      7  O   UNL     1     -39.409  16.743 -31.326  1.00  0.00    -0.550 OA
ENDBRANCH   4   5
ENDBRANCH   3   4
ENDBRANCH   2   3
ENDBRANCH   1   2
BRANCH   1   8
ATOM      8  C   UNL     1     -35.148  20.669 -29.632  1.00  0.00     0.000 C 
BRANCH   8   9
ATOM      9  C   UNL     1     -36.357  21.392 -30.244  1.00  0.00    -0.000 C 
BRANCH   9  10
ATOM     10  C   UNL     1     -37.361  21.873 -29.183  1.00  0.00    -0.000 C 
BRANCH  10  11
ATOM     11  C   UNL     1     -38.148  20.715 -28.546  1.00  0.00    -0.000 C 
BRANCH  11  12
ATOM     12  C   UNL     1     -39.638  20.741 -28.922  1.00  0.00    -0.003 C 
ATOM     13  C   UNL     1     -40.444  19.644 -28.228  1.00  0.00     0.004 C 
ENDBRANCH  11  12
ENDBRANCH  10  11
ENDBRANCH   9  10
ENDBRANCH   8   9
ENDBRANCH   1   8
TORSDOF 9
ENDMDL
MODEL 7
REMARK VINA RESULT:    -3.686      1.939      3.902
REMARK INTER + INTRA:          -6.984
REMARK INTER:                  -5.650
REMARK INTRA:                  -1.334
REMARK UNBOUND:                -1.358
REMARK SMILES CCCCCCCCCCC(=O)[O-]
REMARK SMILES IDX 7 1 8 2 9 3 10 4 11 5 12 6 13 7 6 8 5 9 4 10 3 11 2 12 1 13
REMARK H PARENT
REMARK Flexibility Score: inf
ROOT
ATOM      1  C   UNL     1     -35.209  18.796 -28.036  1.00  0.00     0.000 C 
ENDROOT
BRANCH   1   2
ATOM      2  C   UNL     1     -36.576  18.610 -27.344  1.00  0.00     0.000 C 
BRANCH   2   3
ATOM      3  C   UNL     1     -37.743  18.417 -28.328  1.00  0.00     0.006 C 
BRANCH   3   4
ATOM      4  C   UNL     1     -37.283  17.967 -29.719  1.00  0.00     0.053 C 
BRANCH   4   5
ATOM      5  C   UNL     1     -38.379  18.160 -30.719  1.00  0.00     0.041 C 
ATOM      6  O   UNL     1     -39.202  17.233 -30.944  1.00  0.00    -0.550 OA
ATOM      7  O   UNL     1     -38.523  19.380 -31.367  1.00  0.00    -0.550 OA
ENDBRANCH   4   5
ENDBRANCH   3   4
ENDBRANCH   2   3
ENDBRANCH   1   2
BRANCH   1   8
ATOM      8  C   UNL     1     -34.448  20.018 -27.500  1.00  0.00     0.000 C 
BRANCH   8   9
ATOM      9  C   UNL     1     -35.039  21.322 -28.059  1.00  0.00    -0.000 C 
BRANCH   9  10
ATOM     10  C   UNL     1     -35.346  21.237 -29.563  1.00  0.00    -0.000 C 
BRANCH  10  11
ATOM     11  C   UNL     1     -36.619  22.009 -29.950  1.00  0.00    -0.000 C 
BRANCH  11  12
ATOM     12  C   UNL     1     -37.516  22.307 -28.738  1.00  0.00    -0.003 C 
ATOM     13  C   UNL     1     -38.964  21.865 -28.948  1.00  0.00     0.004 C 
ENDBRANCH  11  12
ENDBRANCH  10  11
ENDBRANCH   9  10
ENDBRANCH   8   9
ENDBRANCH   1   8
TORSDOF 9
ENDMDL
MODEL 8
REMARK VINA RESULT:    -3.664      2.265      4.327
REMARK INTER + INTRA:          -6.950
REMARK INTER:                  -5.804
REMARK INTRA:                  -1.147
REMARK UNBOUND:                -1.358
REMARK SMILES CCCCCCCCCCC(=O)[O-]
REMARK SMILES IDX 7 1 8 2 9 3 10 4 11 5 12 6 13 7 6 8 5 9 4 10 3 11 2 12 1 13
REMARK H PARENT
REMARK Flexibility Score: inf
ROOT
ATOM      1  C   UNL     1     -36.759  17.244 -29.314  1.00  0.00     0.000 C 
ENDROOT
BRANCH   1   2
ATOM      2  C   UNL     1     -35.378  17.372 -29.992  1.00  0.00     0.000 C 
BRANCH   2   3
ATOM      3  C   UNL     1     -34.370  18.210 -29.185  1.00  0.00     0.006 C 
BRANCH   3   4
ATOM      4  C   UNL     1     -34.632  19.717 -29.287  1.00  0.00     0.053 C 
BRANCH   4   5
ATOM      5  C   UNL     1     -35.079  20.259 -27.966  1.00  0.00     0.041 C 
ATOM      6  O   UNL     1     -35.376  21.478 -27.848  1.00  0.00    -0.550 OA
ATOM      7  O   UNL     1     -35.216  19.410 -26.875  1.00  0.00    -0.550 OA
ENDBRANCH   4   5
ENDBRANCH   3   4
ENDBRANCH   2   3
ENDBRANCH   1   2
BRANCH   1   8
ATOM      8  C   UNL     1     -37.872  16.918 -30.320  1.00  0.00     0.000 C 
BRANCH   8   9
ATOM      9  C   UNL     1     -38.775  18.139 -30.554  1.00  0.00    -0.000 C 
BRANCH   9  10
ATOM     10  C   UNL     1     -38.821  19.085 -29.343  1.00  0.00    -0.000 C 
BRANCH  10  11
ATOM     11  C   UNL     1     -38.396  20.520 -29.698  1.00  0.00    -0.000 C 
BRANCH  11  12
ATOM     12  C   UNL     1     -38.320  20.751 -31.216  1.00  0.00    -0.003 C 
ATOM     13  C   UNL     1     -36.913  21.110 -31.692  1.00  0.00     0.004 C 
ENDBRANCH  11  12
ENDBRANCH  10  11
ENDBRANCH   9  10
ENDBRANCH   8   9
ENDBRANCH   1   8
TORSDOF 9
ENDMDL
MODEL 9
REMARK VINA RESULT:    -3.628      2.450      3.692
REMARK INTER + INTRA:          -6.895
REMARK INTER:                  -5.774
REMARK INTRA:                  -1.121
REMARK UNBOUND:                -1.358
REMARK SMILES CCCCCCCCCCC(=O)[O-]
REMARK SMILES IDX 7 1 8 2 9 3 10 4 11 5 12 6 13 7 6 8 5 9 4 10 3 11 2 12 1 13
REMARK H PARENT
REMARK Flexibility Score: inf
ROOT
ATOM      1  C   UNL     1     -38.346  20.459 -31.144  1.00  0.00     0.000 C 
ENDROOT
BRANCH   1   2
ATOM      2  C   UNL     1     -37.009  21.119 -31.543  1.00  0.00     0.000 C 
BRANCH   2   3
ATOM      3  C   UNL     1     -36.014  21.248 -30.376  1.00  0.00     0.006 C 
BRANCH   3   4
ATOM      4  C   UNL     1     -35.939  22.671 -29.811  1.00  0.00     0.053 C 
BRANCH   4   5
ATOM      5  C   UNL     1     -35.702  22.635 -28.334  1.00  0.00     0.041 C 
ATOM      6  O   UNL     1     -36.029  23.616 -27.615  1.00  0.00    -0.550 OA
ATOM      7  O   UNL     1     -35.165  21.498 -27.743  1.00  0.00    -0.550 OA
ENDBRANCH   4   5
ENDBRANCH   3   4
ENDBRANCH   2   3
ENDBRANCH   1   2
BRANCH   1   8
ATOM      8  C   UNL     1     -39.125  21.298 -30.121  1.00  0.00     0.000 C 
BRANCH   8   9
ATOM      9  C   UNL     1     -39.575  20.436 -28.932  1.00  0.00    -0.000 C 
BRANCH   9  10
ATOM     10  C   UNL     1     -38.876  19.067 -28.893  1.00  0.00    -0.000 C 
BRANCH  10  11
ATOM     11  C   UNL     1     -37.780  18.995 -27.816  1.00  0.00    -0.000 C 
BRANCH  11  12
ATOM     12  C   UNL     1     -36.646  18.029 -28.195  1.00  0.00    -0.003 C 
ATOM     13  C   UNL     1     -36.842  17.395 -29.572  1.00  0.00     0.004 C 
ENDBRANCH  11  12
ENDBRANCH  10  11
ENDBRANCH   9  10
ENDBRANCH   8   9
ENDBRANCH   1   8
TORSDOF 9
ENDMDL
