MODEL 1
REMARK VINA RESULT:    -5.516      0.000      0.000
REMARK INTER + INTRA:          -6.433
REMARK INTER:                  -6.322
REMARK INTRA:                  -0.110
REMARK UNBOUND:                -0.110
REMARK SMILES COc1cc(C(C)=O)ccc1O
REMARK SMILES IDX 5 1 4 2 3 3 11 4 10 5 9 6 6 7 7 8 8 9 2 10 1 11 12 12
REMARK H PARENT 12 13
REMARK Flexibility Score: inf
ROOT
ATOM      1  C   UNL     1      36.496  37.180  74.356  1.00  0.00     0.021 A 
ATOM      2  C   UNL     1      36.555  36.268  73.285  1.00  0.00     0.062 A 
ATOM      3  C   UNL     1      36.570  36.720  71.949  1.00  0.00     0.161 A 
ATOM      4  C   UNL     1      36.525  38.100  71.690  1.00  0.00     0.157 A 
ATOM      5  C   UNL     1      36.465  39.009  72.749  1.00  0.00     0.051 A 
ATOM      6  C   UNL     1      36.451  38.557  74.070  1.00  0.00     0.016 A 
ENDROOT
BRANCH   1   7
ATOM      7  C   UNL     1      36.479  36.717  75.771  1.00  0.00     0.159 C 
ATOM      8  C   UNL     1      35.203  36.363  76.476  1.00  0.00     0.093 C 
ATOM      9  O   UNL     1      37.562  36.612  76.409  1.00  0.00    -0.295 OA
ENDBRANCH   1   7
BRANCH   3  10
ATOM     10  O   UNL     1      36.629  35.831  70.864  1.00  0.00    -0.493 OA
ATOM     11  C   UNL     1      35.495  35.226  70.250  1.00  0.00     0.278 C 
ENDBRANCH   3  10
BRANCH   4  12
ATOM     12  O   UNL     1      36.538  38.590  70.385  1.00  0.00    -0.504 OA
ATOM     13  H   UNL     1      35.729  39.034  69.966  1.00  0.00     0.293 HD
ENDBRANCH   4  12
TORSDOF 3
ENDMDL
MODEL 2
REMARK VINA RESULT:    -5.386     13.118     14.072
REMARK INTER + INTRA:          -6.283
REMARK INTER:                  -6.178
REMARK INTRA:                  -0.105
REMARK UNBOUND:                -0.110
REMARK SMILES COc1cc(C(C)=O)ccc1O
REMARK SMILES IDX 5 1 4 2 3 3 11 4 10 5 9 6 6 7 7 8 8 9 2 10 1 11 12 12
REMARK H PARENT 12 13
REMARK Flexibility Score: inf
ROOT
ATOM      1  C   UNL     1      47.240  44.002  78.875  1.00  0.00     0.021 A 
ATOM      2  C   UNL     1      47.142  43.115  77.785  1.00  0.00     0.062 A 
ATOM      3  C   UNL     1      48.245  42.885  76.937  1.00  0.00     0.161 A 
ATOM      4  C   UNL     1      49.456  43.553  77.187  1.00  0.00     0.157 A 
ATOM      5  C   UNL     1      49.557  44.434  78.266  1.00  0.00     0.051 A 
ATOM      6  C   UNL     1      48.463  44.658  79.103  1.00  0.00     0.016 A 
ENDROOT
BRANCH   1   7
ATOM      7  C   UNL     1      46.084  44.254  79.778  1.00  0.00     0.159 C 
ATOM      8  C   UNL     1      46.156  43.994  81.253  1.00  0.00     0.093 C 
ATOM      9  O   UNL     1      45.004  44.700  79.302  1.00  0.00    -0.295 OA
ENDBRANCH   1   7
BRANCH   3  10
ATOM     10  O   UNL     1      48.173  42.006  75.844  1.00  0.00    -0.493 OA
ATOM     11  C   UNL     1      47.372  40.828  75.803  1.00  0.00     0.278 C 
ENDBRANCH   3  10
BRANCH   4  12
ATOM     12  O   UNL     1      50.571  43.355  76.374  1.00  0.00    -0.504 OA
ATOM     13  H   UNL     1      50.825  42.441  76.019  1.00  0.00     0.293 HD
ENDBRANCH   4  12
TORSDOF 3
ENDMDL
MODEL 3
REMARK VINA RESULT:    -5.198     13.091     14.550
REMARK INTER + INTRA:          -6.068
REMARK INTER:                  -5.951
REMARK INTRA:                  -0.117
REMARK UNBOUND:                -0.110
REMARK SMILES COc1cc(C(C)=O)ccc1O
REMARK SMILES IDX 5 1 4 2 3 3 11 4 10 5 9 6 6 7 7 8 8 9 2 10 1 11 12 12
REMARK H PARENT 12 13
REMARK Flexibility Score: inf
ROOT
ATOM      1  C   UNL     1      48.003  42.636  76.825  1.00  0.00     0.021 A 
ATOM      2  C   UNL     1      47.237  43.097  77.914  1.00  0.00     0.062 A 
ATOM      3  C   UNL     1      47.740  44.083  78.788  1.00  0.00     0.161 A 
ATOM      4  C   UNL     1      49.024  44.608  78.565  1.00  0.00     0.157 A 
ATOM      5  C   UNL     1      49.788  44.154  77.487  1.00  0.00     0.051 A 
ATOM      6  C   UNL     1      49.285  43.178  76.624  1.00  0.00     0.016 A 
ENDROOT
BRANCH   1   7
ATOM      7  C   UNL     1      47.483  41.596  75.895  1.00  0.00     0.159 C 
ATOM      8  C   UNL     1      47.867  41.564  74.445  1.00  0.00     0.093 C 
ATOM      9  O   UNL     1      46.697  40.708  76.325  1.00  0.00    -0.295 OA
ENDBRANCH   1   7
BRANCH   3  10
ATOM     10  O   UNL     1      46.997  44.558  79.880  1.00  0.00    -0.493 OA
ATOM     11  C   UNL     1      46.229  43.739  80.756  1.00  0.00     0.278 C 
ENDBRANCH   3  10
BRANCH   4  12
ATOM     12  O   UNL     1      49.561  45.584  79.404  1.00  0.00    -0.504 OA
ATOM     13  H   UNL     1      50.460  45.472  79.856  1.00  0.00     0.293 HD
ENDBRANCH   4  12
TORSDOF 3
ENDMDL
MODEL 4
REMARK VINA RESULT:    -5.151      2.406      3.366
REMARK INTER + INTRA:          -6.014
REMARK INTER:                  -5.888
REMARK INTRA:                  -0.126
REMARK UNBOUND:                -0.110
REMARK SMILES COc1cc(C(C)=O)ccc1O
REMARK SMILES IDX 5 1 4 2 3 3 11 4 10 5 9 6 6 7 7 8 8 9 2 10 1 11 12 12
REMARK H PARENT 12 13
REMARK Flexibility Score: inf
ROOT
ATOM      1  C   UNL     1      36.678  36.813  76.053  1.00  0.00     0.021 A 
ATOM      2  C   UNL     1      36.183  37.618  75.009  1.00  0.00     0.062 A 
ATOM      3  C   UNL     1      36.992  38.606  74.411  1.00  0.00     0.161 A 
ATOM      4  C   UNL     1      38.308  38.786  74.869  1.00  0.00     0.157 A 
ATOM      5  C   UNL     1      38.803  37.990  75.905  1.00  0.00     0.051 A 
ATOM      6  C   UNL     1      37.999  37.013  76.493  1.00  0.00     0.016 A 
ENDROOT
BRANCH   1   7
ATOM      7  C   UNL     1      35.834  35.766  76.693  1.00  0.00     0.159 C 
ATOM      8  C   UNL     1      36.384  34.420  77.064  1.00  0.00     0.093 C 
ATOM      9  O   UNL     1      34.620  36.003  76.938  1.00  0.00    -0.295 OA
ENDBRANCH   1   7
BRANCH   3  10
ATOM     10  O   UNL     1      36.522  39.421  73.369  1.00  0.00    -0.493 OA
ATOM     11  C   UNL     1      36.152  38.952  72.076  1.00  0.00     0.278 C 
ENDBRANCH   3  10
BRANCH   4  12
ATOM     12  O   UNL     1      39.142  39.751  74.306  1.00  0.00    -0.504 OA
ATOM     13  H   UNL     1      38.791  40.481  73.698  1.00  0.00     0.293 HD
ENDBRANCH   4  12
TORSDOF 3
ENDMDL
MODEL 5
REMARK VINA RESULT:    -5.129     13.438     14.617
REMARK INTER + INTRA:          -5.989
REMARK INTER:                  -5.857
REMARK INTRA:                  -0.133
REMARK UNBOUND:                -0.110
REMARK SMILES COc1cc(C(C)=O)ccc1O
REMARK SMILES IDX 5 1 4 2 3 3 11 4 10 5 9 6 6 7 7 8 8 9 2 10 1 11 12 12
REMARK H PARENT 12 13
REMARK Flexibility Score: inf
ROOT
ATOM      1  C   UNL     1      46.745  44.071  79.349  1.00  0.00     0.021 A 
ATOM      2  C   UNL     1      48.138  44.280  79.318  1.00  0.00     0.062 A 
ATOM      3  C   UNL     1      48.849  44.241  78.100  1.00  0.00     0.161 A 
ATOM      4  C   UNL     1      48.153  43.988  76.906  1.00  0.00     0.157 A 
ATOM      5  C   UNL     1      46.772  43.780  76.932  1.00  0.00     0.051 A 
ATOM      6  C   UNL     1      46.073  43.820  78.139  1.00  0.00     0.016 A 
ENDROOT
BRANCH   1   7
ATOM      7  C   UNL     1      45.983  44.109  80.627  1.00  0.00     0.159 C 
ATOM      8  C   UNL     1      44.599  44.684  80.710  1.00  0.00     0.093 C 
ATOM      9  O   UNL     1      46.502  43.648  81.680  1.00  0.00    -0.295 OA
ENDBRANCH   1   7
BRANCH   3  10
ATOM     10  O   UNL     1      50.237  44.446  78.042  1.00  0.00    -0.493 OA
ATOM     11  C   UNL     1      50.867  45.722  78.010  1.00  0.00     0.278 C 
ENDBRANCH   3  10
BRANCH   4  12
ATOM     12  O   UNL     1      48.816  43.941  75.680  1.00  0.00    -0.504 OA
ATOM     13  H   UNL     1      49.394  44.704  75.349  1.00  0.00     0.293 HD
ENDBRANCH   4  12
TORSDOF 3
ENDMDL
MODEL 6
REMARK VINA RESULT:    -5.088      3.489      4.559
REMARK INTER + INTRA:          -5.942
REMARK INTER:                  -5.809
REMARK INTRA:                  -0.133
REMARK UNBOUND:                -0.110
REMARK SMILES COc1cc(C(C)=O)ccc1O
REMARK SMILES IDX 5 1 4 2 3 3 11 4 10 5 9 6 6 7 7 8 8 9 2 10 1 11 12 12
REMARK H PARENT 12 13
REMARK Flexibility Score: inf
ROOT
ATOM      1  C   UNL     1      37.925  37.651  75.742  1.00  0.00     0.021 A 
ATOM      2  C   UNL     1      37.518  36.567  76.544  1.00  0.00     0.062 A 
ATOM      3  C   UNL     1      36.175  36.138  76.554  1.00  0.00     0.161 A 
ATOM      4  C   UNL     1      35.234  36.806  75.753  1.00  0.00     0.157 A 
ATOM      5  C   UNL     1      35.632  37.882  74.957  1.00  0.00     0.051 A 
ATOM      6  C   UNL     1      36.964  38.303  74.949  1.00  0.00     0.016 A 
ENDROOT
BRANCH   1   7
ATOM      7  C   UNL     1      39.340  38.114  75.722  1.00  0.00     0.159 C 
ATOM      8  C   UNL     1      39.889  38.940  74.596  1.00  0.00     0.093 C 
ATOM      9  O   UNL     1      40.111  37.812  76.672  1.00  0.00    -0.295 OA
ENDBRANCH   1   7
BRANCH   3  10
ATOM     10  O   UNL     1      35.745  35.060  77.345  1.00  0.00    -0.493 OA
ATOM     11  C   UNL     1      36.116  33.701  77.134  1.00  0.00     0.278 C 
ENDBRANCH   3  10
BRANCH   4  12
ATOM     12  O   UNL     1      33.896  36.415  75.733  1.00  0.00    -0.504 OA
ATOM     13  H   UNL     1      33.537  35.684  76.336  1.00  0.00     0.293 HD
ENDBRANCH   4  12
TORSDOF 3
ENDMDL
MODEL 7
REMARK VINA RESULT:    -5.083     14.028     15.188
REMARK INTER + INTRA:          -5.936
REMARK INTER:                  -5.816
REMARK INTRA:                  -0.120
REMARK UNBOUND:                -0.110
REMARK SMILES COc1cc(C(C)=O)ccc1O
REMARK SMILES IDX 5 1 4 2 3 3 11 4 10 5 9 6 6 7 7 8 8 9 2 10 1 11 12 12
REMARK H PARENT 12 13
REMARK Flexibility Score: inf
ROOT
ATOM      1  C   UNL     1      49.861  44.232  77.552  1.00  0.00     0.021 A 
ATOM      2  C   UNL     1      49.062  43.286  76.881  1.00  0.00     0.062 A 
ATOM      3  C   UNL     1      47.818  42.884  77.409  1.00  0.00     0.161 A 
ATOM      4  C   UNL     1      47.375  43.437  78.622  1.00  0.00     0.157 A 
ATOM      5  C   UNL     1      48.164  44.375  79.292  1.00  0.00     0.051 A 
ATOM      6  C   UNL     1      49.395  44.771  78.765  1.00  0.00     0.016 A 
ENDROOT
BRANCH   1   7
ATOM      7  C   UNL     1      51.177  44.665  77.006  1.00  0.00     0.159 C 
ATOM      8  C   UNL     1      52.278  45.167  77.892  1.00  0.00     0.093 C 
ATOM      9  O   UNL     1      51.386  44.614  75.763  1.00  0.00    -0.295 OA
ENDBRANCH   1   7
BRANCH   3  10
ATOM     10  O   UNL     1      47.003  41.943  76.759  1.00  0.00    -0.493 OA
ATOM     11  C   UNL     1      47.466  40.715  76.204  1.00  0.00     0.278 C 
ENDBRANCH   3  10
BRANCH   4  12
ATOM     12  O   UNL     1      46.151  43.068  79.180  1.00  0.00    -0.504 OA
ATOM     13  H   UNL     1      45.992  43.067  80.180  1.00  0.00     0.293 HD
ENDBRANCH   4  12
TORSDOF 3
ENDMDL
MODEL 8
REMARK VINA RESULT:    -5.032     13.868     15.204
REMARK INTER + INTRA:          -5.878
REMARK INTER:                  -5.766
REMARK INTRA:                  -0.112
REMARK UNBOUND:                -0.110
REMARK SMILES COc1cc(C(C)=O)ccc1O
REMARK SMILES IDX 5 1 4 2 3 3 11 4 10 5 9 6 6 7 7 8 8 9 2 10 1 11 12 12
REMARK H PARENT 12 13
REMARK Flexibility Score: inf
ROOT
ATOM      1  C   UNL     1      49.436  44.494  77.711  1.00  0.00     0.021 A 
ATOM      2  C   UNL     1      48.326  44.483  78.579  1.00  0.00     0.062 A 
ATOM      3  C   UNL     1      47.246  43.603  78.361  1.00  0.00     0.161 A 
ATOM      4  C   UNL     1      47.281  42.730  77.261  1.00  0.00     0.157 A 
ATOM      5  C   UNL     1      48.379  42.738  76.397  1.00  0.00     0.051 A 
ATOM      6  C   UNL     1      49.447  43.609  76.618  1.00  0.00     0.016 A 
ENDROOT
BRANCH   1   7
ATOM      7  C   UNL     1      50.584  45.417  77.930  1.00  0.00     0.159 C 
ATOM      8  C   UNL     1      52.007  44.953  77.824  1.00  0.00     0.093 C 
ATOM      9  O   UNL     1      50.369  46.627  78.212  1.00  0.00    -0.295 OA
ENDBRANCH   1   7
BRANCH   3  10
ATOM     10  O   UNL     1      46.129  43.573  79.211  1.00  0.00    -0.493 OA
ATOM     11  C   UNL     1      46.186  43.689  80.630  1.00  0.00     0.278 C 
ENDBRANCH   3  10
BRANCH   4  12
ATOM     12  O   UNL     1      46.234  41.845  77.008  1.00  0.00    -0.504 OA
ATOM     13  H   UNL     1      46.260  40.877  77.308  1.00  0.00     0.293 HD
ENDBRANCH   4  12
TORSDOF 3
ENDMDL
MODEL 9
REMARK VINA RESULT:    -4.903     12.476     13.722
REMARK INTER + INTRA:          -5.730
REMARK INTER:                  -5.618
REMARK INTRA:                  -0.112
REMARK UNBOUND:                -0.110
REMARK SMILES COc1cc(C(C)=O)ccc1O
REMARK SMILES IDX 5 1 4 2 3 3 11 4 10 5 9 6 6 7 7 8 8 9 2 10 1 11 12 12
REMARK H PARENT 12 13
REMARK Flexibility Score: inf
ROOT
ATOM      1  C   UNL     1      47.762  41.830  75.580  1.00  0.00     0.021 A 
ATOM      2  C   UNL     1      47.434  42.138  76.915  1.00  0.00     0.062 A 
ATOM      3  C   UNL     1      47.900  43.325  77.519  1.00  0.00     0.161 A 
ATOM      4  C   UNL     1      48.704  44.205  76.776  1.00  0.00     0.157 A 
ATOM      5  C   UNL     1      49.033  43.902  75.453  1.00  0.00     0.051 A 
ATOM      6  C   UNL     1      48.568  42.727  74.858  1.00  0.00     0.016 A 
ENDROOT
BRANCH   1   7
ATOM      7  C   UNL     1      47.277  40.581  74.930  1.00  0.00     0.159 C 
ATOM      8  C   UNL     1      47.341  39.250  75.620  1.00  0.00     0.093 C 
ATOM      9  O   UNL     1      46.795  40.628  73.766  1.00  0.00    -0.295 OA
ENDBRANCH   1   7
BRANCH   3  10
ATOM     10  O   UNL     1      47.586  43.655  78.848  1.00  0.00    -0.493 OA
ATOM     11  C   UNL     1      46.324  44.150  79.283  1.00  0.00     0.278 C 
ENDBRANCH   3  10
BRANCH   4  12
ATOM     12  O   UNL     1      49.186  45.388  77.334  1.00  0.00    -0.504 OA
ATOM     13  H   UNL     1      48.579  46.052  77.799  1.00  0.00     0.293 HD
ENDBRANCH   4  12
TORSDOF 3
ENDMDL
