MODEL 1
REMARK VINA RESULT:    -5.479      0.000      0.000
REMARK INTER + INTRA:          -5.639
REMARK INTER:                  -5.639
REMARK INTRA:                   0.000
REMARK UNBOUND:                 0.000
REMARK SMILES Nc1ncnc2nc[nH]c12
REMARK SMILES IDX 8 1 7 2 6 3 5 4 4 5 3 6 2 7 10 8 9 9 1 11
REMARK H PARENT 9 10 1 12 1 13
REMARK Flexibility Score: inf
ROOT
ATOM      1  C   UNL     1     -31.036  -8.847   3.879  1.00  0.00     0.199 A 
ATOM      2  N   UNL     1     -31.732  -8.443   2.781  1.00  0.00    -0.217 NA
ATOM      3  C   UNL     1     -32.987  -8.357   3.255  1.00  0.00     0.182 A 
ATOM      4  N   UNL     1     -34.091  -7.990   2.560  1.00  0.00    -0.215 NA
ATOM      5  C   UNL     1     -35.288  -7.962   3.220  1.00  0.00     0.226 A 
ATOM      6  N   UNL     1     -35.360  -8.298   4.548  1.00  0.00    -0.217 NA
ATOM      7  C   UNL     1     -34.248  -8.668   5.251  1.00  0.00     0.152 A 
ATOM      8  C   UNL     1     -33.037  -8.691   4.565  1.00  0.00     0.127 A 
ATOM      9  N   UNL     1     -31.805  -9.008   4.985  1.00  0.00    -0.340 N 
ATOM     10  H   UNL     1     -31.497  -9.308   5.936  1.00  0.00     0.168 HD
ENDROOT
BRANCH   7  11
ATOM     11  N   UNL     1     -34.347  -9.013   6.633  1.00  0.00    -0.382 N 
ATOM     12  H   UNL     1     -34.057  -8.348   7.381  1.00  0.00     0.158 HD
ATOM     13  H   UNL     1     -34.717  -9.949   6.911  1.00  0.00     0.158 HD
ENDBRANCH   7  11
TORSDOF 1
ENDMDL
MODEL 2
REMARK VINA RESULT:    -5.330      0.935      2.872
REMARK INTER + INTRA:          -5.486
REMARK INTER:                  -5.486
REMARK INTRA:                   0.000
REMARK UNBOUND:                 0.000
REMARK SMILES Nc1ncnc2nc[nH]c12
REMARK SMILES IDX 8 1 7 2 6 3 5 4 4 5 3 6 2 7 10 8 9 9 1 11
REMARK H PARENT 9 10 1 12 1 13
REMARK Flexibility Score: inf
ROOT
ATOM      1  C   UNL     1     -33.715  -9.028   6.582  1.00  0.00     0.199 A 
ATOM      2  N   UNL     1     -34.873  -8.699   5.946  1.00  0.00    -0.217 NA
ATOM      3  C   UNL     1     -34.452  -8.462   4.692  1.00  0.00     0.182 A 
ATOM      4  N   UNL     1     -35.218  -8.093   3.638  1.00  0.00    -0.215 NA
ATOM      5  C   UNL     1     -34.605  -7.896   2.432  1.00  0.00     0.226 A 
ATOM      6  N   UNL     1     -33.251  -8.071   2.302  1.00  0.00    -0.217 NA
ATOM      7  C   UNL     1     -32.475  -8.444   3.364  1.00  0.00     0.152 A 
ATOM      8  C   UNL     1     -33.115  -8.640   4.585  1.00  0.00     0.127 A 
ATOM      9  N   UNL     1     -32.623  -9.000   5.777  1.00  0.00    -0.340 N 
ATOM     10  H   UNL     1     -31.635  -9.213   6.038  1.00  0.00     0.168 HD
ENDROOT
BRANCH   7  11
ATOM     11  N   UNL     1     -31.068  -8.620   3.206  1.00  0.00    -0.382 N 
ATOM     12  H   UNL     1     -30.596  -9.507   3.483  1.00  0.00     0.158 HD
ATOM     13  H   UNL     1     -30.487  -7.849   2.805  1.00  0.00     0.158 HD
ENDBRANCH   7  11
TORSDOF 1
ENDMDL
MODEL 3
REMARK VINA RESULT:    -4.609      0.707      2.456
REMARK INTER + INTRA:          -4.744
REMARK INTER:                  -4.744
REMARK INTRA:                   0.000
REMARK UNBOUND:                 0.000
REMARK SMILES Nc1ncnc2nc[nH]c12
REMARK SMILES IDX 8 1 7 2 6 3 5 4 4 5 3 6 2 7 10 8 9 9 1 11
REMARK H PARENT 9 10 1 12 1 13
REMARK Flexibility Score: inf
ROOT
ATOM      1  C   UNL     1     -30.988  -8.866   3.404  1.00  0.00     0.199 A 
ATOM      2  N   UNL     1     -31.385  -9.129   4.679  1.00  0.00    -0.217 NA
ATOM      3  C   UNL     1     -32.687  -8.798   4.647  1.00  0.00     0.182 A 
ATOM      4  N   UNL     1     -33.566  -8.872   5.675  1.00  0.00    -0.215 NA
ATOM      5  C   UNL     1     -34.858  -8.488   5.448  1.00  0.00     0.226 A 
ATOM      6  N   UNL     1     -35.245  -8.040   4.210  1.00  0.00    -0.217 NA
ATOM      7  C   UNL     1     -34.360  -7.965   3.172  1.00  0.00     0.152 A 
ATOM      8  C   UNL     1     -33.048  -8.360   3.419  1.00  0.00     0.127 A 
ATOM      9  N   UNL     1     -31.982  -8.394   2.610  1.00  0.00    -0.340 N 
ATOM     10  H   UNL     1     -31.918  -8.124   1.603  1.00  0.00     0.168 HD
ENDROOT
BRANCH   7  11
ATOM     11  N   UNL     1     -34.785  -7.496   1.892  1.00  0.00    -0.382 N 
ATOM     12  H   UNL     1     -35.689  -6.991   1.770  1.00  0.00     0.158 HD
ATOM     13  H   UNL     1     -34.186  -7.658   1.052  1.00  0.00     0.158 HD
ENDBRANCH   7  11
TORSDOF 1
ENDMDL
MODEL 4
REMARK VINA RESULT:    -4.425      0.613      2.844
REMARK INTER + INTRA:          -4.554
REMARK INTER:                  -4.554
REMARK INTRA:                   0.000
REMARK UNBOUND:                 0.000
REMARK SMILES Nc1ncnc2nc[nH]c12
REMARK SMILES IDX 8 1 7 2 6 3 5 4 4 5 3 6 2 7 10 8 9 9 1 11
REMARK H PARENT 9 10 1 12 1 13
REMARK Flexibility Score: inf
ROOT
ATOM      1  C   UNL     1     -35.583  -7.653   3.118  1.00  0.00     0.199 A 
ATOM      2  N   UNL     1     -34.530  -7.784   2.266  1.00  0.00    -0.217 NA
ATOM      3  C   UNL     1     -33.554  -8.217   3.082  1.00  0.00     0.182 A 
ATOM      4  N   UNL     1     -32.278  -8.509   2.733  1.00  0.00    -0.215 NA
ATOM      5  C   UNL     1     -31.425  -8.940   3.711  1.00  0.00     0.226 A 
ATOM      6  N   UNL     1     -31.857  -9.069   5.006  1.00  0.00    -0.217 NA
ATOM      7  C   UNL     1     -33.144  -8.776   5.360  1.00  0.00     0.152 A 
ATOM      8  C   UNL     1     -34.001  -8.339   4.353  1.00  0.00     0.127 A 
ATOM      9  N   UNL     1     -35.291  -7.984   4.401  1.00  0.00    -0.340 N 
ATOM     10  H   UNL     1     -35.932  -7.964   5.225  1.00  0.00     0.168 HD
ENDROOT
BRANCH   7  11
ATOM     11  N   UNL     1     -33.572  -8.919   6.715  1.00  0.00    -0.382 N 
ATOM     12  H   UNL     1     -32.936  -9.297   7.449  1.00  0.00     0.158 HD
ATOM     13  H   UNL     1     -34.542  -8.641   6.987  1.00  0.00     0.158 HD
ENDBRANCH   7  11
TORSDOF 1
ENDMDL
MODEL 5
REMARK VINA RESULT:    -4.320      1.081      3.244
REMARK INTER + INTRA:          -4.447
REMARK INTER:                  -4.447
REMARK INTRA:                   0.000
REMARK UNBOUND:                 0.000
REMARK SMILES Nc1ncnc2nc[nH]c12
REMARK SMILES IDX 8 1 7 2 6 3 5 4 4 5 3 6 2 7 10 8 9 9 1 11
REMARK H PARENT 9 10 1 12 1 13
REMARK Flexibility Score: inf
ROOT
ATOM      1  C   UNL     1     -34.756  -7.632   2.198  1.00  0.00     0.199 A 
ATOM      2  N   UNL     1     -35.502  -7.880   3.309  1.00  0.00    -0.217 NA
ATOM      3  C   UNL     1     -34.574  -8.288   4.190  1.00  0.00     0.182 A 
ATOM      4  N   UNL     1     -34.788  -8.665   5.474  1.00  0.00    -0.215 NA
ATOM      5  C   UNL     1     -33.710  -9.051   6.222  1.00  0.00     0.226 A 
ATOM      6  N   UNL     1     -32.451  -9.054   5.678  1.00  0.00    -0.217 NA
ATOM      7  C   UNL     1     -32.232  -8.674   4.383  1.00  0.00     0.152 A 
ATOM      8  C   UNL     1     -33.340  -8.284   3.636  1.00  0.00     0.127 A 
ATOM      9  N   UNL     1     -33.431  -7.870   2.366  1.00  0.00    -0.340 N 
ATOM     10  H   UNL     1     -32.670  -7.752   1.661  1.00  0.00     0.168 HD
ENDROOT
BRANCH   7  11
ATOM     11  N   UNL     1     -30.912  -8.685   3.839  1.00  0.00    -0.382 N 
ATOM     12  H   UNL     1     -30.643  -8.053   3.054  1.00  0.00     0.158 HD
ATOM     13  H   UNL     1     -30.194  -9.336   4.226  1.00  0.00     0.158 HD
ENDBRANCH   7  11
TORSDOF 1
ENDMDL
MODEL 6
REMARK VINA RESULT:    -4.035      0.871      3.478
REMARK INTER + INTRA:          -4.153
REMARK INTER:                  -4.153
REMARK INTRA:                   0.000
REMARK UNBOUND:                 0.000
REMARK SMILES Nc1ncnc2nc[nH]c12
REMARK SMILES IDX 8 1 7 2 6 3 5 4 4 5 3 6 2 7 10 8 9 9 1 11
REMARK H PARENT 9 10 1 12 1 13
REMARK Flexibility Score: inf
ROOT
ATOM      1  C   UNL     1     -34.867  -8.669   6.187  1.00  0.00     0.199 A 
ATOM      2  N   UNL     1     -33.558  -9.015   6.329  1.00  0.00    -0.217 NA
ATOM      3  C   UNL     1     -33.073  -8.810   5.093  1.00  0.00     0.182 A 
ATOM      4  N   UNL     1     -31.798  -9.005   4.681  1.00  0.00    -0.215 NA
ATOM      5  C   UNL     1     -31.493  -8.738   3.375  1.00  0.00     0.226 A 
ATOM      6  N   UNL     1     -32.459  -8.287   2.512  1.00  0.00    -0.217 NA
ATOM      7  C   UNL     1     -33.747  -8.089   2.925  1.00  0.00     0.152 A 
ATOM      8  C   UNL     1     -34.041  -8.364   4.258  1.00  0.00     0.127 A 
ATOM      9  N   UNL     1     -35.193  -8.268   4.933  1.00  0.00    -0.340 N 
ATOM     10  H   UNL     1     -36.128  -7.957   4.587  1.00  0.00     0.168 HD
ENDROOT
BRANCH   7  11
ATOM     11  N   UNL     1     -34.736  -7.618   2.009  1.00  0.00    -0.382 N 
ATOM     12  H   UNL     1     -34.999  -8.168   1.163  1.00  0.00     0.158 HD
ATOM     13  H   UNL     1     -35.212  -6.705   2.180  1.00  0.00     0.158 HD
ENDBRANCH   7  11
TORSDOF 1
ENDMDL
