MODEL 1
REMARK VINA RESULT:    -6.240      0.000      0.000
REMARK INTER + INTRA:          -6.240
REMARK INTER:                  -6.240
REMARK INTRA:                   0.000
REMARK UNBOUND:                 0.000
REMARK SMILES CC(C)=C1CC[C@H](C)CC1=O
REMARK SMILES IDX 8 1 7 2 6 3 5 4 4 5 2 6 1 7 3 8 10 9 11 10 9 11
REMARK H PARENT
REMARK Flexibility Score: inf
ROOT
ATOM      1  C   UNL     1      27.899  19.886   4.031  1.00  0.00     0.008 C 
ATOM      2  C   UNL     1      28.817  20.233   5.209  1.00  0.00    -0.006 C 
ATOM      3  C   UNL     1      30.288  19.979   4.842  1.00  0.00     0.008 C 
ATOM      4  C   UNL     1      31.212  20.223   6.042  1.00  0.00     0.039 C 
ATOM      5  C   UNL     1      30.996  21.591   6.677  1.00  0.00    -0.006 C 
ATOM      6  C   UNL     1      32.023  22.270   7.266  1.00  0.00    -0.070 C 
ATOM      7  C   UNL     1      33.416  21.685   7.329  1.00  0.00     0.039 C 
ATOM      8  C   UNL     1      31.834  23.652   7.848  1.00  0.00     0.039 C 
ATOM      9  C   UNL     1      29.585  22.079   6.716  1.00  0.00     0.159 C 
ATOM     10  O   UNL     1      29.171  22.809   7.657  1.00  0.00    -0.295 OA
ATOM     11  C   UNL     1      28.626  21.700   5.626  1.00  0.00     0.084 C 
ENDROOT
TORSDOF 0
ENDMDL
MODEL 2
REMARK VINA RESULT:    -6.170      0.964      3.971
REMARK INTER + INTRA:          -6.170
REMARK INTER:                  -6.170
REMARK INTRA:                   0.000
REMARK UNBOUND:                 0.000
REMARK SMILES CC(C)=C1CC[C@H](C)CC1=O
REMARK SMILES IDX 8 1 7 2 6 3 5 4 4 5 2 6 1 7 3 8 10 9 11 10 9 11
REMARK H PARENT
REMARK Flexibility Score: inf
ROOT
ATOM      1  C   UNL     1      34.370  21.379   7.541  1.00  0.00     0.008 C 
ATOM      2  C   UNL     1      33.045  21.623   6.810  1.00  0.00    -0.006 C 
ATOM      3  C   UNL     1      32.452  20.298   6.307  1.00  0.00     0.008 C 
ATOM      4  C   UNL     1      31.177  20.534   5.485  1.00  0.00     0.039 C 
ATOM      5  C   UNL     1      30.156  21.389   6.224  1.00  0.00    -0.006 C 
ATOM      6  C   UNL     1      28.815  21.214   6.035  1.00  0.00    -0.070 C 
ATOM      7  C   UNL     1      28.288  20.176   5.070  1.00  0.00     0.039 C 
ATOM      8  C   UNL     1      27.791  22.016   6.804  1.00  0.00     0.039 C 
ATOM      9  C   UNL     1      30.710  22.491   7.065  1.00  0.00     0.159 C 
ATOM     10  O   UNL     1      30.081  23.572   7.225  1.00  0.00    -0.295 OA
ATOM     11  C   UNL     1      32.042  22.329   7.737  1.00  0.00     0.084 C 
ENDROOT
TORSDOF 0
ENDMDL
MODEL 3
REMARK VINA RESULT:    -5.840      1.608      4.390
REMARK INTER + INTRA:          -5.840
REMARK INTER:                  -5.840
REMARK INTRA:                   0.000
REMARK UNBOUND:                 0.000
REMARK SMILES CC(C)=C1CC[C@H](C)CC1=O
REMARK SMILES IDX 8 1 7 2 6 3 5 4 4 5 2 6 1 7 3 8 10 9 11 10 9 11
REMARK H PARENT
REMARK Flexibility Score: inf
ROOT
ATOM      1  C   UNL     1      34.214  21.591   7.476  1.00  0.00     0.008 C 
ATOM      2  C   UNL     1      32.699  21.361   7.454  1.00  0.00    -0.006 C 
ATOM      3  C   UNL     1      31.953  22.622   7.919  1.00  0.00     0.008 C 
ATOM      4  C   UNL     1      30.440  22.377   8.000  1.00  0.00     0.039 C 
ATOM      5  C   UNL     1      29.872  21.802   6.709  1.00  0.00    -0.006 C 
ATOM      6  C   UNL     1      28.598  22.088   6.306  1.00  0.00    -0.070 C 
ATOM      7  C   UNL     1      27.693  22.971   7.134  1.00  0.00     0.039 C 
ATOM      8  C   UNL     1      28.042  21.571   5.000  1.00  0.00     0.039 C 
ATOM      9  C   UNL     1      30.743  20.829   5.985  1.00  0.00     0.159 C 
ATOM     10  O   UNL     1      30.250  19.878   5.321  1.00  0.00    -0.295 OA
ATOM     11  C   UNL     1      32.236  20.967   6.043  1.00  0.00     0.084 C 
ENDROOT
TORSDOF 0
ENDMDL
MODEL 4
REMARK VINA RESULT:    -5.717      1.840      4.550
REMARK INTER + INTRA:          -5.717
REMARK INTER:                  -5.717
REMARK INTRA:                   0.000
REMARK UNBOUND:                 0.000
REMARK SMILES CC(C)=C1CC[C@H](C)CC1=O
REMARK SMILES IDX 8 1 7 2 6 3 5 4 4 5 2 6 1 7 3 8 10 9 11 10 9 11
REMARK H PARENT
REMARK Flexibility Score: inf
ROOT
ATOM      1  C   UNL     1      31.504  25.765   8.352  1.00  0.00     0.008 C 
ATOM      2  C   UNL     1      31.364  24.245   8.208  1.00  0.00    -0.006 C 
ATOM      3  C   UNL     1      29.912  23.864   7.879  1.00  0.00     0.008 C 
ATOM      4  C   UNL     1      29.732  22.341   7.831  1.00  0.00     0.039 C 
ATOM      5  C   UNL     1      30.738  21.663   6.910  1.00  0.00    -0.006 C 
ATOM      6  C   UNL     1      30.419  20.526   6.225  1.00  0.00    -0.070 C 
ATOM      7  C   UNL     1      29.059  19.881   6.367  1.00  0.00     0.039 C 
ATOM      8  C   UNL     1      31.388  19.876   5.264  1.00  0.00     0.039 C 
ATOM      9  C   UNL     1      32.112  22.248   6.895  1.00  0.00     0.159 C 
ATOM     10  O   UNL     1      33.129  21.527   6.708  1.00  0.00    -0.295 OA
ATOM     11  C   UNL     1      32.306  23.720   7.112  1.00  0.00     0.084 C 
ENDROOT
TORSDOF 0
ENDMDL
MODEL 5
REMARK VINA RESULT:    -5.636      1.365      2.175
REMARK INTER + INTRA:          -5.636
REMARK INTER:                  -5.636
REMARK INTRA:                   0.000
REMARK UNBOUND:                 0.000
REMARK SMILES CC(C)=C1CC[C@H](C)CC1=O
REMARK SMILES IDX 8 1 7 2 6 3 5 4 4 5 2 6 1 7 3 8 10 9 11 10 9 11
REMARK H PARENT
REMARK Flexibility Score: inf
ROOT
ATOM      1  C   UNL     1      25.945  22.497   5.842  1.00  0.00     0.008 C 
ATOM      2  C   UNL     1      27.197  21.765   6.338  1.00  0.00    -0.006 C 
ATOM      3  C   UNL     1      28.017  21.230   5.153  1.00  0.00     0.008 C 
ATOM      4  C   UNL     1      29.219  20.406   5.633  1.00  0.00     0.039 C 
ATOM      5  C   UNL     1      30.074  21.157   6.644  1.00  0.00    -0.006 C 
ATOM      6  C   UNL     1      31.423  20.957   6.720  1.00  0.00    -0.070 C 
ATOM      7  C   UNL     1      32.121  19.968   5.816  1.00  0.00     0.039 C 
ATOM      8  C   UNL     1      32.291  21.738   7.680  1.00  0.00     0.039 C 
ATOM      9  C   UNL     1      29.337  22.025   7.611  1.00  0.00     0.159 C 
ATOM     10  O   UNL     1      29.761  22.205   8.784  1.00  0.00    -0.295 OA
ATOM     11  C   UNL     1      28.063  22.701   7.195  1.00  0.00     0.084 C 
ENDROOT
TORSDOF 0
ENDMDL
MODEL 6
REMARK VINA RESULT:    -5.544      1.569      2.456
REMARK INTER + INTRA:          -5.544
REMARK INTER:                  -5.544
REMARK INTRA:                   0.000
REMARK UNBOUND:                 0.000
REMARK SMILES CC(C)=C1CC[C@H](C)CC1=O
REMARK SMILES IDX 8 1 7 2 6 3 5 4 4 5 2 6 1 7 3 8 10 9 11 10 9 11
REMARK H PARENT
REMARK Flexibility Score: inf
ROOT
ATOM      1  C   UNL     1      26.699  20.033   5.396  1.00  0.00     0.008 C 
ATOM      2  C   UNL     1      28.008  20.827   5.467  1.00  0.00    -0.006 C 
ATOM      3  C   UNL     1      28.015  21.751   6.695  1.00  0.00     0.008 C 
ATOM      4  C   UNL     1      29.274  22.629   6.726  1.00  0.00     0.039 C 
ATOM      5  C   UNL     1      30.555  21.816   6.599  1.00  0.00    -0.006 C 
ATOM      6  C   UNL     1      31.711  22.214   7.207  1.00  0.00    -0.070 C 
ATOM      7  C   UNL     1      31.772  23.488   8.018  1.00  0.00     0.039 C 
ATOM      8  C   UNL     1      32.974  21.387   7.135  1.00  0.00     0.039 C 
ATOM      9  C   UNL     1      30.495  20.637   5.683  1.00  0.00     0.159 C 
ATOM     10  O   UNL     1      31.507  20.263   5.031  1.00  0.00    -0.295 OA
ATOM     11  C   UNL     1      29.213  19.875   5.520  1.00  0.00     0.084 C 
ENDROOT
TORSDOF 0
ENDMDL
MODEL 7
REMARK VINA RESULT:    -5.533      1.463      4.238
REMARK INTER + INTRA:          -5.533
REMARK INTER:                  -5.533
REMARK INTRA:                   0.000
REMARK UNBOUND:                 0.000
REMARK SMILES CC(C)=C1CC[C@H](C)CC1=O
REMARK SMILES IDX 8 1 7 2 6 3 5 4 4 5 2 6 1 7 3 8 10 9 11 10 9 11
REMARK H PARENT
REMARK Flexibility Score: inf
ROOT
ATOM      1  C   UNL     1      31.489  22.125   9.131  1.00  0.00     0.008 C 
ATOM      2  C   UNL     1      30.666  22.149   7.838  1.00  0.00    -0.006 C 
ATOM      3  C   UNL     1      30.978  20.916   6.975  1.00  0.00     0.008 C 
ATOM      4  C   UNL     1      30.240  20.976   5.630  1.00  0.00     0.039 C 
ATOM      5  C   UNL     1      28.745  21.210   5.796  1.00  0.00    -0.006 C 
ATOM      6  C   UNL     1      27.843  20.690   4.912  1.00  0.00    -0.070 C 
ATOM      7  C   UNL     1      28.293  19.875   3.721  1.00  0.00     0.039 C 
ATOM      8  C   UNL     1      26.353  20.868   5.097  1.00  0.00     0.039 C 
ATOM      9  C   UNL     1      28.344  22.129   6.903  1.00  0.00     0.159 C 
ATOM     10  O   UNL     1      27.322  22.861   6.808  1.00  0.00    -0.295 OA
ATOM     11  C   UNL     1      29.164  22.199   8.158  1.00  0.00     0.084 C 
ENDROOT
TORSDOF 0
ENDMDL
MODEL 8
REMARK VINA RESULT:    -5.489      4.999      6.886
REMARK INTER + INTRA:          -5.489
REMARK INTER:                  -5.489
REMARK INTRA:                   0.000
REMARK UNBOUND:                 0.000
REMARK SMILES CC(C)=C1CC[C@H](C)CC1=O
REMARK SMILES IDX 8 1 7 2 6 3 5 4 4 5 2 6 1 7 3 8 10 9 11 10 9 11
REMARK H PARENT
REMARK Flexibility Score: inf
ROOT
ATOM      1  C   UNL     1      26.428  20.083   4.978  1.00  0.00     0.008 C 
ATOM      2  C   UNL     1      26.119  21.579   4.850  1.00  0.00    -0.006 C 
ATOM      3  C   UNL     1      26.316  22.051   3.401  1.00  0.00     0.008 C 
ATOM      4  C   UNL     1      26.110  23.566   3.274  1.00  0.00     0.039 C 
ATOM      5  C   UNL     1      24.784  24.026   3.865  1.00  0.00    -0.006 C 
ATOM      6  C   UNL     1      24.109  25.095   3.346  1.00  0.00    -0.070 C 
ATOM      7  C   UNL     1      24.660  25.877   2.176  1.00  0.00     0.039 C 
ATOM      8  C   UNL     1      22.766  25.526   3.886  1.00  0.00     0.039 C 
ATOM      9  C   UNL     1      24.335  23.318   5.100  1.00  0.00     0.159 C 
ATOM     10  O   UNL     1      23.667  23.912   5.989  1.00  0.00    -0.295 OA
ATOM     11  C   UNL     1      24.682  21.872   5.307  1.00  0.00     0.084 C 
ENDROOT
TORSDOF 0
ENDMDL
MODEL 9
REMARK VINA RESULT:    -5.404      1.805      4.711
REMARK INTER + INTRA:          -5.404
REMARK INTER:                  -5.404
REMARK INTRA:                   0.000
REMARK UNBOUND:                 0.000
REMARK SMILES CC(C)=C1CC[C@H](C)CC1=O
REMARK SMILES IDX 8 1 7 2 6 3 5 4 4 5 2 6 1 7 3 8 10 9 11 10 9 11
REMARK H PARENT
REMARK Flexibility Score: inf
ROOT
ATOM      1  C   UNL     1      32.159  22.108   8.288  1.00  0.00     0.008 C 
ATOM      2  C   UNL     1      30.763  21.753   7.764  1.00  0.00    -0.006 C 
ATOM      3  C   UNL     1      29.842  22.982   7.800  1.00  0.00     0.008 C 
ATOM      4  C   UNL     1      28.412  22.620   7.375  1.00  0.00     0.039 C 
ATOM      5  C   UNL     1      28.367  21.894   6.037  1.00  0.00    -0.006 C 
ATOM      6  C   UNL     1      27.308  22.038   5.187  1.00  0.00    -0.070 C 
ATOM      7  C   UNL     1      26.127  22.911   5.547  1.00  0.00     0.039 C 
ATOM      8  C   UNL     1      27.276  21.369   3.833  1.00  0.00     0.039 C 
ATOM      9  C   UNL     1      29.483  20.939   5.772  1.00  0.00     0.159 C 
ATOM     10  O   UNL     1      29.304  19.897   5.084  1.00  0.00    -0.295 OA
ATOM     11  C   UNL     1      30.850  21.204   6.331  1.00  0.00     0.084 C 
ENDROOT
TORSDOF 0
ENDMDL
