MODEL 1
REMARK VINA RESULT:    -5.655      0.000      0.000
REMARK INTER + INTRA:          -6.151
REMARK INTER:                  -6.151
REMARK INTRA:                   0.000
REMARK UNBOUND:                 0.000
REMARK SMILES Oc1cccc(O)c1O
REMARK SMILES IDX 4 1 5 2 6 3 8 4 2 5 3 6 7 7 1 9 9 11
REMARK H PARENT 7 8 1 10 9 12
REMARK Flexibility Score: inf
ROOT
ATOM      1  C   UNL     1      13.876 -12.319  28.477  1.00  0.00     0.008 A 
ATOM      2  C   UNL     1      12.791 -12.998  27.924  1.00  0.00     0.050 A 
ATOM      3  C   UNL     1      11.480 -12.597  28.205  1.00  0.00     0.161 A 
ATOM      4  C   UNL     1      11.257 -11.490  29.063  1.00  0.00     0.200 A 
ATOM      5  C   UNL     1      12.361 -10.812  29.617  1.00  0.00     0.161 A 
ATOM      6  C   UNL     1      13.661 -11.230  29.322  1.00  0.00     0.050 A 
ENDROOT
BRANCH   3   7
ATOM      7  O   UNL     1      10.439 -13.320  27.618  1.00  0.00    -0.504 OA
ATOM      8  H   UNL     1      10.480 -14.306  27.410  1.00  0.00     0.293 HD
ENDBRANCH   3   7
BRANCH   5   9
ATOM      9  O   UNL     1      12.183  -9.719  30.466  1.00  0.00    -0.504 OA
ATOM     10  H   UNL     1      12.617  -9.667  31.379  1.00  0.00     0.293 HD
ENDBRANCH   5   9
BRANCH   4  11
ATOM     11  O   UNL     1       9.971 -11.042  29.383  1.00  0.00    -0.502 OA
ATOM     12  H   UNL     1       9.125 -11.411  28.976  1.00  0.00     0.293 HD
ENDBRANCH   4  11
TORSDOF 3
ENDMDL
MODEL 2
REMARK VINA RESULT:    -5.624      0.369      2.828
REMARK INTER + INTRA:          -6.117
REMARK INTER:                  -6.117
REMARK INTRA:                   0.000
REMARK UNBOUND:                 0.000
REMARK SMILES Oc1cccc(O)c1O
REMARK SMILES IDX 4 1 5 2 6 3 8 4 2 5 3 6 7 7 1 9 9 11
REMARK H PARENT 7 8 1 10 9 12
REMARK Flexibility Score: inf
ROOT
ATOM      1  C   UNL     1      13.937 -12.326  28.327  1.00  0.00     0.008 A 
ATOM      2  C   UNL     1      13.770 -11.097  28.967  1.00  0.00     0.050 A 
ATOM      3  C   UNL     1      12.490 -10.591  29.217  1.00  0.00     0.161 A 
ATOM      4  C   UNL     1      11.353 -11.336  28.813  1.00  0.00     0.200 A 
ATOM      5  C   UNL     1      11.532 -12.576  28.167  1.00  0.00     0.161 A 
ATOM      6  C   UNL     1      12.821 -13.062  27.928  1.00  0.00     0.050 A 
ENDROOT
BRANCH   3   7
ATOM      7  O   UNL     1      12.393  -9.356  29.862  1.00  0.00    -0.504 OA
ATOM      8  H   UNL     1      13.103  -8.640  29.824  1.00  0.00     0.293 HD
ENDBRANCH   3   7
BRANCH   5   9
ATOM      9  O   UNL     1      10.439 -13.338  27.754  1.00  0.00    -0.504 OA
ATOM     10  H   UNL     1       9.488 -13.105  28.011  1.00  0.00     0.293 HD
ENDBRANCH   5   9
BRANCH   4  11
ATOM     11  O   UNL     1      10.048 -10.884  29.034  1.00  0.00    -0.502 OA
ATOM     12  H   UNL     1       9.235 -11.481  29.044  1.00  0.00     0.293 HD
ENDBRANCH   4  11
TORSDOF 3
ENDMDL
MODEL 3
REMARK VINA RESULT:    -5.565      0.968      2.824
REMARK INTER + INTRA:          -6.053
REMARK INTER:                  -6.053
REMARK INTRA:                   0.000
REMARK UNBOUND:                 0.000
REMARK SMILES Oc1cccc(O)c1O
REMARK SMILES IDX 4 1 5 2 6 3 8 4 2 5 3 6 7 7 1 9 9 11
REMARK H PARENT 7 8 1 10 9 12
REMARK Flexibility Score: inf
ROOT
ATOM      1  C   UNL     1      13.598 -11.063  29.172  1.00  0.00     0.008 A 
ATOM      2  C   UNL     1      12.285 -10.672  29.435  1.00  0.00     0.050 A 
ATOM      3  C   UNL     1      11.207 -11.405  28.924  1.00  0.00     0.161 A 
ATOM      4  C   UNL     1      11.456 -12.554  28.132  1.00  0.00     0.200 A 
ATOM      5  C   UNL     1      12.786 -12.940  27.872  1.00  0.00     0.161 A 
ATOM      6  C   UNL     1      13.847 -12.193  28.392  1.00  0.00     0.050 A 
ENDROOT
BRANCH   3   7
ATOM      7  O   UNL     1       9.918 -10.960  29.226  1.00  0.00    -0.504 OA
ATOM      8  H   UNL     1       9.290 -10.544  28.555  1.00  0.00     0.293 HD
ENDBRANCH   3   7
BRANCH   5   9
ATOM      9  O   UNL     1      13.073 -14.064  27.097  1.00  0.00    -0.504 OA
ATOM     10  H   UNL     1      13.771 -14.745  27.370  1.00  0.00     0.293 HD
ENDBRANCH   5   9
BRANCH   4  11
ATOM     11  O   UNL     1      10.422 -13.327  27.595  1.00  0.00    -0.502 OA
ATOM     12  H   UNL     1       9.885 -14.000  28.120  1.00  0.00     0.293 HD
ENDBRANCH   4  11
TORSDOF 3
ENDMDL
MODEL 4
REMARK VINA RESULT:    -5.526      0.987      2.048
REMARK INTER + INTRA:          -6.011
REMARK INTER:                  -6.011
REMARK INTRA:                   0.000
REMARK UNBOUND:                 0.000
REMARK SMILES Oc1cccc(O)c1O
REMARK SMILES IDX 4 1 5 2 6 3 8 4 2 5 3 6 7 7 1 9 9 11
REMARK H PARENT 7 8 1 10 9 12
REMARK Flexibility Score: inf
ROOT
ATOM      1  C   UNL     1      13.584 -11.065  29.215  1.00  0.00     0.008 A 
ATOM      2  C   UNL     1      13.854 -12.207  28.460  1.00  0.00     0.050 A 
ATOM      3  C   UNL     1      12.810 -12.968  27.921  1.00  0.00     0.161 A 
ATOM      4  C   UNL     1      11.468 -12.572  28.147  1.00  0.00     0.200 A 
ATOM      5  C   UNL     1      11.207 -11.417  28.911  1.00  0.00     0.161 A 
ATOM      6  C   UNL     1      12.265 -10.673  29.440  1.00  0.00     0.050 A 
ENDROOT
BRANCH   3   7
ATOM      7  O   UNL     1      13.149 -14.099  27.174  1.00  0.00    -0.504 OA
ATOM      8  H   UNL     1      13.977 -14.174  26.602  1.00  0.00     0.293 HD
ENDBRANCH   3   7
BRANCH   5   9
ATOM      9  O   UNL     1       9.900 -10.995  29.156  1.00  0.00    -0.504 OA
ATOM     10  H   UNL     1       9.463 -11.087  30.065  1.00  0.00     0.293 HD
ENDBRANCH   5   9
BRANCH   4  11
ATOM     11  O   UNL     1      10.383 -13.290  27.635  1.00  0.00    -0.502 OA
ATOM     12  H   UNL     1       9.863 -13.980  28.156  1.00  0.00     0.293 HD
ENDBRANCH   4  11
TORSDOF 3
ENDMDL
MODEL 5
REMARK VINA RESULT:    -5.266     11.151     12.349
REMARK INTER + INTRA:          -5.728
REMARK INTER:                  -5.728
REMARK INTRA:                   0.000
REMARK UNBOUND:                 0.000
REMARK SMILES Oc1cccc(O)c1O
REMARK SMILES IDX 4 1 5 2 6 3 8 4 2 5 3 6 7 7 1 9 9 11
REMARK H PARENT 7 8 1 10 9 12
REMARK Flexibility Score: inf
ROOT
ATOM      1  C   UNL     1      16.506  -2.547  27.419  1.00  0.00     0.008 A 
ATOM      2  C   UNL     1      17.764  -3.144  27.499  1.00  0.00     0.050 A 
ATOM      3  C   UNL     1      18.880  -2.540  26.907  1.00  0.00     0.161 A 
ATOM      4  C   UNL     1      18.725  -1.309  26.220  1.00  0.00     0.200 A 
ATOM      5  C   UNL     1      17.450  -0.715  26.145  1.00  0.00     0.161 A 
ATOM      6  C   UNL     1      16.350  -1.336  26.744  1.00  0.00     0.050 A 
ENDROOT
BRANCH   3   7
ATOM      7  O   UNL     1      20.110  -3.191  27.025  1.00  0.00    -0.504 OA
ATOM      8  H   UNL     1      20.588  -3.642  26.260  1.00  0.00     0.293 HD
ENDBRANCH   3   7
BRANCH   5   9
ATOM      9  O   UNL     1      17.257   0.495  25.478  1.00  0.00    -0.504 OA
ATOM     10  H   UNL     1      17.003   0.538  24.499  1.00  0.00     0.293 HD
ENDBRANCH   5   9
BRANCH   4  11
ATOM     11  O   UNL     1      19.800  -0.657  25.609  1.00  0.00    -0.502 OA
ATOM     12  H   UNL     1      20.721  -0.581  26.014  1.00  0.00     0.293 HD
ENDBRANCH   4  11
TORSDOF 3
ENDMDL
MODEL 6
REMARK VINA RESULT:    -5.259     10.918     12.262
REMARK INTER + INTRA:          -5.721
REMARK INTER:                  -5.721
REMARK INTRA:                   0.000
REMARK UNBOUND:                 0.000
REMARK SMILES Oc1cccc(O)c1O
REMARK SMILES IDX 4 1 5 2 6 3 8 4 2 5 3 6 7 7 1 9 9 11
REMARK H PARENT 7 8 1 10 9 12
REMARK Flexibility Score: inf
ROOT
ATOM      1  C   UNL     1      16.042  -2.461  27.359  1.00  0.00     0.008 A 
ATOM      2  C   UNL     1      15.966  -1.204  26.757  1.00  0.00     0.050 A 
ATOM      3  C   UNL     1      17.110  -0.596  26.228  1.00  0.00     0.161 A 
ATOM      4  C   UNL     1      18.357  -1.266  26.307  1.00  0.00     0.200 A 
ATOM      5  C   UNL     1      18.423  -2.534  26.917  1.00  0.00     0.161 A 
ATOM      6  C   UNL     1      17.268  -3.123  27.439  1.00  0.00     0.050 A 
ENDROOT
BRANCH   3   7
ATOM      7  O   UNL     1      16.964   0.662  25.638  1.00  0.00    -0.504 OA
ATOM      8  H   UNL     1      16.382   0.847  24.835  1.00  0.00     0.293 HD
ENDBRANCH   3   7
BRANCH   5   9
ATOM      9  O   UNL     1      19.631  -3.225  27.015  1.00  0.00    -0.504 OA
ATOM     10  H   UNL     1      19.727  -4.192  26.727  1.00  0.00     0.293 HD
ENDBRANCH   5   9
BRANCH   4  11
ATOM     11  O   UNL     1      19.535  -0.711  25.797  1.00  0.00    -0.502 OA
ATOM     12  H   UNL     1      19.571  -0.088  25.005  1.00  0.00     0.293 HD
ENDBRANCH   4  11
TORSDOF 3
ENDMDL
MODEL 7
REMARK VINA RESULT:    -5.251     11.064     12.353
REMARK INTER + INTRA:          -5.712
REMARK INTER:                  -5.712
REMARK INTRA:                   0.000
REMARK UNBOUND:                 0.000
REMARK SMILES Oc1cccc(O)c1O
REMARK SMILES IDX 4 1 5 2 6 3 8 4 2 5 3 6 7 7 1 9 9 11
REMARK H PARENT 7 8 1 10 9 12
REMARK Flexibility Score: inf
ROOT
ATOM      1  C   UNL     1      18.070  -3.092  27.417  1.00  0.00     0.008 A 
ATOM      2  C   UNL     1      19.096  -2.379  26.795  1.00  0.00     0.050 A 
ATOM      3  C   UNL     1      18.833  -1.163  26.154  1.00  0.00     0.161 A 
ATOM      4  C   UNL     1      17.509  -0.653  26.139  1.00  0.00     0.200 A 
ATOM      5  C   UNL     1      16.481  -1.382  26.769  1.00  0.00     0.161 A 
ATOM      6  C   UNL     1      16.767  -2.594  27.403  1.00  0.00     0.050 A 
ENDROOT
BRANCH   3   7
ATOM      7  O   UNL     1      19.905  -0.500  25.552  1.00  0.00    -0.504 OA
ATOM      8  H   UNL     1      20.874  -0.740  25.699  1.00  0.00     0.293 HD
ENDBRANCH   3   7
BRANCH   5   9
ATOM      9  O   UNL     1      15.166  -0.915  26.775  1.00  0.00    -0.504 OA
ATOM     10  H   UNL     1      14.370  -1.539  26.739  1.00  0.00     0.293 HD
ENDBRANCH   5   9
BRANCH   4  11
ATOM     11  O   UNL     1      17.183   0.555  25.516  1.00  0.00    -0.502 OA
ATOM     12  H   UNL     1      17.500   1.459  25.831  1.00  0.00     0.293 HD
ENDBRANCH   4  11
TORSDOF 3
ENDMDL
MODEL 8
REMARK VINA RESULT:    -5.182      1.498      2.733
REMARK INTER + INTRA:          -5.636
REMARK INTER:                  -5.636
REMARK INTRA:                   0.000
REMARK UNBOUND:                 0.000
REMARK SMILES Oc1cccc(O)c1O
REMARK SMILES IDX 4 1 5 2 6 3 8 4 2 5 3 6 7 7 1 9 9 11
REMARK H PARENT 7 8 1 10 9 12
REMARK Flexibility Score: inf
ROOT
ATOM      1  C   UNL     1      12.484 -13.349  27.208  1.00  0.00     0.008 A 
ATOM      2  C   UNL     1      13.633 -13.274  27.997  1.00  0.00     0.050 A 
ATOM      3  C   UNL     1      13.657 -12.479  29.148  1.00  0.00     0.161 A 
ATOM      4  C   UNL     1      12.501 -11.743  29.513  1.00  0.00     0.200 A 
ATOM      5  C   UNL     1      11.347 -11.825  28.709  1.00  0.00     0.161 A 
ATOM      6  C   UNL     1      11.346 -12.626  27.563  1.00  0.00     0.050 A 
ENDROOT
BRANCH   3   7
ATOM      7  O   UNL     1      14.838 -12.449  29.893  1.00  0.00    -0.504 OA
ATOM      8  H   UNL     1      15.035 -11.775  30.618  1.00  0.00     0.293 HD
ENDBRANCH   3   7
BRANCH   5   9
ATOM      9  O   UNL     1      10.190 -11.116  29.033  1.00  0.00    -0.504 OA
ATOM     10  H   UNL     1       9.264 -11.506  28.909  1.00  0.00     0.293 HD
ENDBRANCH   5   9
BRANCH   4  11
ATOM     11  O   UNL     1      12.463 -10.931  30.650  1.00  0.00    -0.502 OA
ATOM     12  H   UNL     1      11.792 -11.031  31.397  1.00  0.00     0.293 HD
ENDBRANCH   4  11
TORSDOF 3
ENDMDL
MODEL 9
REMARK VINA RESULT:    -5.166      1.556      2.420
REMARK INTER + INTRA:          -5.619
REMARK INTER:                  -5.619
REMARK INTRA:                   0.000
REMARK UNBOUND:                 0.000
REMARK SMILES Oc1cccc(O)c1O
REMARK SMILES IDX 4 1 5 2 6 3 8 4 2 5 3 6 7 7 1 9 9 11
REMARK H PARENT 7 8 1 10 9 12
REMARK Flexibility Score: inf
ROOT
ATOM      1  C   UNL     1      12.407 -13.358  27.146  1.00  0.00     0.008 A 
ATOM      2  C   UNL     1      11.291 -12.624  27.548  1.00  0.00     0.050 A 
ATOM      3  C   UNL     1      11.321 -11.866  28.724  1.00  0.00     0.161 A 
ATOM      4  C   UNL     1      12.500 -11.847  29.512  1.00  0.00     0.200 A 
ATOM      5  C   UNL     1      13.621 -12.592  29.097  1.00  0.00     0.161 A 
ATOM      6  C   UNL     1      13.568 -13.342  27.919  1.00  0.00     0.050 A 
ENDROOT
BRANCH   3   7
ATOM      7  O   UNL     1      10.170 -11.153  29.069  1.00  0.00    -0.504 OA
ATOM      8  H   UNL     1       9.984 -10.204  28.781  1.00  0.00     0.293 HD
ENDBRANCH   3   7
BRANCH   5   9
ATOM      9  O   UNL     1      14.799 -12.600  29.845  1.00  0.00    -0.504 OA
ATOM     10  H   UNL     1      14.887 -13.119  30.711  1.00  0.00     0.293 HD
ENDBRANCH   5   9
BRANCH   4  11
ATOM     11  O   UNL     1      12.593 -11.110  30.697  1.00  0.00    -0.502 OA
ATOM     12  H   UNL     1      13.305 -11.249  31.397  1.00  0.00     0.293 HD
ENDBRANCH   4  11
TORSDOF 3
ENDMDL
