MODEL 1
REMARK VINA RESULT:     0.000      0.000      0.000
REMARK INTER + INTRA:          -2.540
REMARK INTER:                   0.000
REMARK INTRA:                  -2.540
REMARK UNBOUND:                -2.540
REMARK SMILES CCCCCCCCCCCCCC(=O)[O-]
REMARK SMILES IDX 8 1 9 2 10 3 11 4 12 5 13 6 14 7 15 8 16 9 7 10 6 11 5 12
REMARK SMILES IDX 4 13 3 14 2 15 1 16
REMARK H PARENT
REMARK Flexibility Score: inf
ROOT
ATOM      1  C   UNL     1     177.088 184.322 180.895  1.00  0.00     0.000 C 
ENDROOT
BRANCH   1   2
ATOM      2  C   UNL     1     176.375 183.468 181.954  1.00  0.00     0.000 C 
BRANCH   2   3
ATOM      3  C   UNL     1     176.700 181.971 181.828  1.00  0.00     0.000 C 
BRANCH   3   4
ATOM      4  C   UNL     1     177.686 181.431 182.884  1.00  0.00     0.000 C 
BRANCH   4   5
ATOM      5  C   UNL     1     178.736 180.455 182.314  1.00  0.00     0.006 C 
BRANCH   5   6
ATOM      6  C   UNL     1     178.465 180.097 180.846  1.00  0.00     0.053 C 
BRANCH   6   7
ATOM      7  C   UNL     1     179.748 180.031 180.078  1.00  0.00     0.041 C 
ATOM      8  O   UNL     1     180.832 179.800 180.675  1.00  0.00    -0.550 OA
ATOM      9  O   UNL     1     179.738 180.175 178.696  1.00  0.00    -0.550 OA
ENDBRANCH   6   7
ENDBRANCH   5   6
ENDBRANCH   4   5
ENDBRANCH   3   4
ENDBRANCH   2   3
ENDBRANCH   1   2
BRANCH   1  10
ATOM     10  C   UNL     1     177.500 183.470 179.689  1.00  0.00     0.000 C 
BRANCH  10  11
ATOM     11  C   UNL     1     178.994 183.631 179.385  1.00  0.00    -0.000 C 
BRANCH  11  12
ATOM     12  C   UNL     1     179.718 184.335 180.542  1.00  0.00    -0.000 C 
BRANCH  12  13
ATOM     13  C   UNL     1     180.729 183.417 181.251  1.00  0.00    -0.000 C 
BRANCH  13  14
ATOM     14  C   UNL     1     180.712 183.590 182.779  1.00  0.00    -0.000 C 
BRANCH  14  15
ATOM     15  C   UNL     1     179.944 184.847 183.219  1.00  0.00    -0.003 C 
ATOM     16  C   UNL     1     178.995 184.579 184.386  1.00  0.00     0.004 C 
ENDBRANCH  14  15
ENDBRANCH  13  14
ENDBRANCH  12  13
ENDBRANCH  11  12
ENDBRANCH  10  11
ENDBRANCH   1  10
TORSDOF 12
ENDMDL
MODEL 2
REMARK VINA RESULT:     0.009      6.388      8.149
REMARK INTER + INTRA:          -2.526
REMARK INTER:                   0.000
REMARK INTRA:                  -2.526
REMARK UNBOUND:                -2.540
REMARK SMILES CCCCCCCCCCCCCC(=O)[O-]
REMARK SMILES IDX 8 1 9 2 10 3 11 4 12 5 13 6 14 7 15 8 16 9 7 10 6 11 5 12
REMARK SMILES IDX 4 13 3 14 2 15 1 16
REMARK H PARENT
REMARK Flexibility Score: inf
ROOT
ATOM      1  C   UNL     1     184.484 183.827 182.632  1.00  0.00     0.000 C 
ENDROOT
BRANCH   1   2
ATOM      2  C   UNL     1     184.192 184.534 183.963  1.00  0.00     0.000 C 
BRANCH   2   3
ATOM      3  C   UNL     1     184.104 183.560 185.149  1.00  0.00     0.000 C 
BRANCH   3   4
ATOM      4  C   UNL     1     185.247 183.684 186.176  1.00  0.00     0.000 C 
BRANCH   4   5
ATOM      5  C   UNL     1     185.784 182.327 186.677  1.00  0.00     0.006 C 
BRANCH   5   6
ATOM      6  C   UNL     1     184.924 181.147 186.202  1.00  0.00     0.053 C 
BRANCH   6   7
ATOM      7  C   UNL     1     185.792 179.995 185.803  1.00  0.00     0.041 C 
ATOM      8  O   UNL     1     185.445 179.239 184.858  1.00  0.00    -0.550 OA
ATOM      9  O   UNL     1     187.006 179.785 186.444  1.00  0.00    -0.550 OA
ENDBRANCH   6   7
ENDBRANCH   5   6
ENDBRANCH   4   5
ENDBRANCH   3   4
ENDBRANCH   2   3
ENDBRANCH   1   2
BRANCH   1  10
ATOM     10  C   UNL     1     184.350 182.307 182.777  1.00  0.00     0.000 C 
BRANCH  10  11
ATOM     11  C   UNL     1     185.617 181.592 182.290  1.00  0.00    -0.000 C 
BRANCH  11  12
ATOM     12  C   UNL     1     186.838 182.520 182.375  1.00  0.00    -0.000 C 
BRANCH  12  13
ATOM     13  C   UNL     1     187.764 182.171 183.552  1.00  0.00    -0.000 C 
BRANCH  13  14
ATOM     14  C   UNL     1     188.386 183.419 184.203  1.00  0.00    -0.000 C 
BRANCH  14  15
ATOM     15  C   UNL     1     188.053 184.709 183.436  1.00  0.00    -0.003 C 
ATOM     16  C   UNL     1     187.669 185.862 184.362  1.00  0.00     0.004 C 
ENDBRANCH  14  15
ENDBRANCH  13  14
ENDBRANCH  12  13
ENDBRANCH  11  12
ENDBRANCH  10  11
ENDBRANCH   1  10
TORSDOF 12
ENDMDL
MODEL 3
REMARK VINA RESULT:     0.012      7.447      9.142
REMARK INTER + INTRA:          -2.520
REMARK INTER:                   0.000
REMARK INTRA:                  -2.520
REMARK UNBOUND:                -2.540
REMARK SMILES CCCCCCCCCCCCCC(=O)[O-]
REMARK SMILES IDX 8 1 9 2 10 3 11 4 12 5 13 6 14 7 15 8 16 9 7 10 6 11 5 12
REMARK SMILES IDX 4 13 3 14 2 15 1 16
REMARK H PARENT
REMARK Flexibility Score: inf
ROOT
ATOM      1  C   UNL     1     176.321 177.012 184.552  1.00  0.00     0.000 C 
ENDROOT
BRANCH   1   2
ATOM      2  C   UNL     1     174.806 176.783 184.442  1.00  0.00     0.000 C 
BRANCH   2   3
ATOM      3  C   UNL     1     174.240 175.967 185.616  1.00  0.00     0.000 C 
BRANCH   3   4
ATOM      4  C   UNL     1     173.391 176.776 186.617  1.00  0.00     0.000 C 
BRANCH   4   5
ATOM      5  C   UNL     1     173.673 176.432 188.094  1.00  0.00     0.006 C 
BRANCH   5   6
ATOM      6  C   UNL     1     174.659 175.265 188.244  1.00  0.00     0.053 C 
BRANCH   6   7
ATOM      7  C   UNL     1     175.526 175.464 189.447  1.00  0.00     0.041 C 
ATOM      8  O   UNL     1     175.274 176.388 190.264  1.00  0.00    -0.550 OA
ATOM      9  O   UNL     1     176.585 174.599 189.691  1.00  0.00    -0.550 OA
ENDBRANCH   6   7
ENDBRANCH   5   6
ENDBRANCH   4   5
ENDBRANCH   3   4
ENDBRANCH   2   3
ENDBRANCH   1   2
BRANCH   1  10
ATOM     10  C   UNL     1     176.961 176.001 185.509  1.00  0.00     0.000 C 
BRANCH  10  11
ATOM     11  C   UNL     1     177.716 176.712 186.639  1.00  0.00    -0.000 C 
BRANCH  11  12
ATOM     12  C   UNL     1     177.411 178.217 186.642  1.00  0.00    -0.000 C 
BRANCH  12  13
ATOM     13  C   UNL     1     176.717 178.677 187.935  1.00  0.00    -0.000 C 
BRANCH  13  14
ATOM     14  C   UNL     1     175.527 179.614 187.665  1.00  0.00    -0.000 C 
BRANCH  14  15
ATOM     15  C   UNL     1     175.551 180.198 186.243  1.00  0.00    -0.003 C 
ATOM     16  C   UNL     1     174.159 180.290 185.620  1.00  0.00     0.004 C 
ENDBRANCH  14  15
ENDBRANCH  13  14
ENDBRANCH  12  13
ENDBRANCH  11  12
ENDBRANCH  10  11
ENDBRANCH   1  10
TORSDOF 12
ENDMDL
MODEL 4
REMARK VINA RESULT:     0.016      5.583      7.544
REMARK INTER + INTRA:          -2.513
REMARK INTER:                   0.000
REMARK INTRA:                  -2.513
REMARK UNBOUND:                -2.540
REMARK SMILES CCCCCCCCCCCCCC(=O)[O-]
REMARK SMILES IDX 8 1 9 2 10 3 11 4 12 5 13 6 14 7 15 8 16 9 7 10 6 11 5 12
REMARK SMILES IDX 4 13 3 14 2 15 1 16
REMARK H PARENT
REMARK Flexibility Score: inf
ROOT
ATOM      1  C   UNL     1     177.720 185.369 177.804  1.00  0.00     0.000 C 
ENDROOT
BRANCH   1   2
ATOM      2  C   UNL     1     178.504 184.101 177.435  1.00  0.00     0.000 C 
BRANCH   2   3
ATOM      3  C   UNL     1     177.610 182.996 176.850  1.00  0.00     0.000 C 
BRANCH   3   4
ATOM      4  C   UNL     1     177.747 182.790 175.328  1.00  0.00     0.000 C 
BRANCH   4   5
ATOM      5  C   UNL     1     176.406 182.530 174.611  1.00  0.00     0.006 C 
BRANCH   5   6
ATOM      6  C   UNL     1     175.217 182.521 175.582  1.00  0.00     0.053 C 
BRANCH   6   7
ATOM      7  C   UNL     1     173.953 182.880 174.865  1.00  0.00     0.041 C 
ATOM      8  O   UNL     1     173.645 182.295 173.794  1.00  0.00    -0.550 OA
ATOM      9  O   UNL     1     173.093 183.827 175.405  1.00  0.00    -0.550 OA
ENDBRANCH   6   7
ENDBRANCH   5   6
ENDBRANCH   4   5
ENDBRANCH   3   4
ENDBRANCH   2   3
ENDBRANCH   1   2
BRANCH   1  10
ATOM     10  C   UNL     1     176.252 185.040 178.098  1.00  0.00     0.000 C 
BRANCH  10  11
ATOM     11  C   UNL     1     175.313 185.904 177.246  1.00  0.00    -0.000 C 
BRANCH  11  12
ATOM     12  C   UNL     1     176.094 186.661 176.162  1.00  0.00    -0.000 C 
BRANCH  12  13
ATOM     13  C   UNL     1     175.713 186.214 174.740  1.00  0.00    -0.000 C 
BRANCH  13  14
ATOM     14  C   UNL     1     176.931 186.119 173.806  1.00  0.00    -0.000 C 
BRANCH  14  15
ATOM     15  C   UNL     1     178.182 186.785 174.402  1.00  0.00    -0.003 C 
ATOM     16  C   UNL     1     179.431 185.915 174.270  1.00  0.00     0.004 C 
ENDBRANCH  14  15
ENDBRANCH  13  14
ENDBRANCH  12  13
ENDBRANCH  11  12
ENDBRANCH  10  11
ENDBRANCH   1  10
TORSDOF 12
ENDMDL
MODEL 5
REMARK VINA RESULT:     0.017      8.196     10.553
REMARK INTER + INTRA:          -2.511
REMARK INTER:                   0.000
REMARK INTRA:                  -2.511
REMARK UNBOUND:                -2.540
REMARK SMILES CCCCCCCCCCCCCC(=O)[O-]
REMARK SMILES IDX 8 1 9 2 10 3 11 4 12 5 13 6 14 7 15 8 16 9 7 10 6 11 5 12
REMARK SMILES IDX 4 13 3 14 2 15 1 16
REMARK H PARENT
REMARK Flexibility Score: inf
ROOT
ATOM      1  C   UNL     1     186.270 180.242 176.508  1.00  0.00     0.000 C 
ENDROOT
BRANCH   1   2
ATOM      2  C   UNL     1     187.542 180.428 175.668  1.00  0.00     0.000 C 
BRANCH   2   3
ATOM      3  C   UNL     1     188.201 181.801 175.879  1.00  0.00     0.000 C 
BRANCH   3   4
ATOM      4  C   UNL     1     188.087 182.765 174.682  1.00  0.00     0.000 C 
BRANCH   4   5
ATOM      5  C   UNL     1     187.753 184.217 175.080  1.00  0.00     0.006 C 
BRANCH   5   6
ATOM      6  C   UNL     1     187.670 184.401 176.602  1.00  0.00     0.053 C 
BRANCH   6   7
ATOM      7  C   UNL     1     186.857 185.611 176.940  1.00  0.00     0.041 C 
ATOM      8  O   UNL     1     187.071 186.702 176.349  1.00  0.00    -0.550 OA
ATOM      9  O   UNL     1     185.832 185.521 177.873  1.00  0.00    -0.550 OA
ENDBRANCH   6   7
ENDBRANCH   5   6
ENDBRANCH   4   5
ENDBRANCH   3   4
ENDBRANCH   2   3
ENDBRANCH   1   2
BRANCH   1  10
ATOM     10  C   UNL     1     186.266 181.187 177.715  1.00  0.00     0.000 C 
BRANCH  10  11
ATOM     11  C   UNL     1     184.997 182.048 177.738  1.00  0.00    -0.000 C 
BRANCH  11  12
ATOM     12  C   UNL     1     184.230 181.932 176.412  1.00  0.00    -0.000 C 
BRANCH  12  13
ATOM     13  C   UNL     1     184.192 183.259 175.635  1.00  0.00    -0.000 C 
BRANCH  13  14
ATOM     14  C   UNL     1     184.374 183.060 174.120  1.00  0.00    -0.000 C 
BRANCH  14  15
ATOM     15  C   UNL     1     184.285 181.582 173.707  1.00  0.00    -0.003 C 
ATOM     16  C   UNL     1     185.370 181.184 172.708  1.00  0.00     0.004 C 
ENDBRANCH  14  15
ENDBRANCH  13  14
ENDBRANCH  12  13
ENDBRANCH  11  12
ENDBRANCH  10  11
ENDBRANCH   1  10
TORSDOF 12
ENDMDL
MODEL 6
REMARK VINA RESULT:     0.023      6.680      8.562
REMARK INTER + INTRA:          -2.501
REMARK INTER:                   0.000
REMARK INTRA:                  -2.501
REMARK UNBOUND:                -2.540
REMARK SMILES CCCCCCCCCCCCCC(=O)[O-]
REMARK SMILES IDX 8 1 9 2 10 3 11 4 12 5 13 6 14 7 15 8 16 9 7 10 6 11 5 12
REMARK SMILES IDX 4 13 3 14 2 15 1 16
REMARK H PARENT
REMARK Flexibility Score: inf
ROOT
ATOM      1  C   UNL     1     186.066 183.409 178.883  1.00  0.00     0.000 C 
ENDROOT
BRANCH   1   2
ATOM      2  C   UNL     1     184.784 184.104 179.363  1.00  0.00     0.000 C 
BRANCH   2   3
ATOM      3  C   UNL     1     183.616 183.946 178.376  1.00  0.00     0.000 C 
BRANCH   3   4
ATOM      4  C   UNL     1     183.324 185.190 177.514  1.00  0.00     0.000 C 
BRANCH   4   5
ATOM      5  C   UNL     1     182.960 184.862 176.051  1.00  0.00     0.006 C 
BRANCH   5   6
ATOM      6  C   UNL     1     182.945 183.352 175.777  1.00  0.00     0.053 C 
BRANCH   6   7
ATOM      7  C   UNL     1     183.176 183.081 174.324  1.00  0.00     0.041 C 
ATOM      8  O   UNL     1     182.474 183.658 173.453  1.00  0.00    -0.550 OA
ATOM      9  O   UNL     1     184.198 182.226 173.930  1.00  0.00    -0.550 OA
ENDBRANCH   6   7
ENDBRANCH   5   6
ENDBRANCH   4   5
ENDBRANCH   3   4
ENDBRANCH   2   3
ENDBRANCH   1   2
BRANCH   1  10
ATOM     10  C   UNL     1     185.738 182.212 177.983  1.00  0.00     0.000 C 
BRANCH  10  11
ATOM     11  C   UNL     1     186.467 182.316 176.638  1.00  0.00    -0.000 C 
BRANCH  11  12
ATOM     12  C   UNL     1     187.174 183.672 176.499  1.00  0.00    -0.000 C 
BRANCH  12  13
ATOM     13  C   UNL     1     186.612 184.515 175.342  1.00  0.00    -0.000 C 
BRANCH  13  14
ATOM     14  C   UNL     1     186.494 186.006 175.701  1.00  0.00    -0.000 C 
BRANCH  14  15
ATOM     15  C   UNL     1     187.258 186.362 176.986  1.00  0.00    -0.003 C 
ATOM     16  C   UNL     1     186.418 187.183 177.963  1.00  0.00     0.004 C 
ENDBRANCH  14  15
ENDBRANCH  13  14
ENDBRANCH  12  13
ENDBRANCH  11  12
ENDBRANCH  10  11
ENDBRANCH   1  10
TORSDOF 12
ENDMDL
MODEL 7
REMARK VINA RESULT:     0.024      3.230      4.771
REMARK INTER + INTRA:          -2.500
REMARK INTER:                   0.000
REMARK INTRA:                  -2.500
REMARK UNBOUND:                -2.540
REMARK SMILES CCCCCCCCCCCCCC(=O)[O-]
REMARK SMILES IDX 8 1 9 2 10 3 11 4 12 5 13 6 14 7 15 8 16 9 7 10 6 11 5 12
REMARK SMILES IDX 4 13 3 14 2 15 1 16
REMARK H PARENT
REMARK Flexibility Score: inf
ROOT
ATOM      1  C   UNL     1     178.395 182.349 182.477  1.00  0.00     0.000 C 
ENDROOT
BRANCH   1   2
ATOM      2  C   UNL     1     179.145 182.210 181.144  1.00  0.00     0.000 C 
BRANCH   2   3
ATOM      3  C   UNL     1     178.247 182.472 179.924  1.00  0.00     0.000 C 
BRANCH   3   4
ATOM      4  C   UNL     1     178.529 183.795 179.184  1.00  0.00     0.000 C 
BRANCH   4   5
ATOM      5  C   UNL     1     177.256 184.570 178.785  1.00  0.00     0.006 C 
BRANCH   5   6
ATOM      6  C   UNL     1     175.976 183.765 179.050  1.00  0.00     0.053 C 
BRANCH   6   7
ATOM      7  C   UNL     1     174.798 184.680 179.172  1.00  0.00     0.041 C 
ATOM      8  O   UNL     1     174.141 184.727 180.245  1.00  0.00    -0.550 OA
ATOM      9  O   UNL     1     174.456 185.517 178.117  1.00  0.00    -0.550 OA
ENDBRANCH   6   7
ENDBRANCH   5   6
ENDBRANCH   4   5
ENDBRANCH   3   4
ENDBRANCH   2   3
ENDBRANCH   1   2
BRANCH   1  10
ATOM     10  C   UNL     1     176.882 182.209 182.272  1.00  0.00     0.000 C 
BRANCH  10  11
ATOM     11  C   UNL     1     176.134 183.421 182.843  1.00  0.00    -0.000 C 
BRANCH  11  12
ATOM     12  C   UNL     1     177.107 184.565 183.167  1.00  0.00    -0.000 C 
BRANCH  12  13
ATOM     13  C   UNL     1     176.880 185.801 182.281  1.00  0.00    -0.000 C 
BRANCH  13  14
ATOM     14  C   UNL     1     178.199 186.451 181.828  1.00  0.00    -0.000 C 
BRANCH  14  15
ATOM     15  C   UNL     1     179.419 185.885 182.572  1.00  0.00    -0.003 C 
ATOM     16  C   UNL     1     180.607 185.631 181.647  1.00  0.00     0.004 C 
ENDBRANCH  14  15
ENDBRANCH  13  14
ENDBRANCH  12  13
ENDBRANCH  11  12
ENDBRANCH  10  11
ENDBRANCH   1  10
TORSDOF 12
ENDMDL
MODEL 8
REMARK VINA RESULT:     0.026      4.101      5.946
REMARK INTER + INTRA:          -2.496
REMARK INTER:                   0.000
REMARK INTRA:                  -2.496
REMARK UNBOUND:                -2.540
REMARK SMILES CCCCCCCCCCCCCC(=O)[O-]
REMARK SMILES IDX 8 1 9 2 10 3 11 4 12 5 13 6 14 7 15 8 16 9 7 10 6 11 5 12
REMARK SMILES IDX 4 13 3 14 2 15 1 16
REMARK H PARENT
REMARK Flexibility Score: inf
ROOT
ATOM      1  C   UNL     1     182.784 182.963 178.531  1.00  0.00     0.000 C 
ENDROOT
BRANCH   1   2
ATOM      2  C   UNL     1     182.126 182.290 179.744  1.00  0.00     0.000 C 
BRANCH   2   3
ATOM      3  C   UNL     1     180.763 181.662 179.409  1.00  0.00     0.000 C 
BRANCH   3   4
ATOM      4  C   UNL     1     180.751 180.120 179.374  1.00  0.00     0.000 C 
BRANCH   4   5
ATOM      5  C   UNL     1     179.967 179.530 178.184  1.00  0.00     0.006 C 
BRANCH   5   6
ATOM      6  C   UNL     1     179.238 180.610 177.372  1.00  0.00     0.053 C 
BRANCH   6   7
ATOM      7  C   UNL     1     178.874 180.090 176.017  1.00  0.00     0.041 C 
ATOM      8  O   UNL     1     178.021 179.171 175.899  1.00  0.00    -0.550 OA
ATOM      9  O   UNL     1     179.442 180.653 174.881  1.00  0.00    -0.550 OA
ENDBRANCH   6   7
ENDBRANCH   5   6
ENDBRANCH   4   5
ENDBRANCH   3   4
ENDBRANCH   2   3
ENDBRANCH   1   2
BRANCH   1  10
ATOM     10  C   UNL     1     181.740 183.319 177.467  1.00  0.00     0.000 C 
BRANCH  10  11
ATOM     11  C   UNL     1     182.099 182.695 176.112  1.00  0.00    -0.000 C 
BRANCH  11  12
ATOM     12  C   UNL     1     183.249 181.687 176.258  1.00  0.00    -0.000 C 
BRANCH  12  13
ATOM     13  C   UNL     1     182.822 180.250 175.915  1.00  0.00    -0.000 C 
BRANCH  13  14
ATOM     14  C   UNL     1     183.418 179.212 176.881  1.00  0.00    -0.000 C 
BRANCH  14  15
ATOM     15  C   UNL     1     184.517 179.806 177.777  1.00  0.00    -0.003 C 
ATOM     16  C   UNL     1     184.394 179.360 179.233  1.00  0.00     0.004 C 
ENDBRANCH  14  15
ENDBRANCH  13  14
ENDBRANCH  12  13
ENDBRANCH  11  12
ENDBRANCH  10  11
ENDBRANCH   1  10
TORSDOF 12
ENDMDL
MODEL 9
REMARK VINA RESULT:     0.030      2.191      4.013
REMARK INTER + INTRA:          -2.490
REMARK INTER:                   0.000
REMARK INTRA:                  -2.490
REMARK UNBOUND:                -2.540
REMARK SMILES CCCCCCCCCCCCCC(=O)[O-]
REMARK SMILES IDX 8 1 9 2 10 3 11 4 12 5 13 6 14 7 15 8 16 9 7 10 6 11 5 12
REMARK SMILES IDX 4 13 3 14 2 15 1 16
REMARK H PARENT
REMARK Flexibility Score: inf
ROOT
ATOM      1  C   UNL     1     177.389 181.632 181.401  1.00  0.00     0.000 C 
ENDROOT
BRANCH   1   2
ATOM      2  C   UNL     1     177.450 180.098 181.431  1.00  0.00     0.000 C 
BRANCH   2   3
ATOM      3  C   UNL     1     178.496 179.562 182.422  1.00  0.00     0.000 C 
BRANCH   3   4
ATOM      4  C   UNL     1     179.642 178.754 181.781  1.00  0.00     0.000 C 
BRANCH   4   5
ATOM      5  C   UNL     1     181.003 179.481 181.798  1.00  0.00     0.006 C 
BRANCH   5   6
ATOM      6  C   UNL     1     181.251 180.225 183.119  1.00  0.00     0.053 C 
BRANCH   6   7
ATOM      7  C   UNL     1     182.329 181.248 182.948  1.00  0.00     0.041 C 
ATOM      8  O   UNL     1     183.223 181.088 182.077  1.00  0.00    -0.550 OA
ATOM      9  O   UNL     1     182.318 182.403 183.720  1.00  0.00    -0.550 OA
ENDBRANCH   6   7
ENDBRANCH   5   6
ENDBRANCH   4   5
ENDBRANCH   3   4
ENDBRANCH   2   3
ENDBRANCH   1   2
BRANCH   1  10
ATOM     10  C   UNL     1     178.198 182.236 182.554  1.00  0.00     0.000 C 
BRANCH  10  11
ATOM     11  C   UNL     1     179.245 183.228 182.033  1.00  0.00    -0.000 C 
BRANCH  11  12
ATOM     12  C   UNL     1     179.383 183.131 180.507  1.00  0.00    -0.000 C 
BRANCH  12  13
ATOM     13  C   UNL     1     180.835 182.892 180.060  1.00  0.00    -0.000 C 
BRANCH  13  14
ATOM     14  C   UNL     1     180.951 181.786 178.997  1.00  0.00    -0.000 C 
BRANCH  14  15
ATOM     15  C   UNL     1     179.581 181.335 178.467  1.00  0.00    -0.003 C 
ATOM     16  C   UNL     1     179.501 179.825 178.250  1.00  0.00     0.004 C 
ENDBRANCH  14  15
ENDBRANCH  13  14
ENDBRANCH  12  13
ENDBRANCH  11  12
ENDBRANCH  10  11
ENDBRANCH   1  10
TORSDOF 12
ENDMDL
