MODEL 1
REMARK VINA RESULT:    -3.744      0.000      0.000
REMARK INTER + INTRA:          -7.455
REMARK INTER:                  -5.932
REMARK INTRA:                  -1.523
REMARK UNBOUND:                -1.523
REMARK SMILES CCCCCCCCCCCC(=O)[O-]
REMARK SMILES IDX 7 1 8 2 9 3 10 4 11 5 12 6 13 7 14 8 6 9 5 10 4 11 3 12 2 13
REMARK SMILES IDX 1 14
REMARK H PARENT
REMARK Flexibility Score: inf
ROOT
ATOM      1  C   UNL     1      48.977   0.444  73.294  1.00  0.00     0.000 C 
ENDROOT
BRANCH   1   2
ATOM      2  C   UNL     1      48.551  -0.502  72.164  1.00  0.00     0.000 C 
BRANCH   2   3
ATOM      3  C   UNL     1      49.767  -1.205  71.545  1.00  0.00     0.000 C 
BRANCH   3   4
ATOM      4  C   UNL     1      51.075  -0.938  72.314  1.00  0.00     0.006 C 
BRANCH   4   5
ATOM      5  C   UNL     1      51.891  -2.207  72.619  1.00  0.00     0.053 C 
BRANCH   5   6
ATOM      6  C   UNL     1      53.370  -1.969  72.575  1.00  0.00     0.041 C 
ATOM      7  O   UNL     1      54.133  -2.557  73.384  1.00  0.00    -0.550 OA
ATOM      8  O   UNL     1      53.909  -1.120  71.617  1.00  0.00    -0.550 OA
ENDBRANCH   5   6
ENDBRANCH   4   5
ENDBRANCH   3   4
ENDBRANCH   2   3
ENDBRANCH   1   2
BRANCH   1   9
ATOM      9  C   UNL     1      48.189   0.154  74.580  1.00  0.00     0.000 C 
BRANCH   9  10
ATOM     10  C   UNL     1      48.929  -0.806  75.527  1.00  0.00    -0.000 C 
BRANCH  10  11
ATOM     11  C   UNL     1      48.287  -2.204  75.569  1.00  0.00    -0.000 C 
BRANCH  11  12
ATOM     12  C   UNL     1      49.023  -3.217  74.677  1.00  0.00    -0.000 C 
BRANCH  12  13
ATOM     13  C   UNL     1      48.074  -3.996  73.755  1.00  0.00    -0.003 C 
ATOM     14  C   UNL     1      48.836  -4.638  72.600  1.00  0.00     0.004 C 
ENDBRANCH  12  13
ENDBRANCH  11  12
ENDBRANCH  10  11
ENDBRANCH   9  10
ENDBRANCH   1   9
TORSDOF 10
ENDMDL
MODEL 2
REMARK VINA RESULT:    -3.517      3.229      5.018
REMARK INTER + INTRA:          -7.097
REMARK INTER:                  -5.464
REMARK INTRA:                  -1.633
REMARK UNBOUND:                -1.523
REMARK SMILES CCCCCCCCCCCC(=O)[O-]
REMARK SMILES IDX 7 1 8 2 9 3 10 4 11 5 12 6 13 7 14 8 6 9 5 10 4 11 3 12 2 13
REMARK SMILES IDX 1 14
REMARK H PARENT
REMARK Flexibility Score: inf
ROOT
ATOM      1  C   UNL     1      49.986  -2.014  75.416  1.00  0.00     0.000 C 
ENDROOT
BRANCH   1   2
ATOM      2  C   UNL     1      49.747  -3.501  75.120  1.00  0.00     0.000 C 
BRANCH   2   3
ATOM      3  C   UNL     1      50.551  -3.954  73.893  1.00  0.00     0.000 C 
BRANCH   3   4
ATOM      4  C   UNL     1      49.667  -4.536  72.774  1.00  0.00     0.006 C 
BRANCH   4   5
ATOM      5  C   UNL     1      48.173  -4.197  72.917  1.00  0.00     0.053 C 
BRANCH   5   6
ATOM      6  C   UNL     1      47.302  -5.417  72.950  1.00  0.00     0.041 C 
ATOM      7  O   UNL     1      47.035  -6.036  71.887  1.00  0.00    -0.550 OA
ATOM      8  O   UNL     1      46.813  -5.888  74.161  1.00  0.00    -0.550 OA
ENDBRANCH   5   6
ENDBRANCH   4   5
ENDBRANCH   3   4
ENDBRANCH   2   3
ENDBRANCH   1   2
BRANCH   1   9
ATOM      9  C   UNL     1      48.760  -1.173  75.030  1.00  0.00     0.000 C 
BRANCH   9  10
ATOM     10  C   UNL     1      49.082  -0.101  73.975  1.00  0.00    -0.000 C 
BRANCH  10  11
ATOM     11  C   UNL     1      48.728  -0.554  72.548  1.00  0.00    -0.000 C 
BRANCH  11  12
ATOM     12  C   UNL     1      49.963  -1.005  71.750  1.00  0.00    -0.000 C 
BRANCH  12  13
ATOM     13  C   UNL     1      51.251  -0.303  72.203  1.00  0.00    -0.003 C 
ATOM     14  C   UNL     1      52.419  -1.284  72.261  1.00  0.00     0.004 C 
ENDBRANCH  12  13
ENDBRANCH  11  12
ENDBRANCH  10  11
ENDBRANCH   9  10
ENDBRANCH   1   9
TORSDOF 10
ENDMDL
MODEL 3
REMARK VINA RESULT:    -3.499      3.638      5.853
REMARK INTER + INTRA:          -7.068
REMARK INTER:                  -5.685
REMARK INTRA:                  -1.383
REMARK UNBOUND:                -1.523
REMARK SMILES CCCCCCCCCCCC(=O)[O-]
REMARK SMILES IDX 7 1 8 2 9 3 10 4 11 5 12 6 13 7 14 8 6 9 5 10 4 11 3 12 2 13
REMARK SMILES IDX 1 14
REMARK H PARENT
REMARK Flexibility Score: inf
ROOT
ATOM      1  C   UNL     1      51.657  -3.979  73.702  1.00  0.00     0.000 C 
ENDROOT
BRANCH   1   2
ATOM      2  C   UNL     1      50.193  -4.380  73.925  1.00  0.00     0.000 C 
BRANCH   2   3
ATOM      3  C   UNL     1      49.483  -4.639  72.589  1.00  0.00     0.000 C 
BRANCH   3   4
ATOM      4  C   UNL     1      47.956  -4.450  72.671  1.00  0.00     0.006 C 
BRANCH   4   5
ATOM      5  C   UNL     1      47.160  -5.766  72.611  1.00  0.00     0.053 C 
BRANCH   5   6
ATOM      6  C   UNL     1      46.336  -6.001  73.841  1.00  0.00     0.041 C 
ATOM      7  O   UNL     1      45.142  -6.387  73.743  1.00  0.00    -0.550 OA
ATOM      8  O   UNL     1      46.900  -5.825  75.098  1.00  0.00    -0.550 OA
ENDBRANCH   5   6
ENDBRANCH   4   5
ENDBRANCH   3   4
ENDBRANCH   2   3
ENDBRANCH   1   2
BRANCH   1   9
ATOM      9  C   UNL     1      51.813  -3.171  72.404  1.00  0.00     0.000 C 
BRANCH   9  10
ATOM     10  C   UNL     1      52.355  -1.752  72.649  1.00  0.00    -0.000 C 
BRANCH  10  11
ATOM     11  C   UNL     1      51.323  -0.661  72.315  1.00  0.00    -0.000 C 
BRANCH  11  12
ATOM     12  C   UNL     1      50.066  -1.228  71.634  1.00  0.00    -0.000 C 
BRANCH  12  13
ATOM     13  C   UNL     1      48.767  -0.788  72.324  1.00  0.00    -0.003 C 
ATOM     14  C   UNL     1      48.911  -0.827  73.842  1.00  0.00     0.004 C 
ENDBRANCH  12  13
ENDBRANCH  11  12
ENDBRANCH  10  11
ENDBRANCH   9  10
ENDBRANCH   1   9
TORSDOF 10
ENDMDL
MODEL 4
REMARK VINA RESULT:    -3.494      1.661      2.682
REMARK INTER + INTRA:          -7.060
REMARK INTER:                  -5.907
REMARK INTRA:                  -1.153
REMARK UNBOUND:                -1.523
REMARK SMILES CCCCCCCCCCCC(=O)[O-]
REMARK SMILES IDX 7 1 8 2 9 3 10 4 11 5 12 6 13 7 14 8 6 9 5 10 4 11 3 12 2 13
REMARK SMILES IDX 1 14
REMARK H PARENT
REMARK Flexibility Score: inf
ROOT
ATOM      1  C   UNL     1      50.054  -1.251  71.580  1.00  0.00     0.000 C 
ENDROOT
BRANCH   1   2
ATOM      2  C   UNL     1      51.118  -0.314  72.167  1.00  0.00     0.000 C 
BRANCH   2   3
ATOM      3  C   UNL     1      52.509  -0.961  72.118  1.00  0.00     0.000 C 
BRANCH   3   4
ATOM      4  C   UNL     1      52.520  -2.408  72.645  1.00  0.00     0.006 C 
BRANCH   4   5
ATOM      5  C   UNL     1      53.776  -2.768  73.459  1.00  0.00     0.053 C 
BRANCH   5   6
ATOM      6  C   UNL     1      53.951  -4.246  73.632  1.00  0.00     0.041 C 
ATOM      7  O   UNL     1      55.104  -4.744  73.718  1.00  0.00    -0.550 OA
ATOM      8  O   UNL     1      52.837  -5.070  73.731  1.00  0.00    -0.550 OA
ENDBRANCH   5   6
ENDBRANCH   4   5
ENDBRANCH   3   4
ENDBRANCH   2   3
ENDBRANCH   1   2
BRANCH   1   9
ATOM      9  C   UNL     1      48.673  -0.964  72.190  1.00  0.00     0.000 C 
BRANCH   9  10
ATOM     10  C   UNL     1      48.688   0.228  73.161  1.00  0.00    -0.000 C 
BRANCH  10  11
ATOM     11  C   UNL     1      48.260  -0.165  74.586  1.00  0.00    -0.000 C 
BRANCH  11  12
ATOM     12  C   UNL     1      49.288  -1.074  75.280  1.00  0.00    -0.000 C 
BRANCH  12  13
ATOM     13  C   UNL     1      48.762  -2.498  75.511  1.00  0.00    -0.003 C 
ATOM     14  C   UNL     1      49.631  -3.527  74.795  1.00  0.00     0.004 C 
ENDBRANCH  12  13
ENDBRANCH  11  12
ENDBRANCH  10  11
ENDBRANCH   9  10
ENDBRANCH   1   9
TORSDOF 10
ENDMDL
MODEL 5
REMARK VINA RESULT:    -3.471      9.257     11.280
REMARK INTER + INTRA:          -7.023
REMARK INTER:                  -6.352
REMARK INTRA:                  -0.672
REMARK UNBOUND:                -1.523
REMARK SMILES CCCCCCCCCCCC(=O)[O-]
REMARK SMILES IDX 7 1 8 2 9 3 10 4 11 5 12 6 13 7 14 8 6 9 5 10 4 11 3 12 2 13
REMARK SMILES IDX 1 14
REMARK H PARENT
REMARK Flexibility Score: inf
ROOT
ATOM      1  C   UNL     1      45.622  -3.139  84.965  1.00  0.00     0.000 C 
ENDROOT
BRANCH   1   2
ATOM      2  C   UNL     1      46.516  -1.892  84.964  1.00  0.00     0.000 C 
BRANCH   2   3
ATOM      3  C   UNL     1      47.870  -2.185  84.301  1.00  0.00     0.000 C 
BRANCH   3   4
ATOM      4  C   UNL     1      48.198  -1.220  83.147  1.00  0.00     0.006 C 
BRANCH   4   5
ATOM      5  C   UNL     1      48.465  -1.921  81.803  1.00  0.00     0.053 C 
BRANCH   5   6
ATOM      6  C   UNL     1      49.273  -1.080  80.861  1.00  0.00     0.041 C 
ATOM      7  O   UNL     1      50.103  -0.245  81.307  1.00  0.00    -0.550 OA
ATOM      8  O   UNL     1      49.133  -1.244  79.490  1.00  0.00    -0.550 OA
ENDBRANCH   5   6
ENDBRANCH   4   5
ENDBRANCH   3   4
ENDBRANCH   2   3
ENDBRANCH   1   2
BRANCH   1   9
ATOM      9  C   UNL     1      45.962  -4.059  83.782  1.00  0.00     0.000 C 
BRANCH   9  10
ATOM     10  C   UNL     1      45.180  -5.383  83.816  1.00  0.00    -0.000 C 
BRANCH  10  11
ATOM     11  C   UNL     1      43.841  -5.296  83.061  1.00  0.00    -0.000 C 
BRANCH  11  12
ATOM     12  C   UNL     1      42.630  -5.495  83.987  1.00  0.00    -0.000 C 
BRANCH  12  13
ATOM     13  C   UNL     1      43.008  -6.137  85.330  1.00  0.00    -0.003 C 
ATOM     14  C   UNL     1      42.496  -7.571  85.416  1.00  0.00     0.004 C 
ENDBRANCH  12  13
ENDBRANCH  11  12
ENDBRANCH  10  11
ENDBRANCH   9  10
ENDBRANCH   1   9
TORSDOF 10
ENDMDL
MODEL 6
REMARK VINA RESULT:    -3.465      4.601      6.842
REMARK INTER + INTRA:          -7.014
REMARK INTER:                  -6.148
REMARK INTRA:                  -0.866
REMARK UNBOUND:                -1.523
REMARK SMILES CCCCCCCCCCCC(=O)[O-]
REMARK SMILES IDX 7 1 8 2 9 3 10 4 11 5 12 6 13 7 14 8 6 9 5 10 4 11 3 12 2 13
REMARK SMILES IDX 1 14
REMARK H PARENT
REMARK Flexibility Score: inf
ROOT
ATOM      1  C   UNL     1      48.791  -4.018  73.510  1.00  0.00     0.000 C 
ENDROOT
BRANCH   1   2
ATOM      2  C   UNL     1      47.761  -4.693  72.595  1.00  0.00     0.000 C 
BRANCH   2   3
ATOM      3  C   UNL     1      46.907  -5.702  73.376  1.00  0.00     0.000 C 
BRANCH   3   4
ATOM      4  C   UNL     1      46.705  -5.307  74.851  1.00  0.00     0.006 C 
BRANCH   4   5
ATOM      5  C   UNL     1      45.263  -4.897  75.197  1.00  0.00     0.053 C 
BRANCH   5   6
ATOM      6  C   UNL     1      44.262  -5.963  74.867  1.00  0.00     0.041 C 
ATOM      7  O   UNL     1      44.238  -7.037  75.524  1.00  0.00    -0.550 OA
ATOM      8  O   UNL     1      43.335  -5.756  73.854  1.00  0.00    -0.550 OA
ENDBRANCH   5   6
ENDBRANCH   4   5
ENDBRANCH   3   4
ENDBRANCH   2   3
ENDBRANCH   1   2
BRANCH   1   9
ATOM      9  C   UNL     1      50.219  -4.446  73.139  1.00  0.00     0.000 C 
BRANCH   9  10
ATOM     10  C   UNL     1      50.877  -3.499  72.120  1.00  0.00    -0.000 C 
BRANCH  10  11
ATOM     11  C   UNL     1      51.607  -2.324  72.794  1.00  0.00    -0.000 C 
BRANCH  11  12
ATOM     12  C   UNL     1      51.104  -0.958  72.299  1.00  0.00    -0.000 C 
BRANCH  12  13
ATOM     13  C   UNL     1      49.763  -1.052  71.556  1.00  0.00    -0.003 C 
ATOM     14  C   UNL     1      48.634  -0.446  72.384  1.00  0.00     0.004 C 
ENDBRANCH  12  13
ENDBRANCH  11  12
ENDBRANCH  10  11
ENDBRANCH   9  10
ENDBRANCH   1   9
TORSDOF 10
ENDMDL
MODEL 7
REMARK VINA RESULT:    -3.457      1.113      2.066
REMARK INTER + INTRA:          -7.000
REMARK INTER:                  -5.818
REMARK INTRA:                  -1.182
REMARK UNBOUND:                -1.523
REMARK SMILES CCCCCCCCCCCC(=O)[O-]
REMARK SMILES IDX 7 1 8 2 9 3 10 4 11 5 12 6 13 7 14 8 6 9 5 10 4 11 3 12 2 13
REMARK SMILES IDX 1 14
REMARK H PARENT
REMARK Flexibility Score: inf
ROOT
ATOM      1  C   UNL     1      48.251  -1.009  74.949  1.00  0.00     0.000 C 
ENDROOT
BRANCH   1   2
ATOM      2  C   UNL     1      48.921  -0.076  73.932  1.00  0.00     0.000 C 
BRANCH   2   3
ATOM      3  C   UNL     1      48.647  -0.540  72.494  1.00  0.00     0.000 C 
BRANCH   3   4
ATOM      4  C   UNL     1      49.893  -1.119  71.799  1.00  0.00     0.006 C 
BRANCH   4   5
ATOM      5  C   UNL     1      51.206  -0.412  72.179  1.00  0.00     0.053 C 
BRANCH   5   6
ATOM      6  C   UNL     1      52.336  -1.371  72.408  1.00  0.00     0.041 C 
ATOM      7  O   UNL     1      52.170  -2.388  73.131  1.00  0.00    -0.550 OA
ATOM      8  O   UNL     1      53.563  -1.157  71.794  1.00  0.00    -0.550 OA
ENDBRANCH   5   6
ENDBRANCH   4   5
ENDBRANCH   3   4
ENDBRANCH   2   3
ENDBRANCH   1   2
BRANCH   1   9
ATOM      9  C   UNL     1      49.206  -2.135  75.373  1.00  0.00     0.000 C 
BRANCH   9  10
ATOM     10  C   UNL     1      48.613  -3.535  75.145  1.00  0.00    -0.000 C 
BRANCH  10  11
ATOM     11  C   UNL     1      49.075  -4.162  73.818  1.00  0.00    -0.000 C 
BRANCH  11  12
ATOM     12  C   UNL     1      47.953  -4.211  72.767  1.00  0.00    -0.000 C 
BRANCH  12  13
ATOM     13  C   UNL     1      47.622  -5.642  72.318  1.00  0.00    -0.003 C 
ATOM     14  C   UNL     1      48.541  -6.655  72.994  1.00  0.00     0.004 C 
ENDBRANCH  12  13
ENDBRANCH  11  12
ENDBRANCH  10  11
ENDBRANCH   9  10
ENDBRANCH   1   9
TORSDOF 10
ENDMDL
MODEL 8
REMARK VINA RESULT:    -3.445      2.831      4.240
REMARK INTER + INTRA:          -6.982
REMARK INTER:                  -5.613
REMARK INTRA:                  -1.369
REMARK UNBOUND:                -1.523
REMARK SMILES CCCCCCCCCCCC(=O)[O-]
REMARK SMILES IDX 7 1 8 2 9 3 10 4 11 5 12 6 13 7 14 8 6 9 5 10 4 11 3 12 2 13
REMARK SMILES IDX 1 14
REMARK H PARENT
REMARK Flexibility Score: inf
ROOT
ATOM      1  C   UNL     1      52.323  -1.718  72.627  1.00  0.00     0.000 C 
ENDROOT
BRANCH   1   2
ATOM      2  C   UNL     1      51.274  -0.665  72.248  1.00  0.00     0.000 C 
BRANCH   2   3
ATOM      3  C   UNL     1      50.085  -1.308  71.520  1.00  0.00     0.000 C 
BRANCH   3   4
ATOM      4  C   UNL     1      48.722  -0.870  72.086  1.00  0.00     0.006 C 
BRANCH   4   5
ATOM      5  C   UNL     1      48.696  -0.732  73.618  1.00  0.00     0.053 C 
BRANCH   5   6
ATOM      6  C   UNL     1      48.293   0.639  74.070  1.00  0.00     0.041 C 
ATOM      7  O   UNL     1      48.367   1.616  73.280  1.00  0.00    -0.550 OA
ATOM      8  O   UNL     1      47.802   0.831  75.355  1.00  0.00    -0.550 OA
ENDBRANCH   5   6
ENDBRANCH   4   5
ENDBRANCH   3   4
ENDBRANCH   2   3
ENDBRANCH   1   2
BRANCH   1   9
ATOM      9  C   UNL     1      51.755  -3.138  72.479  1.00  0.00     0.000 C 
BRANCH   9  10
ATOM     10  C   UNL     1      51.493  -3.818  73.833  1.00  0.00    -0.000 C 
BRANCH  10  11
ATOM     11  C   UNL     1      50.015  -4.201  74.025  1.00  0.00    -0.000 C 
BRANCH  11  12
ATOM     12  C   UNL     1      49.398  -4.820  72.759  1.00  0.00    -0.000 C 
BRANCH  12  13
ATOM     13  C   UNL     1      47.882  -4.592  72.665  1.00  0.00    -0.003 C 
ATOM     14  C   UNL     1      47.158  -5.878  72.277  1.00  0.00     0.004 C 
ENDBRANCH  12  13
ENDBRANCH  11  12
ENDBRANCH  10  11
ENDBRANCH   9  10
ENDBRANCH   1   9
TORSDOF 10
ENDMDL
MODEL 9
REMARK VINA RESULT:    -3.431      2.387      3.945
REMARK INTER + INTRA:          -6.959
REMARK INTER:                  -5.472
REMARK INTRA:                  -1.488
REMARK UNBOUND:                -1.523
REMARK SMILES CCCCCCCCCCCC(=O)[O-]
REMARK SMILES IDX 7 1 8 2 9 3 10 4 11 5 12 6 13 7 14 8 6 9 5 10 4 11 3 12 2 13
REMARK SMILES IDX 1 14
REMARK H PARENT
REMARK Flexibility Score: inf
ROOT
ATOM      1  C   UNL     1      51.107  -1.038  72.342  1.00  0.00     0.000 C 
ENDROOT
BRANCH   1   2
ATOM      2  C   UNL     1      49.738  -1.122  71.655  1.00  0.00     0.000 C 
BRANCH   2   3
ATOM      3  C   UNL     1      48.637  -0.534  72.547  1.00  0.00     0.000 C 
BRANCH   3   4
ATOM      4  C   UNL     1      49.134  -0.167  73.958  1.00  0.00     0.006 C 
BRANCH   4   5
ATOM      5  C   UNL     1      48.317  -0.807  75.094  1.00  0.00     0.053 C 
BRANCH   5   6
ATOM      6  C   UNL     1      49.148  -1.680  75.986  1.00  0.00     0.041 C 
ATOM      7  O   UNL     1      50.366  -1.873  75.731  1.00  0.00    -0.550 OA
ATOM      8  O   UNL     1      48.585  -2.253  77.118  1.00  0.00    -0.550 OA
ENDBRANCH   5   6
ENDBRANCH   4   5
ENDBRANCH   3   4
ENDBRANCH   2   3
ENDBRANCH   1   2
BRANCH   1   9
ATOM      9  C   UNL     1      51.735  -2.433  72.489  1.00  0.00     0.000 C 
BRANCH   9  10
ATOM     10  C   UNL     1      50.744  -3.566  72.177  1.00  0.00    -0.000 C 
BRANCH  10  11
ATOM     11  C   UNL     1      50.543  -4.519  73.369  1.00  0.00    -0.000 C 
BRANCH  11  12
ATOM     12  C   UNL     1      49.081  -4.573  73.840  1.00  0.00    -0.000 C 
BRANCH  12  13
ATOM     13  C   UNL     1      48.081  -4.311  72.704  1.00  0.00    -0.003 C 
ATOM     14  C   UNL     1      47.376  -5.598  72.287  1.00  0.00     0.004 C 
ENDBRANCH  12  13
ENDBRANCH  11  12
ENDBRANCH  10  11
ENDBRANCH   9  10
ENDBRANCH   1   9
TORSDOF 10
ENDMDL
