MODEL 1
REMARK VINA RESULT:    -2.826      0.000      0.000
REMARK INTER + INTRA:          -3.417
REMARK INTER:                  -3.321
REMARK INTRA:                  -0.096
REMARK UNBOUND:                -0.096
REMARK SMILES O=C([O-])CCC(=O)[O-]
REMARK SMILES IDX 4 1 2 2 1 3 3 4 5 5 6 6 7 7 8 8
REMARK H PARENT
REMARK Flexibility Score: inf
ROOT
ATOM      1  C   UNL     1      35.417   6.960 -31.489  1.00  0.00     0.059 C 
ENDROOT
BRANCH   1   2
ATOM      2  C   UNL     1      34.095   7.630 -31.268  1.00  0.00     0.042 C 
ATOM      3  O   UNL     1      33.115   6.971 -30.833  1.00  0.00    -0.550 OA
ATOM      4  O   UNL     1      33.958   8.991 -31.507  1.00  0.00    -0.550 OA
ENDBRANCH   1   2
BRANCH   1   5
ATOM      5  C   UNL     1      35.264   5.442 -31.632  1.00  0.00     0.059 C 
BRANCH   5   6
ATOM      6  C   UNL     1      35.084   5.039 -33.064  1.00  0.00     0.042 C 
ATOM      7  O   UNL     1      35.724   5.628 -33.975  1.00  0.00    -0.550 OA
ATOM      8  O   UNL     1      34.237   3.985 -33.388  1.00  0.00    -0.550 OA
ENDBRANCH   5   6
ENDBRANCH   1   5
TORSDOF 3
ENDMDL
MODEL 2
REMARK VINA RESULT:    -2.810      0.264      1.165
REMARK INTER + INTRA:          -3.399
REMARK INTER:                  -3.297
REMARK INTRA:                  -0.102
REMARK UNBOUND:                -0.096
REMARK SMILES O=C([O-])CCC(=O)[O-]
REMARK SMILES IDX 4 1 2 2 1 3 3 4 5 5 6 6 7 7 8 8
REMARK H PARENT
REMARK Flexibility Score: inf
ROOT
ATOM      1  C   UNL     1      35.337   6.668 -31.312  1.00  0.00     0.059 C 
ENDROOT
BRANCH   1   2
ATOM      2  C   UNL     1      34.074   7.473 -31.277  1.00  0.00     0.042 C 
ATOM      3  O   UNL     1      34.098   8.705 -31.536  1.00  0.00    -0.550 OA
ATOM      4  O   UNL     1      32.863   6.852 -30.997  1.00  0.00    -0.550 OA
ENDBRANCH   1   2
BRANCH   1   5
ATOM      5  C   UNL     1      35.055   5.186 -31.579  1.00  0.00     0.059 C 
BRANCH   5   6
ATOM      6  C   UNL     1      34.972   4.897 -33.047  1.00  0.00     0.042 C 
ATOM      7  O   UNL     1      35.632   5.586 -33.868  1.00  0.00    -0.550 OA
ATOM      8  O   UNL     1      34.195   3.838 -33.503  1.00  0.00    -0.550 OA
ENDBRANCH   5   6
ENDBRANCH   1   5
TORSDOF 3
ENDMDL
MODEL 3
REMARK VINA RESULT:    -2.785      0.195      3.935
REMARK INTER + INTRA:          -3.370
REMARK INTER:                  -3.282
REMARK INTRA:                  -0.088
REMARK UNBOUND:                -0.096
REMARK SMILES O=C([O-])CCC(=O)[O-]
REMARK SMILES IDX 4 1 2 2 1 3 3 4 5 5 6 6 7 7 8 8
REMARK H PARENT
REMARK Flexibility Score: inf
ROOT
ATOM      1  C   UNL     1      34.961   5.394 -31.644  1.00  0.00     0.059 C 
ENDROOT
BRANCH   1   2
ATOM      2  C   UNL     1      34.961   4.971 -33.082  1.00  0.00     0.042 C 
ATOM      3  O   UNL     1      35.705   5.552 -33.915  1.00  0.00    -0.550 OA
ATOM      4  O   UNL     1      34.168   3.907 -33.493  1.00  0.00    -0.550 OA
ENDBRANCH   1   2
BRANCH   1   5
ATOM      5  C   UNL     1      35.203   6.900 -31.500  1.00  0.00     0.059 C 
BRANCH   5   6
ATOM      6  C   UNL     1      33.921   7.647 -31.294  1.00  0.00     0.042 C 
ATOM      7  O   UNL     1      32.881   7.036 -30.933  1.00  0.00    -0.550 OA
ATOM      8  O   UNL     1      33.886   9.026 -31.463  1.00  0.00    -0.550 OA
ENDBRANCH   5   6
ENDBRANCH   1   5
TORSDOF 3
ENDMDL
MODEL 4
REMARK VINA RESULT:    -2.737     16.174     17.013
REMARK INTER + INTRA:          -3.313
REMARK INTER:                  -3.175
REMARK INTRA:                  -0.138
REMARK UNBOUND:                -0.096
REMARK SMILES O=C([O-])CCC(=O)[O-]
REMARK SMILES IDX 4 1 2 2 1 3 3 4 5 5 6 6 7 7 8 8
REMARK H PARENT
REMARK Flexibility Score: inf
ROOT
ATOM      1  C   UNL     1      24.957  -8.042 -26.993  1.00  0.00     0.059 C 
ENDROOT
BRANCH   1   2
ATOM      2  C   UNL     1      24.715  -6.710 -26.350  1.00  0.00     0.042 C 
ATOM      3  O   UNL     1      25.459  -6.311 -25.416  1.00  0.00    -0.550 OA
ATOM      4  O   UNL     1      23.690  -5.893 -26.810  1.00  0.00    -0.550 OA
ENDBRANCH   1   2
BRANCH   1   5
ATOM      5  C   UNL     1      24.716  -7.991 -28.505  1.00  0.00     0.059 C 
BRANCH   5   6
ATOM      6  C   UNL     1      25.900  -7.430 -29.233  1.00  0.00     0.042 C 
ATOM      7  O   UNL     1      27.013  -8.016 -29.182  1.00  0.00    -0.550 OA
ATOM      8  O   UNL     1      25.762  -6.280 -30.001  1.00  0.00    -0.550 OA
ENDBRANCH   5   6
ENDBRANCH   1   5
TORSDOF 3
ENDMDL
MODEL 5
REMARK VINA RESULT:    -2.638     16.041     16.919
REMARK INTER + INTRA:          -3.197
REMARK INTER:                  -3.094
REMARK INTRA:                  -0.104
REMARK UNBOUND:                -0.096
REMARK SMILES O=C([O-])CCC(=O)[O-]
REMARK SMILES IDX 4 1 2 2 1 3 3 4 5 5 6 6 7 7 8 8
REMARK H PARENT
REMARK Flexibility Score: inf
ROOT
ATOM      1  C   UNL     1      24.733  -7.846 -28.508  1.00  0.00     0.059 C 
ENDROOT
BRANCH   1   2
ATOM      2  C   UNL     1      26.197  -7.924 -28.199  1.00  0.00     0.042 C 
ATOM      3  O   UNL     1      26.589  -8.058 -27.010  1.00  0.00    -0.550 OA
ATOM      4  O   UNL     1      27.127  -7.889 -29.230  1.00  0.00    -0.550 OA
ENDBRANCH   1   2
BRANCH   1   5
ATOM      5  C   UNL     1      24.177  -6.441 -28.254  1.00  0.00     0.059 C 
BRANCH   5   6
ATOM      6  C   UNL     1      23.955  -5.696 -29.536  1.00  0.00     0.042 C 
ATOM      7  O   UNL     1      24.035  -6.295 -30.640  1.00  0.00    -0.550 OA
ATOM      8  O   UNL     1      23.621  -4.347 -29.506  1.00  0.00    -0.550 OA
ENDBRANCH   5   6
ENDBRANCH   1   5
TORSDOF 3
ENDMDL
MODEL 6
REMARK VINA RESULT:    -2.633      2.058      3.805
REMARK INTER + INTRA:          -3.191
REMARK INTER:                  -3.074
REMARK INTRA:                  -0.117
REMARK UNBOUND:                -0.096
REMARK SMILES O=C([O-])CCC(=O)[O-]
REMARK SMILES IDX 4 1 2 2 1 3 3 4 5 5 6 6 7 7 8 8
REMARK H PARENT
REMARK Flexibility Score: inf
ROOT
ATOM      1  C   UNL     1      33.905   5.056 -33.043  1.00  0.00     0.059 C 
ENDROOT
BRANCH   1   2
ATOM      2  C   UNL     1      33.694   3.583 -32.871  1.00  0.00     0.042 C 
ATOM      3  O   UNL     1      33.804   2.807 -33.856  1.00  0.00    -0.550 OA
ATOM      4  O   UNL     1      33.415   3.063 -31.614  1.00  0.00    -0.550 OA
ENDBRANCH   1   2
BRANCH   1   5
ATOM      5  C   UNL     1      35.390   5.427 -32.965  1.00  0.00     0.059 C 
BRANCH   5   6
ATOM      6  C   UNL     1      35.737   6.037 -31.641  1.00  0.00     0.042 C 
ATOM      7  O   UNL     1      36.023   7.261 -31.562  1.00  0.00    -0.550 OA
ATOM      8  O   UNL     1      35.706   5.261 -30.489  1.00  0.00    -0.550 OA
ENDBRANCH   5   6
ENDBRANCH   1   5
TORSDOF 3
ENDMDL
MODEL 7
REMARK VINA RESULT:    -2.624     16.018     16.606
REMARK INTER + INTRA:          -3.180
REMARK INTER:                  -3.059
REMARK INTRA:                  -0.121
REMARK UNBOUND:                -0.096
REMARK SMILES O=C([O-])CCC(=O)[O-]
REMARK SMILES IDX 4 1 2 2 1 3 3 4 5 5 6 6 7 7 8 8
REMARK H PARENT
REMARK Flexibility Score: inf
ROOT
ATOM      1  C   UNL     1      24.145  -6.784 -28.421  1.00  0.00     0.059 C 
ENDROOT
BRANCH   1   2
ATOM      2  C   UNL     1      24.047  -5.746 -29.497  1.00  0.00     0.042 C 
ATOM      3  O   UNL     1      24.202  -6.067 -30.704  1.00  0.00    -0.550 OA
ATOM      4  O   UNL     1      23.745  -4.431 -29.168  1.00  0.00    -0.550 OA
ENDBRANCH   1   2
BRANCH   1   5
ATOM      5  C   UNL     1      24.987  -7.983 -28.868  1.00  0.00     0.059 C 
BRANCH   5   6
ATOM      6  C   UNL     1      26.423  -7.827 -28.469  1.00  0.00     0.042 C 
ATOM      7  O   UNL     1      27.270  -7.400 -29.298  1.00  0.00    -0.550 OA
ATOM      8  O   UNL     1      26.818  -8.116 -27.168  1.00  0.00    -0.550 OA
ENDBRANCH   5   6
ENDBRANCH   1   5
TORSDOF 3
ENDMDL
MODEL 8
REMARK VINA RESULT:    -2.621     15.706     16.934
REMARK INTER + INTRA:          -3.177
REMARK INTER:                  -2.997
REMARK INTRA:                  -0.181
REMARK UNBOUND:                -0.096
REMARK SMILES O=C([O-])CCC(=O)[O-]
REMARK SMILES IDX 4 1 2 2 1 3 3 4 5 5 6 6 7 7 8 8
REMARK H PARENT
REMARK Flexibility Score: inf
ROOT
ATOM      1  C   UNL     1      25.345  -7.628 -29.193  1.00  0.00     0.059 C 
ENDROOT
BRANCH   1   2
ATOM      2  C   UNL     1      25.017  -6.371 -29.939  1.00  0.00     0.042 C 
ATOM      3  O   UNL     1      25.915  -5.523 -30.181  1.00  0.00    -0.550 OA
ATOM      4  O   UNL     1      23.725  -6.155 -30.402  1.00  0.00    -0.550 OA
ENDBRANCH   1   2
BRANCH   1   5
ATOM      5  C   UNL     1      24.449  -7.805 -27.963  1.00  0.00     0.059 C 
BRANCH   5   6
ATOM      6  C   UNL     1      24.545  -6.631 -27.037  1.00  0.00     0.042 C 
ATOM      7  O   UNL     1      23.527  -5.935 -26.784  1.00  0.00    -0.550 OA
ATOM      8  O   UNL     1      25.755  -6.329 -26.422  1.00  0.00    -0.550 OA
ENDBRANCH   5   6
ENDBRANCH   1   5
TORSDOF 3
ENDMDL
MODEL 9
REMARK VINA RESULT:    -2.620      2.089      2.837
REMARK INTER + INTRA:          -3.175
REMARK INTER:                  -3.065
REMARK INTRA:                  -0.110
REMARK UNBOUND:                -0.096
REMARK SMILES O=C([O-])CCC(=O)[O-]
REMARK SMILES IDX 4 1 2 2 1 3 3 4 5 5 6 6 7 7 8 8
REMARK H PARENT
REMARK Flexibility Score: inf
ROOT
ATOM      1  C   UNL     1      35.387   5.436 -32.952  1.00  0.00     0.059 C 
ENDROOT
BRANCH   1   2
ATOM      2  C   UNL     1      35.766   6.054 -31.641  1.00  0.00     0.042 C 
ATOM      3  O   UNL     1      36.123   7.261 -31.587  1.00  0.00    -0.550 OA
ATOM      4  O   UNL     1      35.687   5.308 -30.472  1.00  0.00    -0.550 OA
ENDBRANCH   1   2
BRANCH   1   5
ATOM      5  C   UNL     1      33.897   5.081 -32.998  1.00  0.00     0.059 C 
BRANCH   5   6
ATOM      6  C   UNL     1      33.673   3.614 -32.791  1.00  0.00     0.042 C 
ATOM      7  O   UNL     1      33.253   3.185 -31.684  1.00  0.00    -0.550 OA
ATOM      8  O   UNL     1      33.892   2.724 -33.836  1.00  0.00    -0.550 OA
ENDBRANCH   5   6
ENDBRANCH   1   5
TORSDOF 3
ENDMDL
