MODEL 1
REMARK VINA RESULT:    -0.045      0.000      0.000
REMARK INTER + INTRA:          -1.020
REMARK INTER:                  -0.082
REMARK INTRA:                  -0.937
REMARK UNBOUND:                -0.937
REMARK SMILES CCCCCCCCCCCCCCCC(=O)[O-]
REMARK SMILES IDX 9 1 10 2 11 3 12 4 13 5 14 6 15 7 16 8 17 9 18 10 8 11 7 12
REMARK SMILES IDX 6 13 5 14 4 15 3 16 2 17 1 18
REMARK H PARENT
REMARK Flexibility Score: inf
ROOT
ATOM      1  C   UNL     1      -4.996  35.649  21.763  1.00  0.00     0.000 C 
ENDROOT
BRANCH   1   2
ATOM      2  C   UNL     1      -5.778  36.607  20.852  1.00  0.00     0.000 C 
BRANCH   2   3
ATOM      3  C   UNL     1      -5.275  36.517  19.404  1.00  0.00     0.000 C 
BRANCH   3   4
ATOM      4  C   UNL     1      -4.392  35.281  19.149  1.00  0.00     0.000 C 
BRANCH   4   5
ATOM      5  C   UNL     1      -4.545  34.647  17.755  1.00  0.00     0.000 C 
BRANCH   5   6
ATOM      6  C   UNL     1      -4.260  35.637  16.611  1.00  0.00     0.006 C 
BRANCH   6   7
ATOM      7  C   UNL     1      -3.122  35.157  15.700  1.00  0.00     0.053 C 
BRANCH   7   8
ATOM      8  C   UNL     1      -2.797  36.163  14.639  1.00  0.00     0.041 C 
ATOM      9  O   UNL     1      -1.599  36.405  14.339  1.00  0.00    -0.550 OA
ATOM     10  O   UNL     1      -3.820  36.856  14.002  1.00  0.00    -0.550 OA
ENDBRANCH   7   8
ENDBRANCH   6   7
ENDBRANCH   5   6
ENDBRANCH   4   5
ENDBRANCH   3   4
ENDBRANCH   2   3
ENDBRANCH   1   2
BRANCH   1  11
ATOM     11  C   UNL     1      -5.892  34.590  22.425  1.00  0.00     0.000 C 
BRANCH  11  12
ATOM     12  C   UNL     1      -5.626  34.360  23.926  1.00  0.00    -0.000 C 
BRANCH  12  13
ATOM     13  C   UNL     1      -6.124  35.510  24.830  1.00  0.00    -0.000 C 
BRANCH  13  14
ATOM     14  C   UNL     1      -4.969  36.255  25.518  1.00  0.00    -0.000 C 
BRANCH  14  15
ATOM     15  C   UNL     1      -4.995  37.769  25.254  1.00  0.00    -0.000 C 
BRANCH  15  16
ATOM     16  C   UNL     1      -5.767  38.158  23.975  1.00  0.00    -0.000 C 
BRANCH  16  17
ATOM     17  C   UNL     1      -5.365  39.546  23.454  1.00  0.00    -0.003 C 
ATOM     18  C   UNL     1      -5.758  39.722  21.991  1.00  0.00     0.004 C 
ENDBRANCH  16  17
ENDBRANCH  15  16
ENDBRANCH  14  15
ENDBRANCH  13  14
ENDBRANCH  12  13
ENDBRANCH  11  12
ENDBRANCH   1  11
TORSDOF 14
ENDMDL
MODEL 2
REMARK VINA RESULT:     0.007      2.776      7.187
REMARK INTER + INTRA:          -0.925
REMARK INTER:                  -0.112
REMARK INTRA:                  -0.813
REMARK UNBOUND:                -0.937
REMARK SMILES CCCCCCCCCCCCCCCC(=O)[O-]
REMARK SMILES IDX 9 1 10 2 11 3 12 4 13 5 14 6 15 7 16 8 17 9 18 10 8 11 7 12
REMARK SMILES IDX 6 13 5 14 4 15 3 16 2 17 1 18
REMARK H PARENT
REMARK Flexibility Score: inf
ROOT
ATOM      1  C   UNL     1      -4.736  34.959  22.129  1.00  0.00     0.000 C 
ENDROOT
BRANCH   1   2
ATOM      2  C   UNL     1      -6.122  35.094  22.777  1.00  0.00     0.000 C 
BRANCH   2   3
ATOM      3  C   UNL     1      -6.030  34.946  24.303  1.00  0.00     0.000 C 
BRANCH   3   4
ATOM      4  C   UNL     1      -5.483  36.206  24.997  1.00  0.00     0.000 C 
BRANCH   4   5
ATOM      5  C   UNL     1      -6.104  37.533  24.525  1.00  0.00     0.000 C 
BRANCH   5   6
ATOM      6  C   UNL     1      -5.068  38.498  23.919  1.00  0.00     0.006 C 
BRANCH   6   7
ATOM      7  C   UNL     1      -5.730  39.663  23.172  1.00  0.00     0.053 C 
BRANCH   7   8
ATOM      8  C   UNL     1      -5.810  39.405  21.698  1.00  0.00     0.041 C 
ATOM      9  O   UNL     1      -5.571  38.257  21.241  1.00  0.00    -0.550 OA
ATOM     10  O   UNL     1      -6.120  40.442  20.827  1.00  0.00    -0.550 OA
ENDBRANCH   7   8
ENDBRANCH   6   7
ENDBRANCH   5   6
ENDBRANCH   4   5
ENDBRANCH   3   4
ENDBRANCH   2   3
ENDBRANCH   1   2
BRANCH   1  11
ATOM     11  C   UNL     1      -4.748  35.272  20.624  1.00  0.00     0.000 C 
BRANCH  11  12
ATOM     12  C   UNL     1      -5.809  34.503  19.810  1.00  0.00    -0.000 C 
BRANCH  12  13
ATOM     13  C   UNL     1      -5.690  34.707  18.284  1.00  0.00    -0.000 C 
BRANCH  13  14
ATOM     14  C   UNL     1      -4.231  34.870  17.827  1.00  0.00    -0.000 C 
BRANCH  14  15
ATOM     15  C   UNL     1      -4.082  35.835  16.640  1.00  0.00    -0.000 C 
BRANCH  15  16
ATOM     16  C   UNL     1      -3.002  35.400  15.625  1.00  0.00    -0.000 C 
BRANCH  16  17
ATOM     17  C   UNL     1      -3.094  36.185  14.309  1.00  0.00    -0.003 C 
ATOM     18  C   UNL     1      -4.079  37.344  14.424  1.00  0.00     0.004 C 
ENDBRANCH  16  17
ENDBRANCH  15  16
ENDBRANCH  14  15
ENDBRANCH  13  14
ENDBRANCH  12  13
ENDBRANCH  11  12
ENDBRANCH   1  11
TORSDOF 14
ENDMDL
MODEL 3
REMARK VINA RESULT:     0.099      0.907      2.971
REMARK INTER + INTRA:          -0.758
REMARK INTER:                  -0.246
REMARK INTRA:                  -0.511
REMARK UNBOUND:                -0.937
REMARK SMILES CCCCCCCCCCCCCCCC(=O)[O-]
REMARK SMILES IDX 9 1 10 2 11 3 12 4 13 5 14 6 15 7 16 8 17 9 18 10 8 11 7 12
REMARK SMILES IDX 6 13 5 14 4 15 3 16 2 17 1 18
REMARK H PARENT
REMARK Flexibility Score: inf
ROOT
ATOM      1  C   UNL     1      -5.007  36.799  20.973  1.00  0.00     0.000 C 
ENDROOT
BRANCH   1   2
ATOM      2  C   UNL     1      -6.108  35.732  20.887  1.00  0.00     0.000 C 
BRANCH   2   3
ATOM      3  C   UNL     1      -6.091  35.036  19.518  1.00  0.00     0.000 C 
BRANCH   3   4
ATOM      4  C   UNL     1      -4.686  34.566  19.099  1.00  0.00     0.000 C 
BRANCH   4   5
ATOM      5  C   UNL     1      -4.496  34.345  17.588  1.00  0.00     0.000 C 
BRANCH   5   6
ATOM      6  C   UNL     1      -3.908  35.573  16.871  1.00  0.00     0.006 C 
BRANCH   6   7
ATOM      7  C   UNL     1      -3.411  35.236  15.459  1.00  0.00     0.053 C 
BRANCH   7   8
ATOM      8  C   UNL     1      -3.240  36.467  14.621  1.00  0.00     0.041 C 
ATOM      9  O   UNL     1      -4.154  37.331  14.567  1.00  0.00    -0.550 OA
ATOM     10  O   UNL     1      -2.081  36.644  13.876  1.00  0.00    -0.550 OA
ENDBRANCH   7   8
ENDBRANCH   6   7
ENDBRANCH   5   6
ENDBRANCH   4   5
ENDBRANCH   3   4
ENDBRANCH   2   3
ENDBRANCH   1   2
BRANCH   1  11
ATOM     11  C   UNL     1      -5.271  38.004  20.056  1.00  0.00     0.000 C 
BRANCH  11  12
ATOM     12  C   UNL     1      -6.071  39.150  20.706  1.00  0.00    -0.000 C 
BRANCH  12  13
ATOM     13  C   UNL     1      -5.335  39.838  21.877  1.00  0.00    -0.000 C 
BRANCH  13  14
ATOM     14  C   UNL     1      -5.949  39.484  23.241  1.00  0.00    -0.000 C 
BRANCH  14  15
ATOM     15  C   UNL     1      -5.897  37.978  23.546  1.00  0.00    -0.000 C 
BRANCH  15  16
ATOM     16  C   UNL     1      -5.196  37.644  24.881  1.00  0.00    -0.000 C 
BRANCH  16  17
ATOM     17  C   UNL     1      -5.785  36.392  25.547  1.00  0.00    -0.003 C 
ATOM     18  C   UNL     1      -6.125  35.323  24.513  1.00  0.00     0.004 C 
ENDBRANCH  16  17
ENDBRANCH  15  16
ENDBRANCH  14  15
ENDBRANCH  13  14
ENDBRANCH  12  13
ENDBRANCH  11  12
ENDBRANCH   1  11
TORSDOF 14
ENDMDL
MODEL 4
REMARK VINA RESULT:     0.653      0.853      1.721
REMARK INTER + INTRA:           0.250
REMARK INTER:                   0.777
REMARK INTRA:                  -0.527
REMARK UNBOUND:                -0.937
REMARK SMILES CCCCCCCCCCCCCCCC(=O)[O-]
REMARK SMILES IDX 9 1 10 2 11 3 12 4 13 5 14 6 15 7 16 8 17 9 18 10 8 11 7 12
REMARK SMILES IDX 6 13 5 14 4 15 3 16 2 17 1 18
REMARK H PARENT
REMARK Flexibility Score: inf
ROOT
ATOM      1  C   UNL     1      -5.053  34.857  23.303  1.00  0.00     0.000 C 
ENDROOT
BRANCH   1   2
ATOM      2  C   UNL     1      -5.671  34.997  21.904  1.00  0.00     0.000 C 
BRANCH   2   3
ATOM      3  C   UNL     1      -4.583  34.966  20.820  1.00  0.00     0.000 C 
BRANCH   3   4
ATOM      4  C   UNL     1      -5.035  35.607  19.495  1.00  0.00     0.000 C 
BRANCH   4   5
ATOM      5  C   UNL     1      -4.651  34.823  18.227  1.00  0.00     0.000 C 
BRANCH   5   6
ATOM      6  C   UNL     1      -4.393  35.735  17.014  1.00  0.00     0.006 C 
BRANCH   6   7
ATOM      7  C   UNL     1      -3.184  35.273  16.190  1.00  0.00     0.053 C 
BRANCH   7   8
ATOM      8  C   UNL     1      -3.041  36.059  14.923  1.00  0.00     0.041 C 
ATOM      9  O   UNL     1      -3.994  36.766  14.503  1.00  0.00    -0.550 OA
ATOM     10  O   UNL     1      -1.862  35.988  14.191  1.00  0.00    -0.550 OA
ENDBRANCH   7   8
ENDBRANCH   6   7
ENDBRANCH   5   6
ENDBRANCH   4   5
ENDBRANCH   3   4
ENDBRANCH   2   3
ENDBRANCH   1   2
BRANCH   1  11
ATOM     11  C   UNL     1      -6.075  35.073  24.430  1.00  0.00     0.000 C 
BRANCH  11  12
ATOM     12  C   UNL     1      -6.124  36.505  24.997  1.00  0.00    -0.000 C 
BRANCH  12  13
ATOM     13  C   UNL     1      -4.775  36.994  25.571  1.00  0.00    -0.000 C 
BRANCH  13  14
ATOM     14  C   UNL     1      -4.248  38.242  24.844  1.00  0.00    -0.000 C 
BRANCH  14  15
ATOM     15  C   UNL     1      -5.374  39.148  24.321  1.00  0.00    -0.000 C 
BRANCH  15  16
ATOM     16  C   UNL     1      -5.995  38.657  22.995  1.00  0.00    -0.000 C 
BRANCH  16  17
ATOM     17  C   UNL     1      -5.706  39.616  21.830  1.00  0.00    -0.003 C 
ATOM     18  C   UNL     1      -5.704  38.878  20.495  1.00  0.00     0.004 C 
ENDBRANCH  16  17
ENDBRANCH  15  16
ENDBRANCH  14  15
ENDBRANCH  13  14
ENDBRANCH  12  13
ENDBRANCH  11  12
ENDBRANCH   1  11
TORSDOF 14
ENDMDL
MODEL 5
REMARK VINA RESULT:     1.059      4.082      8.008
REMARK INTER + INTRA:           0.988
REMARK INTER:                   0.115
REMARK INTRA:                   0.873
REMARK UNBOUND:                -0.937
REMARK SMILES CCCCCCCCCCCCCCCC(=O)[O-]
REMARK SMILES IDX 9 1 10 2 11 3 12 4 13 5 14 6 15 7 16 8 17 9 18 10 8 11 7 12
REMARK SMILES IDX 6 13 5 14 4 15 3 16 2 17 1 18
REMARK H PARENT
REMARK Flexibility Score: inf
ROOT
ATOM      1  C   UNL     1      -4.890  35.620  21.371  1.00  0.00     0.000 C 
ENDROOT
BRANCH   1   2
ATOM      2  C   UNL     1      -5.876  36.746  21.027  1.00  0.00     0.000 C 
BRANCH   2   3
ATOM      3  C   UNL     1      -5.139  37.958  20.437  1.00  0.00     0.000 C 
BRANCH   3   4
ATOM      4  C   UNL     1      -5.786  39.301  20.822  1.00  0.00     0.000 C 
BRANCH   4   5
ATOM      5  C   UNL     1      -5.923  39.550  22.335  1.00  0.00     0.000 C 
BRANCH   5   6
ATOM      6  C   UNL     1      -5.809  38.261  23.167  1.00  0.00     0.006 C 
BRANCH   6   7
ATOM      7  C   UNL     1      -5.411  38.545  24.621  1.00  0.00     0.053 C 
BRANCH   7   8
ATOM      8  C   UNL     1      -5.085  37.286  25.365  1.00  0.00     0.041 C 
ATOM      9  O   UNL     1      -5.779  36.249  25.194  1.00  0.00    -0.550 OA
ATOM     10  O   UNL     1      -4.031  37.266  26.271  1.00  0.00    -0.550 OA
ENDBRANCH   7   8
ENDBRANCH   6   7
ENDBRANCH   5   6
ENDBRANCH   4   5
ENDBRANCH   3   4
ENDBRANCH   2   3
ENDBRANCH   1   2
BRANCH   1  11
ATOM     11  C   UNL     1      -4.561  34.726  20.165  1.00  0.00     0.000 C 
BRANCH  11  12
ATOM     12  C   UNL     1      -4.662  35.423  18.793  1.00  0.00    -0.000 C 
BRANCH  12  13
ATOM     13  C   UNL     1      -4.605  34.451  17.594  1.00  0.00    -0.000 C 
BRANCH  13  14
ATOM     14  C   UNL     1      -3.385  34.704  16.694  1.00  0.00    -0.000 C 
BRANCH  14  15
ATOM     15  C   UNL     1      -3.375  36.117  16.087  1.00  0.00    -0.000 C 
BRANCH  15  16
ATOM     16  C   UNL     1      -3.249  36.124  14.548  1.00  0.00    -0.000 C 
BRANCH  16  17
ATOM     17  C   UNL     1      -4.403  36.883  13.876  1.00  0.00    -0.003 C 
ATOM     18  C   UNL     1      -4.353  38.371  14.206  1.00  0.00     0.004 C 
ENDBRANCH  16  17
ENDBRANCH  15  16
ENDBRANCH  14  15
ENDBRANCH  13  14
ENDBRANCH  12  13
ENDBRANCH  11  12
ENDBRANCH   1  11
TORSDOF 14
ENDMDL
MODEL 6
REMARK VINA RESULT:     1.578      4.091      8.073
REMARK INTER + INTRA:           1.931
REMARK INTER:                   1.050
REMARK INTRA:                   0.881
REMARK UNBOUND:                -0.937
REMARK SMILES CCCCCCCCCCCCCCCC(=O)[O-]
REMARK SMILES IDX 9 1 10 2 11 3 12 4 13 5 14 6 15 7 16 8 17 9 18 10 8 11 7 12
REMARK SMILES IDX 6 13 5 14 4 15 3 16 2 17 1 18
REMARK H PARENT
REMARK Flexibility Score: inf
ROOT
ATOM      1  C   UNL     1      -4.995  36.606  21.215  1.00  0.00     0.000 C 
ENDROOT
BRANCH   1   2
ATOM      2  C   UNL     1      -6.123  35.875  21.957  1.00  0.00     0.000 C 
BRANCH   2   3
ATOM      3  C   UNL     1      -5.930  34.353  21.884  1.00  0.00     0.000 C 
BRANCH   3   4
ATOM      4  C   UNL     1      -5.545  33.729  23.238  1.00  0.00     0.000 C 
BRANCH   4   5
ATOM      5  C   UNL     1      -6.059  34.487  24.475  1.00  0.00     0.000 C 
BRANCH   5   6
ATOM      6  C   UNL     1      -5.660  35.973  24.477  1.00  0.00     0.006 C 
BRANCH   6   7
ATOM      7  C   UNL     1      -5.486  36.524  25.898  1.00  0.00     0.053 C 
BRANCH   7   8
ATOM      8  C   UNL     1      -4.643  37.762  25.915  1.00  0.00     0.041 C 
ATOM      9  O   UNL     1      -3.667  37.855  26.704  1.00  0.00    -0.550 OA
ATOM     10  O   UNL     1      -4.955  38.827  25.078  1.00  0.00    -0.550 OA
ENDBRANCH   7   8
ENDBRANCH   6   7
ENDBRANCH   5   6
ENDBRANCH   4   5
ENDBRANCH   3   4
ENDBRANCH   2   3
ENDBRANCH   1   2
BRANCH   1  11
ATOM     11  C   UNL     1      -5.253  36.722  19.704  1.00  0.00     0.000 C 
BRANCH  11  12
ATOM     12  C   UNL     1      -5.428  35.378  18.970  1.00  0.00    -0.000 C 
BRANCH  12  13
ATOM     13  C   UNL     1      -4.101  34.634  18.708  1.00  0.00    -0.000 C 
BRANCH  13  14
ATOM     14  C   UNL     1      -3.831  34.429  17.208  1.00  0.00    -0.000 C 
BRANCH  14  15
ATOM     15  C   UNL     1      -3.827  35.748  16.417  1.00  0.00    -0.000 C 
BRANCH  15  16
ATOM     16  C   UNL     1      -2.781  35.782  15.283  1.00  0.00    -0.000 C 
BRANCH  16  17
ATOM     17  C   UNL     1      -3.320  36.464  14.017  1.00  0.00    -0.003 C 
ATOM     18  C   UNL     1      -4.194  37.665  14.365  1.00  0.00     0.004 C 
ENDBRANCH  16  17
ENDBRANCH  15  16
ENDBRANCH  14  15
ENDBRANCH  13  14
ENDBRANCH  12  13
ENDBRANCH  11  12
ENDBRANCH   1  11
TORSDOF 14
ENDMDL
MODEL 7
REMARK VINA RESULT:     1.579      2.522      6.310
REMARK INTER + INTRA:           1.935
REMARK INTER:                   1.568
REMARK INTRA:                   0.366
REMARK UNBOUND:                -0.937
REMARK SMILES CCCCCCCCCCCCCCCC(=O)[O-]
REMARK SMILES IDX 9 1 10 2 11 3 12 4 13 5 14 6 15 7 16 8 17 9 18 10 8 11 7 12
REMARK SMILES IDX 6 13 5 14 4 15 3 16 2 17 1 18
REMARK H PARENT
REMARK Flexibility Score: inf
ROOT
ATOM      1  C   UNL     1      -6.119  36.175  24.460  1.00  0.00     0.000 C 
ENDROOT
BRANCH   1   2
ATOM      2  C   UNL     1      -5.733  36.540  25.901  1.00  0.00     0.000 C 
BRANCH   2   3
ATOM      3  C   UNL     1      -4.337  37.179  25.949  1.00  0.00     0.000 C 
BRANCH   3   4
ATOM      4  C   UNL     1      -4.306  38.602  25.362  1.00  0.00     0.000 C 
BRANCH   4   5
ATOM      5  C   UNL     1      -5.551  38.999  24.548  1.00  0.00     0.000 C 
BRANCH   5   6
ATOM      6  C   UNL     1      -5.213  39.433  23.110  1.00  0.00     0.006 C 
BRANCH   6   7
ATOM      7  C   UNL     1      -5.669  38.400  22.072  1.00  0.00     0.053 C 
BRANCH   7   8
ATOM      8  C   UNL     1      -5.697  38.976  20.689  1.00  0.00     0.041 C 
ATOM      9  O   UNL     1      -5.404  38.260  19.696  1.00  0.00    -0.550 OA
ATOM     10  O   UNL     1      -6.019  40.315  20.500  1.00  0.00    -0.550 OA
ENDBRANCH   7   8
ENDBRANCH   6   7
ENDBRANCH   5   6
ENDBRANCH   4   5
ENDBRANCH   3   4
ENDBRANCH   2   3
ENDBRANCH   1   2
BRANCH   1  11
ATOM     11  C   UNL     1      -6.100  34.660  24.203  1.00  0.00     0.000 C 
BRANCH  11  12
ATOM     12  C   UNL     1      -5.869  34.254  22.734  1.00  0.00    -0.000 C 
BRANCH  12  13
ATOM     13  C   UNL     1      -5.751  35.453  21.767  1.00  0.00    -0.000 C 
BRANCH  13  14
ATOM     14  C   UNL     1      -4.998  35.092  20.477  1.00  0.00    -0.000 C 
BRANCH  14  15
ATOM     15  C   UNL     1      -5.925  34.987  19.255  1.00  0.00    -0.000 C 
BRANCH  15  16
ATOM     16  C   UNL     1      -5.658  33.739  18.385  1.00  0.00    -0.000 C 
BRANCH  16  17
ATOM     17  C   UNL     1      -4.325  33.835  17.628  1.00  0.00    -0.003 C 
ATOM     18  C   UNL     1      -3.974  35.285  17.310  1.00  0.00     0.004 C 
ENDBRANCH  16  17
ENDBRANCH  15  16
ENDBRANCH  14  15
ENDBRANCH  13  14
ENDBRANCH  12  13
ENDBRANCH  11  12
ENDBRANCH   1  11
TORSDOF 14
ENDMDL
MODEL 8
REMARK VINA RESULT:     2.441      3.145      7.746
REMARK INTER + INTRA:           3.501
REMARK INTER:                   3.454
REMARK INTRA:                   0.048
REMARK UNBOUND:                -0.937
REMARK SMILES CCCCCCCCCCCCCCCC(=O)[O-]
REMARK SMILES IDX 9 1 10 2 11 3 12 4 13 5 14 6 15 7 16 8 17 9 18 10 8 11 7 12
REMARK SMILES IDX 6 13 5 14 4 15 3 16 2 17 1 18
REMARK H PARENT
REMARK Flexibility Score: inf
ROOT
ATOM      1  C   UNL     1      -5.025  35.463  21.256  1.00  0.00     0.000 C 
ENDROOT
BRANCH   1   2
ATOM      2  C   UNL     1      -6.120  35.572  22.327  1.00  0.00     0.000 C 
BRANCH   2   3
ATOM      3  C   UNL     1      -5.797  34.677  23.532  1.00  0.00     0.000 C 
BRANCH   3   4
ATOM      4  C   UNL     1      -5.777  35.447  24.865  1.00  0.00     0.000 C 
BRANCH   4   5
ATOM      5  C   UNL     1      -6.125  36.943  24.759  1.00  0.00     0.000 C 
BRANCH   5   6
ATOM      6  C   UNL     1      -4.880  37.843  24.674  1.00  0.00     0.006 C 
BRANCH   6   7
ATOM      7  C   UNL     1      -5.237  39.291  24.315  1.00  0.00     0.053 C 
BRANCH   7   8
ATOM      8  C   UNL     1      -5.525  39.448  22.853  1.00  0.00     0.041 C 
ATOM      9  O   UNL     1      -5.874  38.453  22.164  1.00  0.00    -0.550 OA
ATOM     10  O   UNL     1      -5.380  40.688  22.245  1.00  0.00    -0.550 OA
ENDBRANCH   7   8
ENDBRANCH   6   7
ENDBRANCH   5   6
ENDBRANCH   4   5
ENDBRANCH   3   4
ENDBRANCH   2   3
ENDBRANCH   1   2
BRANCH   1  11
ATOM     11  C   UNL     1      -5.587  35.186  19.853  1.00  0.00     0.000 C 
BRANCH  11  12
ATOM     12  C   UNL     1      -4.560  34.655  18.834  1.00  0.00    -0.000 C 
BRANCH  12  13
ATOM     13  C   UNL     1      -4.327  35.598  17.634  1.00  0.00    -0.000 C 
BRANCH  13  14
ATOM     14  C   UNL     1      -3.592  34.902  16.477  1.00  0.00    -0.000 C 
BRANCH  14  15
ATOM     15  C   UNL     1      -2.559  35.812  15.792  1.00  0.00    -0.000 C 
BRANCH  15  16
ATOM     16  C   UNL     1      -2.853  36.058  14.296  1.00  0.00    -0.000 C 
BRANCH  16  17
ATOM     17  C   UNL     1      -4.246  36.663  14.071  1.00  0.00    -0.003 C 
ATOM     18  C   UNL     1      -4.215  38.183  14.191  1.00  0.00     0.004 C 
ENDBRANCH  16  17
ENDBRANCH  15  16
ENDBRANCH  14  15
ENDBRANCH  13  14
ENDBRANCH  12  13
ENDBRANCH  11  12
ENDBRANCH   1  11
TORSDOF 14
ENDMDL
