MODEL 1
REMARK VINA RESULT:    -6.009      0.000      0.000
REMARK INTER + INTRA:          -6.009
REMARK INTER:                  -6.009
REMARK INTRA:                   0.000
REMARK UNBOUND:                 0.000
REMARK SMILES CC1=CC(=O)[C@H]2C[C@@H]1C2(C)C
REMARK SMILES IDX 1 1 2 2 3 3 4 4 5 5 6 6 7 7 8 8 9 9 10 10 11 11
REMARK H PARENT
REMARK Flexibility Score: inf
ROOT
ATOM      1  C   UNL     1      -5.979 -11.662  -7.659  1.00  0.00     0.040 C 
ATOM      2  C   UNL     1      -5.202 -12.936  -7.554  1.00  0.00    -0.066 C 
ATOM      3  C   UNL     1      -5.338 -13.786  -6.497  1.00  0.00     0.047 C 
ATOM      4  C   UNL     1      -4.492 -15.023  -6.529  1.00  0.00     0.159 C 
ATOM      5  O   UNL     1      -4.495 -15.864  -5.593  1.00  0.00    -0.295 OA
ATOM      6  C   UNL     1      -3.625 -15.190  -7.779  1.00  0.00     0.067 C 
ATOM      7  C   UNL     1      -4.579 -14.856  -8.946  1.00  0.00     0.021 C 
ATOM      8  C   UNL     1      -4.243 -13.371  -8.681  1.00  0.00     0.022 C 
ATOM      9  C   UNL     1      -2.897 -13.846  -8.060  1.00  0.00    -0.019 C 
ATOM     10  C   UNL     1      -1.777 -13.993  -9.122  1.00  0.00     0.012 C 
ATOM     11  C   UNL     1      -2.323 -13.050  -6.854  1.00  0.00     0.012 C 
ENDROOT
TORSDOF 0
ENDMDL
MODEL 2
REMARK VINA RESULT:    -5.709      1.960      3.501
REMARK INTER + INTRA:          -5.709
REMARK INTER:                  -5.709
REMARK INTRA:                   0.000
REMARK UNBOUND:                 0.000
REMARK SMILES CC1=CC(=O)[C@H]2C[C@@H]1C2(C)C
REMARK SMILES IDX 1 1 2 2 3 3 4 4 5 5 6 6 7 7 8 8 9 9 10 10 11 11
REMARK H PARENT
REMARK Flexibility Score: inf
ROOT
ATOM      1  C   UNL     1      -2.271 -15.876  -5.771  1.00  0.00     0.040 C 
ATOM      2  C   UNL     1      -2.703 -14.797  -6.713  1.00  0.00    -0.066 C 
ATOM      3  C   UNL     1      -2.344 -13.494  -6.539  1.00  0.00     0.047 C 
ATOM      4  C   UNL     1      -2.854 -12.525  -7.563  1.00  0.00     0.159 C 
ATOM      5  O   UNL     1      -2.627 -11.289  -7.490  1.00  0.00    -0.295 OA
ATOM      6  C   UNL     1      -3.668 -13.143  -8.701  1.00  0.00     0.067 C 
ATOM      7  C   UNL     1      -2.843 -14.378  -9.125  1.00  0.00     0.021 C 
ATOM      8  C   UNL     1      -3.537 -15.130  -7.966  1.00  0.00     0.022 C 
ATOM      9  C   UNL     1      -4.713 -14.118  -8.090  1.00  0.00    -0.019 C 
ATOM     10  C   UNL     1      -5.774 -14.570  -9.125  1.00  0.00     0.012 C 
ATOM     11  C   UNL     1      -5.452 -13.689  -6.790  1.00  0.00     0.012 C 
ENDROOT
TORSDOF 0
ENDMDL
MODEL 3
REMARK VINA RESULT:    -5.571      1.247      2.548
REMARK INTER + INTRA:          -5.571
REMARK INTER:                  -5.571
REMARK INTRA:                   0.000
REMARK UNBOUND:                 0.000
REMARK SMILES CC1=CC(=O)[C@H]2C[C@@H]1C2(C)C
REMARK SMILES IDX 1 1 2 2 3 3 4 4 5 5 6 6 7 7 8 8 9 9 10 10 11 11
REMARK H PARENT
REMARK Flexibility Score: inf
ROOT
ATOM      1  C   UNL     1      -4.858 -15.904  -9.125  1.00  0.00     0.040 C 
ATOM      2  C   UNL     1      -4.076 -15.097  -8.138  1.00  0.00    -0.066 C 
ATOM      3  C   UNL     1      -4.101 -15.361  -6.801  1.00  0.00     0.047 C 
ATOM      4  C   UNL     1      -3.268 -14.466  -5.933  1.00  0.00     0.159 C 
ATOM      5  O   UNL     1      -3.240 -14.580  -4.680  1.00  0.00    -0.295 OA
ATOM      6  C   UNL     1      -2.455 -13.405  -6.678  1.00  0.00     0.067 C 
ATOM      7  C   UNL     1      -1.821 -14.176  -7.856  1.00  0.00     0.021 C 
ATOM      8  C   UNL     1      -3.154 -13.953  -8.606  1.00  0.00     0.022 C 
ATOM      9  C   UNL     1      -3.383 -12.702  -7.708  1.00  0.00    -0.019 C 
ATOM     10  C   UNL     1      -2.742 -11.423  -8.304  1.00  0.00     0.012 C 
ATOM     11  C   UNL     1      -4.839 -12.363  -7.279  1.00  0.00     0.012 C 
ENDROOT
TORSDOF 0
ENDMDL
MODEL 4
REMARK VINA RESULT:    -5.511      1.521      3.129
REMARK INTER + INTRA:          -5.511
REMARK INTER:                  -5.511
REMARK INTRA:                   0.000
REMARK UNBOUND:                 0.000
REMARK SMILES CC1=CC(=O)[C@H]2C[C@@H]1C2(C)C
REMARK SMILES IDX 1 1 2 2 3 3 4 4 5 5 6 6 7 7 8 8 9 9 10 10 11 11
REMARK H PARENT
REMARK Flexibility Score: inf
ROOT
ATOM      1  C   UNL     1      -3.592 -17.313  -5.783  1.00  0.00     0.040 C 
ATOM      2  C   UNL     1      -3.720 -15.900  -6.259  1.00  0.00    -0.066 C 
ATOM      3  C   UNL     1      -4.856 -15.170  -6.072  1.00  0.00     0.047 C 
ATOM      4  C   UNL     1      -4.838 -13.769  -6.605  1.00  0.00     0.159 C 
ATOM      5  O   UNL     1      -5.839 -13.009  -6.531  1.00  0.00    -0.295 OA
ATOM      6  C   UNL     1      -3.519 -13.329  -7.243  1.00  0.00     0.067 C 
ATOM      7  C   UNL     1      -2.441 -13.808  -6.247  1.00  0.00     0.021 C 
ATOM      8  C   UNL     1      -2.536 -15.186  -6.941  1.00  0.00     0.022 C 
ATOM      9  C   UNL     1      -3.042 -14.445  -8.214  1.00  0.00    -0.019 C 
ATOM     10  C   UNL     1      -1.879 -13.977  -9.125  1.00  0.00     0.012 C 
ATOM     11  C   UNL     1      -4.103 -15.154  -9.104  1.00  0.00     0.012 C 
ENDROOT
TORSDOF 0
ENDMDL
MODEL 5
REMARK VINA RESULT:    -5.465      1.373      2.608
REMARK INTER + INTRA:          -5.465
REMARK INTER:                  -5.465
REMARK INTRA:                   0.000
REMARK UNBOUND:                 0.000
REMARK SMILES CC1=CC(=O)[C@H]2C[C@@H]1C2(C)C
REMARK SMILES IDX 1 1 2 2 3 3 4 4 5 5 6 6 7 7 8 8 9 9 10 10 11 11
REMARK H PARENT
REMARK Flexibility Score: inf
ROOT
ATOM      1  C   UNL     1      -2.623 -11.132  -8.595  1.00  0.00     0.040 C 
ATOM      2  C   UNL     1      -3.327 -12.243  -7.883  1.00  0.00    -0.066 C 
ATOM      3  C   UNL     1      -2.793 -12.862  -6.793  1.00  0.00     0.047 C 
ATOM      4  C   UNL     1      -3.614 -13.960  -6.186  1.00  0.00     0.159 C 
ATOM      5  O   UNL     1      -3.212 -14.636  -5.203  1.00  0.00    -0.295 OA
ATOM      6  C   UNL     1      -4.973 -14.201  -6.845  1.00  0.00     0.067 C 
ATOM      7  C   UNL     1      -5.560 -12.784  -7.026  1.00  0.00     0.021 C 
ATOM      8  C   UNL     1      -4.731 -12.701  -8.328  1.00  0.00     0.022 C 
ATOM      9  C   UNL     1      -4.773 -14.256  -8.386  1.00  0.00    -0.019 C 
ATOM     10  C   UNL     1      -6.029 -14.784  -9.125  1.00  0.00     0.012 C 
ATOM     11  C   UNL     1      -3.529 -15.005  -8.944  1.00  0.00     0.012 C 
ENDROOT
TORSDOF 0
ENDMDL
MODEL 6
REMARK VINA RESULT:    -5.147      1.862      3.258
REMARK INTER + INTRA:          -5.147
REMARK INTER:                  -5.147
REMARK INTRA:                   0.000
REMARK UNBOUND:                 0.000
REMARK SMILES CC1=CC(=O)[C@H]2C[C@@H]1C2(C)C
REMARK SMILES IDX 1 1 2 2 3 3 4 4 5 5 6 6 7 7 8 8 9 9 10 10 11 11
REMARK H PARENT
REMARK Flexibility Score: inf
ROOT
ATOM      1  C   UNL     1      -3.983 -16.124  -5.437  1.00  0.00     0.040 C 
ATOM      2  C   UNL     1      -3.814 -15.378  -6.722  1.00  0.00    -0.066 C 
ATOM      3  C   UNL     1      -2.587 -15.121  -7.258  1.00  0.00     0.047 C 
ATOM      4  C   UNL     1      -2.575 -14.361  -8.550  1.00  0.00     0.159 C 
ATOM      5  O   UNL     1      -1.506 -14.025  -9.123  1.00  0.00    -0.295 OA
ATOM      6  C   UNL     1      -3.953 -14.023  -9.123  1.00  0.00     0.067 C 
ATOM      7  C   UNL     1      -4.750 -15.339  -8.989  1.00  0.00     0.021 C 
ATOM      8  C   UNL     1      -5.041 -14.912  -7.532  1.00  0.00     0.022 C 
ATOM      9  C   UNL     1      -4.833 -13.437  -7.983  1.00  0.00    -0.019 C 
ATOM     10  C   UNL     1      -6.138 -12.794  -8.517  1.00  0.00     0.012 C 
ATOM     11  C   UNL     1      -4.178 -12.446  -6.979  1.00  0.00     0.012 C 
ENDROOT
TORSDOF 0
ENDMDL
MODEL 7
REMARK VINA RESULT:    -5.117      1.850      3.096
REMARK INTER + INTRA:          -5.117
REMARK INTER:                  -5.117
REMARK INTRA:                   0.000
REMARK UNBOUND:                 0.000
REMARK SMILES CC1=CC(=O)[C@H]2C[C@@H]1C2(C)C
REMARK SMILES IDX 1 1 2 2 3 3 4 4 5 5 6 6 7 7 8 8 9 9 10 10 11 11
REMARK H PARENT
REMARK Flexibility Score: inf
ROOT
ATOM      1  C   UNL     1      -5.777 -12.269  -7.682  1.00  0.00     0.040 C 
ATOM      2  C   UNL     1      -4.545 -13.114  -7.603  1.00  0.00    -0.066 C 
ATOM      3  C   UNL     1      -3.547 -13.033  -8.528  1.00  0.00     0.047 C 
ATOM      4  C   UNL     1      -2.375 -13.943  -8.319  1.00  0.00     0.159 C 
ATOM      5  O   UNL     1      -1.410 -13.993  -9.125  1.00  0.00    -0.295 OA
ATOM      6  C   UNL     1      -2.435 -14.808  -7.058  1.00  0.00     0.067 C 
ATOM      7  C   UNL     1      -2.880 -13.828  -5.951  1.00  0.00     0.021 C 
ATOM      8  C   UNL     1      -4.328 -14.086  -6.426  1.00  0.00     0.022 C 
ATOM      9  C   UNL     1      -3.843 -15.461  -6.972  1.00  0.00    -0.019 C 
ATOM     10  C   UNL     1      -3.911 -16.578  -5.900  1.00  0.00     0.012 C 
ATOM     11  C   UNL     1      -4.489 -16.001  -8.279  1.00  0.00     0.012 C 
ENDROOT
TORSDOF 0
ENDMDL
MODEL 8
REMARK VINA RESULT:    -5.092      1.829      2.567
REMARK INTER + INTRA:          -5.092
REMARK INTER:                  -5.092
REMARK INTRA:                   0.000
REMARK UNBOUND:                 0.000
REMARK SMILES CC1=CC(=O)[C@H]2C[C@@H]1C2(C)C
REMARK SMILES IDX 1 1 2 2 3 3 4 4 5 5 6 6 7 7 8 8 9 9 10 10 11 11
REMARK H PARENT
REMARK Flexibility Score: inf
ROOT
ATOM      1  C   UNL     1      -2.829 -11.067  -8.735  1.00  0.00     0.040 C 
ATOM      2  C   UNL     1      -3.437 -12.430  -8.626  1.00  0.00    -0.066 C 
ATOM      3  C   UNL     1      -4.718 -12.688  -9.014  1.00  0.00     0.047 C 
ATOM      4  C   UNL     1      -5.189 -14.100  -8.843  1.00  0.00     0.159 C 
ATOM      5  O   UNL     1      -6.363 -14.456  -9.125  1.00  0.00    -0.295 OA
ATOM      6  C   UNL     1      -4.144 -15.078  -8.303  1.00  0.00     0.067 C 
ATOM      7  C   UNL     1      -2.875 -14.764  -9.124  1.00  0.00     0.021 C 
ATOM      8  C   UNL     1      -2.608 -13.625  -8.114  1.00  0.00     0.022 C 
ATOM      9  C   UNL     1      -3.446 -14.428  -7.076  1.00  0.00    -0.019 C 
ATOM     10  C   UNL     1      -2.584 -15.442  -6.281  1.00  0.00     0.012 C 
ATOM     11  C   UNL     1      -4.319 -13.633  -6.063  1.00  0.00     0.012 C 
ENDROOT
TORSDOF 0
ENDMDL
