MODEL 1
REMARK VINA RESULT:     9.389      0.000      0.000
REMARK INTER + INTRA:          10.779
REMARK INTER:                  11.036
REMARK INTRA:                  -0.257
REMARK UNBOUND:                -0.257
REMARK SMILES O=c1c(O)c(-c2ccc(O)cc2)oc2cc(O)cc(O)c12
REMARK SMILES IDX 5 1 3 2 2 3 1 4 21 5 19 6 18 7 16 8 15 9 14 10 13 11 6 12
REMARK SMILES IDX 7 13 8 14 9 15 12 16 11 17 10 18 4 20 20 22 17 24
REMARK H PARENT 10 19 4 21 20 23 17 25
REMARK Flexibility Score: inf
ROOT
ATOM      1  C   UNL     1     134.466 159.915 173.078  1.00  0.00     0.180 A 
ATOM      2  C   UNL     1     133.268 160.577 173.400  1.00  0.00     0.208 A 
ATOM      3  C   UNL     1     133.307 161.656 174.297  1.00  0.00     0.238 A 
ATOM      4  O   UNL     1     132.224 162.210 174.624  1.00  0.00    -0.285 OA
ATOM      5  C   UNL     1     134.544 162.072 174.847  1.00  0.00     0.111 A 
ATOM      6  C   UNL     1     134.705 163.179 175.733  1.00  0.00     0.134 A 
ATOM      7  C   UNL     1     135.955 163.418 176.318  1.00  0.00     0.093 A 
ATOM      8  C   UNL     1     137.062 162.633 175.999  1.00  0.00     0.123 A 
ATOM      9  C   UNL     1     136.929 161.585 175.086  1.00  0.00     0.094 A 
ATOM     10  C   UNL     1     135.686 161.299 174.515  1.00  0.00     0.146 A 
ATOM     11  O   UNL     1     135.600 160.286 173.660  1.00  0.00    -0.452 OA
ENDROOT
BRANCH   1  12
ATOM     12  C   UNL     1     134.509 158.786 172.122  1.00  0.00     0.021 A 
ATOM     13  C   UNL     1     134.867 159.026 170.783  1.00  0.00     0.016 A 
ATOM     14  C   UNL     1     134.892 157.978 169.858  1.00  0.00     0.047 A 
ATOM     15  C   UNL     1     134.545 156.680 170.255  1.00  0.00     0.115 A 
ATOM     16  C   UNL     1     134.144 157.483 172.507  1.00  0.00     0.016 A 
ATOM     17  C   UNL     1     134.169 156.438 171.579  1.00  0.00     0.047 A 
BRANCH  15  18
ATOM     18  O   UNL     1     134.567 155.628 169.341  1.00  0.00    -0.508 OA
ATOM     19  H   UNL     1     135.003 155.726 168.433  1.00  0.00     0.293 HD
ENDBRANCH  15  18
ENDBRANCH   1  12
BRANCH   2  20
ATOM     20  O   UNL     1     132.055 160.136 172.864  1.00  0.00    -0.502 OA
ATOM     21  H   UNL     1     131.282 160.763 172.678  1.00  0.00     0.293 HD
ENDBRANCH   2  20
BRANCH   6  22
ATOM     22  O   UNL     1     133.686 164.082 176.048  1.00  0.00    -0.507 OA
ATOM     23  H   UNL     1     132.718 163.971 175.785  1.00  0.00     0.293 HD
ENDBRANCH   6  22
BRANCH   8  24
ATOM     24  O   UNL     1     138.293 162.911 176.588  1.00  0.00    -0.508 OA
ATOM     25  H   UNL     1     138.869 163.683 176.272  1.00  0.00     0.293 HD
ENDBRANCH   8  24
TORSDOF 5
ENDMDL
