MODEL 1
REMARK VINA RESULT:    -4.691      0.000      0.000
REMARK INTER + INTRA:          -9.528
REMARK INTER:                  -8.256
REMARK INTRA:                  -1.272
REMARK UNBOUND:                -1.272
REMARK SMILES CCCCCCC=CCCCCCCCC(=O)[O-]
REMARK SMILES IDX 10 1 11 2 12 3 13 4 14 5 15 6 16 7 17 8 18 9 9 10 8 11 7 12
REMARK SMILES IDX 6 13 5 14 4 15 3 16 2 17 1 18
REMARK H PARENT
REMARK Flexibility Score: inf
ROOT
ATOM      1  C   UNL     1      68.536 -38.253   9.198  1.00  0.00     0.004 C 
ENDROOT
BRANCH   1   2
ATOM      2  C   UNL     1      69.505 -37.697  10.252  1.00  0.00     0.000 C 
BRANCH   2   3
ATOM      3  C   UNL     1      70.641 -38.676  10.585  1.00  0.00     0.000 C 
BRANCH   3   4
ATOM      4  C   UNL     1      71.629 -38.053  11.581  1.00  0.00     0.000 C 
BRANCH   4   5
ATOM      5  C   UNL     1      72.931 -37.568  10.916  1.00  0.00     0.006 C 
BRANCH   5   6
ATOM      6  C   UNL     1      74.209 -37.996  11.660  1.00  0.00     0.053 C 
BRANCH   6   7
ATOM      7  C   UNL     1      75.450 -37.397  11.070  1.00  0.00     0.041 C 
ATOM      8  O   UNL     1      75.398 -36.769   9.979  1.00  0.00    -0.550 OA
ATOM      9  O   UNL     1      76.660 -37.503  11.744  1.00  0.00    -0.550 OA
ENDBRANCH   6   7
ENDBRANCH   5   6
ENDBRANCH   4   5
ENDBRANCH   3   4
ENDBRANCH   2   3
ENDBRANCH   1   2
BRANCH   1  10
ATOM     10  C   UNL     1      68.716 -37.594   7.823  1.00  0.00     0.027 C 
BRANCH  10  11
ATOM     11  C   UNL     1      68.684 -36.094   7.933  1.00  0.00    -0.031 C 
ATOM     12  C   UNL     1      69.360 -35.312   7.079  1.00  0.00    -0.031 C 
BRANCH  12  13
ATOM     13  C   UNL     1      69.328 -33.812   7.189  1.00  0.00     0.027 C 
BRANCH  13  14
ATOM     14  C   UNL     1      70.420 -33.169   6.326  1.00  0.00     0.004 C 
BRANCH  14  15
ATOM     15  C   UNL     1      71.801 -33.344   6.969  1.00  0.00     0.000 C 
BRANCH  15  16
ATOM     16  C   UNL     1      72.800 -33.946   5.974  1.00  0.00    -0.000 C 
BRANCH  16  17
ATOM     17  C   UNL     1      73.115 -35.405   6.327  1.00  0.00    -0.003 C 
ATOM     18  C   UNL     1      72.810 -35.694   7.794  1.00  0.00     0.004 C 
ENDBRANCH  16  17
ENDBRANCH  15  16
ENDBRANCH  14  15
ENDBRANCH  13  14
ENDBRANCH  12  13
ENDBRANCH  10  11
ENDBRANCH   1  10
TORSDOF 13
ENDMDL
MODEL 2
REMARK VINA RESULT:    -4.619      1.754      5.519
REMARK INTER + INTRA:          -9.402
REMARK INTER:                  -7.995
REMARK INTRA:                  -1.407
REMARK UNBOUND:                -1.272
REMARK SMILES CCCCCCC=CCCCCCCCC(=O)[O-]
REMARK SMILES IDX 10 1 11 2 12 3 13 4 14 5 15 6 16 7 17 8 18 9 9 10 8 11 7 12
REMARK SMILES IDX 6 13 5 14 4 15 3 16 2 17 1 18
REMARK H PARENT
REMARK Flexibility Score: inf
ROOT
ATOM      1  C   UNL     1      69.450 -34.483   7.357  1.00  0.00     0.004 C 
ENDROOT
BRANCH   1   2
ATOM      2  C   UNL     1      69.882 -33.169   6.687  1.00  0.00     0.000 C 
BRANCH   2   3
ATOM      3  C   UNL     1      71.399 -32.939   6.761  1.00  0.00     0.000 C 
BRANCH   3   4
ATOM      4  C   UNL     1      72.040 -33.061   5.371  1.00  0.00     0.000 C 
BRANCH   4   5
ATOM      5  C   UNL     1      73.315 -33.925   5.369  1.00  0.00     0.006 C 
BRANCH   5   6
ATOM      6  C   UNL     1      73.046 -35.436   5.485  1.00  0.00     0.053 C 
BRANCH   6   7
ATOM      7  C   UNL     1      73.580 -36.023   6.757  1.00  0.00     0.041 C 
ATOM      8  O   UNL     1      74.596 -36.768   6.737  1.00  0.00    -0.550 OA
ATOM      9  O   UNL     1      72.975 -35.720   7.970  1.00  0.00    -0.550 OA
ENDBRANCH   6   7
ENDBRANCH   5   6
ENDBRANCH   4   5
ENDBRANCH   3   4
ENDBRANCH   2   3
ENDBRANCH   1   2
BRANCH   1  10
ATOM     10  C   UNL     1      69.576 -35.693   6.420  1.00  0.00     0.027 C 
BRANCH  10  11
ATOM     11  C   UNL     1      69.663 -36.976   7.201  1.00  0.00    -0.031 C 
ATOM     12  C   UNL     1      69.778 -36.979   8.537  1.00  0.00    -0.031 C 
BRANCH  12  13
ATOM     13  C   UNL     1      69.865 -38.262   9.318  1.00  0.00     0.027 C 
BRANCH  13  14
ATOM     14  C   UNL     1      70.037 -37.988  10.816  1.00  0.00     0.004 C 
BRANCH  14  15
ATOM     15  C   UNL     1      71.242 -38.751  11.379  1.00  0.00     0.000 C 
BRANCH  15  16
ATOM     16  C   UNL     1      72.254 -37.790  12.016  1.00  0.00    -0.000 C 
BRANCH  16  17
ATOM     17  C   UNL     1      73.292 -37.326  10.988  1.00  0.00    -0.003 C 
ATOM     18  C   UNL     1      74.654 -37.959  11.257  1.00  0.00     0.004 C 
ENDBRANCH  16  17
ENDBRANCH  15  16
ENDBRANCH  14  15
ENDBRANCH  13  14
ENDBRANCH  12  13
ENDBRANCH  10  11
ENDBRANCH   1  10
TORSDOF 13
ENDMDL
MODEL 3
REMARK VINA RESULT:    -4.598      2.667      6.250
REMARK INTER + INTRA:          -9.364
REMARK INTER:                  -7.802
REMARK INTRA:                  -1.561
REMARK UNBOUND:                -1.272
REMARK SMILES CCCCCCC=CCCCCCCCC(=O)[O-]
REMARK SMILES IDX 10 1 11 2 12 3 13 4 14 5 15 6 16 7 17 8 18 9 9 10 8 11 7 12
REMARK SMILES IDX 6 13 5 14 4 15 3 16 2 17 1 18
REMARK H PARENT
REMARK Flexibility Score: inf
ROOT
ATOM      1  C   UNL     1      72.442 -33.441   5.598  1.00  0.00     0.004 C 
ENDROOT
BRANCH   1   2
ATOM      2  C   UNL     1      71.570 -33.237   6.847  1.00  0.00     0.000 C 
BRANCH   2   3
ATOM      3  C   UNL     1      70.073 -33.143   6.514  1.00  0.00     0.000 C 
BRANCH   3   4
ATOM      4  C   UNL     1      69.262 -34.141   7.352  1.00  0.00     0.000 C 
BRANCH   4   5
ATOM      5  C   UNL     1      69.585 -35.610   7.022  1.00  0.00     0.006 C 
BRANCH   5   6
ATOM      6  C   UNL     1      69.994 -36.450   8.245  1.00  0.00     0.053 C 
BRANCH   6   7
ATOM      7  C   UNL     1      68.844 -37.211   8.834  1.00  0.00     0.041 C 
ATOM      8  O   UNL     1      68.965 -37.784   9.950  1.00  0.00    -0.550 OA
ATOM      9  O   UNL     1      67.628 -37.260   8.166  1.00  0.00    -0.550 OA
ENDBRANCH   6   7
ENDBRANCH   5   6
ENDBRANCH   4   5
ENDBRANCH   3   4
ENDBRANCH   2   3
ENDBRANCH   1   2
BRANCH   1  10
ATOM     10  C   UNL     1      72.700 -34.924   5.294  1.00  0.00     0.027 C 
BRANCH  10  11
ATOM     11  C   UNL     1      73.329 -35.617   6.472  1.00  0.00    -0.031 C 
ATOM     12  C   UNL     1      74.436 -36.362   6.341  1.00  0.00    -0.031 C 
BRANCH  12  13
ATOM     13  C   UNL     1      75.064 -37.054   7.519  1.00  0.00     0.027 C 
BRANCH  13  14
ATOM     14  C   UNL     1      74.301 -36.748   8.813  1.00  0.00     0.004 C 
BRANCH  14  15
ATOM     15  C   UNL     1      75.144 -37.103  10.044  1.00  0.00     0.000 C 
BRANCH  15  16
ATOM     16  C   UNL     1      74.251 -37.471  11.235  1.00  0.00    -0.000 C 
BRANCH  16  17
ATOM     17  C   UNL     1      72.768 -37.342  10.870  1.00  0.00    -0.003 C 
ATOM     18  C   UNL     1      71.936 -38.421  11.558  1.00  0.00     0.004 C 
ENDBRANCH  16  17
ENDBRANCH  15  16
ENDBRANCH  14  15
ENDBRANCH  13  14
ENDBRANCH  12  13
ENDBRANCH  10  11
ENDBRANCH   1  10
TORSDOF 13
ENDMDL
MODEL 4
REMARK VINA RESULT:    -4.572      1.147      4.229
REMARK INTER + INTRA:          -9.319
REMARK INTER:                  -8.136
REMARK INTRA:                  -1.183
REMARK UNBOUND:                -1.272
REMARK SMILES CCCCCCC=CCCCCCCCC(=O)[O-]
REMARK SMILES IDX 10 1 11 2 12 3 13 4 14 5 15 6 16 7 17 8 18 9 9 10 8 11 7 12
REMARK SMILES IDX 6 13 5 14 4 15 3 16 2 17 1 18
REMARK H PARENT
REMARK Flexibility Score: inf
ROOT
ATOM      1  C   UNL     1      72.044 -33.621   7.007  1.00  0.00     0.004 C 
ENDROOT
BRANCH   1   2
ATOM      2  C   UNL     1      72.124 -35.138   6.777  1.00  0.00     0.000 C 
BRANCH   2   3
ATOM      3  C   UNL     1      72.831 -35.873   7.925  1.00  0.00     0.000 C 
BRANCH   3   4
ATOM      4  C   UNL     1      74.137 -36.520   7.441  1.00  0.00     0.000 C 
BRANCH   4   5
ATOM      5  C   UNL     1      75.101 -36.868   8.590  1.00  0.00     0.006 C 
BRANCH   5   6
ATOM      6  C   UNL     1      74.408 -37.058   9.951  1.00  0.00     0.053 C 
BRANCH   6   7
ATOM      7  C   UNL     1      75.380 -37.144  11.089  1.00  0.00     0.041 C 
ATOM      8  O   UNL     1      75.259 -38.043  11.963  1.00  0.00    -0.550 OA
ATOM      9  O   UNL     1      76.441 -36.250  11.165  1.00  0.00    -0.550 OA
ENDBRANCH   6   7
ENDBRANCH   5   6
ENDBRANCH   4   5
ENDBRANCH   3   4
ENDBRANCH   2   3
ENDBRANCH   1   2
BRANCH   1  10
ATOM     10  C   UNL     1      70.598 -33.109   7.077  1.00  0.00     0.027 C 
BRANCH  10  11
ATOM     11  C   UNL     1      69.619 -34.203   6.746  1.00  0.00    -0.031 C 
ATOM     12  C   UNL     1      68.832 -34.749   7.684  1.00  0.00    -0.031 C 
BRANCH  12  13
ATOM     13  C   UNL     1      67.854 -35.843   7.353  1.00  0.00     0.027 C 
BRANCH  13  14
ATOM     14  C   UNL     1      67.896 -36.960   8.403  1.00  0.00     0.004 C 
BRANCH  14  15
ATOM     15  C   UNL     1      69.342 -37.341   8.741  1.00  0.00     0.000 C 
BRANCH  15  16
ATOM     16  C   UNL     1      69.493 -37.659  10.234  1.00  0.00    -0.000 C 
BRANCH  16  17
ATOM     17  C   UNL     1      70.354 -38.910  10.444  1.00  0.00    -0.003 C 
ATOM     18  C   UNL     1      71.527 -38.619  11.376  1.00  0.00     0.004 C 
ENDBRANCH  16  17
ENDBRANCH  15  16
ENDBRANCH  14  15
ENDBRANCH  13  14
ENDBRANCH  12  13
ENDBRANCH  10  11
ENDBRANCH   1  10
TORSDOF 13
ENDMDL
MODEL 5
REMARK VINA RESULT:    -4.399      1.118      2.313
REMARK INTER + INTRA:          -9.015
REMARK INTER:                  -8.036
REMARK INTRA:                  -0.979
REMARK UNBOUND:                -1.272
REMARK SMILES CCCCCCC=CCCCCCCCC(=O)[O-]
REMARK SMILES IDX 10 1 11 2 12 3 13 4 14 5 15 6 16 7 17 8 18 9 9 10 8 11 7 12
REMARK SMILES IDX 6 13 5 14 4 15 3 16 2 17 1 18
REMARK H PARENT
REMARK Flexibility Score: inf
ROOT
ATOM      1  C   UNL     1      70.128 -38.937   9.923  1.00  0.00     0.004 C 
ENDROOT
BRANCH   1   2
ATOM      2  C   UNL     1      70.770 -39.319  11.266  1.00  0.00     0.000 C 
BRANCH   2   3
ATOM      3  C   UNL     1      71.987 -38.447  11.608  1.00  0.00     0.000 C 
BRANCH   3   4
ATOM      4  C   UNL     1      72.218 -37.379  10.530  1.00  0.00     0.000 C 
BRANCH   4   5
ATOM      5  C   UNL     1      73.626 -36.758  10.586  1.00  0.00     0.006 C 
BRANCH   5   6
ATOM      6  C   UNL     1      74.765 -37.792  10.588  1.00  0.00     0.053 C 
BRANCH   6   7
ATOM      7  C   UNL     1      75.958 -37.339  11.376  1.00  0.00     0.041 C 
ATOM      8  O   UNL     1      76.562 -38.143  12.135  1.00  0.00    -0.550 OA
ATOM      9  O   UNL     1      76.423 -36.037  11.245  1.00  0.00    -0.550 OA
ENDBRANCH   6   7
ENDBRANCH   5   6
ENDBRANCH   4   5
ENDBRANCH   3   4
ENDBRANCH   2   3
ENDBRANCH   1   2
BRANCH   1  10
ATOM     10  C   UNL     1      68.614 -39.192   9.898  1.00  0.00     0.027 C 
BRANCH  10  11
ATOM     11  C   UNL     1      67.907 -38.173   9.046  1.00  0.00    -0.031 C 
ATOM     12  C   UNL     1      68.545 -37.507   8.073  1.00  0.00    -0.031 C 
BRANCH  12  13
ATOM     13  C   UNL     1      67.839 -36.487   7.222  1.00  0.00     0.027 C 
BRANCH  13  14
ATOM     14  C   UNL     1      68.205 -35.060   7.647  1.00  0.00     0.004 C 
BRANCH  14  15
ATOM     15  C   UNL     1      69.680 -34.761   7.353  1.00  0.00     0.000 C 
BRANCH  15  16
ATOM     16  C   UNL     1      69.851 -33.348   6.782  1.00  0.00    -0.000 C 
BRANCH  16  17
ATOM     17  C   UNL     1      71.286 -32.846   6.982  1.00  0.00    -0.003 C 
ATOM     18  C   UNL     1      72.242 -34.004   7.252  1.00  0.00     0.004 C 
ENDBRANCH  16  17
ENDBRANCH  15  16
ENDBRANCH  14  15
ENDBRANCH  13  14
ENDBRANCH  12  13
ENDBRANCH  10  11
ENDBRANCH   1  10
TORSDOF 13
ENDMDL
MODEL 6
REMARK VINA RESULT:    -4.325      1.398      5.112
REMARK INTER + INTRA:          -8.885
REMARK INTER:                  -7.671
REMARK INTRA:                  -1.214
REMARK UNBOUND:                -1.272
REMARK SMILES CCCCCCC=CCCCCCCCC(=O)[O-]
REMARK SMILES IDX 10 1 11 2 12 3 13 4 14 5 15 6 16 7 17 8 18 9 9 10 8 11 7 12
REMARK SMILES IDX 6 13 5 14 4 15 3 16 2 17 1 18
REMARK H PARENT
REMARK Flexibility Score: inf
ROOT
ATOM      1  C   UNL     1      70.776 -33.586   5.610  1.00  0.00     0.004 C 
ENDROOT
BRANCH   1   2
ATOM      2  C   UNL     1      72.216 -33.052   5.677  1.00  0.00     0.000 C 
BRANCH   2   3
ATOM      3  C   UNL     1      73.263 -34.135   5.377  1.00  0.00     0.000 C 
BRANCH   3   4
ATOM      4  C   UNL     1      72.841 -35.486   5.971  1.00  0.00     0.000 C 
BRANCH   4   5
ATOM      5  C   UNL     1      73.239 -35.646   7.450  1.00  0.00     0.006 C 
BRANCH   5   6
ATOM      6  C   UNL     1      74.297 -36.737   7.697  1.00  0.00     0.053 C 
BRANCH   6   7
ATOM      7  C   UNL     1      74.772 -36.771   9.118  1.00  0.00     0.041 C 
ATOM      8  O   UNL     1      75.932 -36.376   9.411  1.00  0.00    -0.550 OA
ATOM      9  O   UNL     1      73.921 -37.209  10.125  1.00  0.00    -0.550 OA
ENDBRANCH   6   7
ENDBRANCH   5   6
ENDBRANCH   4   5
ENDBRANCH   3   4
ENDBRANCH   2   3
ENDBRANCH   1   2
BRANCH   1  10
ATOM     10  C   UNL     1      69.885 -33.025   6.727  1.00  0.00     0.027 C 
BRANCH  10  11
ATOM     11  C   UNL     1      69.138 -34.127   7.429  1.00  0.00    -0.031 C 
ATOM     12  C   UNL     1      69.615 -35.379   7.477  1.00  0.00    -0.031 C 
BRANCH  12  13
ATOM     13  C   UNL     1      68.868 -36.480   8.179  1.00  0.00     0.027 C 
BRANCH  13  14
ATOM     14  C   UNL     1      69.823 -37.583   8.651  1.00  0.00     0.004 C 
BRANCH  14  15
ATOM     15  C   UNL     1      69.613 -37.891  10.139  1.00  0.00     0.000 C 
BRANCH  15  16
ATOM     16  C   UNL     1      70.897 -38.438  10.775  1.00  0.00    -0.000 C 
BRANCH  16  17
ATOM     17  C   UNL     1      70.624 -39.750  11.520  1.00  0.00    -0.003 C 
ATOM     18  C   UNL     1      69.925 -40.761  10.616  1.00  0.00     0.004 C 
ENDBRANCH  16  17
ENDBRANCH  15  16
ENDBRANCH  14  15
ENDBRANCH  13  14
ENDBRANCH  12  13
ENDBRANCH  10  11
ENDBRANCH   1  10
TORSDOF 13
ENDMDL
MODEL 7
REMARK VINA RESULT:    -4.261      1.569      2.490
REMARK INTER + INTRA:          -8.772
REMARK INTER:                  -7.380
REMARK INTRA:                  -1.392
REMARK UNBOUND:                -1.272
REMARK SMILES CCCCCCC=CCCCCCCCC(=O)[O-]
REMARK SMILES IDX 10 1 11 2 12 3 13 4 14 5 15 6 16 7 17 8 18 9 9 10 8 11 7 12
REMARK SMILES IDX 6 13 5 14 4 15 3 16 2 17 1 18
REMARK H PARENT
REMARK Flexibility Score: inf
ROOT
ATOM      1  C   UNL     1      68.941 -36.689   7.218  1.00  0.00     0.004 C 
ENDROOT
BRANCH   1   2
ATOM      2  C   UNL     1      69.921 -37.136   8.315  1.00  0.00     0.000 C 
BRANCH   2   3
ATOM      3  C   UNL     1      69.206 -37.689   9.556  1.00  0.00     0.000 C 
BRANCH   3   4
ATOM      4  C   UNL     1      69.502 -39.184   9.740  1.00  0.00     0.000 C 
BRANCH   4   5
ATOM      5  C   UNL     1      70.638 -39.455  10.744  1.00  0.00     0.006 C 
BRANCH   5   6
ATOM      6  C   UNL     1      71.006 -38.239  11.613  1.00  0.00     0.053 C 
BRANCH   6   7
ATOM      7  C   UNL     1      72.401 -37.750  11.363  1.00  0.00     0.041 C 
ATOM      8  O   UNL     1      73.377 -38.277  11.960  1.00  0.00    -0.550 OA
ATOM      9  O   UNL     1      72.626 -36.733  10.444  1.00  0.00    -0.550 OA
ENDBRANCH   6   7
ENDBRANCH   5   6
ENDBRANCH   4   5
ENDBRANCH   3   4
ENDBRANCH   2   3
ENDBRANCH   1   2
BRANCH   1  10
ATOM     10  C   UNL     1      68.221 -35.379   7.567  1.00  0.00     0.027 C 
BRANCH  10  11
ATOM     11  C   UNL     1      69.164 -34.208   7.500  1.00  0.00    -0.031 C 
ATOM     12  C   UNL     1      70.007 -34.044   6.471  1.00  0.00    -0.031 C 
BRANCH  12  13
ATOM     13  C   UNL     1      70.949 -32.873   6.403  1.00  0.00     0.027 C 
BRANCH  13  14
ATOM     14  C   UNL     1      71.993 -33.065   5.297  1.00  0.00     0.004 C 
BRANCH  14  15
ATOM     15  C   UNL     1      72.115 -34.544   4.908  1.00  0.00     0.000 C 
BRANCH  15  16
ATOM     16  C   UNL     1      73.583 -34.985   4.875  1.00  0.00    -0.000 C 
BRANCH  16  17
ATOM     17  C   UNL     1      73.810 -36.206   5.774  1.00  0.00    -0.003 C 
ATOM     18  C   UNL     1      73.256 -35.967   7.176  1.00  0.00     0.004 C 
ENDBRANCH  16  17
ENDBRANCH  15  16
ENDBRANCH  14  15
ENDBRANCH  13  14
ENDBRANCH  12  13
ENDBRANCH  10  11
ENDBRANCH   1  10
TORSDOF 13
ENDMDL
MODEL 8
REMARK VINA RESULT:    -4.214      2.027      4.341
REMARK INTER + INTRA:          -8.688
REMARK INTER:                  -7.179
REMARK INTRA:                  -1.509
REMARK UNBOUND:                -1.272
REMARK SMILES CCCCCCC=CCCCCCCCC(=O)[O-]
REMARK SMILES IDX 10 1 11 2 12 3 13 4 14 5 15 6 16 7 17 8 18 9 9 10 8 11 7 12
REMARK SMILES IDX 6 13 5 14 4 15 3 16 2 17 1 18
REMARK H PARENT
REMARK Flexibility Score: inf
ROOT
ATOM      1  C   UNL     1      72.526 -38.210  11.628  1.00  0.00     0.004 C 
ENDROOT
BRANCH   1   2
ATOM      2  C   UNL     1      73.322 -36.972  11.185  1.00  0.00     0.000 C 
BRANCH   2   3
ATOM      3  C   UNL     1      74.681 -37.333  10.567  1.00  0.00     0.000 C 
BRANCH   3   4
ATOM      4  C   UNL     1      74.756 -36.877   9.103  1.00  0.00     0.000 C 
BRANCH   4   5
ATOM      5  C   UNL     1      73.381 -36.518   8.510  1.00  0.00     0.006 C 
BRANCH   5   6
ATOM      6  C   UNL     1      73.452 -35.852   7.125  1.00  0.00     0.053 C 
BRANCH   6   7
ATOM      7  C   UNL     1      73.506 -36.848   6.005  1.00  0.00     0.041 C 
ATOM      8  O   UNL     1      72.622 -36.844   5.107  1.00  0.00    -0.550 OA
ATOM      9  O   UNL     1      74.552 -37.759   5.936  1.00  0.00    -0.550 OA
ENDBRANCH   6   7
ENDBRANCH   5   6
ENDBRANCH   4   5
ENDBRANCH   3   4
ENDBRANCH   2   3
ENDBRANCH   1   2
BRANCH   1  10
ATOM     10  C   UNL     1      71.010 -38.024  11.473  1.00  0.00     0.027 C 
BRANCH  10  11
ATOM     11  C   UNL     1      70.537 -38.516  10.132  1.00  0.00    -0.031 C 
ATOM     12  C   UNL     1      69.750 -37.767   9.347  1.00  0.00    -0.031 C 
BRANCH  12  13
ATOM     13  C   UNL     1      69.278 -38.260   8.006  1.00  0.00     0.027 C 
BRANCH  13  14
ATOM     14  C   UNL     1      68.838 -37.095   7.112  1.00  0.00     0.004 C 
BRANCH  14  15
ATOM     15  C   UNL     1      69.301 -35.752   7.691  1.00  0.00     0.000 C 
BRANCH  15  16
ATOM     16  C   UNL     1      69.890 -34.854   6.597  1.00  0.00    -0.000 C 
BRANCH  16  17
ATOM     17  C   UNL     1      69.783 -33.375   6.984  1.00  0.00    -0.003 C 
ATOM     18  C   UNL     1      71.142 -32.684   6.900  1.00  0.00     0.004 C 
ENDBRANCH  16  17
ENDBRANCH  15  16
ENDBRANCH  14  15
ENDBRANCH  13  14
ENDBRANCH  12  13
ENDBRANCH  10  11
ENDBRANCH   1  10
TORSDOF 13
ENDMDL
MODEL 9
REMARK VINA RESULT:    -4.173      2.278      5.567
REMARK INTER + INTRA:          -8.617
REMARK INTER:                  -7.288
REMARK INTRA:                  -1.329
REMARK UNBOUND:                -1.272
REMARK SMILES CCCCCCC=CCCCCCCCC(=O)[O-]
REMARK SMILES IDX 10 1 11 2 12 3 13 4 14 5 15 6 16 7 17 8 18 9 9 10 8 11 7 12
REMARK SMILES IDX 6 13 5 14 4 15 3 16 2 17 1 18
REMARK H PARENT
REMARK Flexibility Score: inf
ROOT
ATOM      1  C   UNL     1      67.450 -37.187   7.575  1.00  0.00     0.004 C 
ENDROOT
BRANCH   1   2
ATOM      2  C   UNL     1      68.471 -36.226   6.946  1.00  0.00     0.000 C 
BRANCH   2   3
ATOM      3  C   UNL     1      68.411 -34.818   7.558  1.00  0.00     0.000 C 
BRANCH   3   4
ATOM      4  C   UNL     1      69.632 -33.987   7.141  1.00  0.00     0.000 C 
BRANCH   4   5
ATOM      5  C   UNL     1      70.886 -34.843   6.883  1.00  0.00     0.006 C 
BRANCH   5   6
ATOM      6  C   UNL     1      72.167 -34.021   6.653  1.00  0.00     0.053 C 
BRANCH   6   7
ATOM      7  C   UNL     1      73.201 -34.768   5.865  1.00  0.00     0.041 C 
ATOM      8  O   UNL     1      73.982 -34.150   5.094  1.00  0.00    -0.550 OA
ATOM      9  O   UNL     1      73.322 -36.144   6.008  1.00  0.00    -0.550 OA
ENDBRANCH   6   7
ENDBRANCH   5   6
ENDBRANCH   4   5
ENDBRANCH   3   4
ENDBRANCH   2   3
ENDBRANCH   1   2
BRANCH   1  10
ATOM     10  C   UNL     1      67.488 -37.170   9.110  1.00  0.00     0.027 C 
BRANCH  10  11
ATOM     11  C   UNL     1      67.968 -38.488   9.655  1.00  0.00    -0.031 C 
ATOM     12  C   UNL     1      69.246 -38.874   9.535  1.00  0.00    -0.031 C 
BRANCH  12  13
ATOM     13  C   UNL     1      69.725 -40.192  10.080  1.00  0.00     0.027 C 
BRANCH  13  14
ATOM     14  C   UNL     1      70.674 -39.988  11.267  1.00  0.00     0.004 C 
BRANCH  14  15
ATOM     15  C   UNL     1      70.980 -38.500  11.476  1.00  0.00     0.000 C 
BRANCH  15  16
ATOM     16  C   UNL     1      72.485 -38.267  11.652  1.00  0.00    -0.000 C 
BRANCH  16  17
ATOM     17  C   UNL     1      72.926 -36.976  10.952  1.00  0.00    -0.003 C 
ATOM     18  C   UNL     1      72.181 -36.783   9.635  1.00  0.00     0.004 C 
ENDBRANCH  16  17
ENDBRANCH  15  16
ENDBRANCH  14  15
ENDBRANCH  13  14
ENDBRANCH  12  13
ENDBRANCH  10  11
ENDBRANCH   1  10
TORSDOF 13
ENDMDL
