MODEL 1
REMARK VINA RESULT:     2.210      0.000      0.000
REMARK INTER + INTRA:           3.078
REMARK INTER:                   5.827
REMARK INTRA:                  -2.749
REMARK UNBOUND:                -2.749
REMARK SMILES CCCCCCCCCCCCCCCCCCCCCCCCCCCCCC(=O)[O-]
REMARK SMILES IDX 16 1 17 2 18 3 19 4 20 5 21 6 22 7 23 8 24 9 25 10 26 11
REMARK SMILES IDX 27 12 28 13 29 14 30 15 31 16 32 17 15 18 14 19 13 20 12 21
REMARK SMILES IDX 11 22 10 23 9 24 8 25 7 26 6 27 5 28 4 29 3 30 2 31 1 32
REMARK H PARENT
REMARK Flexibility Score: inf
ROOT
ATOM      1  C   UNL     1      27.720  16.105  58.612  1.00  0.00     0.000 C 
ENDROOT
BRANCH   1   2
ATOM      2  C   UNL     1      26.334  16.633  58.214  1.00  0.00     0.000 C 
BRANCH   2   3
ATOM      3  C   UNL     1      26.376  17.601  57.018  1.00  0.00     0.000 C 
BRANCH   3   4
ATOM      4  C   UNL     1      25.085  18.406  56.778  1.00  0.00     0.000 C 
BRANCH   4   5
ATOM      5  C   UNL     1      24.283  17.907  55.565  1.00  0.00     0.000 C 
BRANCH   5   6
ATOM      6  C   UNL     1      24.165  18.964  54.452  1.00  0.00     0.000 C 
BRANCH   6   7
ATOM      7  C   UNL     1      23.002  19.962  54.616  1.00  0.00     0.000 C 
BRANCH   7   8
ATOM      8  C   UNL     1      23.323  21.418  54.218  1.00  0.00     0.000 C 
BRANCH   8   9
ATOM      9  C   UNL     1      24.514  22.054  54.958  1.00  0.00     0.000 C 
BRANCH   9  10
ATOM     10  C   UNL     1      25.874  21.524  54.468  1.00  0.00     0.000 C 
BRANCH  10  11
ATOM     11  C   UNL     1      27.064  22.125  55.238  1.00  0.00     0.000 C 
BRANCH  11  12
ATOM     12  C   UNL     1      28.426  22.013  54.529  1.00  0.00     0.000 C 
BRANCH  12  13
ATOM     13  C   UNL     1      29.617  22.110  55.498  1.00  0.00     0.006 C 
BRANCH  13  14
ATOM     14  C   UNL     1      30.963  22.121  54.763  1.00  0.00     0.053 C 
BRANCH  14  15
ATOM     15  C   UNL     1      31.826  20.966  55.172  1.00  0.00     0.041 C 
ATOM     16  O   UNL     1      32.777  21.140  55.979  1.00  0.00    -0.550 OA
ATOM     17  O   UNL     1      31.599  19.704  54.635  1.00  0.00    -0.550 OA
ENDBRANCH  14  15
ENDBRANCH  13  14
ENDBRANCH  12  13
ENDBRANCH  11  12
ENDBRANCH  10  11
ENDBRANCH   9  10
ENDBRANCH   8   9
ENDBRANCH   7   8
ENDBRANCH   6   7
ENDBRANCH   5   6
ENDBRANCH   4   5
ENDBRANCH   3   4
ENDBRANCH   2   3
ENDBRANCH   1   2
BRANCH   1  18
ATOM     18  C   UNL     1      28.084  16.537  60.038  1.00  0.00     0.000 C 
BRANCH  18  19
ATOM     19  C   UNL     1      28.667  17.958  60.052  1.00  0.00     0.000 C 
BRANCH  19  20
ATOM     20  C   UNL     1      27.745  18.968  60.752  1.00  0.00     0.000 C 
BRANCH  20  21
ATOM     21  C   UNL     1      26.849  19.736  59.767  1.00  0.00     0.000 C 
BRANCH  21  22
ATOM     22  C   UNL     1      27.446  21.112  59.443  1.00  0.00     0.000 C 
BRANCH  22  23
ATOM     23  C   UNL     1      27.655  21.986  60.693  1.00  0.00     0.000 C 
BRANCH  23  24
ATOM     24  C   UNL     1      26.439  22.080  61.634  1.00  0.00    -0.000 C 
BRANCH  24  25
ATOM     25  C   UNL     1      26.530  21.221  62.910  1.00  0.00    -0.000 C 
BRANCH  25  26
ATOM     26  C   UNL     1      25.175  20.644  63.372  1.00  0.00    -0.000 C 
BRANCH  26  27
ATOM     27  C   UNL     1      24.203  21.729  63.866  1.00  0.00    -0.000 C 
BRANCH  27  28
ATOM     28  C   UNL     1      23.047  21.972  62.871  1.00  0.00    -0.000 C 
BRANCH  28  29
ATOM     29  C   UNL     1      23.123  21.091  61.610  1.00  0.00    -0.000 C 
BRANCH  29  30
ATOM     30  C   UNL     1      23.217  21.868  60.286  1.00  0.00    -0.000 C 
BRANCH  30  31
ATOM     31  C   UNL     1      23.819  21.030  59.149  1.00  0.00    -0.003 C 
ATOM     32  C   UNL     1      24.235  21.916  57.978  1.00  0.00     0.004 C 
ENDBRANCH  30  31
ENDBRANCH  29  30
ENDBRANCH  28  29
ENDBRANCH  27  28
ENDBRANCH  26  27
ENDBRANCH  25  26
ENDBRANCH  24  25
ENDBRANCH  23  24
ENDBRANCH  22  23
ENDBRANCH  21  22
ENDBRANCH  20  21
ENDBRANCH  19  20
ENDBRANCH  18  19
ENDBRANCH   1  18
TORSDOF 28
ENDMDL
MODEL 2
REMARK VINA RESULT:     2.660      1.558      3.662
REMARK INTER + INTRA:           4.266
REMARK INTER:                  -0.373
REMARK INTRA:                   4.639
REMARK UNBOUND:                -2.749
REMARK SMILES CCCCCCCCCCCCCCCCCCCCCCCCCCCCCC(=O)[O-]
REMARK SMILES IDX 16 1 17 2 18 3 19 4 20 5 21 6 22 7 23 8 24 9 25 10 26 11
REMARK SMILES IDX 27 12 28 13 29 14 30 15 31 16 32 17 15 18 14 19 13 20 12 21
REMARK SMILES IDX 11 22 10 23 9 24 8 25 7 26 6 27 5 28 4 29 3 30 2 31 1 32
REMARK H PARENT
REMARK Flexibility Score: inf
ROOT
ATOM      1  C   UNL     1      24.192  20.968  57.607  1.00  0.00     0.000 C 
ENDROOT
BRANCH   1   2
ATOM      2  C   UNL     1      22.887  21.516  57.012  1.00  0.00     0.000 C 
BRANCH   2   3
ATOM      3  C   UNL     1      22.964  21.738  55.491  1.00  0.00     0.000 C 
BRANCH   3   4
ATOM      4  C   UNL     1      24.354  22.125  54.952  1.00  0.00     0.000 C 
BRANCH   4   5
ATOM      5  C   UNL     1      24.617  21.594  53.533  1.00  0.00     0.000 C 
BRANCH   5   6
ATOM      6  C   UNL     1      23.446  20.762  52.981  1.00  0.00     0.000 C 
BRANCH   6   7
ATOM      7  C   UNL     1      23.362  19.316  53.510  1.00  0.00     0.000 C 
BRANCH   7   8
ATOM      8  C   UNL     1      24.702  18.704  53.967  1.00  0.00     0.000 C 
BRANCH   8   9
ATOM      9  C   UNL     1      24.801  18.388  55.471  1.00  0.00     0.000 C 
BRANCH   9  10
ATOM     10  C   UNL     1      25.952  19.137  56.165  1.00  0.00     0.000 C 
BRANCH  10  11
ATOM     11  C   UNL     1      26.769  20.011  55.195  1.00  0.00     0.000 C 
BRANCH  11  12
ATOM     12  C   UNL     1      27.933  20.789  55.836  1.00  0.00     0.000 C 
BRANCH  12  13
ATOM     13  C   UNL     1      28.815  21.509  54.803  1.00  0.00     0.006 C 
BRANCH  13  14
ATOM     14  C   UNL     1      30.104  22.060  55.425  1.00  0.00     0.053 C 
BRANCH  14  15
ATOM     15  C   UNL     1      31.310  21.294  54.970  1.00  0.00     0.041 C 
ATOM     16  O   UNL     1      31.221  20.487  54.007  1.00  0.00    -0.550 OA
ATOM     17  O   UNL     1      32.522  21.448  55.632  1.00  0.00    -0.550 OA
ENDBRANCH  14  15
ENDBRANCH  13  14
ENDBRANCH  12  13
ENDBRANCH  11  12
ENDBRANCH  10  11
ENDBRANCH   9  10
ENDBRANCH   8   9
ENDBRANCH   7   8
ENDBRANCH   6   7
ENDBRANCH   5   6
ENDBRANCH   4   5
ENDBRANCH   3   4
ENDBRANCH   2   3
ENDBRANCH   1   2
BRANCH   1  18
ATOM     18  C   UNL     1      25.053  22.102  58.181  1.00  0.00     0.000 C 
BRANCH  18  19
ATOM     19  C   UNL     1      26.549  21.786  58.033  1.00  0.00     0.000 C 
BRANCH  19  20
ATOM     20  C   UNL     1      26.850  20.283  58.145  1.00  0.00     0.000 C 
BRANCH  20  21
ATOM     21  C   UNL     1      27.301  19.871  59.554  1.00  0.00     0.000 C 
BRANCH  21  22
ATOM     22  C   UNL     1      28.034  21.024  60.254  1.00  0.00     0.000 C 
BRANCH  22  23
ATOM     23  C   UNL     1      27.473  21.331  61.655  1.00  0.00     0.000 C 
BRANCH  23  24
ATOM     24  C   UNL     1      26.150  22.121  61.668  1.00  0.00    -0.000 C 
BRANCH  24  25
ATOM     25  C   UNL     1      25.095  21.649  60.648  1.00  0.00    -0.000 C 
BRANCH  25  26
ATOM     26  C   UNL     1      23.844  21.014  61.292  1.00  0.00    -0.000 C 
BRANCH  26  27
ATOM     27  C   UNL     1      23.246  21.882  62.413  1.00  0.00    -0.000 C 
BRANCH  27  28
ATOM     28  C   UNL     1      23.229  21.148  63.772  1.00  0.00    -0.000 C 
BRANCH  28  29
ATOM     29  C   UNL     1      24.463  21.442  64.647  1.00  0.00    -0.000 C 
BRANCH  29  30
ATOM     30  C   UNL     1      25.755  20.741  64.195  1.00  0.00    -0.000 C 
BRANCH  30  31
ATOM     31  C   UNL     1      25.560  19.237  63.956  1.00  0.00    -0.003 C 
ATOM     32  C   UNL     1      26.374  18.415  64.951  1.00  0.00     0.004 C 
ENDBRANCH  30  31
ENDBRANCH  29  30
ENDBRANCH  28  29
ENDBRANCH  27  28
ENDBRANCH  26  27
ENDBRANCH  25  26
ENDBRANCH  24  25
ENDBRANCH  23  24
ENDBRANCH  22  23
ENDBRANCH  21  22
ENDBRANCH  20  21
ENDBRANCH  19  20
ENDBRANCH  18  19
ENDBRANCH   1  18
TORSDOF 28
ENDMDL
MODEL 3
REMARK VINA RESULT:     4.006      1.824      3.742
REMARK INTER + INTRA:           7.815
REMARK INTER:                   8.738
REMARK INTRA:                  -0.923
REMARK UNBOUND:                -2.749
REMARK SMILES CCCCCCCCCCCCCCCCCCCCCCCCCCCCCC(=O)[O-]
REMARK SMILES IDX 16 1 17 2 18 3 19 4 20 5 21 6 22 7 23 8 24 9 25 10 26 11
REMARK SMILES IDX 27 12 28 13 29 14 30 15 31 16 32 17 15 18 14 19 13 20 12 21
REMARK SMILES IDX 11 22 10 23 9 24 8 25 7 26 6 27 5 28 4 29 3 30 2 31 1 32
REMARK H PARENT
REMARK Flexibility Score: inf
ROOT
ATOM      1  C   UNL     1      28.024  17.128  60.597  1.00  0.00     0.000 C 
ENDROOT
BRANCH   1   2
ATOM      2  C   UNL     1      28.647  17.103  59.194  1.00  0.00     0.000 C 
BRANCH   2   3
ATOM      3  C   UNL     1      27.943  16.123  58.238  1.00  0.00     0.000 C 
BRANCH   3   4
ATOM      4  C   UNL     1      26.442  16.387  58.014  1.00  0.00     0.000 C 
BRANCH   4   5
ATOM      5  C   UNL     1      26.149  17.821  57.542  1.00  0.00     0.000 C 
BRANCH   5   6
ATOM      6  C   UNL     1      25.361  17.865  56.220  1.00  0.00     0.000 C 
BRANCH   6   7
ATOM      7  C   UNL     1      23.827  17.850  56.370  1.00  0.00     0.000 C 
BRANCH   7   8
ATOM      8  C   UNL     1      23.036  17.961  55.050  1.00  0.00     0.000 C 
BRANCH   8   9
ATOM      9  C   UNL     1      23.872  18.335  53.812  1.00  0.00     0.000 C 
BRANCH   9  10
ATOM     10  C   UNL     1      23.396  19.634  53.139  1.00  0.00     0.000 C 
BRANCH  10  11
ATOM     11  C   UNL     1      23.245  20.802  54.130  1.00  0.00     0.000 C 
BRANCH  11  12
ATOM     12  C   UNL     1      23.913  22.120  53.697  1.00  0.00     0.000 C 
BRANCH  12  13
ATOM     13  C   UNL     1      25.425  21.976  53.454  1.00  0.00     0.006 C 
BRANCH  13  14
ATOM     14  C   UNL     1      26.236  22.125  54.748  1.00  0.00     0.053 C 
BRANCH  14  15
ATOM     15  C   UNL     1      27.131  20.944  54.978  1.00  0.00     0.041 C 
ATOM     16  O   UNL     1      26.644  19.784  55.048  1.00  0.00    -0.550 OA
ATOM     17  O   UNL     1      28.497  21.131  55.150  1.00  0.00    -0.550 OA
ENDBRANCH  14  15
ENDBRANCH  13  14
ENDBRANCH  12  13
ENDBRANCH  11  12
ENDBRANCH  10  11
ENDBRANCH   9  10
ENDBRANCH   8   9
ENDBRANCH   7   8
ENDBRANCH   6   7
ENDBRANCH   5   6
ENDBRANCH   4   5
ENDBRANCH   3   4
ENDBRANCH   2   3
ENDBRANCH   1   2
BRANCH   1  18
ATOM     18  C   UNL     1      28.203  18.504  61.254  1.00  0.00     0.000 C 
BRANCH  18  19
ATOM     19  C   UNL     1      27.969  19.633  60.239  1.00  0.00     0.000 C 
BRANCH  19  20
ATOM     20  C   UNL     1      27.078  20.754  60.798  1.00  0.00     0.000 C 
BRANCH  20  21
ATOM     21  C   UNL     1      27.194  22.060  59.998  1.00  0.00     0.000 C 
BRANCH  21  22
ATOM     22  C   UNL     1      27.156  21.783  58.489  1.00  0.00     0.000 C 
BRANCH  22  23
ATOM     23  C   UNL     1      26.316  20.544  58.126  1.00  0.00     0.000 C 
BRANCH  23  24
ATOM     24  C   UNL     1      24.827  20.824  57.851  1.00  0.00    -0.000 C 
BRANCH  24  25
ATOM     25  C   UNL     1      23.890  20.634  59.060  1.00  0.00    -0.000 C 
BRANCH  25  26
ATOM     26  C   UNL     1      23.099  21.903  59.445  1.00  0.00    -0.000 C 
BRANCH  26  27
ATOM     27  C   UNL     1      23.004  22.106  60.967  1.00  0.00    -0.000 C 
BRANCH  27  28
ATOM     28  C   UNL     1      24.340  21.804  61.680  1.00  0.00    -0.000 C 
BRANCH  28  29
ATOM     29  C   UNL     1      24.165  21.209  63.091  1.00  0.00    -0.000 C 
BRANCH  29  30
ATOM     30  C   UNL     1      25.089  21.811  64.163  1.00  0.00    -0.000 C 
BRANCH  30  31
ATOM     31  C   UNL     1      26.485  21.172  64.169  1.00  0.00    -0.003 C 
ATOM     32  C   UNL     1      26.395  19.661  63.978  1.00  0.00     0.004 C 
ENDBRANCH  30  31
ENDBRANCH  29  30
ENDBRANCH  28  29
ENDBRANCH  27  28
ENDBRANCH  26  27
ENDBRANCH  25  26
ENDBRANCH  24  25
ENDBRANCH  23  24
ENDBRANCH  22  23
ENDBRANCH  21  22
ENDBRANCH  20  21
ENDBRANCH  19  20
ENDBRANCH  18  19
ENDBRANCH   1  18
TORSDOF 28
ENDMDL
