MODEL 1
REMARK VINA RESULT:    -8.521      0.000      0.000
REMARK INTER + INTRA:         -24.811
REMARK INTER:                 -20.227
REMARK INTRA:                  -4.584
REMARK UNBOUND:                -4.584
REMARK SMILES O=C(OC[C@@H]1O[C@@H](OC(=O)c2cc(O)c(O)c(O)c2)[C@@H](OC(=O)c2cc(O)c(O)c(O)c2)[C@H](OC(=O)c2cc(O)c(O)c(O)c2)[C@@H]1OC(=O)c1cc(O)c(O)c(O)c1)c1cc(O)c(O)c(O)c1
REMARK SMILES IDX 5 1 46 2 33 3 20 4 7 5 6 6 4 7 3 8 2 9 1 10 59 11 60 12
REMARK SMILES IDX 61 13 67 14 63 15 65 16 62 17 64 19 66 21 47 23 48 24 49 25
REMARK SMILES IDX 50 26 58 27 51 28 56 29 52 30 54 31 57 32 53 34 55 36 34 38
REMARK SMILES IDX 35 39 36 40 37 41 45 42 38 43 43 44 39 45 41 46 44 47 40 49
REMARK SMILES IDX 42 51 8 53 9 54 10 55 11 56 19 57 12 58 17 59 13 60 15 61
REMARK SMILES IDX 18 62 14 64 16 66 21 68 22 69 23 70 24 71 32 72 25 73 30 74
REMARK SMILES IDX 26 75 28 76 31 77 27 79 29 81
REMARK H PARENT 62 18 64 20 66 22 57 33 53 35 55 37 44 48 40 50 42 52 18 63
REMARK H PARENT 14 65 16 67 31 78 27 80 29 82
REMARK Flexibility Score: inf
ROOT
ATOM      1  C   UNL     1      17.229  28.362  30.096  1.00  0.00     0.205 C 
ATOM      2  C   UNL     1      18.633  28.971  29.884  1.00  0.00     0.254 C 
ATOM      3  C   UNL     1      19.310  28.274  28.687  1.00  0.00     0.267 C 
ATOM      4  C   UNL     1      19.278  26.746  28.876  1.00  0.00     0.290 C 
ATOM      5  C   UNL     1      17.847  26.283  29.201  1.00  0.00     0.357 C 
ATOM      6  O   UNL     1      17.324  26.965  30.330  1.00  0.00    -0.329 OA
ENDROOT
BRANCH   1   7
ATOM      7  C   UNL     1      16.512  29.026  31.284  1.00  0.00     0.269 C 
BRANCH   7   8
ATOM      8  O   UNL     1      15.193  29.426  30.916  1.00  0.00    -0.459 OA
BRANCH   8   9
ATOM      9  C   UNL     1      14.898  30.587  30.192  1.00  0.00     0.338 C 
ATOM     10  O   UNL     1      13.875  30.633  29.456  1.00  0.00    -0.246 OA
BRANCH   9  11
ATOM     11  C   UNL     1      15.774  31.772  30.322  1.00  0.00     0.067 A 
ATOM     12  C   UNL     1      16.569  32.182  29.243  1.00  0.00     0.066 A 
ATOM     13  C   UNL     1      17.412  33.289  29.358  1.00  0.00     0.162 A 
ATOM     14  C   UNL     1      15.827  32.495  31.522  1.00  0.00     0.066 A 
ATOM     15  C   UNL     1      17.474  34.008  30.565  1.00  0.00     0.200 A 
ATOM     16  C   UNL     1      16.664  33.608  31.657  1.00  0.00     0.162 A 
BRANCH  13  17
ATOM     17  O   UNL     1      18.200  33.652  28.263  1.00  0.00    -0.504 OA
ATOM     18  H   UNL     1      17.852  34.242  27.516  1.00  0.00     0.293 HD
ENDBRANCH  13  17
BRANCH  15  19
ATOM     19  O   UNL     1      18.347  35.097  30.646  1.00  0.00    -0.502 OA
ATOM     20  H   UNL     1      19.210  35.092  31.168  1.00  0.00     0.293 HD
ENDBRANCH  15  19
BRANCH  16  21
ATOM     21  O   UNL     1      16.653  34.286  32.879  1.00  0.00    -0.504 OA
ATOM     22  H   UNL     1      15.820  34.617  33.337  1.00  0.00     0.293 HD
ENDBRANCH  16  21
ENDBRANCH   9  11
ENDBRANCH   8   9
ENDBRANCH   7   8
ENDBRANCH   1   7
BRANCH   2  23
ATOM     23  O   UNL     1      19.417  28.780  31.062  1.00  0.00    -0.452 OA
BRANCH  23  24
ATOM     24  C   UNL     1      19.724  29.800  31.972  1.00  0.00     0.338 C 
ATOM     25  O   UNL     1      19.211  29.802  33.125  1.00  0.00    -0.246 OA
BRANCH  24  26
ATOM     26  C   UNL     1      20.657  30.874  31.575  1.00  0.00     0.067 A 
ATOM     27  C   UNL     1      20.352  31.728  30.501  1.00  0.00     0.066 A 
ATOM     28  C   UNL     1      21.859  31.057  32.274  1.00  0.00     0.066 A 
ATOM     29  C   UNL     1      21.231  32.750  30.132  1.00  0.00     0.162 A 
ATOM     30  C   UNL     1      22.748  32.071  31.908  1.00  0.00     0.162 A 
ATOM     31  C   UNL     1      22.438  32.922  30.832  1.00  0.00     0.200 A 
BRANCH  29  32
ATOM     32  O   UNL     1      20.882  33.597  29.079  1.00  0.00    -0.504 OA
ATOM     33  H   UNL     1      19.934  33.933  28.954  1.00  0.00     0.293 HD
ENDBRANCH  29  32
BRANCH  30  34
ATOM     34  O   UNL     1      23.946  32.237  32.605  1.00  0.00    -0.504 OA
ATOM     35  H   UNL     1      24.635  32.922  32.311  1.00  0.00     0.293 HD
ENDBRANCH  30  34
BRANCH  31  36
ATOM     36  O   UNL     1      23.312  33.944  30.457  1.00  0.00    -0.502 OA
ATOM     37  H   UNL     1      22.989  34.791  29.999  1.00  0.00     0.293 HD
ENDBRANCH  31  36
ENDBRANCH  24  26
ENDBRANCH  23  24
ENDBRANCH   2  23
BRANCH   3  38
ATOM     38  O   UNL     1      20.667  28.697  28.555  1.00  0.00    -0.450 OA
BRANCH  38  39
ATOM     39  C   UNL     1      21.748  28.112  29.224  1.00  0.00     0.338 C 
ATOM     40  O   UNL     1      21.547  27.214  30.087  1.00  0.00    -0.246 OA
BRANCH  39  41
ATOM     41  C   UNL     1      23.126  28.562  28.919  1.00  0.00     0.067 A 
ATOM     42  C   UNL     1      23.899  27.925  27.932  1.00  0.00     0.066 A 
ATOM     43  C   UNL     1      23.684  29.637  29.628  1.00  0.00     0.066 A 
ATOM     44  C   UNL     1      25.217  28.332  27.680  1.00  0.00     0.162 A 
ATOM     45  C   UNL     1      24.997  30.049  29.385  1.00  0.00     0.162 A 
ATOM     46  C   UNL     1      25.771  29.395  28.414  1.00  0.00     0.200 A 
BRANCH  44  47
ATOM     47  O   UNL     1      25.979  27.684  26.704  1.00  0.00    -0.504 OA
ATOM     48  H   UNL     1      26.880  28.043  26.403  1.00  0.00     0.293 HD
ENDBRANCH  44  47
BRANCH  45  49
ATOM     49  O   UNL     1      25.519  31.117  30.117  1.00  0.00    -0.504 OA
ATOM     50  H   UNL     1      24.988  31.961  30.286  1.00  0.00     0.293 HD
ENDBRANCH  45  49
BRANCH  46  51
ATOM     51  O   UNL     1      27.083  29.811  28.186  1.00  0.00    -0.502 OA
ATOM     52  H   UNL     1      27.745  29.259  27.650  1.00  0.00     0.293 HD
ENDBRANCH  46  51
ENDBRANCH  39  41
ENDBRANCH  38  39
ENDBRANCH   3  38
BRANCH   5  53
ATOM     53  O   UNL     1      16.989  26.449  28.070  1.00  0.00    -0.428 OA
BRANCH  53  54
ATOM     54  C   UNL     1      15.645  26.053  28.055  1.00  0.00     0.340 C 
ATOM     55  O   UNL     1      14.730  26.911  28.187  1.00  0.00    -0.246 OA
BRANCH  54  56
ATOM     56  C   UNL     1      15.311  24.618  27.915  1.00  0.00     0.067 A 
ATOM     57  C   UNL     1      15.421  23.988  26.664  1.00  0.00     0.066 A 
ATOM     58  C   UNL     1      14.895  23.869  29.028  1.00  0.00     0.066 A 
ATOM     59  C   UNL     1      15.109  22.628  26.523  1.00  0.00     0.162 A 
ATOM     60  C   UNL     1      14.589  22.508  28.894  1.00  0.00     0.162 A 
ATOM     61  C   UNL     1      14.688  21.885  27.640  1.00  0.00     0.200 A 
BRANCH  59  62
ATOM     62  O   UNL     1      15.215  22.011  25.279  1.00  0.00    -0.504 OA
ATOM     63  H   UNL     1      15.243  21.002  25.186  1.00  0.00     0.293 HD
ENDBRANCH  59  62
BRANCH  60  64
ATOM     64  O   UNL     1      14.174  21.786  30.013  1.00  0.00    -0.504 OA
ATOM     65  H   UNL     1      13.414  21.117  29.967  1.00  0.00     0.293 HD
ENDBRANCH  60  64
BRANCH  61  66
ATOM     66  O   UNL     1      14.368  20.531  27.520  1.00  0.00    -0.502 OA
ATOM     67  H   UNL     1      13.531  20.217  27.030  1.00  0.00     0.293 HD
ENDBRANCH  61  66
ENDBRANCH  54  56
ENDBRANCH  53  54
ENDBRANCH   5  53
BRANCH   4  68
ATOM     68  O   UNL     1      19.731  26.090  27.688  1.00  0.00    -0.448 OA
BRANCH  68  69
ATOM     69  C   UNL     1      20.271  24.795  27.676  1.00  0.00     0.339 C 
ATOM     70  O   UNL     1      20.833  24.336  28.707  1.00  0.00    -0.246 OA
BRANCH  69  71
ATOM     71  C   UNL     1      20.147  23.952  26.469  1.00  0.00     0.067 A 
ATOM     72  C   UNL     1      19.107  23.012  26.356  1.00  0.00     0.066 A 
ATOM     73  C   UNL     1      21.065  24.082  25.414  1.00  0.00     0.066 A 
ATOM     74  C   UNL     1      18.967  22.239  25.195  1.00  0.00     0.162 A 
ATOM     75  C   UNL     1      20.947  23.305  24.255  1.00  0.00     0.162 A 
ATOM     76  C   UNL     1      19.874  22.386  24.135  1.00  0.00     0.200 A 
BRANCH  74  77
ATOM     77  O   UNL     1      17.918  21.327  25.077  1.00  0.00    -0.504 OA
ATOM     78  H   UNL     1      18.069  20.393  24.727  1.00  0.00     0.293 HD
ENDBRANCH  74  77
BRANCH  75  79
ATOM     79  O   UNL     1      21.918  23.472  23.262  1.00  0.00    -0.504 OA
ATOM     80  H   UNL     1      21.711  23.580  22.282  1.00  0.00     0.293 HD
ENDBRANCH  75  79
BRANCH  76  81
ATOM     81  O   UNL     1      19.674  21.619  22.986  1.00  0.00    -0.502 OA
ATOM     82  H   UNL     1      20.258  20.842  22.729  1.00  0.00     0.293 HD
ENDBRANCH  76  81
ENDBRANCH  69  71
ENDBRANCH  68  69
ENDBRANCH   4  68
TORSDOF 31
ENDMDL
MODEL 2
REMARK VINA RESULT:    -8.279      1.361     10.821
REMARK INTER + INTRA:         -24.237
REMARK INTER:                 -20.303
REMARK INTRA:                  -3.935
REMARK UNBOUND:                -4.584
REMARK SMILES O=C(OC[C@@H]1O[C@@H](OC(=O)c2cc(O)c(O)c(O)c2)[C@@H](OC(=O)c2cc(O)c(O)c(O)c2)[C@H](OC(=O)c2cc(O)c(O)c(O)c2)[C@@H]1OC(=O)c1cc(O)c(O)c(O)c1)c1cc(O)c(O)c(O)c1
REMARK SMILES IDX 5 1 46 2 33 3 20 4 7 5 6 6 4 7 3 8 2 9 1 10 59 11 60 12
REMARK SMILES IDX 61 13 67 14 63 15 65 16 62 17 64 19 66 21 47 23 48 24 49 25
REMARK SMILES IDX 50 26 58 27 51 28 56 29 52 30 54 31 57 32 53 34 55 36 34 38
REMARK SMILES IDX 35 39 36 40 37 41 45 42 38 43 43 44 39 45 41 46 44 47 40 49
REMARK SMILES IDX 42 51 8 53 9 54 10 55 11 56 19 57 12 58 17 59 13 60 15 61
REMARK SMILES IDX 18 62 14 64 16 66 21 68 22 69 23 70 24 71 32 72 25 73 30 74
REMARK SMILES IDX 26 75 28 76 31 77 27 79 29 81
REMARK H PARENT 62 18 64 20 66 22 57 33 53 35 55 37 44 48 40 50 42 52 18 63
REMARK H PARENT 14 65 16 67 31 78 27 80 29 82
REMARK Flexibility Score: inf
ROOT
ATOM      1  C   UNL     1      19.757  26.015  27.995  1.00  0.00     0.205 C 
ATOM      2  C   UNL     1      18.471  26.869  28.061  1.00  0.00     0.254 C 
ATOM      3  C   UNL     1      18.834  28.295  28.521  1.00  0.00     0.267 C 
ATOM      4  C   UNL     1      19.651  28.237  29.824  1.00  0.00     0.290 C 
ATOM      5  C   UNL     1      20.831  27.262  29.668  1.00  0.00     0.357 C 
ATOM      6  O   UNL     1      20.390  25.975  29.265  1.00  0.00    -0.329 OA
ENDROOT
BRANCH   1   7
ATOM      7  C   UNL     1      19.445  24.579  27.540  1.00  0.00     0.269 C 
BRANCH   7   8
ATOM      8  O   UNL     1      20.107  24.286  26.311  1.00  0.00    -0.459 OA
BRANCH   8   9
ATOM      9  C   UNL     1      19.797  23.193  25.493  1.00  0.00     0.338 C 
ATOM     10  O   UNL     1      18.747  22.525  25.697  1.00  0.00    -0.246 OA
BRANCH   9  11
ATOM     11  C   UNL     1      20.691  22.846  24.367  1.00  0.00     0.067 A 
ATOM     12  C   UNL     1      20.200  22.116  23.276  1.00  0.00     0.066 A 
ATOM     13  C   UNL     1      21.038  21.768  22.214  1.00  0.00     0.162 A 
ATOM     14  C   UNL     1      22.039  23.235  24.376  1.00  0.00     0.066 A 
ATOM     15  C   UNL     1      22.392  22.148  22.229  1.00  0.00     0.200 A 
ATOM     16  C   UNL     1      22.894  22.899  23.321  1.00  0.00     0.162 A 
BRANCH  13  17
ATOM     17  O   UNL     1      20.510  21.025  21.157  1.00  0.00    -0.504 OA
ATOM     18  H   UNL     1      20.973  20.204  20.786  1.00  0.00     0.293 HD
ENDBRANCH  13  17
BRANCH  15  19
ATOM     19  O   UNL     1      23.202  21.762  21.156  1.00  0.00    -0.502 OA
ATOM     20  H   UNL     1      23.484  20.811  20.975  1.00  0.00     0.293 HD
ENDBRANCH  15  19
BRANCH  16  21
ATOM     21  O   UNL     1      24.220  23.333  23.395  1.00  0.00    -0.504 OA
ATOM     22  H   UNL     1      24.962  22.996  22.803  1.00  0.00     0.293 HD
ENDBRANCH  16  21
ENDBRANCH   9  11
ENDBRANCH   8   9
ENDBRANCH   7   8
ENDBRANCH   1   7
BRANCH   2  23
ATOM     23  O   UNL     1      17.556  26.280  28.984  1.00  0.00    -0.452 OA
BRANCH  23  24
ATOM     24  C   UNL     1      16.199  26.055  28.709  1.00  0.00     0.338 C 
ATOM     25  O   UNL     1      15.375  27.010  28.748  1.00  0.00    -0.246 OA
BRANCH  24  26
ATOM     26  C   UNL     1      15.741  24.693  28.368  1.00  0.00     0.067 A 
ATOM     27  C   UNL     1      15.057  23.909  29.313  1.00  0.00     0.066 A 
ATOM     28  C   UNL     1      15.978  24.171  27.088  1.00  0.00     0.066 A 
ATOM     29  C   UNL     1      14.616  22.624  28.986  1.00  0.00     0.162 A 
ATOM     30  C   UNL     1      15.546  22.884  26.754  1.00  0.00     0.162 A 
ATOM     31  C   UNL     1      14.864  22.104  27.704  1.00  0.00     0.200 A 
BRANCH  29  32
ATOM     32  O   UNL     1      13.915  21.886  29.941  1.00  0.00    -0.504 OA
ATOM     33  H   UNL     1      13.273  22.323  30.591  1.00  0.00     0.293 HD
ENDBRANCH  29  32
BRANCH  30  34
ATOM     34  O   UNL     1      15.797  22.371  25.480  1.00  0.00    -0.504 OA
ATOM     35  H   UNL     1      15.075  22.357  24.767  1.00  0.00     0.293 HD
ENDBRANCH  30  34
BRANCH  31  36
ATOM     36  O   UNL     1      14.421  20.819  27.385  1.00  0.00    -0.502 OA
ATOM     37  H   UNL     1      14.959  20.193  26.793  1.00  0.00     0.293 HD
ENDBRANCH  31  36
ENDBRANCH  24  26
ENDBRANCH  23  24
ENDBRANCH   2  23
BRANCH   3  38
ATOM     38  O   UNL     1      17.656  29.070  28.745  1.00  0.00    -0.450 OA
BRANCH  38  39
ATOM     39  C   UNL     1      17.272  29.588  29.987  1.00  0.00     0.338 C 
ATOM     40  O   UNL     1      16.790  28.825  30.869  1.00  0.00    -0.246 OA
BRANCH  39  41
ATOM     41  C   UNL     1      17.429  31.037  30.255  1.00  0.00     0.067 A 
ATOM     42  C   UNL     1      17.923  31.910  29.271  1.00  0.00     0.066 A 
ATOM     43  C   UNL     1      17.087  31.556  31.513  1.00  0.00     0.066 A 
ATOM     44  C   UNL     1      18.106  33.272  29.548  1.00  0.00     0.162 A 
ATOM     45  C   UNL     1      17.267  32.911  31.800  1.00  0.00     0.162 A 
ATOM     46  C   UNL     1      17.783  33.775  30.820  1.00  0.00     0.200 A 
BRANCH  44  47
ATOM     47  O   UNL     1      18.609  34.130  28.565  1.00  0.00    -0.504 OA
ATOM     48  H   UNL     1      19.519  34.569  28.653  1.00  0.00     0.293 HD
ENDBRANCH  44  47
BRANCH  45  49
ATOM     49  O   UNL     1      16.924  33.388  33.066  1.00  0.00    -0.504 OA
ATOM     50  H   UNL     1      16.874  34.377  33.271  1.00  0.00     0.293 HD
ENDBRANCH  45  49
BRANCH  46  51
ATOM     51  O   UNL     1      17.964  35.125  31.121  1.00  0.00    -0.502 OA
ATOM     52  H   UNL     1      18.808  35.630  30.873  1.00  0.00     0.293 HD
ENDBRANCH  46  51
ENDBRANCH  39  41
ENDBRANCH  38  39
ENDBRANCH   3  38
BRANCH   5  53
ATOM     53  O   UNL     1      21.797  27.775  28.747  1.00  0.00    -0.428 OA
BRANCH  53  54
ATOM     54  C   UNL     1      23.090  27.254  28.615  1.00  0.00     0.340 C 
ATOM     55  O   UNL     1      23.267  26.006  28.550  1.00  0.00    -0.246 OA
BRANCH  54  56
ATOM     56  C   UNL     1      24.247  28.176  28.582  1.00  0.00     0.067 A 
ATOM     57  C   UNL     1      25.349  27.895  27.758  1.00  0.00     0.066 A 
ATOM     58  C   UNL     1      24.252  29.344  29.362  1.00  0.00     0.066 A 
ATOM     59  C   UNL     1      26.448  28.765  27.719  1.00  0.00     0.162 A 
ATOM     60  C   UNL     1      25.344  30.221  29.321  1.00  0.00     0.162 A 
ATOM     61  C   UNL     1      26.449  29.930  28.505  1.00  0.00     0.200 A 
BRANCH  59  62
ATOM     62  O   UNL     1      27.540  28.478  26.903  1.00  0.00    -0.504 OA
ATOM     63  H   UNL     1      27.717  28.995  26.050  1.00  0.00     0.293 HD
ENDBRANCH  59  62
BRANCH  60  64
ATOM     64  O   UNL     1      25.327  31.373  30.107  1.00  0.00    -0.504 OA
ATOM     65  H   UNL     1      25.509  31.344  31.104  1.00  0.00     0.293 HD
ENDBRANCH  60  64
BRANCH  61  66
ATOM     66  O   UNL     1      27.535  30.808  28.484  1.00  0.00    -0.502 OA
ATOM     67  H   UNL     1      28.481  30.499  28.708  1.00  0.00     0.293 HD
ENDBRANCH  61  66
ENDBRANCH  54  56
ENDBRANCH  53  54
ENDBRANCH   5  53
BRANCH   4  68
ATOM     68  O   UNL     1      20.151  29.537  30.154  1.00  0.00    -0.448 OA
BRANCH  68  69
ATOM     69  C   UNL     1      20.448  29.944  31.463  1.00  0.00     0.339 C 
ATOM     70  O   UNL     1      20.000  29.291  32.444  1.00  0.00    -0.246 OA
BRANCH  69  71
ATOM     71  C   UNL     1      21.319  31.116  31.695  1.00  0.00     0.067 A 
ATOM     72  C   UNL     1      22.581  30.961  32.296  1.00  0.00     0.066 A 
ATOM     73  C   UNL     1      20.898  32.400  31.313  1.00  0.00     0.066 A 
ATOM     74  C   UNL     1      23.423  32.067  32.481  1.00  0.00     0.162 A 
ATOM     75  C   UNL     1      21.722  33.517  31.507  1.00  0.00     0.162 A 
ATOM     76  C   UNL     1      23.007  33.345  32.080  1.00  0.00     0.200 A 
BRANCH  74  77
ATOM     77  O   UNL     1      24.685  31.905  33.052  1.00  0.00    -0.504 OA
ATOM     78  H   UNL     1      24.965  31.031  33.471  1.00  0.00     0.293 HD
ENDBRANCH  74  77
BRANCH  75  79
ATOM     79  O   UNL     1      21.220  34.765  31.128  1.00  0.00    -0.504 OA
ATOM     80  H   UNL     1      20.672  35.360  31.729  1.00  0.00     0.293 HD
ENDBRANCH  75  79
BRANCH  76  81
ATOM     81  O   UNL     1      23.894  34.410  32.253  1.00  0.00    -0.502 OA
ATOM     82  H   UNL     1      24.607  34.652  31.587  1.00  0.00     0.293 HD
ENDBRANCH  76  81
ENDBRANCH  69  71
ENDBRANCH  68  69
ENDBRANCH   4  68
TORSDOF 31
ENDMDL
MODEL 3
REMARK VINA RESULT:    -8.103      1.003      2.261
REMARK INTER + INTRA:         -23.820
REMARK INTER:                 -20.032
REMARK INTRA:                  -3.788
REMARK UNBOUND:                -4.584
REMARK SMILES O=C(OC[C@@H]1O[C@@H](OC(=O)c2cc(O)c(O)c(O)c2)[C@@H](OC(=O)c2cc(O)c(O)c(O)c2)[C@H](OC(=O)c2cc(O)c(O)c(O)c2)[C@@H]1OC(=O)c1cc(O)c(O)c(O)c1)c1cc(O)c(O)c(O)c1
REMARK SMILES IDX 5 1 46 2 33 3 20 4 7 5 6 6 4 7 3 8 2 9 1 10 59 11 60 12
REMARK SMILES IDX 61 13 67 14 63 15 65 16 62 17 64 19 66 21 47 23 48 24 49 25
REMARK SMILES IDX 50 26 58 27 51 28 56 29 52 30 54 31 57 32 53 34 55 36 34 38
REMARK SMILES IDX 35 39 36 40 37 41 45 42 38 43 43 44 39 45 41 46 44 47 40 49
REMARK SMILES IDX 42 51 8 53 9 54 10 55 11 56 19 57 12 58 17 59 13 60 15 61
REMARK SMILES IDX 18 62 14 64 16 66 21 68 22 69 23 70 24 71 32 72 25 73 30 74
REMARK SMILES IDX 26 75 28 76 31 77 27 79 29 81
REMARK H PARENT 62 18 64 20 66 22 57 33 53 35 55 37 44 48 40 50 42 52 18 63
REMARK H PARENT 14 65 16 67 31 78 27 80 29 82
REMARK Flexibility Score: inf
ROOT
ATOM      1  C   UNL     1      16.337  28.154  29.860  1.00  0.00     0.205 C 
ATOM      2  C   UNL     1      17.767  28.729  29.757  1.00  0.00     0.254 C 
ATOM      3  C   UNL     1      18.502  28.050  28.583  1.00  0.00     0.267 C 
ATOM      4  C   UNL     1      18.418  26.519  28.722  1.00  0.00     0.290 C 
ATOM      5  C   UNL     1      16.957  26.086  28.941  1.00  0.00     0.357 C 
ATOM      6  O   UNL     1      16.381  26.749  30.055  1.00  0.00    -0.329 OA
ENDROOT
BRANCH   1   7
ATOM      7  C   UNL     1      15.563  28.802  31.020  1.00  0.00     0.269 C 
BRANCH   7   8
ATOM      8  O   UNL     1      14.798  29.913  30.556  1.00  0.00    -0.459 OA
BRANCH   8   9
ATOM      9  C   UNL     1      14.787  31.171  31.170  1.00  0.00     0.338 C 
ATOM     10  O   UNL     1      13.875  31.470  31.988  1.00  0.00    -0.246 OA
BRANCH   9  11
ATOM     11  C   UNL     1      15.871  32.135  30.881  1.00  0.00     0.067 A 
ATOM     12  C   UNL     1      16.465  32.861  31.922  1.00  0.00     0.066 A 
ATOM     13  C   UNL     1      17.478  33.787  31.660  1.00  0.00     0.162 A 
ATOM     14  C   UNL     1      16.314  32.341  29.566  1.00  0.00     0.066 A 
ATOM     15  C   UNL     1      17.915  34.002  30.341  1.00  0.00     0.200 A 
ATOM     16  C   UNL     1      17.329  33.262  29.283  1.00  0.00     0.162 A 
BRANCH  13  17
ATOM     17  O   UNL     1      18.029  34.500  32.726  1.00  0.00    -0.504 OA
ATOM     18  H   UNL     1      18.670  34.079  33.388  1.00  0.00     0.293 HD
ENDBRANCH  13  17
BRANCH  15  19
ATOM     19  O   UNL     1      18.916  34.952  30.119  1.00  0.00    -0.502 OA
ATOM     20  H   UNL     1      18.770  35.948  30.167  1.00  0.00     0.293 HD
ENDBRANCH  15  19
BRANCH  16  21
ATOM     21  O   UNL     1      17.727  33.403  27.951  1.00  0.00    -0.504 OA
ATOM     22  H   UNL     1      17.096  33.575  27.185  1.00  0.00     0.293 HD
ENDBRANCH  16  21
ENDBRANCH   9  11
ENDBRANCH   8   9
ENDBRANCH   7   8
ENDBRANCH   1   7
BRANCH   2  23
ATOM     23  O   UNL     1      18.468  28.482  30.975  1.00  0.00    -0.452 OA
BRANCH  23  24
ATOM     24  C   UNL     1      18.849  29.484  31.878  1.00  0.00     0.338 C 
ATOM     25  O   UNL     1      18.207  29.652  32.952  1.00  0.00    -0.246 OA
BRANCH  24  26
ATOM     26  C   UNL     1      20.009  30.343  31.567  1.00  0.00     0.067 A 
ATOM     27  C   UNL     1      21.177  30.282  32.347  1.00  0.00     0.066 A 
ATOM     28  C   UNL     1      19.960  31.225  30.477  1.00  0.00     0.066 A 
ATOM     29  C   UNL     1      22.278  31.088  32.046  1.00  0.00     0.162 A 
ATOM     30  C   UNL     1      21.054  32.040  30.172  1.00  0.00     0.162 A 
ATOM     31  C   UNL     1      22.218  31.975  30.957  1.00  0.00     0.200 A 
BRANCH  29  32
ATOM     32  O   UNL     1      23.431  30.980  32.825  1.00  0.00    -0.504 OA
ATOM     33  H   UNL     1      23.919  30.100  32.939  1.00  0.00     0.293 HD
ENDBRANCH  29  32
BRANCH  30  34
ATOM     34  O   UNL     1      20.988  32.922  29.091  1.00  0.00    -0.504 OA
ATOM     35  H   UNL     1      21.223  32.620  28.151  1.00  0.00     0.293 HD
ENDBRANCH  30  34
BRANCH  31  36
ATOM     36  O   UNL     1      23.321  32.778  30.662  1.00  0.00    -0.502 OA
ATOM     37  H   UNL     1      23.951  33.118  31.382  1.00  0.00     0.293 HD
ENDBRANCH  31  36
ENDBRANCH  24  26
ENDBRANCH  23  24
ENDBRANCH   2  23
BRANCH   3  38
ATOM     38  O   UNL     1      19.875  28.438  28.552  1.00  0.00    -0.450 OA
BRANCH  38  39
ATOM     39  C   UNL     1      20.895  27.805  29.271  1.00  0.00     0.338 C 
ATOM     40  O   UNL     1      20.609  27.015  30.212  1.00  0.00    -0.246 OA
BRANCH  39  41
ATOM     41  C   UNL     1      22.310  28.076  28.924  1.00  0.00     0.067 A 
ATOM     42  C   UNL     1      23.239  28.462  29.906  1.00  0.00     0.066 A 
ATOM     43  C   UNL     1      22.739  27.954  27.594  1.00  0.00     0.066 A 
ATOM     44  C   UNL     1      24.566  28.756  29.561  1.00  0.00     0.162 A 
ATOM     45  C   UNL     1      24.059  28.246  27.239  1.00  0.00     0.162 A 
ATOM     46  C   UNL     1      24.977  28.654  28.221  1.00  0.00     0.200 A 
BRANCH  44  47
ATOM     47  O   UNL     1      25.478  29.151  30.544  1.00  0.00    -0.504 OA
ATOM     48  H   UNL     1      25.201  29.728  31.331  1.00  0.00     0.293 HD
ENDBRANCH  44  47
BRANCH  45  49
ATOM     49  O   UNL     1      24.446  28.122  25.904  1.00  0.00    -0.504 OA
ATOM     50  H   UNL     1      24.179  28.800  25.203  1.00  0.00     0.293 HD
ENDBRANCH  45  49
BRANCH  46  51
ATOM     51  O   UNL     1      26.289  28.949  27.853  1.00  0.00    -0.502 OA
ATOM     52  H   UNL     1      27.029  29.086  28.534  1.00  0.00     0.293 HD
ENDBRANCH  46  51
ENDBRANCH  39  41
ENDBRANCH  38  39
ENDBRANCH   3  38
BRANCH   5  53
ATOM     53  O   UNL     1      16.178  26.310  27.763  1.00  0.00    -0.428 OA
BRANCH  53  54
ATOM     54  C   UNL     1      15.248  25.388  27.267  1.00  0.00     0.340 C 
ATOM     55  O   UNL     1      14.651  25.613  26.179  1.00  0.00    -0.246 OA
BRANCH  54  56
ATOM     56  C   UNL     1      14.951  24.163  28.043  1.00  0.00     0.067 A 
ATOM     57  C   UNL     1      14.552  24.261  29.387  1.00  0.00     0.066 A 
ATOM     58  C   UNL     1      15.051  22.896  27.446  1.00  0.00     0.066 A 
ATOM     59  C   UNL     1      14.266  23.106  30.129  1.00  0.00     0.162 A 
ATOM     60  C   UNL     1      14.759  21.739  28.181  1.00  0.00     0.162 A 
ATOM     61  C   UNL     1      14.373  21.840  29.527  1.00  0.00     0.200 A 
BRANCH  59  62
ATOM     62  O   UNL     1      13.876  23.209  31.462  1.00  0.00    -0.504 OA
ATOM     63  H   UNL     1      12.929  23.461  31.721  1.00  0.00     0.293 HD
ENDBRANCH  59  62
BRANCH  60  64
ATOM     64  O   UNL     1      14.870  20.492  27.567  1.00  0.00    -0.504 OA
ATOM     65  H   UNL     1      14.277  20.223  26.790  1.00  0.00     0.293 HD
ENDBRANCH  60  64
BRANCH  61  66
ATOM     66  O   UNL     1      14.097  20.677  30.250  1.00  0.00    -0.502 OA
ATOM     67  H   UNL     1      13.809  20.707  31.227  1.00  0.00     0.293 HD
ENDBRANCH  61  66
ENDBRANCH  54  56
ENDBRANCH  53  54
ENDBRANCH   5  53
BRANCH   4  68
ATOM     68  O   UNL     1      18.929  25.885  27.546  1.00  0.00    -0.448 OA
BRANCH  68  69
ATOM     69  C   UNL     1      19.739  24.740  27.572  1.00  0.00     0.339 C 
ATOM     70  O   UNL     1      20.324  24.405  28.637  1.00  0.00    -0.246 OA
BRANCH  69  71
ATOM     71  C   UNL     1      19.877  23.902  26.362  1.00  0.00     0.067 A 
ATOM     72  C   UNL     1      18.939  22.892  26.082  1.00  0.00     0.066 A 
ATOM     73  C   UNL     1      20.944  24.108  25.474  1.00  0.00     0.066 A 
ATOM     74  C   UNL     1      19.049  22.122  24.915  1.00  0.00     0.162 A 
ATOM     75  C   UNL     1      21.075  23.335  24.312  1.00  0.00     0.162 A 
ATOM     76  C   UNL     1      20.105  22.344  24.019  1.00  0.00     0.200 A 
BRANCH  74  77
ATOM     77  O   UNL     1      18.102  21.139  24.628  1.00  0.00    -0.504 OA
ATOM     78  H   UNL     1      17.519  21.194  23.806  1.00  0.00     0.293 HD
ENDBRANCH  74  77
BRANCH  75  79
ATOM     79  O   UNL     1      22.182  23.580  23.493  1.00  0.00    -0.504 OA
ATOM     80  H   UNL     1      22.139  24.083  22.621  1.00  0.00     0.293 HD
ENDBRANCH  75  79
BRANCH  76  81
ATOM     81  O   UNL     1      20.152  21.576  22.854  1.00  0.00    -0.502 OA
ATOM     82  H   UNL     1      20.519  20.641  22.820  1.00  0.00     0.293 HD
ENDBRANCH  76  81
ENDBRANCH  69  71
ENDBRANCH  68  69
ENDBRANCH   4  68
TORSDOF 31
ENDMDL
MODEL 4
REMARK VINA RESULT:    -7.702      1.064      6.643
REMARK INTER + INTRA:         -22.866
REMARK INTER:                 -20.152
REMARK INTRA:                  -2.714
REMARK UNBOUND:                -4.584
REMARK SMILES O=C(OC[C@@H]1O[C@@H](OC(=O)c2cc(O)c(O)c(O)c2)[C@@H](OC(=O)c2cc(O)c(O)c(O)c2)[C@H](OC(=O)c2cc(O)c(O)c(O)c2)[C@@H]1OC(=O)c1cc(O)c(O)c(O)c1)c1cc(O)c(O)c(O)c1
REMARK SMILES IDX 5 1 46 2 33 3 20 4 7 5 6 6 4 7 3 8 2 9 1 10 59 11 60 12
REMARK SMILES IDX 61 13 67 14 63 15 65 16 62 17 64 19 66 21 47 23 48 24 49 25
REMARK SMILES IDX 50 26 58 27 51 28 56 29 52 30 54 31 57 32 53 34 55 36 34 38
REMARK SMILES IDX 35 39 36 40 37 41 45 42 38 43 43 44 39 45 41 46 44 47 40 49
REMARK SMILES IDX 42 51 8 53 9 54 10 55 11 56 19 57 12 58 17 59 13 60 15 61
REMARK SMILES IDX 18 62 14 64 16 66 21 68 22 69 23 70 24 71 32 72 25 73 30 74
REMARK SMILES IDX 26 75 28 76 31 77 27 79 29 81
REMARK H PARENT 62 18 64 20 66 22 57 33 53 35 55 37 44 48 40 50 42 52 18 63
REMARK H PARENT 14 65 16 67 31 78 27 80 29 82
REMARK Flexibility Score: inf
ROOT
ATOM      1  C   UNL     1      20.161  27.723  30.109  1.00  0.00     0.205 C 
ATOM      2  C   UNL     1      19.088  28.517  30.885  1.00  0.00     0.254 C 
ATOM      3  C   UNL     1      17.692  27.981  30.508  1.00  0.00     0.267 C 
ATOM      4  C   UNL     1      17.525  27.971  28.977  1.00  0.00     0.290 C 
ATOM      5  C   UNL     1      18.719  27.258  28.318  1.00  0.00     0.357 C 
ATOM      6  O   UNL     1      19.952  27.840  28.710  1.00  0.00    -0.329 OA
ENDROOT
BRANCH   1   7
ATOM      7  C   UNL     1      21.575  28.223  30.452  1.00  0.00     0.269 C 
BRANCH   7   8
ATOM      8  O   UNL     1      22.187  28.822  29.311  1.00  0.00    -0.459 OA
BRANCH   8   9
ATOM      9  C   UNL     1      23.191  28.215  28.548  1.00  0.00     0.338 C 
ATOM     10  O   UNL     1      22.937  27.180  27.875  1.00  0.00    -0.246 OA
BRANCH   9  11
ATOM     11  C   UNL     1      24.543  28.814  28.510  1.00  0.00     0.067 A 
ATOM     12  C   UNL     1      25.514  28.307  27.636  1.00  0.00     0.066 A 
ATOM     13  C   UNL     1      26.799  28.852  27.601  1.00  0.00     0.162 A 
ATOM     14  C   UNL     1      24.874  29.889  29.347  1.00  0.00     0.066 A 
ATOM     15  C   UNL     1      27.135  29.923  28.449  1.00  0.00     0.200 A 
ATOM     16  C   UNL     1      26.155  30.451  29.326  1.00  0.00     0.162 A 
BRANCH  13  17
ATOM     17  O   UNL     1      27.740  28.304  26.727  1.00  0.00    -0.504 OA
ATOM     18  H   UNL     1      28.656  28.001  27.036  1.00  0.00     0.293 HD
ENDBRANCH  13  17
BRANCH  15  19
ATOM     19  O   UNL     1      28.438  30.427  28.398  1.00  0.00    -0.502 OA
ATOM     20  H   UNL     1      28.664  31.390  28.203  1.00  0.00     0.293 HD
ENDBRANCH  15  19
BRANCH  16  21
ATOM     21  O   UNL     1      26.407  31.529  30.180  1.00  0.00    -0.504 OA
ATOM     22  H   UNL     1      27.283  31.689  30.649  1.00  0.00     0.293 HD
ENDBRANCH  16  21
ENDBRANCH   9  11
ENDBRANCH   8   9
ENDBRANCH   7   8
ENDBRANCH   1   7
BRANCH   2  23
ATOM     23  O   UNL     1      19.183  29.901  30.546  1.00  0.00    -0.452 OA
BRANCH  23  24
ATOM     24  C   UNL     1      19.596  30.899  31.438  1.00  0.00     0.338 C 
ATOM     25  O   UNL     1      18.901  31.171  32.456  1.00  0.00    -0.246 OA
BRANCH  24  26
ATOM     26  C   UNL     1      20.853  31.631  31.182  1.00  0.00     0.067 A 
ATOM     27  C   UNL     1      20.909  32.642  30.207  1.00  0.00     0.066 A 
ATOM     28  C   UNL     1      22.006  31.328  31.920  1.00  0.00     0.066 A 
ATOM     29  C   UNL     1      22.096  33.340  29.972  1.00  0.00     0.162 A 
ATOM     30  C   UNL     1      23.201  32.015  31.688  1.00  0.00     0.162 A 
ATOM     31  C   UNL     1      23.251  33.025  30.710  1.00  0.00     0.200 A 
BRANCH  29  32
ATOM     32  O   UNL     1      22.107  34.357  29.017  1.00  0.00    -0.504 OA
ATOM     33  H   UNL     1      21.770  34.208  28.073  1.00  0.00     0.293 HD
ENDBRANCH  29  32
BRANCH  30  34
ATOM     34  O   UNL     1      24.345  31.697  32.421  1.00  0.00    -0.504 OA
ATOM     35  H   UNL     1      24.635  32.260  33.214  1.00  0.00     0.293 HD
ENDBRANCH  30  34
BRANCH  31  36
ATOM     36  O   UNL     1      24.434  33.725  30.469  1.00  0.00    -0.502 OA
ATOM     37  H   UNL     1      24.697  34.545  31.008  1.00  0.00     0.293 HD
ENDBRANCH  31  36
ENDBRANCH  24  26
ENDBRANCH  23  24
ENDBRANCH   2  23
BRANCH   3  38
ATOM     38  O   UNL     1      16.666  28.791  31.082  1.00  0.00    -0.450 OA
BRANCH  38  39
ATOM     39  C   UNL     1      15.893  29.714  30.369  1.00  0.00     0.338 C 
ATOM     40  O   UNL     1      14.830  29.344  29.799  1.00  0.00    -0.246 OA
BRANCH  39  41
ATOM     41  C   UNL     1      16.337  31.125  30.282  1.00  0.00     0.067 A 
ATOM     42  C   UNL     1      16.960  31.623  29.125  1.00  0.00     0.066 A 
ATOM     43  C   UNL     1      16.143  31.988  31.372  1.00  0.00     0.066 A 
ATOM     44  C   UNL     1      17.413  32.948  29.068  1.00  0.00     0.162 A 
ATOM     45  C   UNL     1      16.592  33.310  31.327  1.00  0.00     0.162 A 
ATOM     46  C   UNL     1      17.235  33.795  30.176  1.00  0.00     0.200 A 
BRANCH  44  47
ATOM     47  O   UNL     1      18.042  33.429  27.916  1.00  0.00    -0.504 OA
ATOM     48  H   UNL     1      18.555  32.816  27.290  1.00  0.00     0.293 HD
ENDBRANCH  44  47
BRANCH  45  49
ATOM     49  O   UNL     1      16.389  34.134  32.434  1.00  0.00    -0.504 OA
ATOM     50  H   UNL     1      16.105  35.100  32.338  1.00  0.00     0.293 HD
ENDBRANCH  45  49
BRANCH  46  51
ATOM     51  O   UNL     1      17.685  35.114  30.145  1.00  0.00    -0.502 OA
ATOM     52  H   UNL     1      17.084  35.901  30.364  1.00  0.00     0.293 HD
ENDBRANCH  46  51
ENDBRANCH  39  41
ENDBRANCH  38  39
ENDBRANCH   3  38
BRANCH   5  53
ATOM     53  O   UNL     1      18.704  25.860  28.616  1.00  0.00    -0.428 OA
BRANCH  53  54
ATOM     54  C   UNL     1      19.778  25.002  28.348  1.00  0.00     0.340 C 
ATOM     55  O   UNL     1      20.736  24.911  29.164  1.00  0.00    -0.246 OA
BRANCH  54  56
ATOM     56  C   UNL     1      19.794  24.228  27.086  1.00  0.00     0.067 A 
ATOM     57  C   UNL     1      20.834  24.411  26.161  1.00  0.00     0.066 A 
ATOM     58  C   UNL     1      18.781  23.297  26.807  1.00  0.00     0.066 A 
ATOM     59  C   UNL     1      20.859  23.680  24.964  1.00  0.00     0.162 A 
ATOM     60  C   UNL     1      18.804  22.557  25.617  1.00  0.00     0.162 A 
ATOM     61  C   UNL     1      19.839  22.753  24.688  1.00  0.00     0.200 A 
BRANCH  59  62
ATOM     62  O   UNL     1      21.890  23.870  24.048  1.00  0.00    -0.504 OA
ATOM     63  H   UNL     1      22.529  23.122  23.804  1.00  0.00     0.293 HD
ENDBRANCH  59  62
BRANCH  60  64
ATOM     64  O   UNL     1      17.785  21.641  25.359  1.00  0.00    -0.504 OA
ATOM     65  H   UNL     1      17.174  21.731  24.555  1.00  0.00     0.293 HD
ENDBRANCH  60  64
BRANCH  61  66
ATOM     66  O   UNL     1      19.842  22.017  23.500  1.00  0.00    -0.502 OA
ATOM     67  H   UNL     1      19.014  21.522  23.173  1.00  0.00     0.293 HD
ENDBRANCH  61  66
ENDBRANCH  54  56
ENDBRANCH  53  54
ENDBRANCH   5  53
BRANCH   4  68
ATOM     68  O   UNL     1      16.313  27.302  28.615  1.00  0.00    -0.448 OA
BRANCH  68  69
ATOM     69  C   UNL     1      15.774  26.228  29.339  1.00  0.00     0.339 C 
ATOM     70  O   UNL     1      15.578  26.338  30.579  1.00  0.00    -0.246 OA
BRANCH  69  71
ATOM     71  C   UNL     1      15.400  24.979  28.643  1.00  0.00     0.067 A 
ATOM     72  C   UNL     1      15.494  24.885  27.243  1.00  0.00     0.066 A 
ATOM     73  C   UNL     1      14.948  23.868  29.372  1.00  0.00     0.066 A 
ATOM     74  C   UNL     1      15.174  23.688  26.586  1.00  0.00     0.162 A 
ATOM     75  C   UNL     1      14.609  22.671  28.728  1.00  0.00     0.162 A 
ATOM     76  C   UNL     1      14.742  22.573  27.320  1.00  0.00     0.200 A 
BRANCH  74  77
ATOM     77  O   UNL     1      15.295  23.591  25.200  1.00  0.00    -0.504 OA
ATOM     78  H   UNL     1      14.572  23.172  24.636  1.00  0.00     0.293 HD
ENDBRANCH  74  77
BRANCH  75  79
ATOM     79  O   UNL     1      14.139  21.619  29.521  1.00  0.00    -0.504 OA
ATOM     80  H   UNL     1      13.882  21.714  30.490  1.00  0.00     0.293 HD
ENDBRANCH  75  79
BRANCH  76  81
ATOM     81  O   UNL     1      14.469  21.393  26.625  1.00  0.00    -0.502 OA
ATOM     82  H   UNL     1      13.715  20.772  26.863  1.00  0.00     0.293 HD
ENDBRANCH  76  81
ENDBRANCH  69  71
ENDBRANCH  68  69
ENDBRANCH   4  68
TORSDOF 31
ENDMDL
MODEL 5
REMARK VINA RESULT:    -7.467      1.578      8.291
REMARK INTER + INTRA:         -22.310
REMARK INTER:                 -19.596
REMARK INTRA:                  -2.714
REMARK UNBOUND:                -4.584
REMARK SMILES O=C(OC[C@@H]1O[C@@H](OC(=O)c2cc(O)c(O)c(O)c2)[C@@H](OC(=O)c2cc(O)c(O)c(O)c2)[C@H](OC(=O)c2cc(O)c(O)c(O)c2)[C@@H]1OC(=O)c1cc(O)c(O)c(O)c1)c1cc(O)c(O)c(O)c1
REMARK SMILES IDX 5 1 46 2 33 3 20 4 7 5 6 6 4 7 3 8 2 9 1 10 59 11 60 12
REMARK SMILES IDX 61 13 67 14 63 15 65 16 62 17 64 19 66 21 47 23 48 24 49 25
REMARK SMILES IDX 50 26 58 27 51 28 56 29 52 30 54 31 57 32 53 34 55 36 34 38
REMARK SMILES IDX 35 39 36 40 37 41 45 42 38 43 43 44 39 45 41 46 44 47 40 49
REMARK SMILES IDX 42 51 8 53 9 54 10 55 11 56 19 57 12 58 17 59 13 60 15 61
REMARK SMILES IDX 18 62 14 64 16 66 21 68 22 69 23 70 24 71 32 72 25 73 30 74
REMARK SMILES IDX 26 75 28 76 31 77 27 79 29 81
REMARK H PARENT 62 18 64 20 66 22 57 33 53 35 55 37 44 48 40 50 42 52 18 63
REMARK H PARENT 14 65 16 67 31 78 27 80 29 82
REMARK Flexibility Score: inf
ROOT
ATOM      1  C   UNL     1      19.581  26.295  28.821  1.00  0.00     0.205 C 
ATOM      2  C   UNL     1      19.904  27.419  29.831  1.00  0.00     0.254 C 
ATOM      3  C   UNL     1      18.587  27.962  30.421  1.00  0.00     0.267 C 
ATOM      4  C   UNL     1      17.622  28.354  29.288  1.00  0.00     0.290 C 
ATOM      5  C   UNL     1      17.481  27.194  28.286  1.00  0.00     0.357 C 
ATOM      6  O   UNL     1      18.744  26.786  27.785  1.00  0.00    -0.329 OA
ENDROOT
BRANCH   1   7
ATOM      7  C   UNL     1      20.867  25.721  28.202  1.00  0.00     0.269 C 
BRANCH   7   8
ATOM      8  O   UNL     1      20.686  24.352  27.846  1.00  0.00    -0.459 OA
BRANCH   8   9
ATOM      9  C   UNL     1      19.773  23.904  26.885  1.00  0.00     0.338 C 
ATOM     10  O   UNL     1      18.535  23.939  27.121  1.00  0.00    -0.246 OA
BRANCH   9  11
ATOM     11  C   UNL     1      20.267  23.421  25.577  1.00  0.00     0.067 A 
ATOM     12  C   UNL     1      21.503  23.859  25.085  1.00  0.00     0.066 A 
ATOM     13  C   UNL     1      21.973  23.424  23.844  1.00  0.00     0.162 A 
ATOM     14  C   UNL     1      19.506  22.527  24.810  1.00  0.00     0.066 A 
ATOM     15  C   UNL     1      21.205  22.536  23.069  1.00  0.00     0.200 A 
ATOM     16  C   UNL     1      19.960  22.077  23.565  1.00  0.00     0.162 A 
BRANCH  13  17
ATOM     17  O   UNL     1      23.204  23.900  23.386  1.00  0.00    -0.504 OA
ATOM     18  H   UNL     1      23.277  24.606  22.662  1.00  0.00     0.293 HD
ENDBRANCH  13  17
BRANCH  15  19
ATOM     19  O   UNL     1      21.702  22.141  21.823  1.00  0.00    -0.502 OA
ATOM     20  H   UNL     1      21.362  22.493  20.942  1.00  0.00     0.293 HD
ENDBRANCH  15  19
BRANCH  16  21
ATOM     21  O   UNL     1      19.152  21.176  22.865  1.00  0.00    -0.504 OA
ATOM     22  H   UNL     1      19.484  20.323  22.446  1.00  0.00     0.293 HD
ENDBRANCH  16  21
ENDBRANCH   9  11
ENDBRANCH   8   9
ENDBRANCH   7   8
ENDBRANCH   1   7
BRANCH   2  23
ATOM     23  O   UNL     1      20.606  28.469  29.165  1.00  0.00    -0.452 OA
BRANCH  23  24
ATOM     24  C   UNL     1      21.612  29.241  29.764  1.00  0.00     0.338 C 
ATOM     25  O   UNL     1      21.337  30.009  30.726  1.00  0.00    -0.246 OA
BRANCH  24  26
ATOM     26  C   UNL     1      22.997  29.147  29.262  1.00  0.00     0.067 A 
ATOM     27  C   UNL     1      24.075  29.608  30.039  1.00  0.00     0.066 A 
ATOM     28  C   UNL     1      23.253  28.584  28.003  1.00  0.00     0.066 A 
ATOM     29  C   UNL     1      25.386  29.509  29.567  1.00  0.00     0.162 A 
ATOM     30  C   UNL     1      24.561  28.488  27.519  1.00  0.00     0.162 A 
ATOM     31  C   UNL     1      25.634  28.952  28.300  1.00  0.00     0.200 A 
BRANCH  29  32
ATOM     32  O   UNL     1      26.433  29.951  30.378  1.00  0.00    -0.504 OA
ATOM     33  H   UNL     1      26.570  30.932  30.587  1.00  0.00     0.293 HD
ENDBRANCH  29  32
BRANCH  30  34
ATOM     34  O   UNL     1      24.802  27.937  26.259  1.00  0.00    -0.504 OA
ATOM     35  H   UNL     1      24.434  28.369  25.418  1.00  0.00     0.293 HD
ENDBRANCH  30  34
BRANCH  31  36
ATOM     36  O   UNL     1      26.947  28.858  27.835  1.00  0.00    -0.502 OA
ATOM     37  H   UNL     1      27.498  28.011  27.937  1.00  0.00     0.293 HD
ENDBRANCH  31  36
ENDBRANCH  24  26
ENDBRANCH  23  24
ENDBRANCH   2  23
BRANCH   3  38
ATOM     38  O   UNL     1      18.832  29.105  31.240  1.00  0.00    -0.450 OA
BRANCH  38  39
ATOM     39  C   UNL     1      18.035  29.489  32.323  1.00  0.00     0.338 C 
ATOM     40  O   UNL     1      17.536  28.615  33.084  1.00  0.00    -0.246 OA
BRANCH  39  41
ATOM     41  C   UNL     1      17.774  30.928  32.565  1.00  0.00     0.067 A 
ATOM     42  C   UNL     1      16.467  31.410  32.747  1.00  0.00     0.066 A 
ATOM     43  C   UNL     1      18.844  31.835  32.605  1.00  0.00     0.066 A 
ATOM     44  C   UNL     1      16.227  32.779  32.934  1.00  0.00     0.162 A 
ATOM     45  C   UNL     1      18.616  33.202  32.789  1.00  0.00     0.162 A 
ATOM     46  C   UNL     1      17.305  33.680  32.948  1.00  0.00     0.200 A 
BRANCH  44  47
ATOM     47  O   UNL     1      14.921  33.249  33.104  1.00  0.00    -0.504 OA
ATOM     48  H   UNL     1      14.122  32.766  32.706  1.00  0.00     0.293 HD
ENDBRANCH  44  47
BRANCH  45  49
ATOM     49  O   UNL     1      19.705  34.073  32.815  1.00  0.00    -0.504 OA
ATOM     50  H   UNL     1      20.048  34.477  33.676  1.00  0.00     0.293 HD
ENDBRANCH  45  49
BRANCH  46  51
ATOM     51  O   UNL     1      17.090  35.047  33.124  1.00  0.00    -0.502 OA
ATOM     52  H   UNL     1      16.435  35.573  32.556  1.00  0.00     0.293 HD
ENDBRANCH  46  51
ENDBRANCH  39  41
ENDBRANCH  38  39
ENDBRANCH   3  38
BRANCH   5  53
ATOM     53  O   UNL     1      16.792  26.091  28.879  1.00  0.00    -0.428 OA
BRANCH  53  54
ATOM     54  C   UNL     1      15.483  25.726  28.539  1.00  0.00     0.340 C 
ATOM     55  O   UNL     1      14.613  26.615  28.327  1.00  0.00    -0.246 OA
BRANCH  54  56
ATOM     56  C   UNL     1      15.123  24.293  28.462  1.00  0.00     0.067 A 
ATOM     57  C   UNL     1      14.794  23.585  29.630  1.00  0.00     0.066 A 
ATOM     58  C   UNL     1      15.094  23.629  27.225  1.00  0.00     0.066 A 
ATOM     59  C   UNL     1      14.449  22.227  29.565  1.00  0.00     0.162 A 
ATOM     60  C   UNL     1      14.743  22.275  27.153  1.00  0.00     0.162 A 
ATOM     61  C   UNL     1      14.427  21.568  28.324  1.00  0.00     0.200 A 
BRANCH  59  62
ATOM     62  O   UNL     1      14.129  21.530  30.727  1.00  0.00    -0.504 OA
ATOM     63  H   UNL     1      14.817  21.359  31.452  1.00  0.00     0.293 HD
ENDBRANCH  59  62
BRANCH  60  64
ATOM     64  O   UNL     1      14.725  21.636  25.913  1.00  0.00    -0.504 OA
ATOM     65  H   UNL     1      14.817  20.630  25.827  1.00  0.00     0.293 HD
ENDBRANCH  60  64
BRANCH  61  66
ATOM     66  O   UNL     1      14.090  20.215  28.238  1.00  0.00    -0.502 OA
ATOM     67  H   UNL     1      14.742  19.480  28.510  1.00  0.00     0.293 HD
ENDBRANCH  61  66
ENDBRANCH  54  56
ENDBRANCH  53  54
ENDBRANCH   5  53
BRANCH   4  68
ATOM     68  O   UNL     1      16.335  28.678  29.823  1.00  0.00    -0.448 OA
BRANCH  68  69
ATOM     69  C   UNL     1      15.646  29.863  29.522  1.00  0.00     0.339 C 
ATOM     70  O   UNL     1      14.392  29.850  29.398  1.00  0.00    -0.246 OA
BRANCH  69  71
ATOM     71  C   UNL     1      16.386  31.136  29.388  1.00  0.00     0.067 A 
ATOM     72  C   UNL     1      15.703  32.365  29.398  1.00  0.00     0.066 A 
ATOM     73  C   UNL     1      17.784  31.134  29.254  1.00  0.00     0.066 A 
ATOM     74  C   UNL     1      16.408  33.573  29.309  1.00  0.00     0.162 A 
ATOM     75  C   UNL     1      18.501  32.333  29.148  1.00  0.00     0.162 A 
ATOM     76  C   UNL     1      17.807  33.568  29.196  1.00  0.00     0.200 A 
BRANCH  74  77
ATOM     77  O   UNL     1      15.729  34.791  29.347  1.00  0.00    -0.504 OA
ATOM     78  H   UNL     1      14.826  34.877  29.789  1.00  0.00     0.293 HD
ENDBRANCH  74  77
BRANCH  75  79
ATOM     79  O   UNL     1      19.887  32.247  28.988  1.00  0.00    -0.504 OA
ATOM     80  H   UNL     1      20.476  33.024  28.736  1.00  0.00     0.293 HD
ENDBRANCH  75  79
BRANCH  76  81
ATOM     81  O   UNL     1      18.468  34.797  29.146  1.00  0.00    -0.502 OA
ATOM     82  H   UNL     1      18.522  35.430  29.924  1.00  0.00     0.293 HD
ENDBRANCH  76  81
ENDBRANCH  69  71
ENDBRANCH  68  69
ENDBRANCH   4  68
TORSDOF 31
ENDMDL
MODEL 6
REMARK VINA RESULT:    -6.970      1.369      7.103
REMARK INTER + INTRA:         -21.131
REMARK INTER:                 -18.870
REMARK INTRA:                  -2.261
REMARK UNBOUND:                -4.584
REMARK SMILES O=C(OC[C@@H]1O[C@@H](OC(=O)c2cc(O)c(O)c(O)c2)[C@@H](OC(=O)c2cc(O)c(O)c(O)c2)[C@H](OC(=O)c2cc(O)c(O)c(O)c2)[C@@H]1OC(=O)c1cc(O)c(O)c(O)c1)c1cc(O)c(O)c(O)c1
REMARK SMILES IDX 5 1 46 2 33 3 20 4 7 5 6 6 4 7 3 8 2 9 1 10 59 11 60 12
REMARK SMILES IDX 61 13 67 14 63 15 65 16 62 17 64 19 66 21 47 23 48 24 49 25
REMARK SMILES IDX 50 26 58 27 51 28 56 29 52 30 54 31 57 32 53 34 55 36 34 38
REMARK SMILES IDX 35 39 36 40 37 41 45 42 38 43 43 44 39 45 41 46 44 47 40 49
REMARK SMILES IDX 42 51 8 53 9 54 10 55 11 56 19 57 12 58 17 59 13 60 15 61
REMARK SMILES IDX 18 62 14 64 16 66 21 68 22 69 23 70 24 71 32 72 25 73 30 74
REMARK SMILES IDX 26 75 28 76 31 77 27 79 29 81
REMARK H PARENT 62 18 64 20 66 22 57 33 53 35 55 37 44 48 40 50 42 52 18 63
REMARK H PARENT 14 65 16 67 31 78 27 80 29 82
REMARK Flexibility Score: inf
ROOT
ATOM      1  C   UNL     1      18.117  27.292  29.180  1.00  0.00     0.205 C 
ATOM      2  C   UNL     1      18.487  28.696  29.706  1.00  0.00     0.254 C 
ATOM      3  C   UNL     1      20.000  28.926  29.514  1.00  0.00     0.267 C 
ATOM      4  C   UNL     1      20.794  27.762  30.135  1.00  0.00     0.290 C 
ATOM      5  C   UNL     1      20.249  26.416  29.624  1.00  0.00     0.357 C 
ATOM      6  O   UNL     1      18.857  26.294  29.869  1.00  0.00    -0.329 OA
ENDROOT
BRANCH   1   7
ATOM      7  C   UNL     1      16.614  27.014  29.351  1.00  0.00     0.269 C 
BRANCH   7   8
ATOM      8  O   UNL     1      16.291  25.699  28.903  1.00  0.00    -0.459 OA
BRANCH   8   9
ATOM      9  C   UNL     1      14.984  25.219  28.756  1.00  0.00     0.338 C 
ATOM     10  O   UNL     1      14.037  26.017  28.524  1.00  0.00    -0.246 OA
BRANCH   9  11
ATOM     11  C   UNL     1      14.727  23.765  28.842  1.00  0.00     0.067 A 
ATOM     12  C   UNL     1      14.625  23.139  30.092  1.00  0.00     0.066 A 
ATOM     13  C   UNL     1      14.399  21.765  30.188  1.00  0.00     0.162 A 
ATOM     14  C   UNL     1      14.588  22.991  27.680  1.00  0.00     0.066 A 
ATOM     15  C   UNL     1      14.271  20.987  29.023  1.00  0.00     0.200 A 
ATOM     16  C   UNL     1      14.359  21.613  27.754  1.00  0.00     0.162 A 
BRANCH  13  17
ATOM     17  O   UNL     1      14.321  21.181  31.454  1.00  0.00    -0.504 OA
ATOM     18  H   UNL     1      13.535  21.334  32.075  1.00  0.00     0.293 HD
ENDBRANCH  13  17
BRANCH  15  19
ATOM     19  O   UNL     1      14.066  19.611  29.161  1.00  0.00    -0.502 OA
ATOM     20  H   UNL     1      13.613  19.184  29.953  1.00  0.00     0.293 HD
ENDBRANCH  15  19
BRANCH  16  21
ATOM     21  O   UNL     1      14.218  20.912  26.553  1.00  0.00    -0.504 OA
ATOM     22  H   UNL     1      13.780  20.010  26.471  1.00  0.00     0.293 HD
ENDBRANCH  16  21
ENDBRANCH   9  11
ENDBRANCH   8   9
ENDBRANCH   7   8
ENDBRANCH   1   7
BRANCH   2  23
ATOM     23  O   UNL     1      18.155  28.788  31.091  1.00  0.00    -0.452 OA
BRANCH  23  24
ATOM     24  C   UNL     1      17.333  29.785  31.636  1.00  0.00     0.338 C 
ATOM     25  O   UNL     1      16.500  29.500  32.540  1.00  0.00    -0.246 OA
BRANCH  24  26
ATOM     26  C   UNL     1      17.452  31.173  31.147  1.00  0.00     0.067 A 
ATOM     27  C   UNL     1      18.270  32.101  31.816  1.00  0.00     0.066 A 
ATOM     28  C   UNL     1      16.754  31.578  30.001  1.00  0.00     0.066 A 
ATOM     29  C   UNL     1      18.390  33.412  31.347  1.00  0.00     0.162 A 
ATOM     30  C   UNL     1      16.861  32.889  29.528  1.00  0.00     0.162 A 
ATOM     31  C   UNL     1      17.680  33.813  30.201  1.00  0.00     0.200 A 
BRANCH  29  32
ATOM     32  O   UNL     1      19.233  34.298  32.019  1.00  0.00    -0.504 OA
ATOM     33  H   UNL     1      20.197  34.065  32.227  1.00  0.00     0.293 HD
ENDBRANCH  29  32
BRANCH  30  34
ATOM     34  O   UNL     1      16.152  33.283  28.392  1.00  0.00    -0.504 OA
ATOM     35  H   UNL     1      16.547  33.941  27.728  1.00  0.00     0.293 HD
ENDBRANCH  30  34
BRANCH  31  36
ATOM     36  O   UNL     1      17.802  35.125  29.739  1.00  0.00    -0.502 OA
ATOM     37  H   UNL     1      17.660  35.928  30.345  1.00  0.00     0.293 HD
ENDBRANCH  31  36
ENDBRANCH  24  26
ENDBRANCH  23  24
ENDBRANCH   2  23
BRANCH   3  38
ATOM     38  O   UNL     1      20.408  30.148  30.130  1.00  0.00    -0.450 OA
BRANCH  38  39
ATOM     39  C   UNL     1      21.118  30.230  31.332  1.00  0.00     0.338 C 
ATOM     40  O   UNL     1      20.800  29.495  32.307  1.00  0.00    -0.246 OA
BRANCH  39  41
ATOM     41  C   UNL     1      22.238  31.193  31.454  1.00  0.00     0.067 A 
ATOM     42  C   UNL     1      22.194  32.446  30.821  1.00  0.00     0.066 A 
ATOM     43  C   UNL     1      23.373  30.853  32.208  1.00  0.00     0.066 A 
ATOM     44  C   UNL     1      23.277  33.333  30.909  1.00  0.00     0.162 A 
ATOM     45  C   UNL     1      24.458  31.728  32.301  1.00  0.00     0.162 A 
ATOM     46  C   UNL     1      24.417  32.970  31.647  1.00  0.00     0.200 A 
BRANCH  44  47
ATOM     47  O   UNL     1      23.227  34.573  30.266  1.00  0.00    -0.504 OA
ATOM     48  H   UNL     1      23.840  35.338  30.528  1.00  0.00     0.293 HD
ENDBRANCH  44  47
BRANCH  45  49
ATOM     49  O   UNL     1      25.571  31.351  33.053  1.00  0.00    -0.504 OA
ATOM     50  H   UNL     1      26.116  30.529  32.829  1.00  0.00     0.293 HD
ENDBRANCH  45  49
BRANCH  46  51
ATOM     51  O   UNL     1      25.509  33.832  31.742  1.00  0.00    -0.502 OA
ATOM     52  H   UNL     1      25.406  34.828  31.906  1.00  0.00     0.293 HD
ENDBRANCH  46  51
ENDBRANCH  39  41
ENDBRANCH  38  39
ENDBRANCH   3  38
BRANCH   5  53
ATOM     53  O   UNL     1      20.533  26.248  28.233  1.00  0.00    -0.428 OA
BRANCH  53  54
ATOM     54  C   UNL     1      21.303  25.193  27.725  1.00  0.00     0.340 C 
ATOM     55  O   UNL     1      22.485  25.020  28.130  1.00  0.00    -0.246 OA
BRANCH  54  56
ATOM     56  C   UNL     1      20.729  24.305  26.691  1.00  0.00     0.067 A 
ATOM     57  C   UNL     1      21.378  24.151  25.455  1.00  0.00     0.066 A 
ATOM     58  C   UNL     1      19.540  23.597  26.936  1.00  0.00     0.066 A 
ATOM     59  C   UNL     1      20.842  23.309  24.469  1.00  0.00     0.162 A 
ATOM     60  C   UNL     1      19.004  22.748  25.959  1.00  0.00     0.162 A 
ATOM     61  C   UNL     1      19.649  22.608  24.719  1.00  0.00     0.200 A 
BRANCH  59  62
ATOM     62  O   UNL     1      21.487  23.165  23.244  1.00  0.00    -0.504 OA
ATOM     63  H   UNL     1      21.863  22.274  22.942  1.00  0.00     0.293 HD
ENDBRANCH  59  62
BRANCH  60  64
ATOM     64  O   UNL     1      17.821  22.060  26.224  1.00  0.00    -0.504 OA
ATOM     65  H   UNL     1      17.483  21.920  27.169  1.00  0.00     0.293 HD
ENDBRANCH  60  64
BRANCH  61  66
ATOM     66  O   UNL     1      19.096  21.767  23.750  1.00  0.00    -0.502 OA
ATOM     67  H   UNL     1      18.894  22.094  22.806  1.00  0.00     0.293 HD
ENDBRANCH  61  66
ENDBRANCH  54  56
ENDBRANCH  53  54
ENDBRANCH   5  53
BRANCH   4  68
ATOM     68  O   UNL     1      22.180  27.872  29.797  1.00  0.00    -0.448 OA
BRANCH  68  69
ATOM     69  C   UNL     1      22.652  28.580  28.681  1.00  0.00     0.339 C 
ATOM     70  O   UNL     1      21.837  29.056  27.845  1.00  0.00    -0.246 OA
BRANCH  69  71
ATOM     71  C   UNL     1      24.102  28.804  28.506  1.00  0.00     0.067 A 
ATOM     72  C   UNL     1      24.828  28.074  27.548  1.00  0.00     0.066 A 
ATOM     73  C   UNL     1      24.774  29.755  29.292  1.00  0.00     0.066 A 
ATOM     74  C   UNL     1      26.196  28.313  27.356  1.00  0.00     0.162 A 
ATOM     75  C   UNL     1      26.144  29.993  29.122  1.00  0.00     0.162 A 
ATOM     76  C   UNL     1      26.860  29.277  28.129  1.00  0.00     0.200 A 
BRANCH  74  77
ATOM     77  O   UNL     1      26.906  27.605  26.387  1.00  0.00    -0.504 OA
ATOM     78  H   UNL     1      27.375  26.738  26.605  1.00  0.00     0.293 HD
ENDBRANCH  74  77
BRANCH  75  79
ATOM     79  O   UNL     1      26.747  30.933  29.963  1.00  0.00    -0.504 OA
ATOM     80  H   UNL     1      26.239  31.544  30.583  1.00  0.00     0.293 HD
ENDBRANCH  75  79
BRANCH  76  81
ATOM     81  O   UNL     1      28.214  29.505  27.878  1.00  0.00    -0.502 OA
ATOM     82  H   UNL     1      28.955  29.106  28.428  1.00  0.00     0.293 HD
ENDBRANCH  76  81
ENDBRANCH  69  71
ENDBRANCH  68  69
ENDBRANCH   4  68
TORSDOF 31
ENDMDL
MODEL 7
REMARK VINA RESULT:    -6.970      1.475      7.311
REMARK INTER + INTRA:         -21.129
REMARK INTER:                 -18.961
REMARK INTRA:                  -2.168
REMARK UNBOUND:                -4.584
REMARK SMILES O=C(OC[C@@H]1O[C@@H](OC(=O)c2cc(O)c(O)c(O)c2)[C@@H](OC(=O)c2cc(O)c(O)c(O)c2)[C@H](OC(=O)c2cc(O)c(O)c(O)c2)[C@@H]1OC(=O)c1cc(O)c(O)c(O)c1)c1cc(O)c(O)c(O)c1
REMARK SMILES IDX 5 1 46 2 33 3 20 4 7 5 6 6 4 7 3 8 2 9 1 10 59 11 60 12
REMARK SMILES IDX 61 13 67 14 63 15 65 16 62 17 64 19 66 21 47 23 48 24 49 25
REMARK SMILES IDX 50 26 58 27 51 28 56 29 52 30 54 31 57 32 53 34 55 36 34 38
REMARK SMILES IDX 35 39 36 40 37 41 45 42 38 43 43 44 39 45 41 46 44 47 40 49
REMARK SMILES IDX 42 51 8 53 9 54 10 55 11 56 19 57 12 58 17 59 13 60 15 61
REMARK SMILES IDX 18 62 14 64 16 66 21 68 22 69 23 70 24 71 32 72 25 73 30 74
REMARK SMILES IDX 26 75 28 76 31 77 27 79 29 81
REMARK H PARENT 62 18 64 20 66 22 57 33 53 35 55 37 44 48 40 50 42 52 18 63
REMARK H PARENT 14 65 16 67 31 78 27 80 29 82
REMARK Flexibility Score: inf
ROOT
ATOM      1  C   UNL     1      18.116  26.916  28.815  1.00  0.00     0.205 C 
ATOM      2  C   UNL     1      18.591  28.337  29.190  1.00  0.00     0.254 C 
ATOM      3  C   UNL     1      19.962  28.602  28.535  1.00  0.00     0.267 C 
ATOM      4  C   UNL     1      20.942  27.468  28.884  1.00  0.00     0.290 C 
ATOM      5  C   UNL     1      20.304  26.101  28.578  1.00  0.00     0.357 C 
ATOM      6  O   UNL     1      19.061  25.948  29.246  1.00  0.00    -0.329 OA
ENDROOT
BRANCH   1   7
ATOM      7  C   UNL     1      16.750  26.605  29.448  1.00  0.00     0.269 C 
BRANCH   7   8
ATOM      8  O   UNL     1      16.089  25.563  28.732  1.00  0.00    -0.459 OA
BRANCH   8   9
ATOM      9  C   UNL     1      14.828  25.057  29.068  1.00  0.00     0.338 C 
ATOM     10  O   UNL     1      13.875  25.843  29.322  1.00  0.00    -0.246 OA
BRANCH   9  11
ATOM     11  C   UNL     1      14.610  23.594  29.089  1.00  0.00     0.067 A 
ATOM     12  C   UNL     1      14.566  22.905  30.309  1.00  0.00     0.066 A 
ATOM     13  C   UNL     1      14.378  21.522  30.342  1.00  0.00     0.162 A 
ATOM     14  C   UNL     1      14.451  22.876  27.895  1.00  0.00     0.066 A 
ATOM     15  C   UNL     1      14.230  20.800  29.144  1.00  0.00     0.200 A 
ATOM     16  C   UNL     1      14.259  21.490  27.906  1.00  0.00     0.162 A 
BRANCH  13  17
ATOM     17  O   UNL     1      14.359  20.875  31.579  1.00  0.00    -0.504 OA
ATOM     18  H   UNL     1      13.496  20.611  32.040  1.00  0.00     0.293 HD
ENDBRANCH  13  17
BRANCH  15  19
ATOM     19  O   UNL     1      14.065  19.414  29.219  1.00  0.00    -0.502 OA
ATOM     20  H   UNL     1      13.367  18.899  28.705  1.00  0.00     0.293 HD
ENDBRANCH  15  19
BRANCH  16  21
ATOM     21  O   UNL     1      14.095  20.845  26.677  1.00  0.00    -0.504 OA
ATOM     22  H   UNL     1      14.534  21.138  25.819  1.00  0.00     0.293 HD
ENDBRANCH  16  21
ENDBRANCH   9  11
ENDBRANCH   8   9
ENDBRANCH   7   8
ENDBRANCH   1   7
BRANCH   2  23
ATOM     23  O   UNL     1      18.705  28.442  30.609  1.00  0.00    -0.452 OA
BRANCH  23  24
ATOM     24  C   UNL     1      17.810  29.157  31.417  1.00  0.00     0.338 C 
ATOM     25  O   UNL     1      17.501  28.727  32.562  1.00  0.00    -0.246 OA
BRANCH  24  26
ATOM     26  C   UNL     1      17.232  30.422  30.919  1.00  0.00     0.067 A 
ATOM     27  C   UNL     1      15.998  30.887  31.405  1.00  0.00     0.066 A 
ATOM     28  C   UNL     1      17.918  31.180  29.959  1.00  0.00     0.066 A 
ATOM     29  C   UNL     1      15.457  32.089  30.941  1.00  0.00     0.162 A 
ATOM     30  C   UNL     1      17.382  32.380  29.483  1.00  0.00     0.162 A 
ATOM     31  C   UNL     1      16.146  32.839  29.972  1.00  0.00     0.200 A 
BRANCH  29  32
ATOM     32  O   UNL     1      14.243  32.534  31.467  1.00  0.00    -0.504 OA
ATOM     33  H   UNL     1      14.167  32.883  32.415  1.00  0.00     0.293 HD
ENDBRANCH  29  32
BRANCH  30  34
ATOM     34  O   UNL     1      18.069  33.119  28.519  1.00  0.00    -0.504 OA
ATOM     35  H   UNL     1      18.917  33.627  28.751  1.00  0.00     0.293 HD
ENDBRANCH  30  34
BRANCH  31  36
ATOM     36  O   UNL     1      15.600  34.038  29.512  1.00  0.00    -0.502 OA
ATOM     37  H   UNL     1      15.161  34.708  30.137  1.00  0.00     0.293 HD
ENDBRANCH  31  36
ENDBRANCH  24  26
ENDBRANCH  23  24
ENDBRANCH   2  23
BRANCH   3  38
ATOM     38  O   UNL     1      20.507  29.842  28.983  1.00  0.00    -0.450 OA
BRANCH  38  39
ATOM     39  C   UNL     1      21.192  30.017  30.190  1.00  0.00     0.338 C 
ATOM     40  O   UNL     1      21.354  29.041  30.973  1.00  0.00    -0.246 OA
BRANCH  39  41
ATOM     41  C   UNL     1      21.716  31.356  30.546  1.00  0.00     0.067 A 
ATOM     42  C   UNL     1      21.174  32.524  29.983  1.00  0.00     0.066 A 
ATOM     43  C   UNL     1      22.780  31.471  31.455  1.00  0.00     0.066 A 
ATOM     44  C   UNL     1      21.705  33.784  30.295  1.00  0.00     0.162 A 
ATOM     45  C   UNL     1      23.317  32.722  31.772  1.00  0.00     0.162 A 
ATOM     46  C   UNL     1      22.786  33.883  31.189  1.00  0.00     0.200 A 
BRANCH  44  47
ATOM     47  O   UNL     1      21.165  34.938  29.721  1.00  0.00    -0.504 OA
ATOM     48  H   UNL     1      21.744  35.615  29.235  1.00  0.00     0.293 HD
ENDBRANCH  44  47
BRANCH  45  49
ATOM     49  O   UNL     1      24.379  32.795  32.674  1.00  0.00    -0.504 OA
ATOM     50  H   UNL     1      24.248  32.665  33.668  1.00  0.00     0.293 HD
ENDBRANCH  45  49
BRANCH  46  51
ATOM     51  O   UNL     1      23.335  35.125  31.507  1.00  0.00    -0.502 OA
ATOM     52  H   UNL     1      24.336  35.277  31.578  1.00  0.00     0.293 HD
ENDBRANCH  46  51
ENDBRANCH  39  41
ENDBRANCH  38  39
ENDBRANCH   3  38
BRANCH   5  53
ATOM     53  O   UNL     1      20.145  25.918  27.169  1.00  0.00    -0.428 OA
BRANCH  53  54
ATOM     54  C   UNL     1      20.883  24.990  26.424  1.00  0.00     0.340 C 
ATOM     55  O   UNL     1      22.132  25.123  26.304  1.00  0.00    -0.246 OA
BRANCH  54  56
ATOM     56  C   UNL     1      20.182  23.870  25.756  1.00  0.00     0.067 A 
ATOM     57  C   UNL     1      19.087  23.252  26.380  1.00  0.00     0.066 A 
ATOM     58  C   UNL     1      20.594  23.424  24.489  1.00  0.00     0.066 A 
ATOM     59  C   UNL     1      18.415  22.192  25.753  1.00  0.00     0.162 A 
ATOM     60  C   UNL     1      19.922  22.371  23.854  1.00  0.00     0.162 A 
ATOM     61  C   UNL     1      18.835  21.747  24.488  1.00  0.00     0.200 A 
BRANCH  59  62
ATOM     62  O   UNL     1      17.333  21.580  26.380  1.00  0.00    -0.504 OA
ATOM     63  H   UNL     1      16.540  21.232  25.854  1.00  0.00     0.293 HD
ENDBRANCH  59  62
BRANCH  60  64
ATOM     64  O   UNL     1      20.352  21.943  22.598  1.00  0.00    -0.504 OA
ATOM     65  H   UNL     1      19.721  21.886  21.807  1.00  0.00     0.293 HD
ENDBRANCH  60  64
BRANCH  61  66
ATOM     66  O   UNL     1      18.183  20.691  23.847  1.00  0.00    -0.502 OA
ATOM     67  H   UNL     1      17.220  20.770  23.524  1.00  0.00     0.293 HD
ENDBRANCH  61  66
ENDBRANCH  54  56
ENDBRANCH  53  54
ENDBRANCH   5  53
BRANCH   4  68
ATOM     68  O   UNL     1      22.151  27.607  28.130  1.00  0.00    -0.448 OA
BRANCH  68  69
ATOM     69  C   UNL     1      23.408  27.196  28.598  1.00  0.00     0.339 C 
ATOM     70  O   UNL     1      23.569  26.023  29.029  1.00  0.00    -0.246 OA
BRANCH  69  71
ATOM     71  C   UNL     1      24.556  28.126  28.549  1.00  0.00     0.067 A 
ATOM     72  C   UNL     1      24.604  29.249  29.394  1.00  0.00     0.066 A 
ATOM     73  C   UNL     1      25.618  27.897  27.659  1.00  0.00     0.066 A 
ATOM     74  C   UNL     1      25.710  30.110  29.374  1.00  0.00     0.162 A 
ATOM     75  C   UNL     1      26.722  28.758  27.616  1.00  0.00     0.162 A 
ATOM     76  C   UNL     1      26.778  29.867  28.498  1.00  0.00     0.200 A 
BRANCH  74  77
ATOM     77  O   UNL     1      25.765  31.207  30.233  1.00  0.00    -0.504 OA
ATOM     78  H   UNL     1      25.999  31.101  31.208  1.00  0.00     0.293 HD
ENDBRANCH  74  77
BRANCH  75  79
ATOM     79  O   UNL     1      27.724  28.479  26.682  1.00  0.00    -0.504 OA
ATOM     80  H   UNL     1      28.075  27.555  26.489  1.00  0.00     0.293 HD
ENDBRANCH  75  79
BRANCH  76  81
ATOM     81  O   UNL     1      27.873  30.732  28.538  1.00  0.00    -0.502 OA
ATOM     82  H   UNL     1      28.508  30.787  29.316  1.00  0.00     0.293 HD
ENDBRANCH  76  81
ENDBRANCH  69  71
ENDBRANCH  68  69
ENDBRANCH   4  68
TORSDOF 31
ENDMDL
MODEL 8
REMARK VINA RESULT:    -6.909      1.403      7.055
REMARK INTER + INTRA:         -20.984
REMARK INTER:                 -17.462
REMARK INTRA:                  -3.522
REMARK UNBOUND:                -4.584
REMARK SMILES O=C(OC[C@@H]1O[C@@H](OC(=O)c2cc(O)c(O)c(O)c2)[C@@H](OC(=O)c2cc(O)c(O)c(O)c2)[C@H](OC(=O)c2cc(O)c(O)c(O)c2)[C@@H]1OC(=O)c1cc(O)c(O)c(O)c1)c1cc(O)c(O)c(O)c1
REMARK SMILES IDX 5 1 46 2 33 3 20 4 7 5 6 6 4 7 3 8 2 9 1 10 59 11 60 12
REMARK SMILES IDX 61 13 67 14 63 15 65 16 62 17 64 19 66 21 47 23 48 24 49 25
REMARK SMILES IDX 50 26 58 27 51 28 56 29 52 30 54 31 57 32 53 34 55 36 34 38
REMARK SMILES IDX 35 39 36 40 37 41 45 42 38 43 43 44 39 45 41 46 44 47 40 49
REMARK SMILES IDX 42 51 8 53 9 54 10 55 11 56 19 57 12 58 17 59 13 60 15 61
REMARK SMILES IDX 18 62 14 64 16 66 21 68 22 69 23 70 24 71 32 72 25 73 30 74
REMARK SMILES IDX 26 75 28 76 31 77 27 79 29 81
REMARK H PARENT 62 18 64 20 66 22 57 33 53 35 55 37 44 48 40 50 42 52 18 63
REMARK H PARENT 14 65 16 67 31 78 27 80 29 82
REMARK Flexibility Score: inf
ROOT
ATOM      1  C   UNL     1      17.989  26.510  28.656  1.00  0.00     0.205 C 
ATOM      2  C   UNL     1      18.347  27.959  29.051  1.00  0.00     0.254 C 
ATOM      3  C   UNL     1      19.720  28.323  28.450  1.00  0.00     0.267 C 
ATOM      4  C   UNL     1      20.764  27.260  28.836  1.00  0.00     0.290 C 
ATOM      5  C   UNL     1      20.236  25.853  28.503  1.00  0.00     0.357 C 
ATOM      6  O   UNL     1      18.983  25.609  29.121  1.00  0.00    -0.329 OA
ENDROOT
BRANCH   1   7
ATOM      7  C   UNL     1      16.624  26.100  29.235  1.00  0.00     0.269 C 
BRANCH   7   8
ATOM      8  O   UNL     1      15.579  26.374  28.304  1.00  0.00    -0.459 OA
BRANCH   8   9
ATOM      9  C   UNL     1      14.804  25.389  27.680  1.00  0.00     0.338 C 
ATOM     10  O   UNL     1      14.283  25.610  26.554  1.00  0.00    -0.246 OA
BRANCH   9  11
ATOM     11  C   UNL     1      14.628  24.075  28.336  1.00  0.00     0.067 A 
ATOM     12  C   UNL     1      14.696  22.896  27.581  1.00  0.00     0.066 A 
ATOM     13  C   UNL     1      14.515  21.650  28.184  1.00  0.00     0.162 A 
ATOM     14  C   UNL     1      14.384  23.988  29.714  1.00  0.00     0.066 A 
ATOM     15  C   UNL     1      14.259  21.563  29.564  1.00  0.00     0.200 A 
ATOM     16  C   UNL     1      14.202  22.750  30.338  1.00  0.00     0.162 A 
BRANCH  13  17
ATOM     17  O   UNL     1      14.574  20.502  27.390  1.00  0.00    -0.504 OA
ATOM     18  H   UNL     1      14.926  19.619  27.739  1.00  0.00     0.293 HD
ENDBRANCH  13  17
BRANCH  15  19
ATOM     19  O   UNL     1      14.063  20.298  30.126  1.00  0.00    -0.502 OA
ATOM     20  H   UNL     1      14.187  19.432  29.626  1.00  0.00     0.293 HD
ENDBRANCH  15  19
BRANCH  16  21
ATOM     21  O   UNL     1      13.977  22.743  31.718  1.00  0.00    -0.504 OA
ATOM     22  H   UNL     1      14.311  23.450  32.351  1.00  0.00     0.293 HD
ENDBRANCH  16  21
ENDBRANCH   9  11
ENDBRANCH   8   9
ENDBRANCH   7   8
ENDBRANCH   1   7
BRANCH   2  23
ATOM     23  O   UNL     1      18.398  28.066  30.474  1.00  0.00    -0.452 OA
BRANCH  23  24
ATOM     24  C   UNL     1      17.463  28.776  31.240  1.00  0.00     0.338 C 
ATOM     25  O   UNL     1      16.698  28.166  32.037  1.00  0.00    -0.246 OA
BRANCH  24  26
ATOM     26  C   UNL     1      17.382  30.245  31.112  1.00  0.00     0.067 A 
ATOM     27  C   UNL     1      16.894  30.836  29.933  1.00  0.00     0.066 A 
ATOM     28  C   UNL     1      17.784  31.067  32.174  1.00  0.00     0.066 A 
ATOM     29  C   UNL     1      16.808  32.226  29.817  1.00  0.00     0.162 A 
ATOM     30  C   UNL     1      17.708  32.459  32.064  1.00  0.00     0.162 A 
ATOM     31  C   UNL     1      17.221  33.044  30.883  1.00  0.00     0.200 A 
BRANCH  29  32
ATOM     32  O   UNL     1      16.292  32.777  28.643  1.00  0.00    -0.504 OA
ATOM     33  H   UNL     1      15.445  33.334  28.641  1.00  0.00     0.293 HD
ENDBRANCH  29  32
BRANCH  30  34
ATOM     34  O   UNL     1      18.122  33.268  33.125  1.00  0.00    -0.504 OA
ATOM     35  H   UNL     1      17.880  33.041  34.084  1.00  0.00     0.293 HD
ENDBRANCH  30  34
BRANCH  31  36
ATOM     36  O   UNL     1      17.134  34.432  30.759  1.00  0.00    -0.502 OA
ATOM     37  H   UNL     1      17.699  34.953  30.095  1.00  0.00     0.293 HD
ENDBRANCH  31  36
ENDBRANCH  24  26
ENDBRANCH  23  24
ENDBRANCH   2  23
BRANCH   3  38
ATOM     38  O   UNL     1      20.158  29.597  28.921  1.00  0.00    -0.450 OA
BRANCH  38  39
ATOM     39  C   UNL     1      20.828  29.807  30.131  1.00  0.00     0.338 C 
ATOM     40  O   UNL     1      21.105  28.830  30.879  1.00  0.00    -0.246 OA
BRANCH  39  41
ATOM     41  C   UNL     1      21.201  31.184  30.530  1.00  0.00     0.067 A 
ATOM     42  C   UNL     1      22.209  31.419  31.481  1.00  0.00     0.066 A 
ATOM     43  C   UNL     1      20.537  32.282  29.961  1.00  0.00     0.066 A 
ATOM     44  C   UNL     1      22.527  32.725  31.882  1.00  0.00     0.162 A 
ATOM     45  C   UNL     1      20.844  33.587  30.355  1.00  0.00     0.162 A 
ATOM     46  C   UNL     1      21.836  33.814  31.322  1.00  0.00     0.200 A 
BRANCH  44  47
ATOM     47  O   UNL     1      23.523  32.946  32.837  1.00  0.00    -0.504 OA
ATOM     48  H   UNL     1      23.482  32.529  33.761  1.00  0.00     0.293 HD
ENDBRANCH  44  47
BRANCH  45  49
ATOM     49  O   UNL     1      20.155  34.651  29.772  1.00  0.00    -0.504 OA
ATOM     50  H   UNL     1      19.758  35.400  30.324  1.00  0.00     0.293 HD
ENDBRANCH  45  49
BRANCH  46  51
ATOM     51  O   UNL     1      22.129  35.120  31.712  1.00  0.00    -0.502 OA
ATOM     52  H   UNL     1      22.053  35.909  31.079  1.00  0.00     0.293 HD
ENDBRANCH  46  51
ENDBRANCH  39  41
ENDBRANCH  38  39
ENDBRANCH   3  38
BRANCH   5  53
ATOM     53  O   UNL     1      20.146  25.665  27.088  1.00  0.00    -0.428 OA
BRANCH  53  54
ATOM     54  C   UNL     1      20.874  24.692  26.392  1.00  0.00     0.340 C 
ATOM     55  O   UNL     1      22.132  24.764  26.332  1.00  0.00    -0.246 OA
BRANCH  54  56
ATOM     56  C   UNL     1      20.153  23.598  25.703  1.00  0.00     0.067 A 
ATOM     57  C   UNL     1      19.082  22.950  26.339  1.00  0.00     0.066 A 
ATOM     58  C   UNL     1      20.522  23.205  24.406  1.00  0.00     0.066 A 
ATOM     59  C   UNL     1      18.392  21.914  25.693  1.00  0.00     0.162 A 
ATOM     60  C   UNL     1      19.831  22.176  23.752  1.00  0.00     0.162 A 
ATOM     61  C   UNL     1      18.769  21.522  24.397  1.00  0.00     0.200 A 
BRANCH  59  62
ATOM     62  O   UNL     1      17.334  21.273  26.332  1.00  0.00    -0.504 OA
ATOM     63  H   UNL     1      16.664  21.783  26.896  1.00  0.00     0.293 HD
ENDBRANCH  59  62
BRANCH  60  64
ATOM     64  O   UNL     1      20.218  21.801  22.466  1.00  0.00    -0.504 OA
ATOM     65  H   UNL     1      19.570  21.817  21.685  1.00  0.00     0.293 HD
ENDBRANCH  60  64
BRANCH  61  66
ATOM     66  O   UNL     1      18.097  20.490  23.736  1.00  0.00    -0.502 OA
ATOM     67  H   UNL     1      18.087  19.537  24.099  1.00  0.00     0.293 HD
ENDBRANCH  61  66
ENDBRANCH  54  56
ENDBRANCH  53  54
ENDBRANCH   5  53
BRANCH   4  68
ATOM     68  O   UNL     1      21.988  27.487  28.129  1.00  0.00    -0.448 OA
BRANCH  68  69
ATOM     69  C   UNL     1      23.243  27.074  28.600  1.00  0.00     0.339 C 
ATOM     70  O   UNL     1      23.419  25.880  28.962  1.00  0.00    -0.246 OA
BRANCH  69  71
ATOM     71  C   UNL     1      24.371  28.028  28.636  1.00  0.00     0.067 A 
ATOM     72  C   UNL     1      25.417  27.935  27.700  1.00  0.00     0.066 A 
ATOM     73  C   UNL     1      24.411  29.045  29.603  1.00  0.00     0.066 A 
ATOM     74  C   UNL     1      26.468  28.863  27.710  1.00  0.00     0.162 A 
ATOM     75  C   UNL     1      25.463  29.970  29.636  1.00  0.00     0.162 A 
ATOM     76  C   UNL     1      26.494  29.890  28.666  1.00  0.00     0.200 A 
BRANCH  74  77
ATOM     77  O   UNL     1      27.489  28.782  26.764  1.00  0.00    -0.504 OA
ATOM     78  H   UNL     1      27.395  29.202  25.851  1.00  0.00     0.293 HD
ENDBRANCH  74  77
BRANCH  75  79
ATOM     79  O   UNL     1      25.446  30.934  30.648  1.00  0.00    -0.504 OA
ATOM     80  H   UNL     1      25.081  30.776  31.573  1.00  0.00     0.293 HD
ENDBRANCH  75  79
BRANCH  76  81
ATOM     81  O   UNL     1      27.542  30.811  28.615  1.00  0.00    -0.502 OA
ATOM     82  H   UNL     1      28.152  31.000  29.391  1.00  0.00     0.293 HD
ENDBRANCH  76  81
ENDBRANCH  69  71
ENDBRANCH  68  69
ENDBRANCH   4  68
TORSDOF 31
ENDMDL
MODEL 9
REMARK VINA RESULT:    -6.493      1.160      7.277
REMARK INTER + INTRA:         -19.997
REMARK INTER:                 -18.723
REMARK INTRA:                  -1.274
REMARK UNBOUND:                -4.584
REMARK SMILES O=C(OC[C@@H]1O[C@@H](OC(=O)c2cc(O)c(O)c(O)c2)[C@@H](OC(=O)c2cc(O)c(O)c(O)c2)[C@H](OC(=O)c2cc(O)c(O)c(O)c2)[C@@H]1OC(=O)c1cc(O)c(O)c(O)c1)c1cc(O)c(O)c(O)c1
REMARK SMILES IDX 5 1 46 2 33 3 20 4 7 5 6 6 4 7 3 8 2 9 1 10 59 11 60 12
REMARK SMILES IDX 61 13 67 14 63 15 65 16 62 17 64 19 66 21 47 23 48 24 49 25
REMARK SMILES IDX 50 26 58 27 51 28 56 29 52 30 54 31 57 32 53 34 55 36 34 38
REMARK SMILES IDX 35 39 36 40 37 41 45 42 38 43 43 44 39 45 41 46 44 47 40 49
REMARK SMILES IDX 42 51 8 53 9 54 10 55 11 56 19 57 12 58 17 59 13 60 15 61
REMARK SMILES IDX 18 62 14 64 16 66 21 68 22 69 23 70 24 71 32 72 25 73 30 74
REMARK SMILES IDX 26 75 28 76 31 77 27 79 29 81
REMARK H PARENT 62 18 64 20 66 22 57 33 53 35 55 37 44 48 40 50 42 52 18 63
REMARK H PARENT 14 65 16 67 31 78 27 80 29 82
REMARK Flexibility Score: inf
ROOT
ATOM      1  C   UNL     1      18.869  29.353  29.850  1.00  0.00     0.205 C 
ATOM      2  C   UNL     1      19.389  28.401  28.751  1.00  0.00     0.254 C 
ATOM      3  C   UNL     1      18.199  27.626  28.149  1.00  0.00     0.267 C 
ATOM      4  C   UNL     1      17.384  26.954  29.269  1.00  0.00     0.290 C 
ATOM      5  C   UNL     1      17.034  27.983  30.360  1.00  0.00     0.357 C 
ATOM      6  O   UNL     1      18.196  28.621  30.864  1.00  0.00    -0.329 OA
ENDROOT
BRANCH   1   7
ATOM      7  C   UNL     1      20.022  30.149  30.484  1.00  0.00     0.269 C 
BRANCH   7   8
ATOM      8  O   UNL     1      19.733  30.457  31.846  1.00  0.00    -0.459 OA
BRANCH   8   9
ATOM      9  C   UNL     1      20.189  31.605  32.506  1.00  0.00     0.338 C 
ATOM     10  O   UNL     1      19.373  32.362  33.099  1.00  0.00    -0.246 OA
BRANCH   9  11
ATOM     11  C   UNL     1      21.636  31.907  32.531  1.00  0.00     0.067 A 
ATOM     12  C   UNL     1      22.091  33.207  32.274  1.00  0.00     0.066 A 
ATOM     13  C   UNL     1      23.455  33.502  32.279  1.00  0.00     0.162 A 
ATOM     14  C   UNL     1      22.573  30.899  32.806  1.00  0.00     0.066 A 
ATOM     15  C   UNL     1      24.396  32.490  32.543  1.00  0.00     0.200 A 
ATOM     16  C   UNL     1      23.945  31.174  32.818  1.00  0.00     0.162 A 
BRANCH  13  17
ATOM     17  O   UNL     1      23.863  34.808  31.999  1.00  0.00    -0.504 OA
ATOM     18  H   UNL     1      24.804  35.134  32.188  1.00  0.00     0.293 HD
ENDBRANCH  13  17
BRANCH  15  19
ATOM     19  O   UNL     1      25.754  32.821  32.518  1.00  0.00    -0.502 OA
ATOM     20  H   UNL     1      26.176  33.420  31.826  1.00  0.00     0.293 HD
ENDBRANCH  15  19
BRANCH  16  21
ATOM     21  O   UNL     1      24.817  30.122  33.114  1.00  0.00    -0.504 OA
ATOM     22  H   UNL     1      24.769  29.563  33.949  1.00  0.00     0.293 HD
ENDBRANCH  16  21
ENDBRANCH   9  11
ENDBRANCH   8   9
ENDBRANCH   7   8
ENDBRANCH   1   7
BRANCH   2  23
ATOM     23  O   UNL     1      20.325  27.485  29.319  1.00  0.00    -0.452 OA
BRANCH  23  24
ATOM     24  C   UNL     1      21.440  27.872  30.075  1.00  0.00     0.338 C 
ATOM     25  O   UNL     1      21.371  27.923  31.334  1.00  0.00    -0.246 OA
BRANCH  24  26
ATOM     26  C   UNL     1      22.701  28.218  29.387  1.00  0.00     0.067 A 
ATOM     27  C   UNL     1      23.764  28.810  30.093  1.00  0.00     0.066 A 
ATOM     28  C   UNL     1      22.853  27.950  28.019  1.00  0.00     0.066 A 
ATOM     29  C   UNL     1      24.959  29.127  29.443  1.00  0.00     0.162 A 
ATOM     30  C   UNL     1      24.043  28.270  27.360  1.00  0.00     0.162 A 
ATOM     31  C   UNL     1      25.102  28.863  28.070  1.00  0.00     0.200 A 
BRANCH  29  32
ATOM     32  O   UNL     1      26.003  29.687  30.181  1.00  0.00    -0.504 OA
ATOM     33  H   UNL     1      26.474  29.173  30.916  1.00  0.00     0.293 HD
ENDBRANCH  29  32
BRANCH  30  34
ATOM     34  O   UNL     1      24.178  28.009  25.995  1.00  0.00    -0.504 OA
ATOM     35  H   UNL     1      24.400  28.750  25.337  1.00  0.00     0.293 HD
ENDBRANCH  30  34
BRANCH  31  36
ATOM     36  O   UNL     1      26.298  29.185  27.427  1.00  0.00    -0.502 OA
ATOM     37  H   UNL     1      26.394  29.157  26.416  1.00  0.00     0.293 HD
ENDBRANCH  31  36
ENDBRANCH  24  26
ENDBRANCH  23  24
ENDBRANCH   2  23
BRANCH   3  38
ATOM     38  O   UNL     1      18.654  26.624  27.240  1.00  0.00    -0.450 OA
BRANCH  38  39
ATOM     39  C   UNL     1      19.175  25.384  27.625  1.00  0.00     0.338 C 
ATOM     40  O   UNL     1      19.413  25.146  28.841  1.00  0.00    -0.246 OA
BRANCH  39  41
ATOM     41  C   UNL     1      19.453  24.357  26.594  1.00  0.00     0.067 A 
ATOM     42  C   UNL     1      20.593  24.436  25.775  1.00  0.00     0.066 A 
ATOM     43  C   UNL     1      18.564  23.285  26.417  1.00  0.00     0.066 A 
ATOM     44  C   UNL     1      20.825  23.481  24.775  1.00  0.00     0.162 A 
ATOM     45  C   UNL     1      18.786  22.329  25.422  1.00  0.00     0.162 A 
ATOM     46  C   UNL     1      19.915  22.426  24.592  1.00  0.00     0.200 A 
BRANCH  44  47
ATOM     47  O   UNL     1      21.956  23.576  23.959  1.00  0.00    -0.504 OA
ATOM     48  H   UNL     1      22.747  24.163  24.206  1.00  0.00     0.293 HD
ENDBRANCH  44  47
BRANCH  45  49
ATOM     49  O   UNL     1      17.875  21.283  25.272  1.00  0.00    -0.504 OA
ATOM     50  H   UNL     1      16.876  21.430  25.325  1.00  0.00     0.293 HD
ENDBRANCH  45  49
BRANCH  46  51
ATOM     51  O   UNL     1      20.121  21.470  23.598  1.00  0.00    -0.502 OA
ATOM     52  H   UNL     1      20.958  21.450  23.026  1.00  0.00     0.293 HD
ENDBRANCH  46  51
ENDBRANCH  39  41
ENDBRANCH  38  39
ENDBRANCH   3  38
BRANCH   5  53
ATOM     53  O   UNL     1      16.101  28.948  29.868  1.00  0.00    -0.428 OA
BRANCH  53  54
ATOM     54  C   UNL     1      15.574  29.981  30.653  1.00  0.00     0.340 C 
ATOM     55  O   UNL     1      14.555  29.778  31.367  1.00  0.00    -0.246 OA
BRANCH  54  56
ATOM     56  C   UNL     1      16.206  31.320  30.614  1.00  0.00     0.067 A 
ATOM     57  C   UNL     1      16.197  32.136  31.758  1.00  0.00     0.066 A 
ATOM     58  C   UNL     1      16.829  31.782  29.444  1.00  0.00     0.066 A 
ATOM     59  C   UNL     1      16.795  33.404  31.731  1.00  0.00     0.162 A 
ATOM     60  C   UNL     1      17.435  33.045  29.413  1.00  0.00     0.162 A 
ATOM     61  C   UNL     1      17.413  33.863  30.554  1.00  0.00     0.200 A 
BRANCH  59  62
ATOM     62  O   UNL     1      16.779  34.210  32.866  1.00  0.00    -0.504 OA
ATOM     63  H   UNL     1      17.229  35.118  32.881  1.00  0.00     0.293 HD
ENDBRANCH  59  62
BRANCH  60  64
ATOM     64  O   UNL     1      18.044  33.485  28.238  1.00  0.00    -0.504 OA
ATOM     65  H   UNL     1      18.986  33.858  28.231  1.00  0.00     0.293 HD
ENDBRANCH  60  64
BRANCH  61  66
ATOM     66  O   UNL     1      18.011  35.125  30.505  1.00  0.00    -0.502 OA
ATOM     67  H   UNL     1      17.575  35.944  30.928  1.00  0.00     0.293 HD
ENDBRANCH  61  66
ENDBRANCH  54  56
ENDBRANCH  53  54
ENDBRANCH   5  53
BRANCH   4  68
ATOM     68  O   UNL     1      16.178  26.396  28.739  1.00  0.00    -0.448 OA
BRANCH  68  69
ATOM     69  C   UNL     1      15.335  25.541  29.465  1.00  0.00     0.339 C 
ATOM     70  O   UNL     1      14.764  25.955  30.509  1.00  0.00    -0.246 OA
BRANCH  69  71
ATOM     71  C   UNL     1      15.083  24.166  28.984  1.00  0.00     0.067 A 
ATOM     72  C   UNL     1      15.234  23.845  27.623  1.00  0.00     0.066 A 
ATOM     73  C   UNL     1      14.694  23.160  29.883  1.00  0.00     0.066 A 
ATOM     74  C   UNL     1      15.032  22.532  27.173  1.00  0.00     0.162 A 
ATOM     75  C   UNL     1      14.473  21.847  29.445  1.00  0.00     0.162 A 
ATOM     76  C   UNL     1      14.663  21.526  28.077  1.00  0.00     0.200 A 
BRANCH  74  77
ATOM     77  O   UNL     1      15.208  22.214  25.827  1.00  0.00    -0.504 OA
ATOM     78  H   UNL     1      15.609  21.333  25.543  1.00  0.00     0.293 HD
ENDBRANCH  74  77
BRANCH  75  79
ATOM     79  O   UNL     1      14.059  20.909  30.395  1.00  0.00    -0.504 OA
ATOM     80  H   UNL     1      13.768  19.971  30.173  1.00  0.00     0.293 HD
ENDBRANCH  75  79
BRANCH  76  81
ATOM     81  O   UNL     1      14.506  20.227  27.589  1.00  0.00    -0.502 OA
ATOM     82  H   UNL     1      15.174  19.777  26.987  1.00  0.00     0.293 HD
ENDBRANCH  76  81
ENDBRANCH  69  71
ENDBRANCH  68  69
ENDBRANCH   4  68
TORSDOF 31
ENDMDL
