MODEL 1
REMARK VINA RESULT:    -5.499      0.000      0.000
REMARK INTER + INTRA:         -17.733
REMARK INTER:                 -14.500
REMARK INTRA:                  -3.233
REMARK UNBOUND:                -3.233
REMARK SMILES CCCCCCCCCCCCCCCCCCCCCCCCCCCCCC(=O)[O-]
REMARK SMILES IDX 16 1 17 2 18 3 19 4 20 5 21 6 22 7 23 8 24 9 25 10 26 11
REMARK SMILES IDX 27 12 28 13 29 14 30 15 31 16 32 17 15 18 14 19 13 20 12 21
REMARK SMILES IDX 11 22 10 23 9 24 8 25 7 26 6 27 5 28 4 29 3 30 2 31 1 32
REMARK H PARENT
REMARK Flexibility Score: inf
ROOT
ATOM      1  C   UNL     1      42.752   6.374 127.956  1.00  0.00     0.000 C 
ENDROOT
BRANCH   1   2
ATOM      2  C   UNL     1      42.991   5.564 126.670  1.00  0.00     0.000 C 
BRANCH   2   3
ATOM      3  C   UNL     1      44.486   5.341 126.379  1.00  0.00     0.000 C 
BRANCH   3   4
ATOM      4  C   UNL     1      45.056   6.354 125.368  1.00  0.00     0.000 C 
BRANCH   4   5
ATOM      5  C   UNL     1      45.758   7.578 125.988  1.00  0.00     0.000 C 
BRANCH   5   6
ATOM      6  C   UNL     1      47.291   7.485 125.921  1.00  0.00     0.000 C 
BRANCH   6   7
ATOM      7  C   UNL     1      47.884   8.323 124.777  1.00  0.00     0.000 C 
BRANCH   7   8
ATOM      8  C   UNL     1      46.800   9.025 123.939  1.00  0.00     0.000 C 
BRANCH   8   9
ATOM      9  C   UNL     1      47.323  10.302 123.258  1.00  0.00     0.000 C 
BRANCH   9  10
ATOM     10  C   UNL     1      46.770  11.581 123.910  1.00  0.00     0.000 C 
BRANCH  10  11
ATOM     11  C   UNL     1      45.250  11.525 124.142  1.00  0.00     0.000 C 
BRANCH  11  12
ATOM     12  C   UNL     1      44.397  11.520 122.861  1.00  0.00     0.000 C 
BRANCH  12  13
ATOM     13  C   UNL     1      44.728  12.685 121.918  1.00  0.00     0.006 C 
BRANCH  13  14
ATOM     14  C   UNL     1      44.729  12.225 120.456  1.00  0.00     0.053 C 
BRANCH  14  15
ATOM     15  C   UNL     1      46.031  12.560 119.797  1.00  0.00     0.041 C 
ATOM     16  O   UNL     1      47.118  12.197 120.320  1.00  0.00    -0.550 OA
ATOM     17  O   UNL     1      46.047  13.277 118.604  1.00  0.00    -0.550 OA
ENDBRANCH  14  15
ENDBRANCH  13  14
ENDBRANCH  12  13
ENDBRANCH  11  12
ENDBRANCH  10  11
ENDBRANCH   9  10
ENDBRANCH   8   9
ENDBRANCH   7   8
ENDBRANCH   6   7
ENDBRANCH   5   6
ENDBRANCH   4   5
ENDBRANCH   3   4
ENDBRANCH   2   3
ENDBRANCH   1   2
BRANCH   1  18
ATOM     18  C   UNL     1      43.802   6.077 129.039  1.00  0.00     0.000 C 
BRANCH  18  19
ATOM     19  C   UNL     1      44.676   7.295 129.388  1.00  0.00     0.000 C 
BRANCH  19  20
ATOM     20  C   UNL     1      46.193   7.031 129.390  1.00  0.00     0.000 C 
BRANCH  20  21
ATOM     21  C   UNL     1      46.608   5.566 129.163  1.00  0.00     0.000 C 
BRANCH  21  22
ATOM     22  C   UNL     1      47.762   5.087 130.073  1.00  0.00     0.000 C 
BRANCH  22  23
ATOM     23  C   UNL     1      47.262   4.525 131.419  1.00  0.00     0.000 C 
BRANCH  23  24
ATOM     24  C   UNL     1      45.807   4.031 131.358  1.00  0.00    -0.000 C 
BRANCH  24  25
ATOM     25  C   UNL     1      45.002   4.242 132.663  1.00  0.00    -0.000 C 
BRANCH  25  26
ATOM     26  C   UNL     1      45.846   4.183 133.953  1.00  0.00    -0.000 C 
BRANCH  26  27
ATOM     27  C   UNL     1      46.148   2.770 134.485  1.00  0.00    -0.000 C 
BRANCH  27  28
ATOM     28  C   UNL     1      45.112   2.253 135.512  1.00  0.00    -0.000 C 
BRANCH  28  29
ATOM     29  C   UNL     1      44.424   0.956 135.052  1.00  0.00    -0.000 C 
BRANCH  29  30
ATOM     30  C   UNL     1      43.132   1.212 134.253  1.00  0.00    -0.000 C 
BRANCH  30  31
ATOM     31  C   UNL     1      43.314   1.210 132.724  1.00  0.00    -0.003 C 
ATOM     32  C   UNL     1      42.345   0.270 132.005  1.00  0.00     0.004 C 
ENDBRANCH  30  31
ENDBRANCH  29  30
ENDBRANCH  28  29
ENDBRANCH  27  28
ENDBRANCH  26  27
ENDBRANCH  25  26
ENDBRANCH  24  25
ENDBRANCH  23  24
ENDBRANCH  22  23
ENDBRANCH  21  22
ENDBRANCH  20  21
ENDBRANCH  19  20
ENDBRANCH  18  19
ENDBRANCH   1  18
TORSDOF 28
ENDMDL
MODEL 2
REMARK VINA RESULT:    -5.345      1.323      2.104
REMARK INTER + INTRA:         -17.327
REMARK INTER:                 -14.051
REMARK INTRA:                  -3.277
REMARK UNBOUND:                -3.233
REMARK SMILES CCCCCCCCCCCCCCCCCCCCCCCCCCCCCC(=O)[O-]
REMARK SMILES IDX 16 1 17 2 18 3 19 4 20 5 21 6 22 7 23 8 24 9 25 10 26 11
REMARK SMILES IDX 27 12 28 13 29 14 30 15 31 16 32 17 15 18 14 19 13 20 12 21
REMARK SMILES IDX 11 22 10 23 9 24 8 25 7 26 6 27 5 28 4 29 3 30 2 31 1 32
REMARK H PARENT
REMARK Flexibility Score: inf
ROOT
ATOM      1  C   UNL     1      42.928   5.984 126.376  1.00  0.00     0.000 C 
ENDROOT
BRANCH   1   2
ATOM      2  C   UNL     1      44.375   5.634 125.989  1.00  0.00     0.000 C 
BRANCH   2   3
ATOM      3  C   UNL     1      45.118   6.816 125.341  1.00  0.00     0.000 C 
BRANCH   3   4
ATOM      4  C   UNL     1      46.173   7.443 126.271  1.00  0.00     0.000 C 
BRANCH   4   5
ATOM      5  C   UNL     1      47.466   7.912 125.578  1.00  0.00     0.000 C 
BRANCH   5   6
ATOM      6  C   UNL     1      47.271   8.201 124.080  1.00  0.00     0.000 C 
BRANCH   6   7
ATOM      7  C   UNL     1      47.875   9.549 123.656  1.00  0.00     0.000 C 
BRANCH   7   8
ATOM      8  C   UNL     1      47.002  10.745 124.078  1.00  0.00     0.000 C 
BRANCH   8   9
ATOM      9  C   UNL     1      45.499  10.461 123.910  1.00  0.00     0.000 C 
BRANCH   9  10
ATOM     10  C   UNL     1      44.685  11.743 123.663  1.00  0.00     0.000 C 
BRANCH  10  11
ATOM     11  C   UNL     1      44.408  11.997 122.171  1.00  0.00     0.000 C 
BRANCH  11  12
ATOM     12  C   UNL     1      45.410  12.935 121.475  1.00  0.00     0.000 C 
BRANCH  12  13
ATOM     13  C   UNL     1      46.003  12.333 120.193  1.00  0.00     0.006 C 
BRANCH  13  14
ATOM     14  C   UNL     1      45.659  10.844 120.075  1.00  0.00     0.053 C 
BRANCH  14  15
ATOM     15  C   UNL     1      45.599  10.427 118.639  1.00  0.00     0.041 C 
ATOM     16  O   UNL     1      44.978   9.382 118.308  1.00  0.00    -0.550 OA
ATOM     17  O   UNL     1      46.231  11.190 117.662  1.00  0.00    -0.550 OA
ENDBRANCH  14  15
ENDBRANCH  13  14
ENDBRANCH  12  13
ENDBRANCH  11  12
ENDBRANCH  10  11
ENDBRANCH   9  10
ENDBRANCH   8   9
ENDBRANCH   7   8
ENDBRANCH   6   7
ENDBRANCH   5   6
ENDBRANCH   4   5
ENDBRANCH   3   4
ENDBRANCH   2   3
ENDBRANCH   1   2
BRANCH   1  18
ATOM     18  C   UNL     1      42.693   5.911 127.894  1.00  0.00     0.000 C 
BRANCH  18  19
ATOM     19  C   UNL     1      43.254   7.126 128.654  1.00  0.00     0.000 C 
BRANCH  19  20
ATOM     20  C   UNL     1      44.535   6.855 129.465  1.00  0.00     0.000 C 
BRANCH  20  21
ATOM     21  C   UNL     1      44.888   5.370 129.663  1.00  0.00     0.000 C 
BRANCH  21  22
ATOM     22  C   UNL     1      46.118   4.899 128.854  1.00  0.00     0.000 C 
BRANCH  22  23
ATOM     23  C   UNL     1      47.452   5.280 129.526  1.00  0.00     0.000 C 
BRANCH  23  24
ATOM     24  C   UNL     1      47.931   4.230 130.543  1.00  0.00    -0.000 C 
BRANCH  24  25
ATOM     25  C   UNL     1      47.457   4.481 131.995  1.00  0.00    -0.000 C 
BRANCH  25  26
ATOM     26  C   UNL     1      46.743   3.281 132.651  1.00  0.00    -0.000 C 
BRANCH  26  27
ATOM     27  C   UNL     1      45.584   3.636 133.601  1.00  0.00    -0.000 C 
BRANCH  27  28
ATOM     28  C   UNL     1      44.227   3.015 133.191  1.00  0.00    -0.000 C 
BRANCH  28  29
ATOM     29  C   UNL     1      44.345   2.104 131.957  1.00  0.00    -0.000 C 
BRANCH  29  30
ATOM     30  C   UNL     1      44.000   0.634 132.260  1.00  0.00    -0.000 C 
BRANCH  30  31
ATOM     31  C   UNL     1      42.545   0.241 131.946  1.00  0.00    -0.003 C 
ATOM     32  C   UNL     1      41.812  -0.357 133.147  1.00  0.00     0.004 C 
ENDBRANCH  30  31
ENDBRANCH  29  30
ENDBRANCH  28  29
ENDBRANCH  27  28
ENDBRANCH  26  27
ENDBRANCH  25  26
ENDBRANCH  24  25
ENDBRANCH  23  24
ENDBRANCH  22  23
ENDBRANCH  21  22
ENDBRANCH  20  21
ENDBRANCH  19  20
ENDBRANCH  18  19
ENDBRANCH   1  18
TORSDOF 28
ENDMDL
MODEL 3
REMARK VINA RESULT:    -5.336      4.687     12.484
REMARK INTER + INTRA:         -17.304
REMARK INTER:                 -14.612
REMARK INTRA:                  -2.692
REMARK UNBOUND:                -3.233
REMARK SMILES CCCCCCCCCCCCCCCCCCCCCCCCCCCCCC(=O)[O-]
REMARK SMILES IDX 16 1 17 2 18 3 19 4 20 5 21 6 22 7 23 8 24 9 25 10 26 11
REMARK SMILES IDX 27 12 28 13 29 14 30 15 31 16 32 17 15 18 14 19 13 20 12 21
REMARK SMILES IDX 11 22 10 23 9 24 8 25 7 26 6 27 5 28 4 29 3 30 2 31 1 32
REMARK H PARENT
REMARK Flexibility Score: inf
ROOT
ATOM      1  C   UNL     1      44.927   6.514 125.666  1.00  0.00     0.000 C 
ENDROOT
BRANCH   1   2
ATOM      2  C   UNL     1      44.119   5.362 126.286  1.00  0.00     0.000 C 
BRANCH   2   3
ATOM      3  C   UNL     1      42.695   5.784 126.686  1.00  0.00     0.000 C 
BRANCH   3   4
ATOM      4  C   UNL     1      42.502   5.872 128.212  1.00  0.00     0.000 C 
BRANCH   4   5
ATOM      5  C   UNL     1      43.130   7.108 128.884  1.00  0.00     0.000 C 
BRANCH   5   6
ATOM      6  C   UNL     1      44.365   6.765 129.732  1.00  0.00     0.000 C 
BRANCH   6   7
ATOM      7  C   UNL     1      44.614   5.251 129.827  1.00  0.00     0.000 C 
BRANCH   7   8
ATOM      8  C   UNL     1      46.063   4.869 129.474  1.00  0.00     0.000 C 
BRANCH   8   9
ATOM      9  C   UNL     1      47.048   5.198 130.610  1.00  0.00     0.000 C 
BRANCH   9  10
ATOM     10  C   UNL     1      47.202   4.036 131.607  1.00  0.00     0.000 C 
BRANCH  10  11
ATOM     11  C   UNL     1      46.204   4.116 132.776  1.00  0.00     0.000 C 
BRANCH  11  12
ATOM     12  C   UNL     1      46.013   2.804 133.557  1.00  0.00     0.000 C 
BRANCH  12  13
ATOM     13  C   UNL     1      45.218   1.750 132.771  1.00  0.00     0.006 C 
BRANCH  13  14
ATOM     14  C   UNL     1      43.710   1.969 132.930  1.00  0.00     0.053 C 
BRANCH  14  15
ATOM     15  C   UNL     1      42.970   0.675 132.787  1.00  0.00     0.041 C 
ATOM     16  O   UNL     1      42.754  -0.047 133.797  1.00  0.00    -0.550 OA
ATOM     17  O   UNL     1      42.520   0.262 131.537  1.00  0.00    -0.550 OA
ENDBRANCH  14  15
ENDBRANCH  13  14
ENDBRANCH  12  13
ENDBRANCH  11  12
ENDBRANCH  10  11
ENDBRANCH   9  10
ENDBRANCH   8   9
ENDBRANCH   7   8
ENDBRANCH   6   7
ENDBRANCH   5   6
ENDBRANCH   4   5
ENDBRANCH   3   4
ENDBRANCH   2   3
ENDBRANCH   1   2
BRANCH   1  18
ATOM     18  C   UNL     1      45.931   7.126 126.657  1.00  0.00     0.000 C 
BRANCH  18  19
ATOM     19  C   UNL     1      47.198   7.674 125.978  1.00  0.00     0.000 C 
BRANCH  19  20
ATOM     20  C   UNL     1      47.002   8.171 124.533  1.00  0.00     0.000 C 
BRANCH  20  21
ATOM     21  C   UNL     1      47.931   9.319 124.098  1.00  0.00     0.000 C 
BRANCH  21  22
ATOM     22  C   UNL     1      47.230  10.423 123.276  1.00  0.00     0.000 C 
BRANCH  22  23
ATOM     23  C   UNL     1      46.703  11.575 124.156  1.00  0.00     0.000 C 
BRANCH  23  24
ATOM     24  C   UNL     1      45.169  11.675 124.154  1.00  0.00    -0.000 C 
BRANCH  24  25
ATOM     25  C   UNL     1      44.492  11.159 122.861  1.00  0.00    -0.000 C 
BRANCH  25  26
ATOM     26  C   UNL     1      44.341  12.219 121.751  1.00  0.00    -0.000 C 
BRANCH  26  27
ATOM     27  C   UNL     1      45.470  12.250 120.704  1.00  0.00    -0.000 C 
BRANCH  27  28
ATOM     28  C   UNL     1      45.773  10.872 120.070  1.00  0.00    -0.000 C 
BRANCH  28  29
ATOM     29  C   UNL     1      45.306  10.781 118.607  1.00  0.00    -0.000 C 
BRANCH  29  30
ATOM     30  C   UNL     1      46.164   9.822 117.760  1.00  0.00    -0.000 C 
BRANCH  30  31
ATOM     31  C   UNL     1      47.575  10.347 117.432  1.00  0.00    -0.003 C 
ATOM     32  C   UNL     1      47.567  11.754 116.833  1.00  0.00     0.004 C 
ENDBRANCH  30  31
ENDBRANCH  29  30
ENDBRANCH  28  29
ENDBRANCH  27  28
ENDBRANCH  26  27
ENDBRANCH  25  26
ENDBRANCH  24  25
ENDBRANCH  23  24
ENDBRANCH  22  23
ENDBRANCH  21  22
ENDBRANCH  20  21
ENDBRANCH  19  20
ENDBRANCH  18  19
ENDBRANCH   1  18
TORSDOF 28
ENDMDL
MODEL 4
REMARK VINA RESULT:    -5.331      1.072      1.809
REMARK INTER + INTRA:         -17.290
REMARK INTER:                 -14.345
REMARK INTRA:                  -2.945
REMARK UNBOUND:                -3.233
REMARK SMILES CCCCCCCCCCCCCCCCCCCCCCCCCCCCCC(=O)[O-]
REMARK SMILES IDX 16 1 17 2 18 3 19 4 20 5 21 6 22 7 23 8 24 9 25 10 26 11
REMARK SMILES IDX 27 12 28 13 29 14 30 15 31 16 32 17 15 18 14 19 13 20 12 21
REMARK SMILES IDX 11 22 10 23 9 24 8 25 7 26 6 27 5 28 4 29 3 30 2 31 1 32
REMARK H PARENT
REMARK Flexibility Score: inf
ROOT
ATOM      1  C   UNL     1      44.023   5.751 127.806  1.00  0.00     0.000 C 
ENDROOT
BRANCH   1   2
ATOM      2  C   UNL     1      44.140   7.215 128.260  1.00  0.00     0.000 C 
BRANCH   2   3
ATOM      3  C   UNL     1      45.485   7.852 127.868  1.00  0.00     0.000 C 
BRANCH   3   4
ATOM      4  C   UNL     1      45.932   7.478 126.442  1.00  0.00     0.000 C 
BRANCH   4   5
ATOM      5  C   UNL     1      47.455   7.465 126.212  1.00  0.00     0.000 C 
BRANCH   5   6
ATOM      6  C   UNL     1      47.914   8.510 125.182  1.00  0.00     0.000 C 
BRANCH   6   7
ATOM      7  C   UNL     1      47.307   8.272 123.790  1.00  0.00     0.000 C 
BRANCH   7   8
ATOM      8  C   UNL     1      46.260   9.337 123.414  1.00  0.00     0.000 C 
BRANCH   8   9
ATOM      9  C   UNL     1      46.552  10.700 124.066  1.00  0.00     0.000 C 
BRANCH   9  10
ATOM     10  C   UNL     1      45.307  11.603 124.116  1.00  0.00     0.000 C 
BRANCH  10  11
ATOM     11  C   UNL     1      44.452  11.514 122.839  1.00  0.00     0.000 C 
BRANCH  11  12
ATOM     12  C   UNL     1      44.670  12.657 121.831  1.00  0.00     0.000 C 
BRANCH  12  13
ATOM     13  C   UNL     1      44.431  12.227 120.377  1.00  0.00     0.006 C 
BRANCH  13  14
ATOM     14  C   UNL     1      45.491  11.218 119.921  1.00  0.00     0.053 C 
BRANCH  14  15
ATOM     15  C   UNL     1      46.528  11.887 119.075  1.00  0.00     0.041 C 
ATOM     16  O   UNL     1      46.840  13.089 119.286  1.00  0.00    -0.550 OA
ATOM     17  O   UNL     1      47.152  11.185 118.048  1.00  0.00    -0.550 OA
ENDBRANCH  14  15
ENDBRANCH  13  14
ENDBRANCH  12  13
ENDBRANCH  11  12
ENDBRANCH  10  11
ENDBRANCH   9  10
ENDBRANCH   8   9
ENDBRANCH   7   8
ENDBRANCH   6   7
ENDBRANCH   5   6
ENDBRANCH   4   5
ENDBRANCH   3   4
ENDBRANCH   2   3
ENDBRANCH   1   2
BRANCH   1  18
ATOM     18  C   UNL     1      44.786   4.787 128.730  1.00  0.00     0.000 C 
BRANCH  18  19
ATOM     19  C   UNL     1      46.164   4.381 128.179  1.00  0.00     0.000 C 
BRANCH  19  20
ATOM     20  C   UNL     1      47.369   4.907 128.982  1.00  0.00     0.000 C 
BRANCH  20  21
ATOM     21  C   UNL     1      47.117   5.120 130.486  1.00  0.00     0.000 C 
BRANCH  21  22
ATOM     22  C   UNL     1      47.919   4.170 131.403  1.00  0.00     0.000 C 
BRANCH  22  23
ATOM     23  C   UNL     1      47.012   3.225 132.217  1.00  0.00     0.000 C 
BRANCH  23  24
ATOM     24  C   UNL     1      45.874   3.964 132.940  1.00  0.00    -0.000 C 
BRANCH  24  25
ATOM     25  C   UNL     1      45.932   3.879 134.485  1.00  0.00    -0.000 C 
BRANCH  25  26
ATOM     26  C   UNL     1      46.026   2.444 135.043  1.00  0.00    -0.000 C 
BRANCH  26  27
ATOM     27  C   UNL     1      44.791   1.950 135.819  1.00  0.00    -0.000 C 
BRANCH  27  28
ATOM     28  C   UNL     1      43.759   1.203 134.941  1.00  0.00    -0.000 C 
BRANCH  28  29
ATOM     29  C   UNL     1      44.389   0.044 134.149  1.00  0.00    -0.000 C 
BRANCH  29  30
ATOM     30  C   UNL     1      44.625   0.386 132.667  1.00  0.00    -0.000 C 
BRANCH  30  31
ATOM     31  C   UNL     1      43.443   1.091 131.976  1.00  0.00    -0.003 C 
ATOM     32  C   UNL     1      42.176   0.235 131.935  1.00  0.00     0.004 C 
ENDBRANCH  30  31
ENDBRANCH  29  30
ENDBRANCH  28  29
ENDBRANCH  27  28
ENDBRANCH  26  27
ENDBRANCH  25  26
ENDBRANCH  24  25
ENDBRANCH  23  24
ENDBRANCH  22  23
ENDBRANCH  21  22
ENDBRANCH  20  21
ENDBRANCH  19  20
ENDBRANCH  18  19
ENDBRANCH   1  18
TORSDOF 28
ENDMDL
MODEL 5
REMARK VINA RESULT:    -5.290      2.327      4.439
REMARK INTER + INTRA:         -17.182
REMARK INTER:                 -15.062
REMARK INTRA:                  -2.120
REMARK UNBOUND:                -3.233
REMARK SMILES CCCCCCCCCCCCCCCCCCCCCCCCCCCCCC(=O)[O-]
REMARK SMILES IDX 16 1 17 2 18 3 19 4 20 5 21 6 22 7 23 8 24 9 25 10 26 11
REMARK SMILES IDX 27 12 28 13 29 14 30 15 31 16 32 17 15 18 14 19 13 20 12 21
REMARK SMILES IDX 11 22 10 23 9 24 8 25 7 26 6 27 5 28 4 29 3 30 2 31 1 32
REMARK H PARENT
REMARK Flexibility Score: inf
ROOT
ATOM      1  C   UNL     1      47.089   8.267 125.040  1.00  0.00     0.000 C 
ENDROOT
BRANCH   1   2
ATOM      2  C   UNL     1      47.751   8.431 123.662  1.00  0.00     0.000 C 
BRANCH   2   3
ATOM      3  C   UNL     1      47.622   9.861 123.108  1.00  0.00     0.000 C 
BRANCH   3   4
ATOM      4  C   UNL     1      46.363  10.589 123.616  1.00  0.00     0.000 C 
BRANCH   4   5
ATOM      5  C   UNL     1      45.101  10.401 122.753  1.00  0.00     0.000 C 
BRANCH   5   6
ATOM      6  C   UNL     1      44.254  11.680 122.646  1.00  0.00     0.000 C 
BRANCH   6   7
ATOM      7  C   UNL     1      44.345  12.333 121.258  1.00  0.00     0.000 C 
BRANCH   7   8
ATOM      8  C   UNL     1      45.796  12.460 120.759  1.00  0.00     0.000 C 
BRANCH   8   9
ATOM      9  C   UNL     1      45.960  11.980 119.307  1.00  0.00     0.000 C 
BRANCH   9  10
ATOM     10  C   UNL     1      46.368  10.499 119.221  1.00  0.00     0.000 C 
BRANCH  10  11
ATOM     11  C   UNL     1      46.719  10.057 117.789  1.00  0.00     0.000 C 
BRANCH  11  12
ATOM     12  C   UNL     1      45.711  10.491 116.710  1.00  0.00     0.000 C 
BRANCH  12  13
ATOM     13  C   UNL     1      44.431   9.642 116.713  1.00  0.00     0.006 C 
BRANCH  13  14
ATOM     14  C   UNL     1      43.300  10.352 115.961  1.00  0.00     0.053 C 
BRANCH  14  15
ATOM     15  C   UNL     1      42.246  10.824 116.914  1.00  0.00     0.041 C 
ATOM     16  O   UNL     1      41.119  10.261 116.942  1.00  0.00    -0.550 OA
ATOM     17  O   UNL     1      42.505  11.888 117.772  1.00  0.00    -0.550 OA
ENDBRANCH  14  15
ENDBRANCH  13  14
ENDBRANCH  12  13
ENDBRANCH  11  12
ENDBRANCH  10  11
ENDBRANCH   9  10
ENDBRANCH   8   9
ENDBRANCH   7   8
ENDBRANCH   6   7
ENDBRANCH   5   6
ENDBRANCH   4   5
ENDBRANCH   3   4
ENDBRANCH   2   3
ENDBRANCH   1   2
BRANCH   1  18
ATOM     18  C   UNL     1      48.041   7.653 126.079  1.00  0.00     0.000 C 
BRANCH  18  19
ATOM     19  C   UNL     1      47.314   7.111 127.323  1.00  0.00     0.000 C 
BRANCH  19  20
ATOM     20  C   UNL     1      45.780   7.039 127.203  1.00  0.00     0.000 C 
BRANCH  20  21
ATOM     21  C   UNL     1      45.018   6.932 128.537  1.00  0.00     0.000 C 
BRANCH  21  22
ATOM     22  C   UNL     1      44.530   5.505 128.874  1.00  0.00     0.000 C 
BRANCH  22  23
ATOM     23  C   UNL     1      45.214   4.924 130.128  1.00  0.00     0.000 C 
BRANCH  23  24
ATOM     24  C   UNL     1      46.742   4.833 129.988  1.00  0.00    -0.000 C 
BRANCH  24  25
ATOM     25  C   UNL     1      47.484   4.443 131.290  1.00  0.00    -0.000 C 
BRANCH  25  26
ATOM     26  C   UNL     1      46.572   4.282 132.523  1.00  0.00    -0.000 C 
BRANCH  26  27
ATOM     27  C   UNL     1      46.554   2.880 133.159  1.00  0.00    -0.000 C 
BRANCH  27  28
ATOM     28  C   UNL     1      45.535   2.729 134.313  1.00  0.00    -0.000 C 
BRANCH  28  29
ATOM     29  C   UNL     1      44.436   1.700 133.997  1.00  0.00    -0.000 C 
BRANCH  29  30
ATOM     30  C   UNL     1      43.817   1.890 132.600  1.00  0.00    -0.000 C 
BRANCH  30  31
ATOM     31  C   UNL     1      43.409   0.582 131.898  1.00  0.00    -0.003 C 
ATOM     32  C   UNL     1      42.023   0.085 132.313  1.00  0.00     0.004 C 
ENDBRANCH  30  31
ENDBRANCH  29  30
ENDBRANCH  28  29
ENDBRANCH  27  28
ENDBRANCH  26  27
ENDBRANCH  25  26
ENDBRANCH  24  25
ENDBRANCH  23  24
ENDBRANCH  22  23
ENDBRANCH  21  22
ENDBRANCH  20  21
ENDBRANCH  19  20
ENDBRANCH  18  19
ENDBRANCH   1  18
TORSDOF 28
ENDMDL
MODEL 6
REMARK VINA RESULT:    -5.246      4.660     12.317
REMARK INTER + INTRA:         -17.066
REMARK INTER:                 -14.868
REMARK INTRA:                  -2.198
REMARK UNBOUND:                -3.233
REMARK SMILES CCCCCCCCCCCCCCCCCCCCCCCCCCCCCC(=O)[O-]
REMARK SMILES IDX 16 1 17 2 18 3 19 4 20 5 21 6 22 7 23 8 24 9 25 10 26 11
REMARK SMILES IDX 27 12 28 13 29 14 30 15 31 16 32 17 15 18 14 19 13 20 12 21
REMARK SMILES IDX 11 22 10 23 9 24 8 25 7 26 6 27 5 28 4 29 3 30 2 31 1 32
REMARK H PARENT
REMARK Flexibility Score: inf
ROOT
ATOM      1  C   UNL     1      43.015   5.716 126.499  1.00  0.00     0.000 C 
ENDROOT
BRANCH   1   2
ATOM      2  C   UNL     1      42.465   5.985 127.909  1.00  0.00     0.000 C 
BRANCH   2   3
ATOM      3  C   UNL     1      43.415   6.844 128.763  1.00  0.00     0.000 C 
BRANCH   3   4
ATOM      4  C   UNL     1      44.240   6.011 129.761  1.00  0.00     0.000 C 
BRANCH   4   5
ATOM      5  C   UNL     1      45.765   6.213 129.684  1.00  0.00     0.000 C 
BRANCH   5   6
ATOM      6  C   UNL     1      46.545   4.888 129.689  1.00  0.00     0.000 C 
BRANCH   6   7
ATOM      7  C   UNL     1      47.605   4.831 130.801  1.00  0.00     0.000 C 
BRANCH   7   8
ATOM      8  C   UNL     1      47.302   3.744 131.848  1.00  0.00     0.000 C 
BRANCH   8   9
ATOM      9  C   UNL     1      45.843   3.791 132.336  1.00  0.00     0.000 C 
BRANCH   9  10
ATOM     10  C   UNL     1      45.739   4.115 133.837  1.00  0.00     0.000 C 
BRANCH  10  11
ATOM     11  C   UNL     1      46.127   2.926 134.734  1.00  0.00     0.000 C 
BRANCH  11  12
ATOM     12  C   UNL     1      44.943   2.102 135.269  1.00  0.00     0.000 C 
BRANCH  12  13
ATOM     13  C   UNL     1      44.470   1.024 134.282  1.00  0.00     0.006 C 
BRANCH  13  14
ATOM     14  C   UNL     1      43.158   1.436 133.606  1.00  0.00     0.053 C 
BRANCH  14  15
ATOM     15  C   UNL     1      42.631   0.324 132.753  1.00  0.00     0.041 C 
ATOM     16  O   UNL     1      42.829   0.332 131.509  1.00  0.00    -0.550 OA
ATOM     17  O   UNL     1      41.916  -0.721 133.330  1.00  0.00    -0.550 OA
ENDBRANCH  14  15
ENDBRANCH  13  14
ENDBRANCH  12  13
ENDBRANCH  11  12
ENDBRANCH  10  11
ENDBRANCH   9  10
ENDBRANCH   8   9
ENDBRANCH   7   8
ENDBRANCH   6   7
ENDBRANCH   5   6
ENDBRANCH   4   5
ENDBRANCH   3   4
ENDBRANCH   2   3
ENDBRANCH   1   2
BRANCH   1  18
ATOM     18  C   UNL     1      44.544   5.549 126.488  1.00  0.00     0.000 C 
BRANCH  18  19
ATOM     19  C   UNL     1      45.271   6.661 125.712  1.00  0.00     0.000 C 
BRANCH  19  20
ATOM     20  C   UNL     1      46.225   7.529 126.554  1.00  0.00     0.000 C 
BRANCH  20  21
ATOM     21  C   UNL     1      47.697   7.519 126.104  1.00  0.00     0.000 C 
BRANCH  21  22
ATOM     22  C   UNL     1      48.082   8.690 125.172  1.00  0.00     0.000 C 
BRANCH  22  23
ATOM     23  C   UNL     1      47.555   8.503 123.735  1.00  0.00     0.000 C 
BRANCH  23  24
ATOM     24  C   UNL     1      46.392   9.450 123.396  1.00  0.00    -0.000 C 
BRANCH  24  25
ATOM     25  C   UNL     1      46.364  10.756 124.226  1.00  0.00    -0.000 C 
BRANCH  25  26
ATOM     26  C   UNL     1      45.278  11.764 123.797  1.00  0.00    -0.000 C 
BRANCH  26  27
ATOM     27  C   UNL     1      44.334  11.288 122.678  1.00  0.00    -0.000 C 
BRANCH  27  28
ATOM     28  C   UNL     1      44.640  11.910 121.295  1.00  0.00    -0.000 C 
BRANCH  28  29
ATOM     29  C   UNL     1      45.562  11.023 120.441  1.00  0.00    -0.000 C 
BRANCH  29  30
ATOM     30  C   UNL     1      45.252  11.107 118.935  1.00  0.00    -0.000 C 
BRANCH  30  31
ATOM     31  C   UNL     1      45.055   9.745 118.245  1.00  0.00    -0.003 C 
ATOM     32  C   UNL     1      45.071   9.837 116.719  1.00  0.00     0.004 C 
ENDBRANCH  30  31
ENDBRANCH  29  30
ENDBRANCH  28  29
ENDBRANCH  27  28
ENDBRANCH  26  27
ENDBRANCH  25  26
ENDBRANCH  24  25
ENDBRANCH  23  24
ENDBRANCH  22  23
ENDBRANCH  21  22
ENDBRANCH  20  21
ENDBRANCH  19  20
ENDBRANCH  18  19
ENDBRANCH   1  18
TORSDOF 28
ENDMDL
MODEL 7
REMARK VINA RESULT:    -5.161      4.649     11.648
REMARK INTER + INTRA:         -16.842
REMARK INTER:                 -13.832
REMARK INTRA:                  -3.010
REMARK UNBOUND:                -3.233
REMARK SMILES CCCCCCCCCCCCCCCCCCCCCCCCCCCCCC(=O)[O-]
REMARK SMILES IDX 16 1 17 2 18 3 19 4 20 5 21 6 22 7 23 8 24 9 25 10 26 11
REMARK SMILES IDX 27 12 28 13 29 14 30 15 31 16 32 17 15 18 14 19 13 20 12 21
REMARK SMILES IDX 11 22 10 23 9 24 8 25 7 26 6 27 5 28 4 29 3 30 2 31 1 32
REMARK H PARENT
REMARK Flexibility Score: inf
ROOT
ATOM      1  C   UNL     1      43.909   7.874 129.138  1.00  0.00     0.000 C 
ENDROOT
BRANCH   1   2
ATOM      2  C   UNL     1      43.260   6.487 129.009  1.00  0.00     0.000 C 
BRANCH   2   3
ATOM      3  C   UNL     1      42.273   6.400 127.831  1.00  0.00     0.000 C 
BRANCH   3   4
ATOM      4  C   UNL     1      42.741   5.432 126.728  1.00  0.00     0.000 C 
BRANCH   4   5
ATOM      5  C   UNL     1      44.260   5.402 126.479  1.00  0.00     0.000 C 
BRANCH   5   6
ATOM      6  C   UNL     1      44.930   4.125 127.013  1.00  0.00     0.000 C 
BRANCH   6   7
ATOM      7  C   UNL     1      46.206   4.420 127.817  1.00  0.00     0.000 C 
BRANCH   7   8
ATOM      8  C   UNL     1      45.958   4.419 129.337  1.00  0.00     0.000 C 
BRANCH   8   9
ATOM      9  C   UNL     1      47.253   4.627 130.141  1.00  0.00     0.000 C 
BRANCH   9  10
ATOM     10  C   UNL     1      46.991   4.743 131.653  1.00  0.00     0.000 C 
BRANCH  10  11
ATOM     11  C   UNL     1      46.895   3.373 132.350  1.00  0.00     0.000 C 
BRANCH  11  12
ATOM     12  C   UNL     1      46.323   3.410 133.778  1.00  0.00     0.000 C 
BRANCH  12  13
ATOM     13  C   UNL     1      44.893   2.858 133.864  1.00  0.00     0.006 C 
BRANCH  13  14
ATOM     14  C   UNL     1      44.397   2.401 132.488  1.00  0.00     0.053 C 
BRANCH  14  15
ATOM     15  C   UNL     1      43.831   1.017 132.562  1.00  0.00     0.041 C 
ATOM     16  O   UNL     1      44.467   0.046 132.074  1.00  0.00    -0.550 OA
ATOM     17  O   UNL     1      42.598   0.798 133.168  1.00  0.00    -0.550 OA
ENDBRANCH  14  15
ENDBRANCH  13  14
ENDBRANCH  12  13
ENDBRANCH  11  12
ENDBRANCH  10  11
ENDBRANCH   9  10
ENDBRANCH   8   9
ENDBRANCH   7   8
ENDBRANCH   6   7
ENDBRANCH   5   6
ENDBRANCH   4   5
ENDBRANCH   3   4
ENDBRANCH   2   3
ENDBRANCH   1   2
BRANCH   1  18
ATOM     18  C   UNL     1      45.445   7.807 129.124  1.00  0.00     0.000 C 
BRANCH  18  19
ATOM     19  C   UNL     1      46.043   7.866 127.707  1.00  0.00     0.000 C 
BRANCH  19  20
ATOM     20  C   UNL     1      47.566   7.648 127.632  1.00  0.00     0.000 C 
BRANCH  20  21
ATOM     21  C   UNL     1      48.123   7.360 126.226  1.00  0.00     0.000 C 
BRANCH  21  22
ATOM     22  C   UNL     1      48.109   8.580 125.278  1.00  0.00     0.000 C 
BRANCH  22  23
ATOM     23  C   UNL     1      47.440   8.272 123.923  1.00  0.00     0.000 C 
BRANCH  23  24
ATOM     24  C   UNL     1      46.279   9.227 123.599  1.00  0.00    -0.000 C 
BRANCH  24  25
ATOM     25  C   UNL     1      46.532  10.703 123.991  1.00  0.00    -0.000 C 
BRANCH  25  26
ATOM     26  C   UNL     1      45.256  11.559 124.122  1.00  0.00    -0.000 C 
BRANCH  26  27
ATOM     27  C   UNL     1      44.360  11.612 122.871  1.00  0.00    -0.000 C 
BRANCH  27  28
ATOM     28  C   UNL     1      44.843  12.618 121.798  1.00  0.00    -0.000 C 
BRANCH  28  29
ATOM     29  C   UNL     1      44.737  12.052 120.371  1.00  0.00    -0.000 C 
BRANCH  29  30
ATOM     30  C   UNL     1      45.815  10.998 120.060  1.00  0.00    -0.000 C 
BRANCH  30  31
ATOM     31  C   UNL     1      45.473  10.059 118.889  1.00  0.00    -0.003 C 
ATOM     32  C   UNL     1      46.371  10.269 117.669  1.00  0.00     0.004 C 
ENDBRANCH  30  31
ENDBRANCH  29  30
ENDBRANCH  28  29
ENDBRANCH  27  28
ENDBRANCH  26  27
ENDBRANCH  25  26
ENDBRANCH  24  25
ENDBRANCH  23  24
ENDBRANCH  22  23
ENDBRANCH  21  22
ENDBRANCH  20  21
ENDBRANCH  19  20
ENDBRANCH  18  19
ENDBRANCH   1  18
TORSDOF 28
ENDMDL
MODEL 8
REMARK VINA RESULT:    -5.137      2.169      3.509
REMARK INTER + INTRA:         -16.779
REMARK INTER:                 -14.531
REMARK INTRA:                  -2.249
REMARK UNBOUND:                -3.233
REMARK SMILES CCCCCCCCCCCCCCCCCCCCCCCCCCCCCC(=O)[O-]
REMARK SMILES IDX 16 1 17 2 18 3 19 4 20 5 21 6 22 7 23 8 24 9 25 10 26 11
REMARK SMILES IDX 27 12 28 13 29 14 30 15 31 16 32 17 15 18 14 19 13 20 12 21
REMARK SMILES IDX 11 22 10 23 9 24 8 25 7 26 6 27 5 28 4 29 3 30 2 31 1 32
REMARK H PARENT
REMARK Flexibility Score: inf
ROOT
ATOM      1  C   UNL     1      45.673   7.135 127.384  1.00  0.00     0.000 C 
ENDROOT
BRANCH   1   2
ATOM      2  C   UNL     1      46.134   7.487 125.960  1.00  0.00     0.000 C 
BRANCH   2   3
ATOM      3  C   UNL     1      47.650   7.738 125.872  1.00  0.00     0.000 C 
BRANCH   3   4
ATOM      4  C   UNL     1      48.070   8.412 124.553  1.00  0.00     0.000 C 
BRANCH   4   5
ATOM      5  C   UNL     1      47.751   9.916 124.452  1.00  0.00     0.000 C 
BRANCH   5   6
ATOM      6  C   UNL     1      47.162  10.312 123.088  1.00  0.00     0.000 C 
BRANCH   6   7
ATOM      7  C   UNL     1      45.653  10.034 122.993  1.00  0.00     0.000 C 
BRANCH   7   8
ATOM      8  C   UNL     1      44.877  11.204 122.361  1.00  0.00     0.000 C 
BRANCH   8   9
ATOM      9  C   UNL     1      45.658  11.873 121.216  1.00  0.00     0.000 C 
BRANCH   9  10
ATOM     10  C   UNL     1      45.337  11.250 119.846  1.00  0.00     0.000 C 
BRANCH  10  11
ATOM     11  C   UNL     1      46.534  10.500 119.235  1.00  0.00     0.000 C 
BRANCH  11  12
ATOM     12  C   UNL     1      46.301   9.951 117.816  1.00  0.00     0.000 C 
BRANCH  12  13
ATOM     13  C   UNL     1      44.975   9.189 117.681  1.00  0.00     0.006 C 
BRANCH  13  14
ATOM     14  C   UNL     1      44.336   9.439 116.310  1.00  0.00     0.053 C 
BRANCH  14  15
ATOM     15  C   UNL     1      43.322  10.537 116.391  1.00  0.00     0.041 C 
ATOM     16  O   UNL     1      42.133  10.278 116.718  1.00  0.00    -0.550 OA
ATOM     17  O   UNL     1      43.686  11.848 116.103  1.00  0.00    -0.550 OA
ENDBRANCH  14  15
ENDBRANCH  13  14
ENDBRANCH  12  13
ENDBRANCH  11  12
ENDBRANCH  10  11
ENDBRANCH   9  10
ENDBRANCH   8   9
ENDBRANCH   7   8
ENDBRANCH   6   7
ENDBRANCH   5   6
ENDBRANCH   4   5
ENDBRANCH   3   4
ENDBRANCH   2   3
ENDBRANCH   1   2
BRANCH   1  18
ATOM     18  C   UNL     1      45.313   5.648 127.533  1.00  0.00     0.000 C 
BRANCH  18  19
ATOM     19  C   UNL     1      46.467   4.796 128.091  1.00  0.00     0.000 C 
BRANCH  19  20
ATOM     20  C   UNL     1      47.501   5.569 128.932  1.00  0.00     0.000 C 
BRANCH  20  21
ATOM     21  C   UNL     1      47.386   5.382 130.456  1.00  0.00     0.000 C 
BRANCH  21  22
ATOM     22  C   UNL     1      48.040   4.086 130.984  1.00  0.00     0.000 C 
BRANCH  22  23
ATOM     23  C   UNL     1      47.130   3.318 131.964  1.00  0.00     0.000 C 
BRANCH  23  24
ATOM     24  C   UNL     1      46.167   4.238 132.732  1.00  0.00    -0.000 C 
BRANCH  24  25
ATOM     25  C   UNL     1      45.973   3.865 134.222  1.00  0.00    -0.000 C 
BRANCH  25  26
ATOM     26  C   UNL     1      45.752   2.361 134.482  1.00  0.00    -0.000 C 
BRANCH  26  27
ATOM     27  C   UNL     1      44.299   1.943 134.774  1.00  0.00    -0.000 C 
BRANCH  27  28
ATOM     28  C   UNL     1      43.362   2.042 133.547  1.00  0.00    -0.000 C 
BRANCH  28  29
ATOM     29  C   UNL     1      43.905   1.276 132.328  1.00  0.00    -0.000 C 
BRANCH  29  30
ATOM     30  C   UNL     1      42.895   0.265 131.755  1.00  0.00    -0.000 C 
BRANCH  30  31
ATOM     31  C   UNL     1      41.714  -0.059 132.688  1.00  0.00    -0.003 C 
ATOM     32  C   UNL     1      42.042  -1.139 133.720  1.00  0.00     0.004 C 
ENDBRANCH  30  31
ENDBRANCH  29  30
ENDBRANCH  28  29
ENDBRANCH  27  28
ENDBRANCH  26  27
ENDBRANCH  25  26
ENDBRANCH  24  25
ENDBRANCH  23  24
ENDBRANCH  22  23
ENDBRANCH  21  22
ENDBRANCH  20  21
ENDBRANCH  19  20
ENDBRANCH  18  19
ENDBRANCH   1  18
TORSDOF 28
ENDMDL
MODEL 9
REMARK VINA RESULT:    -5.069      1.720      2.397
REMARK INTER + INTRA:         -16.598
REMARK INTER:                 -13.883
REMARK INTRA:                  -2.715
REMARK UNBOUND:                -3.233
REMARK SMILES CCCCCCCCCCCCCCCCCCCCCCCCCCCCCC(=O)[O-]
REMARK SMILES IDX 16 1 17 2 18 3 19 4 20 5 21 6 22 7 23 8 24 9 25 10 26 11
REMARK SMILES IDX 27 12 28 13 29 14 30 15 31 16 32 17 15 18 14 19 13 20 12 21
REMARK SMILES IDX 11 22 10 23 9 24 8 25 7 26 6 27 5 28 4 29 3 30 2 31 1 32
REMARK H PARENT
REMARK Flexibility Score: inf
ROOT
ATOM      1  C   UNL     1      43.704   6.619 128.553  1.00  0.00     0.000 C 
ENDROOT
BRANCH   1   2
ATOM      2  C   UNL     1      43.693   5.694 127.325  1.00  0.00     0.000 C 
BRANCH   2   3
ATOM      3  C   UNL     1      44.783   6.054 126.300  1.00  0.00     0.000 C 
BRANCH   3   4
ATOM      4  C   UNL     1      45.686   7.212 126.768  1.00  0.00     0.000 C 
BRANCH   4   5
ATOM      5  C   UNL     1      47.181   7.056 126.434  1.00  0.00     0.000 C 
BRANCH   5   6
ATOM      6  C   UNL     1      47.757   8.270 125.686  1.00  0.00     0.000 C 
BRANCH   6   7
ATOM      7  C   UNL     1      47.448   8.236 124.181  1.00  0.00     0.000 C 
BRANCH   7   8
ATOM      8  C   UNL     1      46.253   9.131 123.804  1.00  0.00     0.000 C 
BRANCH   8   9
ATOM      9  C   UNL     1      46.555  10.626 124.005  1.00  0.00     0.000 C 
BRANCH   9  10
ATOM     10  C   UNL     1      45.274  11.473 124.108  1.00  0.00     0.000 C 
BRANCH  10  11
ATOM     11  C   UNL     1      44.436  11.449 122.818  1.00  0.00     0.000 C 
BRANCH  11  12
ATOM     12  C   UNL     1      44.692  12.621 121.854  1.00  0.00     0.000 C 
BRANCH  12  13
ATOM     13  C   UNL     1      45.710  12.281 120.756  1.00  0.00     0.006 C 
BRANCH  13  14
ATOM     14  C   UNL     1      45.602  10.809 120.344  1.00  0.00     0.053 C 
BRANCH  14  15
ATOM     15  C   UNL     1      45.356  10.688 118.872  1.00  0.00     0.041 C 
ATOM     16  O   UNL     1      45.195  11.722 118.170  1.00  0.00    -0.550 OA
ATOM     17  O   UNL     1      45.299   9.434 118.273  1.00  0.00    -0.550 OA
ENDBRANCH  14  15
ENDBRANCH  13  14
ENDBRANCH  12  13
ENDBRANCH  11  12
ENDBRANCH  10  11
ENDBRANCH   9  10
ENDBRANCH   8   9
ENDBRANCH   7   8
ENDBRANCH   6   7
ENDBRANCH   5   6
ENDBRANCH   4   5
ENDBRANCH   3   4
ENDBRANCH   2   3
ENDBRANCH   1   2
BRANCH   1  18
ATOM     18  C   UNL     1      43.993   5.857 129.858  1.00  0.00     0.000 C 
BRANCH  18  19
ATOM     19  C   UNL     1      45.208   4.918 129.758  1.00  0.00     0.000 C 
BRANCH  19  20
ATOM     20  C   UNL     1      46.575   5.595 129.972  1.00  0.00     0.000 C 
BRANCH  20  21
ATOM     21  C   UNL     1      47.678   4.687 130.545  1.00  0.00     0.000 C 
BRANCH  21  22
ATOM     22  C   UNL     1      47.193   3.723 131.651  1.00  0.00     0.000 C 
BRANCH  22  23
ATOM     23  C   UNL     1      46.816   4.457 132.954  1.00  0.00     0.000 C 
BRANCH  23  24
ATOM     24  C   UNL     1      45.445   4.031 133.505  1.00  0.00    -0.000 C 
BRANCH  24  25
ATOM     25  C   UNL     1      45.095   2.541 133.277  1.00  0.00    -0.000 C 
BRANCH  25  26
ATOM     26  C   UNL     1      43.945   2.298 132.277  1.00  0.00    -0.000 C 
BRANCH  26  27
ATOM     27  C   UNL     1      43.644   0.823 131.956  1.00  0.00    -0.000 C 
BRANCH  27  28
ATOM     28  C   UNL     1      43.281  -0.026 133.197  1.00  0.00    -0.000 C 
BRANCH  28  29
ATOM     29  C   UNL     1      41.811  -0.479 133.192  1.00  0.00    -0.000 C 
BRANCH  29  30
ATOM     30  C   UNL     1      41.183  -0.500 134.598  1.00  0.00    -0.000 C 
BRANCH  30  31
ATOM     31  C   UNL     1      40.555  -1.848 134.997  1.00  0.00    -0.003 C 
ATOM     32  C   UNL     1      39.174  -2.073 134.382  1.00  0.00     0.004 C 
ENDBRANCH  30  31
ENDBRANCH  29  30
ENDBRANCH  28  29
ENDBRANCH  27  28
ENDBRANCH  26  27
ENDBRANCH  25  26
ENDBRANCH  24  25
ENDBRANCH  23  24
ENDBRANCH  22  23
ENDBRANCH  21  22
ENDBRANCH  20  21
ENDBRANCH  19  20
ENDBRANCH  18  19
ENDBRANCH   1  18
TORSDOF 28
ENDMDL
