MODEL 1
REMARK VINA RESULT:    -5.323      0.000      0.000
REMARK INTER + INTRA:          -6.281
REMARK INTER:                  -6.101
REMARK INTRA:                  -0.180
REMARK UNBOUND:                -0.180
REMARK SMILES CC=Cc1ccc(O)c(OC)c1
REMARK SMILES IDX 4 1 12 2 9 3 7 4 6 5 5 6 3 7 1 8 2 9 10 10 11 11 8 12
REMARK H PARENT 8 13
REMARK Flexibility Score: inf
ROOT
ATOM      1  C   UNL     1     -11.791  -7.967  39.256  1.00  0.00    -0.022 A 
ATOM      2  C   UNL     1     -12.755  -6.957  39.407  1.00  0.00     0.058 A 
ATOM      3  C   UNL     1     -13.515  -6.508  38.308  1.00  0.00     0.161 A 
ATOM      4  C   UNL     1     -13.290  -7.078  37.042  1.00  0.00     0.157 A 
ATOM      5  C   UNL     1     -12.322  -8.073  36.885  1.00  0.00     0.051 A 
ATOM      6  C   UNL     1     -11.574  -8.513  37.977  1.00  0.00     0.012 A 
ENDROOT
BRANCH   1   7
ATOM      7  C   UNL     1     -11.015  -8.392  40.447  1.00  0.00     0.003 C 
ATOM      8  C   UNL     1      -9.544  -9.881  41.748  1.00  0.00     0.035 C 
ATOM      9  C   UNL     1     -10.287  -9.515  40.503  1.00  0.00    -0.030 C 
ENDBRANCH   1   7
BRANCH   3  10
ATOM     10  O   UNL     1     -14.490  -5.506  38.435  1.00  0.00    -0.493 OA
ATOM     11  C   UNL     1     -15.822  -5.727  38.887  1.00  0.00     0.278 C 
ENDBRANCH   3  10
BRANCH   4  12
ATOM     12  O   UNL     1     -14.019  -6.666  35.927  1.00  0.00    -0.504 OA
ATOM     13  H   UNL     1     -13.802  -5.814  35.423  1.00  0.00     0.293 HD
ENDBRANCH   4  12
TORSDOF 3
ENDMDL
MODEL 2
REMARK VINA RESULT:    -5.292      3.146      5.390
REMARK INTER + INTRA:          -6.246
REMARK INTER:                  -6.072
REMARK INTRA:                  -0.173
REMARK UNBOUND:                -0.180
REMARK SMILES CC=Cc1ccc(O)c(OC)c1
REMARK SMILES IDX 4 1 12 2 9 3 7 4 6 5 5 6 3 7 1 8 2 9 10 10 11 11 8 12
REMARK H PARENT 8 13
REMARK Flexibility Score: inf
ROOT
ATOM      1  C   UNL     1     -11.720  -8.145  38.127  1.00  0.00    -0.022 A 
ATOM      2  C   UNL     1     -11.072  -8.231  36.884  1.00  0.00     0.058 A 
ATOM      3  C   UNL     1      -9.957  -9.074  36.705  1.00  0.00     0.161 A 
ATOM      4  C   UNL     1      -9.485  -9.828  37.794  1.00  0.00     0.157 A 
ATOM      5  C   UNL     1     -10.117  -9.733  39.036  1.00  0.00     0.051 A 
ATOM      6  C   UNL     1     -11.222  -8.897  39.207  1.00  0.00     0.012 A 
ENDROOT
BRANCH   1   7
ATOM      7  C   UNL     1     -12.883  -7.233  38.260  1.00  0.00     0.003 C 
ATOM      8  C   UNL     1     -14.790  -5.901  37.447  1.00  0.00     0.035 C 
ATOM      9  C   UNL     1     -13.642  -6.835  37.232  1.00  0.00    -0.030 C 
ENDBRANCH   1   7
BRANCH   3  10
ATOM     10  O   UNL     1      -9.298  -9.185  35.470  1.00  0.00    -0.493 OA
ATOM     11  C   UNL     1      -8.364  -8.237  34.964  1.00  0.00     0.278 C 
ENDBRANCH   3  10
BRANCH   4  12
ATOM     12  O   UNL     1      -8.386 -10.676  37.662  1.00  0.00    -0.504 OA
ATOM     13  H   UNL     1      -8.260 -11.276  36.856  1.00  0.00     0.293 HD
ENDBRANCH   4  12
TORSDOF 3
ENDMDL
MODEL 3
REMARK VINA RESULT:    -5.196      2.256      3.046
REMARK INTER + INTRA:          -6.136
REMARK INTER:                  -5.973
REMARK INTRA:                  -0.163
REMARK UNBOUND:                -0.180
REMARK SMILES CC=Cc1ccc(O)c(OC)c1
REMARK SMILES IDX 4 1 12 2 9 3 7 4 6 5 5 6 3 7 1 8 2 9 10 10 11 11 8 12
REMARK H PARENT 8 13
REMARK Flexibility Score: inf
ROOT
ATOM      1  C   UNL     1     -12.887  -7.245  37.758  1.00  0.00    -0.022 A 
ATOM      2  C   UNL     1     -12.968  -6.922  39.122  1.00  0.00     0.058 A 
ATOM      3  C   UNL     1     -14.052  -6.175  39.627  1.00  0.00     0.161 A 
ATOM      4  C   UNL     1     -15.056  -5.741  38.744  1.00  0.00     0.157 A 
ATOM      5  C   UNL     1     -14.971  -6.047  37.384  1.00  0.00     0.051 A 
ATOM      6  C   UNL     1     -13.896  -6.788  36.890  1.00  0.00     0.012 A 
ENDROOT
BRANCH   1   7
ATOM      7  C   UNL     1     -11.719  -8.026  37.281  1.00  0.00     0.003 C 
ATOM      8  C   UNL     1     -10.069  -9.855  37.346  1.00  0.00     0.035 C 
ATOM      9  C   UNL     1     -11.264  -9.133  37.881  1.00  0.00    -0.030 C 
ENDBRANCH   1   7
BRANCH   3  10
ATOM     10  O   UNL     1     -14.160  -5.846  40.988  1.00  0.00    -0.493 OA
ATOM     11  C   UNL     1     -13.593  -4.686  41.587  1.00  0.00     0.278 C 
ENDBRANCH   3  10
BRANCH   4  12
ATOM     12  O   UNL     1     -16.146  -5.000  39.200  1.00  0.00    -0.504 OA
ATOM     13  H   UNL     1     -17.061  -5.064  38.769  1.00  0.00     0.293 HD
ENDBRANCH   4  12
TORSDOF 3
ENDMDL
MODEL 4
REMARK VINA RESULT:    -5.118      3.166      5.172
REMARK INTER + INTRA:          -6.047
REMARK INTER:                  -5.881
REMARK INTRA:                  -0.165
REMARK UNBOUND:                -0.180
REMARK SMILES CC=Cc1ccc(O)c(OC)c1
REMARK SMILES IDX 4 1 12 2 9 3 7 4 6 5 5 6 3 7 1 8 2 9 10 10 11 11 8 12
REMARK H PARENT 8 13
REMARK Flexibility Score: inf
ROOT
ATOM      1  C   UNL     1     -11.718  -8.113  38.176  1.00  0.00    -0.022 A 
ATOM      2  C   UNL     1     -11.043  -8.727  39.243  1.00  0.00     0.058 A 
ATOM      3  C   UNL     1      -9.952  -9.589  39.010  1.00  0.00     0.161 A 
ATOM      4  C   UNL     1      -9.548  -9.841  37.687  1.00  0.00     0.157 A 
ATOM      5  C   UNL     1     -10.227  -9.244  36.623  1.00  0.00     0.051 A 
ATOM      6  C   UNL     1     -11.306  -8.391  36.859  1.00  0.00     0.012 A 
ENDROOT
BRANCH   1   7
ATOM      7  C   UNL     1     -12.866  -7.223  38.480  1.00  0.00     0.003 C 
ATOM      8  C   UNL     1     -14.859  -5.875  37.948  1.00  0.00     0.035 C 
ATOM      9  C   UNL     1     -13.736  -6.783  37.562  1.00  0.00    -0.030 C 
ENDBRANCH   1   7
BRANCH   3  10
ATOM     10  O   UNL     1      -9.254 -10.208  40.060  1.00  0.00    -0.493 OA
ATOM     11  C   UNL     1      -9.824 -10.544  41.320  1.00  0.00     0.278 C 
ENDBRANCH   3  10
BRANCH   4  12
ATOM     12  O   UNL     1      -8.473 -10.686  37.410  1.00  0.00    -0.504 OA
ATOM     13  H   UNL     1      -7.519 -10.348  37.360  1.00  0.00     0.293 HD
ENDBRANCH   4  12
TORSDOF 3
ENDMDL
MODEL 5
REMARK VINA RESULT:    -5.048      2.132      3.888
REMARK INTER + INTRA:          -5.965
REMARK INTER:                  -5.812
REMARK INTRA:                  -0.153
REMARK UNBOUND:                -0.180
REMARK SMILES CC=Cc1ccc(O)c(OC)c1
REMARK SMILES IDX 4 1 12 2 9 3 7 4 6 5 5 6 3 7 1 8 2 9 10 10 11 11 8 12
REMARK H PARENT 8 13
REMARK Flexibility Score: inf
ROOT
ATOM      1  C   UNL     1     -13.773  -6.064  39.644  1.00  0.00    -0.022 A 
ATOM      2  C   UNL     1     -12.894  -6.979  39.041  1.00  0.00     0.058 A 
ATOM      3  C   UNL     1     -12.970  -7.255  37.661  1.00  0.00     0.161 A 
ATOM      4  C   UNL     1     -13.949  -6.609  36.886  1.00  0.00     0.157 A 
ATOM      5  C   UNL     1     -14.834  -5.710  37.484  1.00  0.00     0.051 A 
ATOM      6  C   UNL     1     -14.754  -5.440  38.851  1.00  0.00     0.012 A 
ENDROOT
BRANCH   1   7
ATOM      7  C   UNL     1     -13.654  -5.820  41.103  1.00  0.00     0.003 C 
ATOM      8  C   UNL     1     -14.440  -5.769  43.438  1.00  0.00     0.035 C 
ATOM      9  C   UNL     1     -14.634  -6.057  41.983  1.00  0.00    -0.030 C 
ENDBRANCH   1   7
BRANCH   3  10
ATOM     10  O   UNL     1     -12.097  -8.158  37.033  1.00  0.00    -0.493 OA
ATOM     11  C   UNL     1     -11.294  -9.114  37.718  1.00  0.00     0.278 C 
ENDBRANCH   3  10
BRANCH   4  12
ATOM     12  O   UNL     1     -14.059  -6.851  35.516  1.00  0.00    -0.504 OA
ATOM     13  H   UNL     1     -14.884  -6.594  34.987  1.00  0.00     0.293 HD
ENDBRANCH   4  12
TORSDOF 3
ENDMDL
MODEL 6
REMARK VINA RESULT:    -5.005      4.048      4.846
REMARK INTER + INTRA:          -5.917
REMARK INTER:                  -5.769
REMARK INTRA:                  -0.149
REMARK UNBOUND:                -0.180
REMARK SMILES CC=Cc1ccc(O)c(OC)c1
REMARK SMILES IDX 4 1 12 2 9 3 7 4 6 5 5 6 3 7 1 8 2 9 10 10 11 11 8 12
REMARK H PARENT 8 13
REMARK Flexibility Score: inf
ROOT
ATOM      1  C   UNL     1     -14.704  -5.525  40.052  1.00  0.00    -0.022 A 
ATOM      2  C   UNL     1     -15.781  -5.838  40.896  1.00  0.00     0.058 A 
ATOM      3  C   UNL     1     -16.933  -6.479  40.396  1.00  0.00     0.161 A 
ATOM      4  C   UNL     1     -16.999  -6.797  39.027  1.00  0.00     0.157 A 
ATOM      5  C   UNL     1     -15.936  -6.474  38.182  1.00  0.00     0.051 A 
ATOM      6  C   UNL     1     -14.799  -5.840  38.683  1.00  0.00     0.012 A 
ENDROOT
BRANCH   1   7
ATOM      7  C   UNL     1     -13.522  -4.841  40.632  1.00  0.00     0.003 C 
ATOM      8  C   UNL     1     -12.090  -2.908  41.167  1.00  0.00     0.035 C 
ATOM      9  C   UNL     1     -13.317  -3.520  40.569  1.00  0.00    -0.030 C 
ENDBRANCH   1   7
BRANCH   3  10
ATOM     10  O   UNL     1     -18.019  -6.810  41.221  1.00  0.00    -0.493 OA
ATOM     11  C   UNL     1     -18.125  -6.460  42.597  1.00  0.00     0.278 C 
ENDBRANCH   3  10
BRANCH   4  12
ATOM     12  O   UNL     1     -18.119  -7.432  38.489  1.00  0.00    -0.504 OA
ATOM     13  H   UNL     1     -19.034  -6.997  38.477  1.00  0.00     0.293 HD
ENDBRANCH   4  12
TORSDOF 3
ENDMDL
MODEL 7
REMARK VINA RESULT:    -4.944      3.134      5.611
REMARK INTER + INTRA:          -5.847
REMARK INTER:                  -5.668
REMARK INTRA:                  -0.179
REMARK UNBOUND:                -0.180
REMARK SMILES CC=Cc1ccc(O)c(OC)c1
REMARK SMILES IDX 4 1 12 2 9 3 7 4 6 5 5 6 3 7 1 8 2 9 10 10 11 11 8 12
REMARK H PARENT 8 13
REMARK Flexibility Score: inf
ROOT
ATOM      1  C   UNL     1     -12.002  -7.897  38.648  1.00  0.00    -0.022 A 
ATOM      2  C   UNL     1     -11.108  -8.895  38.228  1.00  0.00     0.058 A 
ATOM      3  C   UNL     1     -10.211  -9.494  39.136  1.00  0.00     0.161 A 
ATOM      4  C   UNL     1     -10.210  -9.071  40.477  1.00  0.00     0.157 A 
ATOM      5  C   UNL     1     -11.087  -8.068  40.895  1.00  0.00     0.051 A 
ATOM      6  C   UNL     1     -11.973  -7.479  39.991  1.00  0.00     0.012 A 
ENDROOT
BRANCH   1   7
ATOM      7  C   UNL     1     -12.916  -7.296  37.646  1.00  0.00     0.003 C 
ATOM      8  C   UNL     1     -14.855  -5.976  36.889  1.00  0.00     0.035 C 
ATOM      9  C   UNL     1     -13.971  -6.533  37.959  1.00  0.00    -0.030 C 
ENDBRANCH   1   7
BRANCH   3  10
ATOM     10  O   UNL     1      -9.314 -10.500  38.744  1.00  0.00    -0.493 OA
ATOM     11  C   UNL     1      -8.248 -10.316  37.818  1.00  0.00     0.278 C 
ENDBRANCH   3  10
BRANCH   4  12
ATOM     12  O   UNL     1      -9.340  -9.636  41.411  1.00  0.00    -0.504 OA
ATOM     13  H   UNL     1      -8.981 -10.578  41.313  1.00  0.00     0.293 HD
ENDBRANCH   4  12
TORSDOF 3
ENDMDL
MODEL 8
REMARK VINA RESULT:    -4.909      2.369      4.640
REMARK INTER + INTRA:          -5.806
REMARK INTER:                  -5.657
REMARK INTRA:                  -0.149
REMARK UNBOUND:                -0.180
REMARK SMILES CC=Cc1ccc(O)c(OC)c1
REMARK SMILES IDX 4 1 12 2 9 3 7 4 6 5 5 6 3 7 1 8 2 9 10 10 11 11 8 12
REMARK H PARENT 8 13
REMARK Flexibility Score: inf
ROOT
ATOM      1  C   UNL     1     -13.653  -6.738  38.215  1.00  0.00    -0.022 A 
ATOM      2  C   UNL     1     -12.919  -6.892  39.403  1.00  0.00     0.058 A 
ATOM      3  C   UNL     1     -11.699  -7.599  39.415  1.00  0.00     0.161 A 
ATOM      4  C   UNL     1     -11.224  -8.166  38.219  1.00  0.00     0.157 A 
ATOM      5  C   UNL     1     -11.959  -8.029  37.040  1.00  0.00     0.051 A 
ATOM      6  C   UNL     1     -13.165  -7.327  37.033  1.00  0.00     0.012 A 
ENDROOT
BRANCH   1   7
ATOM      7  C   UNL     1     -14.934  -5.992  38.263  1.00  0.00     0.003 C 
ATOM      8  C   UNL     1     -17.169  -5.432  39.137  1.00  0.00     0.035 C 
ATOM      9  C   UNL     1     -15.898  -6.218  39.165  1.00  0.00    -0.030 C 
ENDBRANCH   1   7
BRANCH   3  10
ATOM     10  O   UNL     1     -10.943  -7.758  40.587  1.00  0.00    -0.493 OA
ATOM     11  C   UNL     1     -11.450  -7.583  41.906  1.00  0.00     0.278 C 
ENDBRANCH   3  10
BRANCH   4  12
ATOM     12  O   UNL     1     -10.022  -8.874  38.185  1.00  0.00    -0.504 OA
ATOM     13  H   UNL     1      -9.962  -9.850  38.450  1.00  0.00     0.293 HD
ENDBRANCH   4  12
TORSDOF 3
ENDMDL
MODEL 9
REMARK VINA RESULT:    -4.864      7.309      7.773
REMARK INTER + INTRA:          -5.755
REMARK INTER:                  -5.607
REMARK INTRA:                  -0.148
REMARK UNBOUND:                -0.180
REMARK SMILES CC=Cc1ccc(O)c(OC)c1
REMARK SMILES IDX 4 1 12 2 9 3 7 4 6 5 5 6 3 7 1 8 2 9 10 10 11 11 8 12
REMARK H PARENT 8 13
REMARK Flexibility Score: inf
ROOT
ATOM      1  C   UNL     1     -16.131  -9.514  45.074  1.00  0.00    -0.022 A 
ATOM      2  C   UNL     1     -15.788  -8.208  45.459  1.00  0.00     0.058 A 
ATOM      3  C   UNL     1     -16.429  -7.091  44.884  1.00  0.00     0.161 A 
ATOM      4  C   UNL     1     -17.416  -7.297  43.904  1.00  0.00     0.157 A 
ATOM      5  C   UNL     1     -17.749  -8.595  43.508  1.00  0.00     0.051 A 
ATOM      6  C   UNL     1     -17.111  -9.696  44.081  1.00  0.00     0.012 A 
ENDROOT
BRANCH   1   7
ATOM      7  C   UNL     1     -15.416 -10.651  45.705  1.00  0.00     0.003 C 
ATOM      8  C   UNL     1     -14.528 -11.973  47.586  1.00  0.00     0.035 C 
ATOM      9  C   UNL     1     -15.278 -10.806  47.028  1.00  0.00    -0.030 C 
ENDBRANCH   1   7
BRANCH   3  10
ATOM     10  O   UNL     1     -16.111  -5.776  45.259  1.00  0.00    -0.493 OA
ATOM     11  C   UNL     1     -15.578  -5.403  46.525  1.00  0.00     0.278 C 
ENDBRANCH   3  10
BRANCH   4  12
ATOM     12  O   UNL     1     -18.077  -6.222  43.310  1.00  0.00    -0.504 OA
ATOM     13  H   UNL     1     -17.605  -5.354  43.087  1.00  0.00     0.293 HD
ENDBRANCH   4  12
TORSDOF 3
ENDMDL
