MODEL 1
REMARK VINA RESULT:    -2.772      0.000      0.000
REMARK INTER + INTRA:          -4.348
REMARK INTER:                  -3.745
REMARK INTRA:                  -0.603
REMARK UNBOUND:                -0.603
REMARK SMILES CCCCCCCC(=O)[O-]
REMARK SMILES IDX 5 1 6 2 7 3 8 4 9 5 10 6 4 7 3 8 2 9 1 10
REMARK H PARENT
REMARK Flexibility Score: inf
ROOT
ATOM      1  C   UNL     1     -37.846 -21.437  28.209  1.00  0.00     0.000 C 
ENDROOT
BRANCH   1   2
ATOM      2  C   UNL     1     -38.954 -20.387  28.032  1.00  0.00     0.006 C 
BRANCH   2   3
ATOM      3  C   UNL     1     -40.076 -20.530  29.070  1.00  0.00     0.053 C 
BRANCH   3   4
ATOM      4  C   UNL     1     -41.066 -21.561  28.628  1.00  0.00     0.041 C 
ATOM      5  O   UNL     1     -41.233 -21.794  27.401  1.00  0.00    -0.550 OA
ATOM      6  O   UNL     1     -41.840 -22.231  29.567  1.00  0.00    -0.550 OA
ENDBRANCH   3   4
ENDBRANCH   2   3
ENDBRANCH   1   2
BRANCH   1   7
ATOM      7  C   UNL     1     -37.600 -22.257  26.934  1.00  0.00     0.000 C 
BRANCH   7   8
ATOM      8  C   UNL     1     -37.596 -23.762  27.241  1.00  0.00    -0.000 C 
BRANCH   8   9
ATOM      9  C   UNL     1     -38.224 -24.089  28.605  1.00  0.00    -0.003 C 
ATOM     10  C   UNL     1     -39.521 -24.888  28.483  1.00  0.00     0.004 C 
ENDBRANCH   8   9
ENDBRANCH   7   8
ENDBRANCH   1   7
TORSDOF 6
ENDMDL
MODEL 2
REMARK VINA RESULT:    -2.742      2.654      4.128
REMARK INTER + INTRA:          -4.307
REMARK INTER:                  -4.054
REMARK INTRA:                  -0.253
REMARK UNBOUND:                -0.603
REMARK SMILES CCCCCCCC(=O)[O-]
REMARK SMILES IDX 5 1 6 2 7 3 8 4 9 5 10 6 4 7 3 8 2 9 1 10
REMARK H PARENT
REMARK Flexibility Score: inf
ROOT
ATOM      1  C   UNL     1     -41.734 -21.254  27.375  1.00  0.00     0.000 C 
ENDROOT
BRANCH   1   2
ATOM      2  C   UNL     1     -42.895 -22.231  27.125  1.00  0.00     0.006 C 
BRANCH   2   3
ATOM      3  C   UNL     1     -43.675 -22.562  28.404  1.00  0.00     0.053 C 
BRANCH   3   4
ATOM      4  C   UNL     1     -45.128 -22.255  28.223  1.00  0.00     0.041 C 
ATOM      5  O   UNL     1     -45.488 -21.338  27.438  1.00  0.00    -0.550 OA
ATOM      6  O   UNL     1     -46.083 -22.948  28.956  1.00  0.00    -0.550 OA
ENDBRANCH   3   4
ENDBRANCH   2   3
ENDBRANCH   1   2
BRANCH   1   7
ATOM      7  C   UNL     1     -40.969 -21.564  28.670  1.00  0.00     0.000 C 
BRANCH   7   8
ATOM      8  C   UNL     1     -39.963 -20.450  28.994  1.00  0.00    -0.000 C 
BRANCH   8   9
ATOM      9  C   UNL     1     -38.801 -20.393  27.991  1.00  0.00    -0.003 C 
ATOM     10  C   UNL     1     -37.829 -21.563  28.144  1.00  0.00     0.004 C 
ENDBRANCH   8   9
ENDBRANCH   7   8
ENDBRANCH   1   7
TORSDOF 6
ENDMDL
MODEL 3
REMARK VINA RESULT:    -2.715      7.877      8.864
REMARK INTER + INTRA:          -4.271
REMARK INTER:                  -3.956
REMARK INTRA:                  -0.314
REMARK UNBOUND:                -0.603
REMARK SMILES CCCCCCCC(=O)[O-]
REMARK SMILES IDX 5 1 6 2 7 3 8 4 9 5 10 6 4 7 3 8 2 9 1 10
REMARK H PARENT
REMARK Flexibility Score: inf
ROOT
ATOM      1  C   UNL     1     -46.081 -19.429  26.558  1.00  0.00     0.000 C 
ENDROOT
BRANCH   1   2
ATOM      2  C   UNL     1     -45.648 -17.973  26.323  1.00  0.00     0.006 C 
BRANCH   2   3
ATOM      3  C   UNL     1     -46.749 -16.965  26.678  1.00  0.00     0.053 C 
BRANCH   3   4
ATOM      4  C   UNL     1     -47.222 -16.255  25.449  1.00  0.00     0.041 C 
ATOM      5  O   UNL     1     -47.816 -15.148  25.545  1.00  0.00    -0.550 OA
ATOM      6  O   UNL     1     -47.050 -16.838  24.199  1.00  0.00    -0.550 OA
ENDBRANCH   3   4
ENDBRANCH   2   3
ENDBRANCH   1   2
BRANCH   1   7
ATOM      7  C   UNL     1     -47.495 -19.539  27.147  1.00  0.00     0.000 C 
BRANCH   7   8
ATOM      8  C   UNL     1     -47.587 -20.706  28.141  1.00  0.00    -0.000 C 
BRANCH   8   9
ATOM      9  C   UNL     1     -46.706 -21.897  27.737  1.00  0.00    -0.003 C 
ATOM     10  C   UNL     1     -46.197 -22.692  28.940  1.00  0.00     0.004 C 
ENDBRANCH   8   9
ENDBRANCH   7   8
ENDBRANCH   1   7
TORSDOF 6
ENDMDL
MODEL 4
REMARK VINA RESULT:    -2.705      6.184      8.589
REMARK INTER + INTRA:          -4.256
REMARK INTER:                  -4.008
REMARK INTRA:                  -0.248
REMARK UNBOUND:                -0.603
REMARK SMILES CCCCCCCC(=O)[O-]
REMARK SMILES IDX 5 1 6 2 7 3 8 4 9 5 10 6 4 7 3 8 2 9 1 10
REMARK H PARENT
REMARK Flexibility Score: inf
ROOT
ATOM      1  C   UNL     1     -47.716 -19.696  27.364  1.00  0.00     0.000 C 
ENDROOT
BRANCH   1   2
ATOM      2  C   UNL     1     -47.297 -21.095  27.842  1.00  0.00     0.006 C 
BRANCH   2   3
ATOM      3  C   UNL     1     -45.875 -21.469  27.405  1.00  0.00     0.053 C 
BRANCH   3   4
ATOM      4  C   UNL     1     -45.282 -22.463  28.353  1.00  0.00     0.041 C 
ATOM      5  O   UNL     1     -46.001 -23.373  28.847  1.00  0.00    -0.550 OA
ATOM      6  O   UNL     1     -43.949 -22.358  28.729  1.00  0.00    -0.550 OA
ENDBRANCH   3   4
ENDBRANCH   2   3
ENDBRANCH   1   2
BRANCH   1   7
ATOM      7  C   UNL     1     -46.552 -18.911  26.739  1.00  0.00     0.000 C 
BRANCH   7   8
ATOM      8  C   UNL     1     -46.690 -17.408  27.020  1.00  0.00    -0.000 C 
BRANCH   8   9
ATOM      9  C   UNL     1     -46.850 -16.579  25.737  1.00  0.00    -0.003 C 
ATOM     10  C   UNL     1     -46.785 -17.430  24.469  1.00  0.00     0.004 C 
ENDBRANCH   8   9
ENDBRANCH   7   8
ENDBRANCH   1   7
TORSDOF 6
ENDMDL
MODEL 5
REMARK VINA RESULT:    -2.662      2.539      3.518
REMARK INTER + INTRA:          -4.199
REMARK INTER:                  -3.737
REMARK INTRA:                  -0.462
REMARK UNBOUND:                -0.603
REMARK SMILES CCCCCCCC(=O)[O-]
REMARK SMILES IDX 5 1 6 2 7 3 8 4 9 5 10 6 4 7 3 8 2 9 1 10
REMARK H PARENT
REMARK Flexibility Score: inf
ROOT
ATOM      1  C   UNL     1     -40.486 -21.038  27.901  1.00  0.00     0.000 C 
ENDROOT
BRANCH   1   2
ATOM      2  C   UNL     1     -40.905 -19.879  26.983  1.00  0.00     0.006 C 
BRANCH   2   3
ATOM      3  C   UNL     1     -39.850 -18.767  26.914  1.00  0.00     0.053 C 
BRANCH   3   4
ATOM      4  C   UNL     1     -39.147 -18.797  25.594  1.00  0.00     0.041 C 
ATOM      5  O   UNL     1     -39.316 -17.863  24.765  1.00  0.00    -0.550 OA
ATOM      6  O   UNL     1     -38.343 -19.879  25.257  1.00  0.00    -0.550 OA
ENDBRANCH   3   4
ENDBRANCH   2   3
ENDBRANCH   1   2
BRANCH   1   7
ATOM      7  C   UNL     1     -39.303 -20.674  28.811  1.00  0.00     0.000 C 
BRANCH   7   8
ATOM      8  C   UNL     1     -38.063 -21.506  28.457  1.00  0.00    -0.000 C 
BRANCH   8   9
ATOM      9  C   UNL     1     -38.409 -22.779  27.670  1.00  0.00    -0.003 C 
ATOM     10  C   UNL     1     -38.250 -24.051  28.501  1.00  0.00     0.004 C 
ENDBRANCH   8   9
ENDBRANCH   7   8
ENDBRANCH   1   7
TORSDOF 6
ENDMDL
MODEL 6
REMARK VINA RESULT:    -2.661      5.615      7.486
REMARK INTER + INTRA:          -4.197
REMARK INTER:                  -3.734
REMARK INTRA:                  -0.463
REMARK UNBOUND:                -0.603
REMARK SMILES CCCCCCCC(=O)[O-]
REMARK SMILES IDX 5 1 6 2 7 3 8 4 9 5 10 6 4 7 3 8 2 9 1 10
REMARK H PARENT
REMARK Flexibility Score: inf
ROOT
ATOM      1  C   UNL     1     -47.728 -20.669  27.873  1.00  0.00     0.000 C 
ENDROOT
BRANCH   1   2
ATOM      2  C   UNL     1     -47.395 -19.276  27.315  1.00  0.00     0.006 C 
BRANCH   2   3
ATOM      3  C   UNL     1     -46.438 -19.333  26.117  1.00  0.00     0.053 C 
BRANCH   3   4
ATOM      4  C   UNL     1     -45.350 -18.317  26.270  1.00  0.00     0.041 C 
ATOM      5  O   UNL     1     -44.172 -18.592  25.915  1.00  0.00    -0.550 OA
ATOM      6  O   UNL     1     -45.624 -17.085  26.850  1.00  0.00    -0.550 OA
ENDBRANCH   3   4
ENDBRANCH   2   3
ENDBRANCH   1   2
BRANCH   1   7
ATOM      7  C   UNL     1     -46.758 -21.752  27.379  1.00  0.00     0.000 C 
BRANCH   7   8
ATOM      8  C   UNL     1     -46.141 -22.516  28.559  1.00  0.00    -0.000 C 
BRANCH   8   9
ATOM      9  C   UNL     1     -44.606 -22.553  28.502  1.00  0.00    -0.003 C 
ATOM     10  C   UNL     1     -44.044 -21.890  27.246  1.00  0.00     0.004 C 
ENDBRANCH   8   9
ENDBRANCH   7   8
ENDBRANCH   1   7
TORSDOF 6
ENDMDL
MODEL 7
REMARK VINA RESULT:    -2.657      2.588      4.565
REMARK INTER + INTRA:          -4.192
REMARK INTER:                  -3.730
REMARK INTRA:                  -0.462
REMARK UNBOUND:                -0.603
REMARK SMILES CCCCCCCC(=O)[O-]
REMARK SMILES IDX 5 1 6 2 7 3 8 4 9 5 10 6 4 7 3 8 2 9 1 10
REMARK H PARENT
REMARK Flexibility Score: inf
ROOT
ATOM      1  C   UNL     1     -40.000 -20.337  28.682  1.00  0.00     0.000 C 
ENDROOT
BRANCH   1   2
ATOM      2  C   UNL     1     -39.457 -21.767  28.534  1.00  0.00     0.006 C 
BRANCH   2   3
ATOM      3  C   UNL     1     -37.974 -21.798  28.141  1.00  0.00     0.053 C 
BRANCH   3   4
ATOM      4  C   UNL     1     -37.697 -22.963  27.243  1.00  0.00     0.041 C 
ATOM      5  O   UNL     1     -38.252 -24.074  27.458  1.00  0.00    -0.550 OA
ATOM      6  O   UNL     1     -36.790 -22.837  26.199  1.00  0.00    -0.550 OA
ENDBRANCH   3   4
ENDBRANCH   2   3
ENDBRANCH   1   2
BRANCH   1   7
ATOM      7  C   UNL     1     -40.472 -19.742  27.346  1.00  0.00     0.000 C 
BRANCH   7   8
ATOM      8  C   UNL     1     -39.640 -18.508  26.970  1.00  0.00    -0.000 C 
BRANCH   8   9
ATOM      9  C   UNL     1     -39.204 -18.515  25.497  1.00  0.00    -0.003 C 
ATOM     10  C   UNL     1     -38.517 -19.818  25.089  1.00  0.00     0.004 C 
ENDBRANCH   8   9
ENDBRANCH   7   8
ENDBRANCH   1   7
TORSDOF 6
ENDMDL
MODEL 8
REMARK VINA RESULT:    -2.645      3.140      4.637
REMARK INTER + INTRA:          -4.175
REMARK INTER:                  -3.853
REMARK INTRA:                  -0.322
REMARK UNBOUND:                -0.603
REMARK SMILES CCCCCCCC(=O)[O-]
REMARK SMILES IDX 5 1 6 2 7 3 8 4 9 5 10 6 4 7 3 8 2 9 1 10
REMARK H PARENT
REMARK Flexibility Score: inf
ROOT
ATOM      1  C   UNL     1     -39.822 -18.548  27.023  1.00  0.00     0.000 C 
ENDROOT
BRANCH   1   2
ATOM      2  C   UNL     1     -40.220 -19.994  27.360  1.00  0.00     0.006 C 
BRANCH   2   3
ATOM      3  C   UNL     1     -39.560 -20.505  28.647  1.00  0.00     0.053 C 
BRANCH   3   4
ATOM      4  C   UNL     1     -38.506 -21.518  28.325  1.00  0.00     0.041 C 
ATOM      5  O   UNL     1     -37.352 -21.144  27.982  1.00  0.00    -0.550 OA
ATOM      6  O   UNL     1     -38.810 -22.873  28.356  1.00  0.00    -0.550 OA
ENDBRANCH   3   4
ENDBRANCH   2   3
ENDBRANCH   1   2
BRANCH   1   7
ATOM      7  C   UNL     1     -39.363 -18.385  25.566  1.00  0.00     0.000 C 
BRANCH   7   8
ATOM      8  C   UNL     1     -38.543 -19.601  25.110  1.00  0.00    -0.000 C 
BRANCH   8   9
ATOM      9  C   UNL     1     -37.899 -19.396  23.730  1.00  0.00    -0.003 C 
ATOM     10  C   UNL     1     -37.295 -18.003  23.560  1.00  0.00     0.004 C 
ENDBRANCH   8   9
ENDBRANCH   7   8
ENDBRANCH   1   7
TORSDOF 6
ENDMDL
MODEL 9
REMARK VINA RESULT:    -2.623      1.528      2.578
REMARK INTER + INTRA:          -4.146
REMARK INTER:                  -3.553
REMARK INTRA:                  -0.593
REMARK UNBOUND:                -0.603
REMARK SMILES CCCCCCCC(=O)[O-]
REMARK SMILES IDX 5 1 6 2 7 3 8 4 9 5 10 6 4 7 3 8 2 9 1 10
REMARK H PARENT
REMARK Flexibility Score: inf
ROOT
ATOM      1  C   UNL     1     -40.207 -20.063  28.009  1.00  0.00     0.000 C 
ENDROOT
BRANCH   1   2
ATOM      2  C   UNL     1     -40.438 -21.069  29.148  1.00  0.00     0.006 C 
BRANCH   2   3
ATOM      3  C   UNL     1     -41.602 -22.027  28.865  1.00  0.00     0.053 C 
BRANCH   3   4
ATOM      4  C   UNL     1     -41.091 -23.320  28.313  1.00  0.00     0.041 C 
ATOM      5  O   UNL     1     -40.892 -23.446  27.075  1.00  0.00    -0.550 OA
ATOM      6  O   UNL     1     -40.878 -24.403  29.158  1.00  0.00    -0.550 OA
ENDBRANCH   3   4
ENDBRANCH   2   3
ENDBRANCH   1   2
BRANCH   1   7
ATOM      7  C   UNL     1     -38.772 -20.107  27.463  1.00  0.00     0.000 C 
BRANCH   7   8
ATOM      8  C   UNL     1     -37.975 -21.252  28.105  1.00  0.00    -0.000 C 
BRANCH   8   9
ATOM      9  C   UNL     1     -37.530 -22.309  27.083  1.00  0.00    -0.003 C 
ATOM     10  C   UNL     1     -37.947 -21.962  25.653  1.00  0.00     0.004 C 
ENDBRANCH   8   9
ENDBRANCH   7   8
ENDBRANCH   1   7
TORSDOF 6
ENDMDL
