MODEL 1
REMARK VINA RESULT:    -5.406      0.000      0.000
REMARK INTER + INTRA:          -9.569
REMARK INTER:                  -8.250
REMARK INTRA:                  -1.319
REMARK UNBOUND:                -1.319
REMARK SMILES CC(=O)CCC=C(C)CCC=C(C)CCC=C(C)C
REMARK SMILES IDX 10 1 11 2 12 3 13 4 14 5 15 6 16 7 18 8 17 9 19 10 9 11 7 12
REMARK SMILES IDX 6 13 8 14 5 15 4 16 2 17 3 18 1 19
REMARK H PARENT
REMARK Flexibility Score: inf
ROOT
ATOM      1  C   UNL     1     -30.001  14.334 -31.379  1.00  0.00     0.032 C 
ENDROOT
BRANCH   1   2
ATOM      2  C   UNL     1     -30.122  12.829 -31.448  1.00  0.00    -0.028 C 
ATOM      3  C   UNL     1     -29.830  11.963 -30.449  1.00  0.00    -0.077 C 
ATOM      4  C   UNL     1     -29.974  10.489 -30.730  1.00  0.00     0.039 C 
BRANCH   3   5
ATOM      5  C   UNL     1     -29.381  12.400 -29.063  1.00  0.00     0.034 C 
BRANCH   5   6
ATOM      6  C   UNL     1     -27.899  12.099 -28.788  1.00  0.00     0.032 C 
BRANCH   6   7
ATOM      7  C   UNL     1     -26.976  13.083 -29.470  1.00  0.00    -0.028 C 
ATOM      8  C   UNL     1     -25.055  13.842 -30.797  1.00  0.00     0.039 C 
ATOM      9  C   UNL     1     -25.847  12.747 -30.132  1.00  0.00    -0.080 C 
ATOM     10  C   UNL     1     -25.354  11.322 -30.206  1.00  0.00     0.039 C 
ENDBRANCH   6   7
ENDBRANCH   5   6
ENDBRANCH   3   5
ENDBRANCH   1   2
BRANCH   1  11
ATOM     11  C   UNL     1     -28.729  14.821 -32.089  1.00  0.00     0.034 C 
BRANCH  11  12
ATOM     12  C   UNL     1     -28.978  16.066 -32.918  1.00  0.00    -0.077 C 
ATOM     13  C   UNL     1     -28.251  17.179 -32.667  1.00  0.00    -0.028 C 
ATOM     14  C   UNL     1     -30.037  16.029 -33.995  1.00  0.00     0.039 C 
BRANCH  13  15
ATOM     15  C   UNL     1     -28.370  18.470 -33.438  1.00  0.00     0.035 C 
BRANCH  15  16
ATOM     16  C   UNL     1     -26.981  19.062 -33.720  1.00  0.00     0.079 C 
BRANCH  16  17
ATOM     17  C   UNL     1     -27.004  20.445 -34.333  1.00  0.00     0.130 C 
ATOM     18  O   UNL     1     -26.453  20.611 -35.410  1.00  0.00    -0.300 OA
ATOM     19  C   UNL     1     -27.678  21.620 -33.678  1.00  0.00     0.087 C 
ENDBRANCH  16  17
ENDBRANCH  15  16
ENDBRANCH  13  15
ENDBRANCH  11  12
ENDBRANCH   1  11
TORSDOF 9
ENDMDL
MODEL 2
REMARK VINA RESULT:    -5.182      3.485      8.776
REMARK INTER + INTRA:          -9.227
REMARK INTER:                  -8.017
REMARK INTRA:                  -1.211
REMARK UNBOUND:                -1.319
REMARK SMILES CC(=O)CCC=C(C)CCC=C(C)CCC=C(C)C
REMARK SMILES IDX 10 1 11 2 12 3 13 4 14 5 15 6 16 7 18 8 17 9 19 10 9 11 7 12
REMARK SMILES IDX 6 13 8 14 5 15 4 16 2 17 3 18 1 19
REMARK H PARENT
REMARK Flexibility Score: inf
ROOT
ATOM      1  C   UNL     1     -23.657  17.371 -32.280  1.00  0.00     0.032 C 
ENDROOT
BRANCH   1   2
ATOM      2  C   UNL     1     -23.414  18.856 -32.137  1.00  0.00    -0.028 C 
ATOM      3  C   UNL     1     -23.441  19.764 -33.140  1.00  0.00    -0.077 C 
ATOM      4  C   UNL     1     -23.124  21.199 -32.801  1.00  0.00     0.039 C 
BRANCH   3   5
ATOM      5  C   UNL     1     -23.786  19.416 -34.580  1.00  0.00     0.034 C 
BRANCH   5   6
ATOM      6  C   UNL     1     -25.129  20.007 -35.037  1.00  0.00     0.032 C 
BRANCH   6   7
ATOM      7  C   UNL     1     -26.309  19.338 -34.370  1.00  0.00    -0.028 C 
ATOM      8  C   UNL     1     -28.498  19.174 -33.270  1.00  0.00     0.039 C 
ATOM      9  C   UNL     1     -27.380  19.989 -33.867  1.00  0.00    -0.080 C 
ATOM     10  C   UNL     1     -27.479  21.496 -33.872  1.00  0.00     0.039 C 
ENDBRANCH   6   7
ENDBRANCH   5   6
ENDBRANCH   3   5
ENDBRANCH   1   2
BRANCH   1  11
ATOM     11  C   UNL     1     -24.959  16.952 -31.584  1.00  0.00     0.034 C 
BRANCH  11  12
ATOM     12  C   UNL     1     -24.944  15.493 -31.173  1.00  0.00    -0.077 C 
ATOM     13  C   UNL     1     -26.041  14.964 -30.585  1.00  0.00    -0.028 C 
ATOM     14  C   UNL     1     -23.700  14.673 -31.427  1.00  0.00     0.039 C 
BRANCH  13  15
ATOM     15  C   UNL     1     -26.174  13.522 -30.162  1.00  0.00     0.035 C 
BRANCH  15  16
ATOM     16  C   UNL     1     -27.612  13.026 -30.375  1.00  0.00     0.079 C 
BRANCH  16  17
ATOM     17  C   UNL     1     -28.120  12.097 -29.295  1.00  0.00     0.130 C 
ATOM     18  O   UNL     1     -27.302  11.524 -28.592  1.00  0.00    -0.300 OA
ATOM     19  C   UNL     1     -29.583  11.855 -29.044  1.00  0.00     0.087 C 
ENDBRANCH  16  17
ENDBRANCH  15  16
ENDBRANCH  13  15
ENDBRANCH  11  12
ENDBRANCH   1  11
TORSDOF 9
ENDMDL
MODEL 3
REMARK VINA RESULT:    -5.162      9.813     14.001
REMARK INTER + INTRA:          -9.197
REMARK INTER:                  -6.828
REMARK INTRA:                  -2.369
REMARK UNBOUND:                -1.319
REMARK SMILES CC(=O)CCC=C(C)CCC=C(C)CCC=C(C)C
REMARK SMILES IDX 10 1 11 2 12 3 13 4 14 5 15 6 16 7 18 8 17 9 19 10 9 11 7 12
REMARK SMILES IDX 6 13 8 14 5 15 4 16 2 17 3 18 1 19
REMARK H PARENT
REMARK Flexibility Score: inf
ROOT
ATOM      1  C   UNL     1     -13.681  11.472 -30.101  1.00  0.00     0.032 C 
ENDROOT
BRANCH   1   2
ATOM      2  C   UNL     1     -13.079  11.684 -31.471  1.00  0.00    -0.028 C 
ATOM      3  C   UNL     1     -12.688  12.871 -31.990  1.00  0.00    -0.077 C 
ATOM      4  C   UNL     1     -12.151  12.882 -33.399  1.00  0.00     0.039 C 
BRANCH   3   5
ATOM      5  C   UNL     1     -12.748  14.184 -31.223  1.00  0.00     0.034 C 
BRANCH   5   6
ATOM      6  C   UNL     1     -14.011  15.003 -31.531  1.00  0.00     0.032 C 
BRANCH   6   7
ATOM      7  C   UNL     1     -15.089  14.812 -30.489  1.00  0.00    -0.028 C 
ATOM      8  C   UNL     1     -17.144  13.909 -29.492  1.00  0.00     0.039 C 
ATOM      9  C   UNL     1     -16.179  14.030 -30.644  1.00  0.00    -0.080 C 
ATOM     10  C   UNL     1     -16.464  13.296 -31.933  1.00  0.00     0.039 C 
ENDBRANCH   6   7
ENDBRANCH   5   6
ENDBRANCH   3   5
ENDBRANCH   1   2
BRANCH   1  11
ATOM     11  C   UNL     1     -14.516  10.184 -30.055  1.00  0.00     0.034 C 
BRANCH  11  12
ATOM     12  C   UNL     1     -15.873  10.404 -29.416  1.00  0.00    -0.077 C 
ATOM     13  C   UNL     1     -16.988  10.146 -30.136  1.00  0.00    -0.028 C 
ATOM     14  C   UNL     1     -15.940  10.915 -27.995  1.00  0.00     0.039 C 
BRANCH  13  15
ATOM     15  C   UNL     1     -18.396  10.286 -29.613  1.00  0.00     0.035 C 
BRANCH  15  16
ATOM     16  C   UNL     1     -19.241  11.151 -30.559  1.00  0.00     0.079 C 
BRANCH  16  17
ATOM     17  C   UNL     1     -20.652  11.410 -30.078  1.00  0.00     0.130 C 
ATOM     18  O   UNL     1     -21.116  12.530 -30.219  1.00  0.00    -0.300 OA
ATOM     19  C   UNL     1     -21.507  10.349 -29.441  1.00  0.00     0.087 C 
ENDBRANCH  16  17
ENDBRANCH  15  16
ENDBRANCH  13  15
ENDBRANCH  11  12
ENDBRANCH   1  11
TORSDOF 9
ENDMDL
MODEL 4
REMARK VINA RESULT:    -5.127      5.787      9.375
REMARK INTER + INTRA:          -9.144
REMARK INTER:                  -8.100
REMARK INTRA:                  -1.044
REMARK UNBOUND:                -1.319
REMARK SMILES CC(=O)CCC=C(C)CCC=C(C)CCC=C(C)C
REMARK SMILES IDX 10 1 11 2 12 3 13 4 14 5 15 6 16 7 18 8 17 9 19 10 9 11 7 12
REMARK SMILES IDX 6 13 8 14 5 15 4 16 2 17 3 18 1 19
REMARK H PARENT
REMARK Flexibility Score: inf
ROOT
ATOM      1  C   UNL     1     -22.908  10.124 -29.705  1.00  0.00     0.032 C 
ENDROOT
BRANCH   1   2
ATOM      2  C   UNL     1     -23.999   9.912 -28.681  1.00  0.00    -0.028 C 
ATOM      3  C   UNL     1     -25.282  10.328 -28.790  1.00  0.00    -0.077 C 
ATOM      4  C   UNL     1     -26.211  10.059 -27.633  1.00  0.00     0.039 C 
BRANCH   3   5
ATOM      5  C   UNL     1     -25.833  11.036 -30.018  1.00  0.00     0.034 C 
BRANCH   5   6
ATOM      6  C   UNL     1     -26.356  12.449 -29.714  1.00  0.00     0.032 C 
BRANCH   6   7
ATOM      7  C   UNL     1     -27.614  12.776 -30.485  1.00  0.00    -0.028 C 
ATOM      8  C   UNL     1     -30.021  13.061 -30.880  1.00  0.00     0.039 C 
ATOM      9  C   UNL     1     -28.868  12.653 -29.999  1.00  0.00    -0.080 C 
ATOM     10  C   UNL     1     -29.144  12.106 -28.619  1.00  0.00     0.039 C 
ENDBRANCH   6   7
ENDBRANCH   5   6
ENDBRANCH   3   5
ENDBRANCH   1   2
BRANCH   1  11
ATOM     11  C   UNL     1     -21.518  10.063 -29.058  1.00  0.00     0.034 C 
BRANCH  11  12
ATOM     12  C   UNL     1     -20.512  10.940 -29.777  1.00  0.00    -0.077 C 
ATOM     13  C   UNL     1     -19.254  10.481 -29.964  1.00  0.00    -0.028 C 
ATOM     14  C   UNL     1     -20.944  12.307 -30.257  1.00  0.00     0.039 C 
BRANCH  13  15
ATOM     15  C   UNL     1     -18.169  11.233 -30.694  1.00  0.00     0.035 C 
BRANCH  15  16
ATOM     16  C   UNL     1     -16.833  11.115 -29.946  1.00  0.00     0.079 C 
BRANCH  16  17
ATOM     17  C   UNL     1     -16.594  12.199 -28.918  1.00  0.00     0.130 C 
ATOM     18  O   UNL     1     -15.737  12.013 -28.068  1.00  0.00    -0.300 OA
ATOM     19  C   UNL     1     -17.360  13.494 -28.900  1.00  0.00     0.087 C 
ENDBRANCH  16  17
ENDBRANCH  15  16
ENDBRANCH  13  15
ENDBRANCH  11  12
ENDBRANCH   1  11
TORSDOF 9
ENDMDL
MODEL 5
REMARK VINA RESULT:    -5.083      2.745      7.481
REMARK INTER + INTRA:          -9.076
REMARK INTER:                  -8.177
REMARK INTRA:                  -0.899
REMARK UNBOUND:                -1.319
REMARK SMILES CC(=O)CCC=C(C)CCC=C(C)CCC=C(C)C
REMARK SMILES IDX 10 1 11 2 12 3 13 4 14 5 15 6 16 7 18 8 17 9 19 10 9 11 7 12
REMARK SMILES IDX 6 13 8 14 5 15 4 16 2 17 3 18 1 19
REMARK H PARENT
REMARK Flexibility Score: inf
ROOT
ATOM      1  C   UNL     1     -29.030  14.310 -31.630  1.00  0.00     0.032 C 
ENDROOT
BRANCH   1   2
ATOM      2  C   UNL     1     -29.698  15.129 -32.711  1.00  0.00    -0.028 C 
ATOM      3  C   UNL     1     -29.293  16.343 -33.150  1.00  0.00    -0.077 C 
ATOM      4  C   UNL     1     -30.125  17.022 -34.210  1.00  0.00     0.039 C 
BRANCH   3   5
ATOM      5  C   UNL     1     -28.044  17.046 -32.644  1.00  0.00     0.034 C 
BRANCH   5   6
ATOM      6  C   UNL     1     -27.856  18.448 -33.245  1.00  0.00     0.032 C 
BRANCH   6   7
ATOM      7  C   UNL     1     -26.405  18.765 -33.525  1.00  0.00    -0.028 C 
ATOM      8  C   UNL     1     -24.491  19.999 -34.443  1.00  0.00     0.039 C 
ATOM      9  C   UNL     1     -25.976  19.788 -34.296  1.00  0.00    -0.080 C 
ATOM     10  C   UNL     1     -26.932  20.705 -35.020  1.00  0.00     0.039 C 
ENDBRANCH   6   7
ENDBRANCH   5   6
ENDBRANCH   3   5
ENDBRANCH   1   2
BRANCH   1  11
ATOM     11  C   UNL     1     -30.068  13.664 -30.701  1.00  0.00     0.034 C 
BRANCH  11  12
ATOM     12  C   UNL     1     -29.582  12.347 -30.129  1.00  0.00    -0.077 C 
ATOM     13  C   UNL     1     -28.780  12.359 -29.040  1.00  0.00    -0.028 C 
ATOM     14  C   UNL     1     -30.002  11.058 -30.798  1.00  0.00     0.039 C 
BRANCH  13  15
ATOM     15  C   UNL     1     -28.257  11.124 -28.349  1.00  0.00     0.035 C 
BRANCH  15  16
ATOM     16  C   UNL     1     -26.728  11.043 -28.471  1.00  0.00     0.079 C 
BRANCH  16  17
ATOM     17  C   UNL     1     -26.195  11.341 -29.854  1.00  0.00     0.130 C 
ATOM     18  O   UNL     1     -26.382  10.518 -30.737  1.00  0.00    -0.300 OA
ATOM     19  C   UNL     1     -25.451  12.604 -30.192  1.00  0.00     0.087 C 
ENDBRANCH  16  17
ENDBRANCH  15  16
ENDBRANCH  13  15
ENDBRANCH  11  12
ENDBRANCH   1  11
TORSDOF 9
ENDMDL
MODEL 6
REMARK VINA RESULT:    -5.054     10.392     13.449
REMARK INTER + INTRA:          -9.031
REMARK INTER:                  -6.759
REMARK INTRA:                  -2.272
REMARK UNBOUND:                -1.319
REMARK SMILES CC(=O)CCC=C(C)CCC=C(C)CCC=C(C)C
REMARK SMILES IDX 10 1 11 2 12 3 13 4 14 5 15 6 16 7 18 8 17 9 19 10 9 11 7 12
REMARK SMILES IDX 6 13 8 14 5 15 4 16 2 17 3 18 1 19
REMARK H PARENT
REMARK Flexibility Score: inf
ROOT
ATOM      1  C   UNL     1     -17.183  12.165 -31.754  1.00  0.00     0.032 C 
ENDROOT
BRANCH   1   2
ATOM      2  C   UNL     1     -18.568  12.318 -31.168  1.00  0.00    -0.028 C 
ATOM      3  C   UNL     1     -19.240  11.377 -30.465  1.00  0.00    -0.077 C 
ATOM      4  C   UNL     1     -20.637  11.706 -30.003  1.00  0.00     0.039 C 
BRANCH   3   5
ATOM      5  C   UNL     1     -18.655  10.019 -30.107  1.00  0.00     0.034 C 
BRANCH   5   6
ATOM      6  C   UNL     1     -18.149   9.945 -28.657  1.00  0.00     0.032 C 
BRANCH   6   7
ATOM      7  C   UNL     1     -16.655  10.150 -28.558  1.00  0.00    -0.028 C 
ATOM      8  C   UNL     1     -14.555  11.349 -28.130  1.00  0.00     0.039 C 
ATOM      9  C   UNL     1     -16.058  11.317 -28.229  1.00  0.00    -0.080 C 
ATOM     10  C   UNL     1     -16.848  12.579 -27.979  1.00  0.00     0.039 C 
ENDBRANCH   6   7
ENDBRANCH   5   6
ENDBRANCH   3   5
ENDBRANCH   1   2
BRANCH   1  11
ATOM     11  C   UNL     1     -16.509  13.531 -31.950  1.00  0.00     0.034 C 
BRANCH  11  12
ATOM     12  C   UNL     1     -15.049  13.512 -31.542  1.00  0.00    -0.077 C 
ATOM     13  C   UNL     1     -14.295  12.432 -31.847  1.00  0.00    -0.028 C 
ATOM     14  C   UNL     1     -14.481  14.699 -30.798  1.00  0.00     0.039 C 
BRANCH  13  15
ATOM     15  C   UNL     1     -12.824  12.299 -31.534  1.00  0.00     0.035 C 
BRANCH  15  16
ATOM     16  C   UNL     1     -11.977  12.596 -32.780  1.00  0.00     0.079 C 
BRANCH  16  17
ATOM     17  C   UNL     1     -11.255  13.925 -32.742  1.00  0.00     0.130 C 
ATOM     18  O   UNL     1     -11.352  14.665 -33.709  1.00  0.00    -0.300 OA
ATOM     19  C   UNL     1     -10.431  14.377 -31.568  1.00  0.00     0.087 C 
ENDBRANCH  16  17
ENDBRANCH  15  16
ENDBRANCH  13  15
ENDBRANCH  11  12
ENDBRANCH   1  11
TORSDOF 9
ENDMDL
MODEL 7
REMARK VINA RESULT:    -4.983      1.987      3.941
REMARK INTER + INTRA:          -8.923
REMARK INTER:                  -7.313
REMARK INTRA:                  -1.610
REMARK UNBOUND:                -1.319
REMARK SMILES CC(=O)CCC=C(C)CCC=C(C)CCC=C(C)C
REMARK SMILES IDX 10 1 11 2 12 3 13 4 14 5 15 6 16 7 18 8 17 9 19 10 9 11 7 12
REMARK SMILES IDX 6 13 8 14 5 15 4 16 2 17 3 18 1 19
REMARK H PARENT
REMARK Flexibility Score: inf
ROOT
ATOM      1  C   UNL     1     -25.152  13.159 -30.669  1.00  0.00     0.032 C 
ENDROOT
BRANCH   1   2
ATOM      2  C   UNL     1     -24.702  12.135 -29.652  1.00  0.00    -0.028 C 
ATOM      3  C   UNL     1     -25.139  10.857 -29.567  1.00  0.00    -0.077 C 
ATOM      4  C   UNL     1     -24.601  10.001 -28.447  1.00  0.00     0.039 C 
BRANCH   3   5
ATOM      5  C   UNL     1     -26.128  10.240 -30.544  1.00  0.00     0.034 C 
BRANCH   5   6
ATOM      6  C   UNL     1     -27.530  10.049 -29.942  1.00  0.00     0.032 C 
BRANCH   6   7
ATOM      7  C   UNL     1     -28.537  11.023 -30.508  1.00  0.00    -0.028 C 
ATOM      8  C   UNL     1     -30.125  12.896 -30.509  1.00  0.00     0.039 C 
ATOM      9  C   UNL     1     -29.179  11.970 -29.789  1.00  0.00    -0.080 C 
ATOM     10  C   UNL     1     -28.991  12.112 -28.298  1.00  0.00     0.039 C 
ENDBRANCH   6   7
ENDBRANCH   5   6
ENDBRANCH   3   5
ENDBRANCH   1   2
BRANCH   1  11
ATOM     11  C   UNL     1     -26.300  14.019 -30.122  1.00  0.00     0.034 C 
BRANCH  11  12
ATOM     12  C   UNL     1     -26.608  15.200 -31.020  1.00  0.00    -0.077 C 
ATOM     13  C   UNL     1     -25.809  16.290 -30.970  1.00  0.00    -0.028 C 
ATOM     14  C   UNL     1     -27.806  15.129 -31.940  1.00  0.00     0.039 C 
BRANCH  13  15
ATOM     15  C   UNL     1     -25.980  17.517 -31.833  1.00  0.00     0.035 C 
BRANCH  15  16
ATOM     16  C   UNL     1     -24.614  18.108 -32.208  1.00  0.00     0.079 C 
BRANCH  16  17
ATOM     17  C   UNL     1     -24.661  19.137 -33.315  1.00  0.00     0.130 C 
ATOM     18  O   UNL     1     -25.726  19.334 -33.879  1.00  0.00    -0.300 OA
ATOM     19  C   UNL     1     -23.458  19.931 -33.748  1.00  0.00     0.087 C 
ENDBRANCH  16  17
ENDBRANCH  15  16
ENDBRANCH  13  15
ENDBRANCH  11  12
ENDBRANCH   1  11
TORSDOF 9
ENDMDL
MODEL 8
REMARK VINA RESULT:    -4.952      1.589      2.271
REMARK INTER + INTRA:          -8.875
REMARK INTER:                  -8.238
REMARK INTRA:                  -0.638
REMARK UNBOUND:                -1.319
REMARK SMILES CC(=O)CCC=C(C)CCC=C(C)CCC=C(C)C
REMARK SMILES IDX 10 1 11 2 12 3 13 4 14 5 15 6 16 7 18 8 17 9 19 10 9 11 7 12
REMARK SMILES IDX 6 13 8 14 5 15 4 16 2 17 3 18 1 19
REMARK H PARENT
REMARK Flexibility Score: inf
ROOT
ATOM      1  C   UNL     1     -28.897  15.322 -32.406  1.00  0.00     0.032 C 
ENDROOT
BRANCH   1   2
ATOM      2  C   UNL     1     -29.612  14.246 -31.623  1.00  0.00    -0.028 C 
ATOM      3  C   UNL     1     -29.028  13.344 -30.799  1.00  0.00    -0.077 C 
ATOM      4  C   UNL     1     -29.913  12.315 -30.141  1.00  0.00     0.039 C 
BRANCH   3   5
ATOM      5  C   UNL     1     -27.538  13.327 -30.494  1.00  0.00     0.034 C 
BRANCH   5   6
ATOM      6  C   UNL     1     -27.125  12.161 -29.581  1.00  0.00     0.032 C 
BRANCH   6   7
ATOM      7  C   UNL     1     -25.758  11.617 -29.925  1.00  0.00    -0.028 C 
ATOM      8  C   UNL     1     -23.723  10.268 -29.663  1.00  0.00     0.039 C 
ATOM      9  C   UNL     1     -25.058  10.752 -29.160  1.00  0.00    -0.080 C 
ATOM     10  C   UNL     1     -25.564  10.276 -27.819  1.00  0.00     0.039 C 
ENDBRANCH   6   7
ENDBRANCH   5   6
ENDBRANCH   3   5
ENDBRANCH   1   2
BRANCH   1  11
ATOM     11  C   UNL     1     -29.895  16.261 -33.099  1.00  0.00     0.034 C 
BRANCH  11  12
ATOM     12  C   UNL     1     -29.255  17.571 -33.514  1.00  0.00    -0.077 C 
ATOM     13  C   UNL     1     -27.925  17.738 -33.335  1.00  0.00    -0.028 C 
ATOM     14  C   UNL     1     -30.124  18.655 -34.109  1.00  0.00     0.039 C 
BRANCH  13  15
ATOM     15  C   UNL     1     -27.156  18.974 -33.737  1.00  0.00     0.035 C 
BRANCH  15  16
ATOM     16  C   UNL     1     -25.692  18.870 -33.285  1.00  0.00     0.079 C 
BRANCH  16  17
ATOM     17  C   UNL     1     -24.718  19.651 -34.140  1.00  0.00     0.130 C 
ATOM     18  O   UNL     1     -24.910  19.696 -35.345  1.00  0.00    -0.300 OA
ATOM     19  C   UNL     1     -23.529  20.377 -33.571  1.00  0.00     0.087 C 
ENDBRANCH  16  17
ENDBRANCH  15  16
ENDBRANCH  13  15
ENDBRANCH  11  12
ENDBRANCH   1  11
TORSDOF 9
ENDMDL
MODEL 9
REMARK VINA RESULT:    -4.693      6.133      9.697
REMARK INTER + INTRA:          -8.481
REMARK INTER:                  -7.606
REMARK INTRA:                  -0.875
REMARK UNBOUND:                -1.319
REMARK SMILES CC(=O)CCC=C(C)CCC=C(C)CCC=C(C)C
REMARK SMILES IDX 10 1 11 2 12 3 13 4 14 5 15 6 16 7 18 8 17 9 19 10 9 11 7 12
REMARK SMILES IDX 6 13 8 14 5 15 4 16 2 17 3 18 1 19
REMARK H PARENT
REMARK Flexibility Score: inf
ROOT
ATOM      1  C   UNL     1     -22.015  10.909 -29.703  1.00  0.00     0.032 C 
ENDROOT
BRANCH   1   2
ATOM      2  C   UNL     1     -20.705  10.254 -29.328  1.00  0.00    -0.028 C 
ATOM      3  C   UNL     1     -19.472  10.699 -29.662  1.00  0.00    -0.077 C 
ATOM      4  C   UNL     1     -18.284   9.875 -29.231  1.00  0.00     0.039 C 
BRANCH   3   5
ATOM      5  C   UNL     1     -19.224  11.987 -30.432  1.00  0.00     0.034 C 
BRANCH   5   6
ATOM      6  C   UNL     1     -17.825  12.576 -30.185  1.00  0.00     0.032 C 
BRANCH   6   7
ATOM      7  C   UNL     1     -17.060  12.801 -31.469  1.00  0.00    -0.028 C 
ATOM      8  C   UNL     1     -15.296  12.469 -33.144  1.00  0.00     0.039 C 
ATOM      9  C   UNL     1     -15.917  12.165 -31.805  1.00  0.00    -0.080 C 
ATOM     10  C   UNL     1     -15.241  11.185 -30.877  1.00  0.00     0.039 C 
ENDBRANCH   6   7
ENDBRANCH   5   6
ENDBRANCH   3   5
ENDBRANCH   1   2
BRANCH   1  11
ATOM     11  C   UNL     1     -23.160   9.886 -29.730  1.00  0.00     0.034 C 
BRANCH  11  12
ATOM     12  C   UNL     1     -24.484  10.499 -29.317  1.00  0.00    -0.077 C 
ATOM     13  C   UNL     1     -25.109  11.347 -30.165  1.00  0.00    -0.028 C 
ATOM     14  C   UNL     1     -25.063  10.150 -27.965  1.00  0.00     0.039 C 
BRANCH  13  15
ATOM     15  C   UNL     1     -26.444  11.996 -29.896  1.00  0.00     0.035 C 
BRANCH  15  16
ATOM     16  C   UNL     1     -27.586  11.138 -30.462  1.00  0.00     0.079 C 
BRANCH  16  17
ATOM     17  C   UNL     1     -28.965  11.545 -29.993  1.00  0.00     0.130 C 
ATOM     18  O   UNL     1     -29.910  11.366 -30.745  1.00  0.00    -0.300 OA
ATOM     19  C   UNL     1     -29.224  12.152 -28.641  1.00  0.00     0.087 C 
ENDBRANCH  16  17
ENDBRANCH  15  16
ENDBRANCH  13  15
ENDBRANCH  11  12
ENDBRANCH   1  11
TORSDOF 9
ENDMDL
