MODEL 1
REMARK VINA RESULT:    -5.835      0.000      0.000
REMARK INTER + INTRA:          -5.835
REMARK INTER:                  -5.835
REMARK INTRA:                   0.000
REMARK UNBOUND:                 0.000
REMARK SMILES Cc1cccc2ccccc12
REMARK SMILES IDX 1 1 2 2 3 3 4 4 5 5 6 6 7 7 8 8 9 9 10 10 11 11
REMARK H PARENT
REMARK Flexibility Score: inf
ROOT
ATOM      1  C   UNL     1       2.425  22.780  45.537  1.00  0.00     0.045 C 
ATOM      2  C   UNL     1       2.435  22.571  44.044  1.00  0.00    -0.043 A 
ATOM      3  C   UNL     1       1.757  21.460  43.511  1.00  0.00     0.004 A 
ATOM      4  C   UNL     1       1.740  21.228  42.135  1.00  0.00     0.001 A 
ATOM      5  C   UNL     1       2.396  22.097  41.266  1.00  0.00     0.009 A 
ATOM      6  C   UNL     1       3.081  23.213  41.767  1.00  0.00    -0.018 A 
ATOM      7  C   UNL     1       3.740  24.084  40.886  1.00  0.00     0.009 A 
ATOM      8  C   UNL     1       4.423  25.198  41.377  1.00  0.00     0.001 A 
ATOM      9  C   UNL     1       4.455  25.451  42.749  1.00  0.00     0.001 A 
ATOM     10  C   UNL     1       3.804  24.594  43.639  1.00  0.00     0.009 A 
ATOM     11  C   UNL     1       3.107  23.462  43.166  1.00  0.00    -0.015 A 
ENDROOT
TORSDOF 0
ENDMDL
MODEL 2
REMARK VINA RESULT:    -5.664      0.758      2.546
REMARK INTER + INTRA:          -5.664
REMARK INTER:                  -5.664
REMARK INTRA:                   0.000
REMARK UNBOUND:                 0.000
REMARK SMILES Cc1cccc2ccccc12
REMARK SMILES IDX 1 1 2 2 3 3 4 4 5 5 6 6 7 7 8 8 9 9 10 10 11 11
REMARK H PARENT
REMARK Flexibility Score: inf
ROOT
ATOM      1  C   UNL     1       1.964  21.229  41.147  1.00  0.00     0.045 C 
ATOM      2  C   UNL     1       2.351  22.026  42.367  1.00  0.00    -0.043 A 
ATOM      3  C   UNL     1       1.985  21.544  43.635  1.00  0.00     0.004 A 
ATOM      4  C   UNL     1       2.321  22.249  44.791  1.00  0.00     0.001 A 
ATOM      5  C   UNL     1       3.030  23.446  44.704  1.00  0.00     0.009 A 
ATOM      6  C   UNL     1       3.408  23.953  43.454  1.00  0.00    -0.018 A 
ATOM      7  C   UNL     1       4.121  25.160  43.373  1.00  0.00     0.009 A 
ATOM      8  C   UNL     1       4.502  25.671  42.132  1.00  0.00     0.001 A 
ATOM      9  C   UNL     1       4.177  24.983  40.962  1.00  0.00     0.001 A 
ATOM     10  C   UNL     1       3.468  23.781  41.024  1.00  0.00     0.009 A 
ATOM     11  C   UNL     1       3.072  23.245  42.268  1.00  0.00    -0.015 A 
ENDROOT
TORSDOF 0
ENDMDL
MODEL 3
REMARK VINA RESULT:    -5.554      1.012      3.344
REMARK INTER + INTRA:          -5.554
REMARK INTER:                  -5.554
REMARK INTRA:                   0.000
REMARK UNBOUND:                 0.000
REMARK SMILES Cc1cccc2ccccc12
REMARK SMILES IDX 1 1 2 2 3 3 4 4 5 5 6 6 7 7 8 8 9 9 10 10 11 11
REMARK H PARENT
REMARK Flexibility Score: inf
ROOT
ATOM      1  C   UNL     1       1.853  23.846  46.283  1.00  0.00     0.045 C 
ATOM      2  C   UNL     1       2.545  24.060  44.960  1.00  0.00    -0.043 A 
ATOM      3  C   UNL     1       3.340  25.206  44.790  1.00  0.00     0.004 A 
ATOM      4  C   UNL     1       3.999  25.444  43.583  1.00  0.00     0.001 A 
ATOM      5  C   UNL     1       3.877  24.545  42.525  1.00  0.00     0.009 A 
ATOM      6  C   UNL     1       3.091  23.393  42.665  1.00  0.00    -0.018 A 
ATOM      7  C   UNL     1       2.972  22.492  41.595  1.00  0.00     0.009 A 
ATOM      8  C   UNL     1       2.192  21.342  41.727  1.00  0.00     0.001 A 
ATOM      9  C   UNL     1       1.524  21.083  42.924  1.00  0.00     0.001 A 
ATOM     10  C   UNL     1       1.631  21.970  43.998  1.00  0.00     0.009 A 
ATOM     11  C   UNL     1       2.414  23.138  43.889  1.00  0.00    -0.015 A 
ENDROOT
TORSDOF 0
ENDMDL
MODEL 4
REMARK VINA RESULT:    -5.321      1.926      4.169
REMARK INTER + INTRA:          -5.321
REMARK INTER:                  -5.321
REMARK INTRA:                   0.000
REMARK UNBOUND:                 0.000
REMARK SMILES Cc1cccc2ccccc12
REMARK SMILES IDX 1 1 2 2 3 3 4 4 5 5 6 6 7 7 8 8 9 9 10 10 11 11
REMARK H PARENT
REMARK Flexibility Score: inf
ROOT
ATOM      1  C   UNL     1       2.000  21.870  43.875  1.00  0.00     0.045 C 
ATOM      2  C   UNL     1       2.631  23.237  43.956  1.00  0.00    -0.043 A 
ATOM      3  C   UNL     1       3.496  23.646  42.927  1.00  0.00     0.004 A 
ATOM      4  C   UNL     1       4.102  24.903  42.961  1.00  0.00     0.001 A 
ATOM      5  C   UNL     1       3.856  25.774  44.020  1.00  0.00     0.009 A 
ATOM      6  C   UNL     1       2.999  25.395  45.062  1.00  0.00    -0.018 A 
ATOM      7  C   UNL     1       2.756  26.277  46.127  1.00  0.00     0.009 A 
ATOM      8  C   UNL     1       1.903  25.906  47.168  1.00  0.00     0.001 A 
ATOM      9  C   UNL     1       1.286  24.655  47.155  1.00  0.00     0.001 A 
ATOM     10  C   UNL     1       1.517  23.765  46.104  1.00  0.00     0.009 A 
ATOM     11  C   UNL     1       2.375  24.117  45.040  1.00  0.00    -0.015 A 
ENDROOT
TORSDOF 0
ENDMDL
MODEL 5
REMARK VINA RESULT:    -5.282      1.773      3.905
REMARK INTER + INTRA:          -5.282
REMARK INTER:                  -5.282
REMARK INTRA:                   0.000
REMARK UNBOUND:                 0.000
REMARK SMILES Cc1cccc2ccccc12
REMARK SMILES IDX 1 1 2 2 3 3 4 4 5 5 6 6 7 7 8 8 9 9 10 10 11 11
REMARK H PARENT
REMARK Flexibility Score: inf
ROOT
ATOM      1  C   UNL     1       4.251  25.716  42.650  1.00  0.00     0.045 C 
ATOM      2  C   UNL     1       3.510  24.616  43.368  1.00  0.00    -0.043 A 
ATOM      3  C   UNL     1       3.392  23.361  42.747  1.00  0.00     0.004 A 
ATOM      4  C   UNL     1       2.715  22.315  43.374  1.00  0.00     0.001 A 
ATOM      5  C   UNL     1       2.145  22.500  44.632  1.00  0.00     0.009 A 
ATOM      6  C   UNL     1       2.245  23.740  45.277  1.00  0.00    -0.018 A 
ATOM      7  C   UNL     1       1.668  23.920  46.544  1.00  0.00     0.009 A 
ATOM      8  C   UNL     1       1.764  25.152  47.193  1.00  0.00     0.001 A 
ATOM      9  C   UNL     1       2.436  26.213  46.585  1.00  0.00     0.001 A 
ATOM     10  C   UNL     1       3.016  26.051  45.325  1.00  0.00     0.009 A 
ATOM     11  C   UNL     1       2.932  24.815  44.649  1.00  0.00    -0.015 A 
ENDROOT
TORSDOF 0
ENDMDL
MODEL 6
REMARK VINA RESULT:    -5.281      1.767      3.877
REMARK INTER + INTRA:          -5.281
REMARK INTER:                  -5.281
REMARK INTRA:                   0.000
REMARK UNBOUND:                 0.000
REMARK SMILES Cc1cccc2ccccc12
REMARK SMILES IDX 1 1 2 2 3 3 4 4 5 5 6 6 7 7 8 8 9 9 10 10 11 11
REMARK H PARENT
REMARK Flexibility Score: inf
ROOT
ATOM      1  C   UNL     1       1.238  24.497  47.232  1.00  0.00     0.045 C 
ATOM      2  C   UNL     1       2.134  24.895  46.085  1.00  0.00    -0.043 A 
ATOM      3  C   UNL     1       2.748  26.158  46.112  1.00  0.00     0.004 A 
ATOM      4  C   UNL     1       3.585  26.568  45.073  1.00  0.00     0.001 A 
ATOM      5  C   UNL     1       3.825  25.725  43.990  1.00  0.00     0.009 A 
ATOM      6  C   UNL     1       3.227  24.459  43.934  1.00  0.00    -0.018 A 
ATOM      7  C   UNL     1       3.472  23.615  42.840  1.00  0.00     0.009 A 
ATOM      8  C   UNL     1       2.881  22.352  42.777  1.00  0.00     0.001 A 
ATOM      9  C   UNL     1       2.041  21.921  43.804  1.00  0.00     0.001 A 
ATOM     10  C   UNL     1       1.785  22.749  44.901  1.00  0.00     0.009 A 
ATOM     11  C   UNL     1       2.372  24.029  44.986  1.00  0.00    -0.015 A 
ENDROOT
TORSDOF 0
ENDMDL
MODEL 7
REMARK VINA RESULT:    -5.262      0.987      1.327
REMARK INTER + INTRA:          -5.262
REMARK INTER:                  -5.262
REMARK INTRA:                   0.000
REMARK UNBOUND:                 0.000
REMARK SMILES Cc1cccc2ccccc12
REMARK SMILES IDX 1 1 2 2 3 3 4 4 5 5 6 6 7 7 8 8 9 9 10 10 11 11
REMARK H PARENT
REMARK Flexibility Score: inf
ROOT
ATOM      1  C   UNL     1       1.915  23.700  46.190  1.00  0.00     0.045 C 
ATOM      2  C   UNL     1       2.373  23.415  44.782  1.00  0.00    -0.043 A 
ATOM      3  C   UNL     1       1.976  22.213  44.172  1.00  0.00     0.004 A 
ATOM      4  C   UNL     1       2.376  21.907  42.870  1.00  0.00     0.001 A 
ATOM      5  C   UNL     1       3.177  22.794  42.154  1.00  0.00     0.009 A 
ATOM      6  C   UNL     1       3.589  24.001  42.735  1.00  0.00    -0.018 A 
ATOM      7  C   UNL     1       4.396  24.890  42.008  1.00  0.00     0.009 A 
ATOM      8  C   UNL     1       4.810  26.094  42.580  1.00  0.00     0.001 A 
ATOM      9  C   UNL     1       4.422  26.421  43.880  1.00  0.00     0.001 A 
ATOM     10  C   UNL     1       3.620  25.547  44.618  1.00  0.00     0.009 A 
ATOM     11  C   UNL     1       3.189  24.325  44.061  1.00  0.00    -0.015 A 
ENDROOT
TORSDOF 0
ENDMDL
MODEL 8
REMARK VINA RESULT:    -5.182      0.995      3.562
REMARK INTER + INTRA:          -5.182
REMARK INTER:                  -5.182
REMARK INTRA:                   0.000
REMARK UNBOUND:                 0.000
REMARK SMILES Cc1cccc2ccccc12
REMARK SMILES IDX 1 1 2 2 3 3 4 4 5 5 6 6 7 7 8 8 9 9 10 10 11 11
REMARK H PARENT
REMARK Flexibility Score: inf
ROOT
ATOM      1  C   UNL     1       4.139  26.340  44.922  1.00  0.00     0.045 C 
ATOM      2  C   UNL     1       3.973  25.518  43.670  1.00  0.00    -0.043 A 
ATOM      3  C   UNL     1       4.480  26.019  42.459  1.00  0.00     0.004 A 
ATOM      4  C   UNL     1       4.349  25.291  41.275  1.00  0.00     0.001 A 
ATOM      5  C   UNL     1       3.712  24.052  41.277  1.00  0.00     0.009 A 
ATOM      6  C   UNL     1       3.195  23.526  42.469  1.00  0.00    -0.018 A 
ATOM      7  C   UNL     1       2.553  22.278  42.464  1.00  0.00     0.009 A 
ATOM      8  C   UNL     1       2.037  21.747  43.647  1.00  0.00     0.001 A 
ATOM      9  C   UNL     1       2.156  22.456  44.843  1.00  0.00     0.001 A 
ATOM     10  C   UNL     1       2.791  23.700  44.865  1.00  0.00     0.009 A 
ATOM     11  C   UNL     1       3.321  24.256  43.682  1.00  0.00    -0.015 A 
ENDROOT
TORSDOF 0
ENDMDL
MODEL 9
REMARK VINA RESULT:    -5.157      1.914      4.242
REMARK INTER + INTRA:          -5.157
REMARK INTER:                  -5.157
REMARK INTRA:                   0.000
REMARK UNBOUND:                 0.000
REMARK SMILES Cc1cccc2ccccc12
REMARK SMILES IDX 1 1 2 2 3 3 4 4 5 5 6 6 7 7 8 8 9 9 10 10 11 11
REMARK H PARENT
REMARK Flexibility Score: inf
ROOT
ATOM      1  C   UNL     1       4.036  27.115  44.658  1.00  0.00     0.045 C 
ATOM      2  C   UNL     1       3.191  26.018  45.255  1.00  0.00    -0.043 A 
ATOM      3  C   UNL     1       2.568  26.242  46.495  1.00  0.00     0.004 A 
ATOM      4  C   UNL     1       1.777  25.255  47.085  1.00  0.00     0.001 A 
ATOM      5  C   UNL     1       1.592  24.029  46.450  1.00  0.00     0.009 A 
ATOM      6  C   UNL     1       2.201  23.775  45.213  1.00  0.00    -0.018 A 
ATOM      7  C   UNL     1       2.011  22.537  44.579  1.00  0.00     0.009 A 
ATOM      8  C   UNL     1       2.613  22.278  43.346  1.00  0.00     0.001 A 
ATOM      9  C   UNL     1       3.408  23.249  42.738  1.00  0.00     0.001 A 
ATOM     10  C   UNL     1       3.608  24.486  43.355  1.00  0.00     0.009 A 
ATOM     11  C   UNL     1       3.009  24.771  44.600  1.00  0.00    -0.015 A 
ENDROOT
TORSDOF 0
ENDMDL
