MODEL 1
REMARK VINA RESULT:    -5.995      0.000      0.000
REMARK INTER + INTRA:          -6.387
REMARK INTER:                  -6.346
REMARK INTRA:                  -0.042
REMARK UNBOUND:                -0.042
REMARK SMILES COc1ccc2ccc(=O)oc2c1
REMARK SMILES IDX 3 1 13 2 12 3 6 4 5 5 4 6 7 7 8 8 9 9 10 10 11 11 2 12 1 13
REMARK H PARENT
REMARK Flexibility Score: inf
ROOT
ATOM      1  C   UNL     1     -32.559  10.508 -32.240  1.00  0.00     0.122 A 
ATOM      2  C   UNL     1     -33.151  11.427 -33.116  1.00  0.00     0.094 A 
ATOM      3  C   UNL     1     -33.327  11.112 -34.467  1.00  0.00     0.142 A 
ATOM      4  C   UNL     1     -32.903   9.856 -34.954  1.00  0.00     0.018 A 
ATOM      5  C   UNL     1     -32.311   8.934 -34.083  1.00  0.00     0.016 A 
ATOM      6  C   UNL     1     -32.139   9.255 -32.734  1.00  0.00     0.047 A 
ATOM      7  C   UNL     1     -33.092   9.569 -36.310  1.00  0.00     0.019 A 
ATOM      8  C   UNL     1     -33.688  10.523 -37.134  1.00  0.00     0.094 A 
ATOM      9  C   UNL     1     -34.082  11.746 -36.581  1.00  0.00     0.336 A 
ATOM     10  O   UNL     1     -34.621  12.620 -37.310  1.00  0.00    -0.246 OA
ATOM     11  O   UNL     1     -33.891  11.994 -35.289  1.00  0.00    -0.423 OA
ENDROOT
BRANCH   1  12
ATOM     12  O   UNL     1     -32.407  10.874 -30.895  1.00  0.00    -0.497 OA
ATOM     13  C   UNL     1     -32.334  12.218 -30.430  1.00  0.00     0.278 C 
ENDBRANCH   1  12
TORSDOF 1
ENDMDL
MODEL 2
REMARK VINA RESULT:    -5.913      1.517      4.567
REMARK INTER + INTRA:          -6.301
REMARK INTER:                  -6.261
REMARK INTRA:                  -0.039
REMARK UNBOUND:                -0.042
REMARK SMILES COc1ccc2ccc(=O)oc2c1
REMARK SMILES IDX 3 1 13 2 12 3 6 4 5 5 4 6 7 7 8 8 9 9 10 10 11 11 2 12 1 13
REMARK H PARENT
REMARK Flexibility Score: inf
ROOT
ATOM      1  C   UNL     1     -33.049   9.812 -36.549  1.00  0.00     0.122 A 
ATOM      2  C   UNL     1     -33.642  10.699 -35.641  1.00  0.00     0.094 A 
ATOM      3  C   UNL     1     -33.281  10.682 -34.291  1.00  0.00     0.142 A 
ATOM      4  C   UNL     1     -32.310   9.764 -33.836  1.00  0.00     0.018 A 
ATOM      5  C   UNL     1     -31.714   8.875 -34.738  1.00  0.00     0.016 A 
ATOM      6  C   UNL     1     -32.080   8.897 -36.088  1.00  0.00     0.047 A 
ATOM      7  C   UNL     1     -31.969   9.771 -32.479  1.00  0.00     0.019 A 
ATOM      8  C   UNL     1     -32.592  10.677 -31.622  1.00  0.00     0.094 A 
ATOM      9  C   UNL     1     -33.546  11.558 -32.144  1.00  0.00     0.336 A 
ATOM     10  O   UNL     1     -34.120  12.383 -31.386  1.00  0.00    -0.246 OA
ATOM     11  O   UNL     1     -33.852  11.530 -33.438  1.00  0.00    -0.423 OA
ENDROOT
BRANCH   1  12
ATOM     12  O   UNL     1     -33.447   9.870 -37.893  1.00  0.00    -0.497 OA
ATOM     13  C   UNL     1     -34.790  10.063 -38.326  1.00  0.00     0.278 C 
ENDBRANCH   1  12
TORSDOF 1
ENDMDL
MODEL 3
REMARK VINA RESULT:    -5.466      2.024      2.940
REMARK INTER + INTRA:          -5.828
REMARK INTER:                  -5.793
REMARK INTRA:                  -0.035
REMARK UNBOUND:                -0.042
REMARK SMILES COc1ccc2ccc(=O)oc2c1
REMARK SMILES IDX 3 1 13 2 12 3 6 4 5 5 4 6 7 7 8 8 9 9 10 10 11 11 2 12 1 13
REMARK H PARENT
REMARK Flexibility Score: inf
ROOT
ATOM      1  C   UNL     1     -32.931  10.067 -34.143  1.00  0.00     0.122 A 
ATOM      2  C   UNL     1     -33.451   9.283 -35.180  1.00  0.00     0.094 A 
ATOM      3  C   UNL     1     -34.060   9.881 -36.287  1.00  0.00     0.142 A 
ATOM      4  C   UNL     1     -34.152  11.289 -36.362  1.00  0.00     0.018 A 
ATOM      5  C   UNL     1     -33.633  12.077 -35.328  1.00  0.00     0.016 A 
ATOM      6  C   UNL     1     -33.025  11.472 -34.224  1.00  0.00     0.047 A 
ATOM      7  C   UNL     1     -34.766  11.858 -37.482  1.00  0.00     0.019 A 
ATOM      8  C   UNL     1     -35.267  11.027 -38.484  1.00  0.00     0.094 A 
ATOM      9  C   UNL     1     -35.140   9.641 -38.342  1.00  0.00     0.336 A 
ATOM     10  O   UNL     1     -35.586   8.875 -39.235  1.00  0.00    -0.246 OA
ATOM     11  O   UNL     1     -34.552   9.125 -37.266  1.00  0.00    -0.423 OA
ENDROOT
BRANCH   1  12
ATOM     12  O   UNL     1     -32.330   9.417 -33.054  1.00  0.00    -0.497 OA
ATOM     13  C   UNL     1     -32.123  10.011 -31.777  1.00  0.00     0.278 C 
ENDBRANCH   1  12
TORSDOF 1
ENDMDL
MODEL 4
REMARK VINA RESULT:    -5.402      2.031      5.552
REMARK INTER + INTRA:          -5.760
REMARK INTER:                  -5.724
REMARK INTRA:                  -0.036
REMARK UNBOUND:                -0.042
REMARK SMILES COc1ccc2ccc(=O)oc2c1
REMARK SMILES IDX 3 1 13 2 12 3 6 4 5 5 4 6 7 7 8 8 9 9 10 10 11 11 2 12 1 13
REMARK H PARENT
REMARK Flexibility Score: inf
ROOT
ATOM      1  C   UNL     1     -34.738  10.171 -37.989  1.00  0.00     0.122 A 
ATOM      2  C   UNL     1     -34.199   9.369 -36.974  1.00  0.00     0.094 A 
ATOM      3  C   UNL     1     -33.749   9.940 -35.780  1.00  0.00     0.142 A 
ATOM      4  C   UNL     1     -33.837  11.336 -35.592  1.00  0.00     0.018 A 
ATOM      5  C   UNL     1     -34.375  12.143 -36.603  1.00  0.00     0.016 A 
ATOM      6  C   UNL     1     -34.823  11.566 -37.795  1.00  0.00     0.047 A 
ATOM      7  C   UNL     1     -33.379  11.878 -34.387  1.00  0.00     0.019 A 
ATOM      8  C   UNL     1     -32.853  11.030 -33.413  1.00  0.00     0.094 A 
ATOM      9  C   UNL     1     -32.797   9.656 -33.668  1.00  0.00     0.336 A 
ATOM     10  O   UNL     1     -32.325   8.875 -32.801  1.00  0.00    -0.246 OA
ATOM     11  O   UNL     1     -33.239   9.167 -34.823  1.00  0.00    -0.423 OA
ENDROOT
BRANCH   1  12
ATOM     12  O   UNL     1     -35.175   9.549 -39.167  1.00  0.00    -0.497 OA
ATOM     13  C   UNL     1     -35.877  10.211 -40.214  1.00  0.00     0.278 C 
ENDBRANCH   1  12
TORSDOF 1
ENDMDL
MODEL 5
REMARK VINA RESULT:    -4.436      2.127      2.923
REMARK INTER + INTRA:          -4.737
REMARK INTER:                  -4.704
REMARK INTRA:                  -0.033
REMARK UNBOUND:                -0.042
REMARK SMILES COc1ccc2ccc(=O)oc2c1
REMARK SMILES IDX 3 1 13 2 12 3 6 4 5 5 4 6 7 7 8 8 9 9 10 10 11 11 2 12 1 13
REMARK H PARENT
REMARK Flexibility Score: inf
ROOT
ATOM      1  C   UNL     1     -32.816  11.523 -30.855  1.00  0.00     0.122 A 
ATOM      2  C   UNL     1     -32.018  10.702 -31.661  1.00  0.00     0.094 A 
ATOM      3  C   UNL     1     -32.284  10.573 -33.028  1.00  0.00     0.142 A 
ATOM      4  C   UNL     1     -33.366  11.275 -33.602  1.00  0.00     0.018 A 
ATOM      5  C   UNL     1     -34.167  12.097 -32.800  1.00  0.00     0.016 A 
ATOM      6  C   UNL     1     -33.895  12.222 -31.434  1.00  0.00     0.047 A 
ATOM      7  C   UNL     1     -33.606  11.126 -34.971  1.00  0.00     0.019 A 
ATOM      8  C   UNL     1     -32.778  10.295 -35.725  1.00  0.00     0.094 A 
ATOM      9  C   UNL     1     -31.724   9.630 -35.088  1.00  0.00     0.336 A 
ATOM     10  O   UNL     1     -30.967   8.875 -35.751  1.00  0.00    -0.246 OA
ATOM     11  O   UNL     1     -31.518   9.789 -33.784  1.00  0.00    -0.423 OA
ENDROOT
BRANCH   1  12
ATOM     12  O   UNL     1     -32.507  11.618 -29.490  1.00  0.00    -0.497 OA
ATOM     13  C   UNL     1     -32.501  12.834 -28.749  1.00  0.00     0.278 C 
ENDBRANCH   1  12
TORSDOF 1
ENDMDL
MODEL 6
REMARK VINA RESULT:    -4.129      2.408      5.191
REMARK INTER + INTRA:          -4.412
REMARK INTER:                  -4.378
REMARK INTRA:                  -0.034
REMARK UNBOUND:                -0.042
REMARK SMILES COc1ccc2ccc(=O)oc2c1
REMARK SMILES IDX 3 1 13 2 12 3 6 4 5 5 4 6 7 7 8 8 9 9 10 10 11 11 2 12 1 13
REMARK H PARENT
REMARK Flexibility Score: inf
ROOT
ATOM      1  C   UNL     1     -32.150   9.793 -33.755  1.00  0.00     0.122 A 
ATOM      2  C   UNL     1     -31.700  10.140 -32.475  1.00  0.00     0.094 A 
ATOM      3  C   UNL     1     -32.417  11.048 -31.690  1.00  0.00     0.142 A 
ATOM      4  C   UNL     1     -33.607  11.620 -32.190  1.00  0.00     0.018 A 
ATOM      5  C   UNL     1     -34.062  11.276 -33.469  1.00  0.00     0.016 A 
ATOM      6  C   UNL     1     -33.340  10.368 -34.248  1.00  0.00     0.047 A 
ATOM      7  C   UNL     1     -34.303  12.525 -31.382  1.00  0.00     0.019 A 
ATOM      8  C   UNL     1     -33.806  12.833 -30.116  1.00  0.00     0.094 A 
ATOM      9  C   UNL     1     -32.620  12.227 -29.686  1.00  0.00     0.336 A 
ATOM     10  O   UNL     1     -32.156  12.493 -28.547  1.00  0.00    -0.246 OA
ATOM     11  O   UNL     1     -31.978  11.370 -30.475  1.00  0.00    -0.423 OA
ENDROOT
BRANCH   1  12
ATOM     12  O   UNL     1     -31.393   8.877 -34.501  1.00  0.00    -0.497 OA
ATOM     13  C   UNL     1     -31.300   8.880 -35.922  1.00  0.00     0.278 C 
ENDBRANCH   1  12
TORSDOF 1
ENDMDL
MODEL 7
REMARK VINA RESULT:    -3.661     17.852     19.770
REMARK INTER + INTRA:          -3.916
REMARK INTER:                  -3.878
REMARK INTRA:                  -0.038
REMARK UNBOUND:                -0.042
REMARK SMILES COc1ccc2ccc(=O)oc2c1
REMARK SMILES IDX 3 1 13 2 12 3 6 4 5 5 4 6 7 7 8 8 9 9 10 10 11 11 2 12 1 13
REMARK H PARENT
REMARK Flexibility Score: inf
ROOT
ATOM      1  C   UNL     1     -21.791  28.427 -28.901  1.00  0.00     0.122 A 
ATOM      2  C   UNL     1     -21.836  27.030 -28.811  1.00  0.00     0.094 A 
ATOM      3  C   UNL     1     -22.649  26.287 -29.671  1.00  0.00     0.142 A 
ATOM      4  C   UNL     1     -23.433  26.949 -30.642  1.00  0.00     0.018 A 
ATOM      5  C   UNL     1     -23.392  28.346 -30.736  1.00  0.00     0.016 A 
ATOM      6  C   UNL     1     -22.576  29.082 -29.872  1.00  0.00     0.047 A 
ATOM      7  C   UNL     1     -24.237  26.180 -31.489  1.00  0.00     0.019 A 
ATOM      8  C   UNL     1     -24.241  24.792 -31.353  1.00  0.00     0.094 A 
ATOM      9  C   UNL     1     -23.438  24.204 -30.368  1.00  0.00     0.336 A 
ATOM     10  O   UNL     1     -23.429  22.954 -30.230  1.00  0.00    -0.246 OA
ATOM     11  O   UNL     1     -22.684  24.960 -29.576  1.00  0.00    -0.423 OA
ENDROOT
BRANCH   1  12
ATOM     12  O   UNL     1     -20.958  29.125 -28.013  1.00  0.00    -0.497 OA
ATOM     13  C   UNL     1     -20.883  28.872 -26.614  1.00  0.00     0.278 C 
ENDBRANCH   1  12
TORSDOF 1
ENDMDL
MODEL 8
REMARK VINA RESULT:    -3.550     16.507     18.457
REMARK INTER + INTRA:          -3.799
REMARK INTER:                  -3.767
REMARK INTRA:                  -0.032
REMARK UNBOUND:                -0.042
REMARK SMILES COc1ccc2ccc(=O)oc2c1
REMARK SMILES IDX 3 1 13 2 12 3 6 4 5 5 4 6 7 7 8 8 9 9 10 10 11 11 2 12 1 13
REMARK H PARENT
REMARK Flexibility Score: inf
ROOT
ATOM      1  C   UNL     1     -25.096  24.563 -31.663  1.00  0.00     0.122 A 
ATOM      2  C   UNL     1     -24.719  25.902 -31.500  1.00  0.00     0.094 A 
ATOM      3  C   UNL     1     -23.647  26.244 -30.671  1.00  0.00     0.142 A 
ATOM      4  C   UNL     1     -22.935  25.232 -29.991  1.00  0.00     0.018 A 
ATOM      5  C   UNL     1     -23.307  23.891 -30.151  1.00  0.00     0.016 A 
ATOM      6  C   UNL     1     -24.380  23.556 -30.982  1.00  0.00     0.047 A 
ATOM      7  C   UNL     1     -21.867  25.604 -29.169  1.00  0.00     0.019 A 
ATOM      8  C   UNL     1     -21.538  26.954 -29.045  1.00  0.00     0.094 A 
ATOM      9  C   UNL     1     -22.288  27.902 -29.749  1.00  0.00     0.336 A 
ATOM     10  O   UNL     1     -22.006  29.125 -29.650  1.00  0.00    -0.246 OA
ATOM     11  O   UNL     1     -23.299  27.521 -30.524  1.00  0.00    -0.423 OA
ENDROOT
BRANCH   1  12
ATOM     12  O   UNL     1     -26.179  24.274 -32.507  1.00  0.00    -0.497 OA
ATOM     13  C   UNL     1     -27.309  23.497 -32.126  1.00  0.00     0.278 C 
ENDBRANCH   1  12
TORSDOF 1
ENDMDL
MODEL 9
REMARK VINA RESULT:    -3.408     18.311     19.384
REMARK INTER + INTRA:          -3.648
REMARK INTER:                  -3.615
REMARK INTRA:                  -0.033
REMARK UNBOUND:                -0.042
REMARK SMILES COc1ccc2ccc(=O)oc2c1
REMARK SMILES IDX 3 1 13 2 12 3 6 4 5 5 4 6 7 7 8 8 9 9 10 10 11 11 2 12 1 13
REMARK H PARENT
REMARK Flexibility Score: inf
ROOT
ATOM      1  C   UNL     1     -23.124  27.714 -30.608  1.00  0.00     0.122 A 
ATOM      2  C   UNL     1     -22.881  28.348 -31.833  1.00  0.00     0.094 A 
ATOM      3  C   UNL     1     -23.104  27.676 -33.039  1.00  0.00     0.142 A 
ATOM      4  C   UNL     1     -23.579  26.347 -33.024  1.00  0.00     0.018 A 
ATOM      5  C   UNL     1     -23.823  25.708 -31.802  1.00  0.00     0.016 A 
ATOM      6  C   UNL     1     -23.598  26.385 -30.600  1.00  0.00     0.047 A 
ATOM      7  C   UNL     1     -23.792  25.701 -34.245  1.00  0.00     0.019 A 
ATOM      8  C   UNL     1     -23.533  26.383 -35.434  1.00  0.00     0.094 A 
ATOM      9  C   UNL     1     -23.064  27.699 -35.372  1.00  0.00     0.336 A 
ATOM     10  O   UNL     1     -22.824  28.331 -36.434  1.00  0.00    -0.246 OA
ATOM     11  O   UNL     1     -22.869  28.290 -34.196  1.00  0.00    -0.423 OA
ENDROOT
BRANCH   1  12
ATOM     12  O   UNL     1     -22.884  28.432 -29.427  1.00  0.00    -0.497 OA
ATOM     13  C   UNL     1     -21.815  28.165 -28.526  1.00  0.00     0.278 C 
ENDBRANCH   1  12
TORSDOF 1
ENDMDL
