MODEL 1
REMARK VINA RESULT:    -3.621      0.000      0.000
REMARK INTER + INTRA:         -14.765
REMARK INTER:                  -9.549
REMARK INTRA:                  -5.216
REMARK UNBOUND:                -5.216
REMARK SMILES CCCCCCCCCCCCCCCCCCCCCCCCCCCCCC(=O)[O-]
REMARK SMILES IDX 16 1 17 2 18 3 19 4 20 5 21 6 22 7 23 8 24 9 25 10 26 11
REMARK SMILES IDX 27 12 28 13 29 14 30 15 31 16 32 17 15 18 14 19 13 20 12 21
REMARK SMILES IDX 11 22 10 23 9 24 8 25 7 26 6 27 5 28 4 29 3 30 2 31 1 32
REMARK H PARENT
REMARK Flexibility Score: inf
ROOT
ATOM      1  C   UNL     1     -19.355  23.243  46.211  1.00  0.00     0.000 C 
ENDROOT
BRANCH   1   2
ATOM      2  C   UNL     1     -19.391  22.204  45.070  1.00  0.00     0.000 C 
BRANCH   2   3
ATOM      3  C   UNL     1     -19.131  20.771  45.578  1.00  0.00     0.000 C 
BRANCH   3   4
ATOM      4  C   UNL     1     -18.053  20.027  44.763  1.00  0.00     0.000 C 
BRANCH   4   5
ATOM      5  C   UNL     1     -17.138  20.991  43.984  1.00  0.00     0.000 C 
BRANCH   5   6
ATOM      6  C   UNL     1     -15.763  21.172  44.665  1.00  0.00     0.000 C 
BRANCH   6   7
ATOM      7  C   UNL     1     -15.583  20.341  45.945  1.00  0.00     0.000 C 
BRANCH   7   8
ATOM      8  C   UNL     1     -14.205  20.527  46.595  1.00  0.00     0.000 C 
BRANCH   8   9
ATOM      9  C   UNL     1     -13.719  21.988  46.562  1.00  0.00     0.000 C 
BRANCH   9  10
ATOM     10  C   UNL     1     -12.322  22.172  45.937  1.00  0.00     0.000 C 
BRANCH  10  11
ATOM     11  C   UNL     1     -12.018  23.638  45.592  1.00  0.00     0.000 C 
BRANCH  11  12
ATOM     12  C   UNL     1     -12.853  24.109  44.395  1.00  0.00     0.000 C 
BRANCH  12  13
ATOM     13  C   UNL     1     -12.719  23.182  43.173  1.00  0.00     0.006 C 
BRANCH  13  14
ATOM     14  C   UNL     1     -13.825  23.353  42.121  1.00  0.00     0.053 C 
BRANCH  14  15
ATOM     15  C   UNL     1     -13.445  24.342  41.058  1.00  0.00     0.041 C 
ATOM     16  O   UNL     1     -13.312  23.969  39.863  1.00  0.00    -0.550 OA
ATOM     17  O   UNL     1     -13.231  25.672  41.391  1.00  0.00    -0.550 OA
ENDBRANCH  14  15
ENDBRANCH  13  14
ENDBRANCH  12  13
ENDBRANCH  11  12
ENDBRANCH  10  11
ENDBRANCH   9  10
ENDBRANCH   8   9
ENDBRANCH   7   8
ENDBRANCH   6   7
ENDBRANCH   5   6
ENDBRANCH   4   5
ENDBRANCH   3   4
ENDBRANCH   2   3
ENDBRANCH   1   2
BRANCH   1  18
ATOM     18  C   UNL     1     -17.922  23.704  46.561  1.00  0.00     0.000 C 
BRANCH  18  19
ATOM     19  C   UNL     1     -17.470  24.976  45.819  1.00  0.00     0.000 C 
BRANCH  19  20
ATOM     20  C   UNL     1     -16.398  24.759  44.736  1.00  0.00     0.000 C 
BRANCH  20  21
ATOM     21  C   UNL     1     -16.784  25.248  43.329  1.00  0.00     0.000 C 
BRANCH  21  22
ATOM     22  C   UNL     1     -17.482  24.168  42.485  1.00  0.00     0.000 C 
BRANCH  22  23
ATOM     23  C   UNL     1     -18.952  24.538  42.240  1.00  0.00     0.000 C 
BRANCH  23  24
ATOM     24  C   UNL     1     -19.153  26.039  41.960  1.00  0.00    -0.000 C 
BRANCH  24  25
ATOM     25  C   UNL     1     -20.227  26.724  42.831  1.00  0.00    -0.000 C 
BRANCH  25  26
ATOM     26  C   UNL     1     -20.612  25.904  44.083  1.00  0.00    -0.000 C 
BRANCH  26  27
ATOM     27  C   UNL     1     -22.090  25.479  44.064  1.00  0.00    -0.000 C 
BRANCH  27  28
ATOM     28  C   UNL     1     -22.586  25.116  45.471  1.00  0.00    -0.000 C 
BRANCH  28  29
ATOM     29  C   UNL     1     -22.986  23.637  45.608  1.00  0.00    -0.000 C 
BRANCH  29  30
ATOM     30  C   UNL     1     -24.199  23.261  44.737  1.00  0.00    -0.000 C 
BRANCH  30  31
ATOM     31  C   UNL     1     -25.271  22.484  45.516  1.00  0.00    -0.003 C 
ATOM     32  C   UNL     1     -25.287  22.832  47.004  1.00  0.00     0.004 C 
ENDBRANCH  30  31
ENDBRANCH  29  30
ENDBRANCH  28  29
ENDBRANCH  27  28
ENDBRANCH  26  27
ENDBRANCH  25  26
ENDBRANCH  24  25
ENDBRANCH  23  24
ENDBRANCH  22  23
ENDBRANCH  21  22
ENDBRANCH  20  21
ENDBRANCH  19  20
ENDBRANCH  18  19
ENDBRANCH   1  18
TORSDOF 28
ENDMDL
MODEL 2
REMARK VINA RESULT:    -3.550      3.590      8.212
REMARK INTER + INTRA:         -14.576
REMARK INTER:                  -8.722
REMARK INTRA:                  -5.854
REMARK UNBOUND:                -5.216
REMARK SMILES CCCCCCCCCCCCCCCCCCCCCCCCCCCCCC(=O)[O-]
REMARK SMILES IDX 16 1 17 2 18 3 19 4 20 5 21 6 22 7 23 8 24 9 25 10 26 11
REMARK SMILES IDX 27 12 28 13 29 14 30 15 31 16 32 17 15 18 14 19 13 20 12 21
REMARK SMILES IDX 11 22 10 23 9 24 8 25 7 26 6 27 5 28 4 29 3 30 2 31 1 32
REMARK H PARENT
REMARK Flexibility Score: inf
ROOT
ATOM      1  C   UNL     1     -16.961  21.610  43.442  1.00  0.00     0.000 C 
ENDROOT
BRANCH   1   2
ATOM      2  C   UNL     1     -18.045  22.226  42.532  1.00  0.00     0.000 C 
BRANCH   2   3
ATOM      3  C   UNL     1     -17.720  23.682  42.141  1.00  0.00     0.000 C 
BRANCH   3   4
ATOM      4  C   UNL     1     -18.939  24.621  42.238  1.00  0.00     0.000 C 
BRANCH   4   5
ATOM      5  C   UNL     1     -19.607  24.574  43.626  1.00  0.00     0.000 C 
BRANCH   5   6
ATOM      6  C   UNL     1     -19.725  25.975  44.266  1.00  0.00     0.000 C 
BRANCH   6   7
ATOM      7  C   UNL     1     -20.048  27.096  43.266  1.00  0.00     0.000 C 
BRANCH   7   8
ATOM      8  C   UNL     1     -18.936  28.149  43.165  1.00  0.00     0.000 C 
BRANCH   8   9
ATOM      9  C   UNL     1     -18.338  28.258  41.750  1.00  0.00     0.000 C 
BRANCH   9  10
ATOM     10  C   UNL     1     -17.416  29.476  41.548  1.00  0.00     0.000 C 
BRANCH  10  11
ATOM     11  C   UNL     1     -18.194  30.797  41.452  1.00  0.00     0.000 C 
BRANCH  11  12
ATOM     12  C   UNL     1     -19.240  30.742  40.331  1.00  0.00     0.000 C 
BRANCH  12  13
ATOM     13  C   UNL     1     -20.611  31.287  40.769  1.00  0.00     0.006 C 
BRANCH  13  14
ATOM     14  C   UNL     1     -21.519  30.250  41.449  1.00  0.00     0.053 C 
BRANCH  14  15
ATOM     15  C   UNL     1     -21.776  30.583  42.889  1.00  0.00     0.041 C 
ATOM     16  O   UNL     1     -20.950  31.277  43.538  1.00  0.00    -0.550 OA
ATOM     17  O   UNL     1     -22.926  30.120  43.515  1.00  0.00    -0.550 OA
ENDBRANCH  14  15
ENDBRANCH  13  14
ENDBRANCH  12  13
ENDBRANCH  11  12
ENDBRANCH  10  11
ENDBRANCH   9  10
ENDBRANCH   8   9
ENDBRANCH   7   8
ENDBRANCH   6   7
ENDBRANCH   5   6
ENDBRANCH   4   5
ENDBRANCH   3   4
ENDBRANCH   2   3
ENDBRANCH   1   2
BRANCH   1  18
ATOM     18  C   UNL     1     -17.545  20.686  44.534  1.00  0.00     0.000 C 
BRANCH  18  19
ATOM     19  C   UNL     1     -18.843  21.212  45.176  1.00  0.00     0.000 C 
BRANCH  19  20
ATOM     20  C   UNL     1     -18.683  21.814  46.583  1.00  0.00     0.000 C 
BRANCH  20  21
ATOM     21  C   UNL     1     -17.991  23.188  46.629  1.00  0.00     0.000 C 
BRANCH  21  22
ATOM     22  C   UNL     1     -16.541  23.117  47.137  1.00  0.00     0.000 C 
BRANCH  22  23
ATOM     23  C   UNL     1     -15.695  24.239  46.518  1.00  0.00     0.000 C 
BRANCH  23  24
ATOM     24  C   UNL     1     -16.298  24.794  45.215  1.00  0.00    -0.000 C 
BRANCH  24  25
ATOM     25  C   UNL     1     -15.784  26.190  44.803  1.00  0.00    -0.000 C 
BRANCH  25  26
ATOM     26  C   UNL     1     -15.600  26.347  43.277  1.00  0.00    -0.000 C 
BRANCH  26  27
ATOM     27  C   UNL     1     -14.155  26.718  42.903  1.00  0.00    -0.000 C 
BRANCH  27  28
ATOM     28  C   UNL     1     -13.611  25.804  41.797  1.00  0.00    -0.000 C 
BRANCH  28  29
ATOM     29  C   UNL     1     -14.242  24.401  41.806  1.00  0.00    -0.000 C 
BRANCH  29  30
ATOM     30  C   UNL     1     -13.230  23.291  42.145  1.00  0.00    -0.000 C 
BRANCH  30  31
ATOM     31  C   UNL     1     -13.437  22.707  43.550  1.00  0.00    -0.003 C 
ATOM     32  C   UNL     1     -12.698  23.495  44.632  1.00  0.00     0.004 C 
ENDBRANCH  30  31
ENDBRANCH  29  30
ENDBRANCH  28  29
ENDBRANCH  27  28
ENDBRANCH  26  27
ENDBRANCH  25  26
ENDBRANCH  24  25
ENDBRANCH  23  24
ENDBRANCH  22  23
ENDBRANCH  21  22
ENDBRANCH  20  21
ENDBRANCH  19  20
ENDBRANCH  18  19
ENDBRANCH   1  18
TORSDOF 28
ENDMDL
MODEL 3
REMARK VINA RESULT:    -3.473      2.655      4.498
REMARK INTER + INTRA:         -14.375
REMARK INTER:                  -8.393
REMARK INTRA:                  -5.982
REMARK UNBOUND:                -5.216
REMARK SMILES CCCCCCCCCCCCCCCCCCCCCCCCCCCCCC(=O)[O-]
REMARK SMILES IDX 16 1 17 2 18 3 19 4 20 5 21 6 22 7 23 8 24 9 25 10 26 11
REMARK SMILES IDX 27 12 28 13 29 14 30 15 31 16 32 17 15 18 14 19 13 20 12 21
REMARK SMILES IDX 11 22 10 23 9 24 8 25 7 26 6 27 5 28 4 29 3 30 2 31 1 32
REMARK H PARENT
REMARK Flexibility Score: inf
ROOT
ATOM      1  C   UNL     1     -16.169  27.576  44.897  1.00  0.00     0.000 C 
ENDROOT
BRANCH   1   2
ATOM      2  C   UNL     1     -16.075  26.067  45.210  1.00  0.00     0.000 C 
BRANCH   2   3
ATOM      3  C   UNL     1     -14.619  25.560  45.207  1.00  0.00     0.000 C 
BRANCH   3   4
ATOM      4  C   UNL     1     -14.340  24.513  46.305  1.00  0.00     0.000 C 
BRANCH   4   5
ATOM      5  C   UNL     1     -15.069  23.181  46.045  1.00  0.00     0.000 C 
BRANCH   5   6
ATOM      6  C   UNL     1     -14.334  21.979  46.676  1.00  0.00     0.000 C 
BRANCH   6   7
ATOM      7  C   UNL     1     -14.176  20.775  45.734  1.00  0.00     0.000 C 
BRANCH   7   8
ATOM      8  C   UNL     1     -13.906  21.181  44.279  1.00  0.00     0.000 C 
BRANCH   8   9
ATOM      9  C   UNL     1     -12.565  21.916  44.099  1.00  0.00     0.000 C 
BRANCH   9  10
ATOM     10  C   UNL     1     -12.630  23.120  43.139  1.00  0.00     0.000 C 
BRANCH  10  11
ATOM     11  C   UNL     1     -14.005  23.270  42.473  1.00  0.00     0.000 C 
BRANCH  11  12
ATOM     12  C   UNL     1     -14.084  24.567  41.656  1.00  0.00     0.000 C 
BRANCH  12  13
ATOM     13  C   UNL     1     -12.699  25.089  41.233  1.00  0.00     0.006 C 
BRANCH  13  14
ATOM     14  C   UNL     1     -12.376  26.507  41.730  1.00  0.00     0.053 C 
BRANCH  14  15
ATOM     15  C   UNL     1     -10.899  26.742  41.846  1.00  0.00     0.041 C 
ATOM     16  O   UNL     1     -10.214  26.081  42.669  1.00  0.00    -0.550 OA
ATOM     17  O   UNL     1     -10.283  27.698  41.049  1.00  0.00    -0.550 OA
ENDBRANCH  14  15
ENDBRANCH  13  14
ENDBRANCH  12  13
ENDBRANCH  11  12
ENDBRANCH  10  11
ENDBRANCH   9  10
ENDBRANCH   8   9
ENDBRANCH   7   8
ENDBRANCH   6   7
ENDBRANCH   5   6
ENDBRANCH   4   5
ENDBRANCH   3   4
ENDBRANCH   2   3
ENDBRANCH   1   2
BRANCH   1  18
ATOM     18  C   UNL     1     -15.329  27.990  43.669  1.00  0.00     0.000 C 
BRANCH  18  19
ATOM     19  C   UNL     1     -16.010  27.708  42.316  1.00  0.00     0.000 C 
BRANCH  19  20
ATOM     20  C   UNL     1     -16.856  28.864  41.753  1.00  0.00     0.000 C 
BRANCH  20  21
ATOM     21  C   UNL     1     -18.337  28.526  41.504  1.00  0.00     0.000 C 
BRANCH  21  22
ATOM     22  C   UNL     1     -19.150  28.383  42.801  1.00  0.00     0.000 C 
BRANCH  22  23
ATOM     23  C   UNL     1     -20.022  27.120  42.758  1.00  0.00     0.000 C 
BRANCH  23  24
ATOM     24  C   UNL     1     -19.279  25.863  43.249  1.00  0.00    -0.000 C 
BRANCH  24  25
ATOM     25  C   UNL     1     -18.886  24.865  42.140  1.00  0.00    -0.000 C 
BRANCH  25  26
ATOM     26  C   UNL     1     -17.687  23.968  42.523  1.00  0.00    -0.000 C 
BRANCH  26  27
ATOM     27  C   UNL     1     -18.053  22.474  42.507  1.00  0.00    -0.000 C 
BRANCH  27  28
ATOM     28  C   UNL     1     -17.167  21.670  43.468  1.00  0.00    -0.000 C 
BRANCH  28  29
ATOM     29  C   UNL     1     -17.969  20.733  44.387  1.00  0.00    -0.000 C 
BRANCH  29  30
ATOM     30  C   UNL     1     -19.077  21.464  45.169  1.00  0.00    -0.000 C 
BRANCH  30  31
ATOM     31  C   UNL     1     -18.533  22.253  46.370  1.00  0.00    -0.003 C 
ATOM     32  C   UNL     1     -18.781  23.757  46.248  1.00  0.00     0.004 C 
ENDBRANCH  30  31
ENDBRANCH  29  30
ENDBRANCH  28  29
ENDBRANCH  27  28
ENDBRANCH  26  27
ENDBRANCH  25  26
ENDBRANCH  24  25
ENDBRANCH  23  24
ENDBRANCH  22  23
ENDBRANCH  21  22
ENDBRANCH  20  21
ENDBRANCH  19  20
ENDBRANCH  18  19
ENDBRANCH   1  18
TORSDOF 28
ENDMDL
MODEL 4
REMARK VINA RESULT:    -3.419      2.489      7.032
REMARK INTER + INTRA:         -14.232
REMARK INTER:                  -8.267
REMARK INTRA:                  -5.965
REMARK UNBOUND:                -5.216
REMARK SMILES CCCCCCCCCCCCCCCCCCCCCCCCCCCCCC(=O)[O-]
REMARK SMILES IDX 16 1 17 2 18 3 19 4 20 5 21 6 22 7 23 8 24 9 25 10 26 11
REMARK SMILES IDX 27 12 28 13 29 14 30 15 31 16 32 17 15 18 14 19 13 20 12 21
REMARK SMILES IDX 11 22 10 23 9 24 8 25 7 26 6 27 5 28 4 29 3 30 2 31 1 32
REMARK H PARENT
REMARK Flexibility Score: inf
ROOT
ATOM      1  C   UNL     1     -18.239  21.175  45.560  1.00  0.00     0.000 C 
ENDROOT
BRANCH   1   2
ATOM      2  C   UNL     1     -17.617  20.598  44.270  1.00  0.00     0.000 C 
BRANCH   2   3
ATOM      3  C   UNL     1     -17.297  21.696  43.235  1.00  0.00     0.000 C 
BRANCH   3   4
ATOM      4  C   UNL     1     -18.384  22.787  43.154  1.00  0.00     0.000 C 
BRANCH   4   5
ATOM      5  C   UNL     1     -18.059  23.863  42.101  1.00  0.00     0.000 C 
BRANCH   5   6
ATOM      6  C   UNL     1     -18.971  25.103  42.230  1.00  0.00     0.000 C 
BRANCH   6   7
ATOM      7  C   UNL     1     -19.851  25.106  43.491  1.00  0.00     0.000 C 
BRANCH   7   8
ATOM      8  C   UNL     1     -20.886  26.239  43.498  1.00  0.00     0.000 C 
BRANCH   8   9
ATOM      9  C   UNL     1     -20.575  27.331  44.539  1.00  0.00     0.000 C 
BRANCH   9  10
ATOM     10  C   UNL     1     -19.189  27.985  44.369  1.00  0.00     0.000 C 
BRANCH  10  11
ATOM     11  C   UNL     1     -19.241  29.270  43.530  1.00  0.00     0.000 C 
BRANCH  11  12
ATOM     12  C   UNL     1     -19.122  28.957  42.032  1.00  0.00     0.000 C 
BRANCH  12  13
ATOM     13  C   UNL     1     -17.698  28.541  41.623  1.00  0.00     0.006 C 
BRANCH  13  14
ATOM     14  C   UNL     1     -16.590  29.472  42.140  1.00  0.00     0.053 C 
BRANCH  14  15
ATOM     15  C   UNL     1     -16.296  30.588  41.182  1.00  0.00     0.041 C 
ATOM     16  O   UNL     1     -17.100  31.549  41.062  1.00  0.00    -0.550 OA
ATOM     17  O   UNL     1     -15.138  30.560  40.417  1.00  0.00    -0.550 OA
ENDBRANCH  14  15
ENDBRANCH  13  14
ENDBRANCH  12  13
ENDBRANCH  11  12
ENDBRANCH  10  11
ENDBRANCH   9  10
ENDBRANCH   8   9
ENDBRANCH   7   8
ENDBRANCH   6   7
ENDBRANCH   5   6
ENDBRANCH   4   5
ENDBRANCH   3   4
ENDBRANCH   2   3
ENDBRANCH   1   2
BRANCH   1  18
ATOM     18  C   UNL     1     -19.491  20.398  46.025  1.00  0.00     0.000 C 
BRANCH  18  19
ATOM     19  C   UNL     1     -20.669  21.297  46.446  1.00  0.00     0.000 C 
BRANCH  19  20
ATOM     20  C   UNL     1     -20.635  22.730  45.885  1.00  0.00     0.000 C 
BRANCH  20  21
ATOM     21  C   UNL     1     -21.230  23.807  46.810  1.00  0.00     0.000 C 
BRANCH  21  22
ATOM     22  C   UNL     1     -20.205  24.872  47.234  1.00  0.00     0.000 C 
BRANCH  22  23
ATOM     23  C   UNL     1     -18.775  24.324  47.120  1.00  0.00     0.000 C 
BRANCH  23  24
ATOM     24  C   UNL     1     -17.774  25.369  46.595  1.00  0.00    -0.000 C 
BRANCH  24  25
ATOM     25  C   UNL     1     -16.785  24.845  45.532  1.00  0.00    -0.000 C 
BRANCH  25  26
ATOM     26  C   UNL     1     -15.557  25.763  45.336  1.00  0.00    -0.000 C 
BRANCH  26  27
ATOM     27  C   UNL     1     -15.516  26.381  43.928  1.00  0.00    -0.000 C 
BRANCH  27  28
ATOM     28  C   UNL     1     -15.169  25.330  42.865  1.00  0.00    -0.000 C 
BRANCH  28  29
ATOM     29  C   UNL     1     -13.878  24.554  43.180  1.00  0.00    -0.000 C 
BRANCH  29  30
ATOM     30  C   UNL     1     -13.872  23.135  42.582  1.00  0.00    -0.000 C 
BRANCH  30  31
ATOM     31  C   UNL     1     -13.448  22.064  43.598  1.00  0.00    -0.003 C 
ATOM     32  C   UNL     1     -14.141  22.228  44.951  1.00  0.00     0.004 C 
ENDBRANCH  30  31
ENDBRANCH  29  30
ENDBRANCH  28  29
ENDBRANCH  27  28
ENDBRANCH  26  27
ENDBRANCH  25  26
ENDBRANCH  24  25
ENDBRANCH  23  24
ENDBRANCH  22  23
ENDBRANCH  21  22
ENDBRANCH  20  21
ENDBRANCH  19  20
ENDBRANCH  18  19
ENDBRANCH   1  18
TORSDOF 28
ENDMDL
MODEL 5
REMARK VINA RESULT:    -3.419      2.999      7.787
REMARK INTER + INTRA:         -14.231
REMARK INTER:                  -8.459
REMARK INTRA:                  -5.771
REMARK UNBOUND:                -5.216
REMARK SMILES CCCCCCCCCCCCCCCCCCCCCCCCCCCCCC(=O)[O-]
REMARK SMILES IDX 16 1 17 2 18 3 19 4 20 5 21 6 22 7 23 8 24 9 25 10 26 11
REMARK SMILES IDX 27 12 28 13 29 14 30 15 31 16 32 17 15 18 14 19 13 20 12 21
REMARK SMILES IDX 11 22 10 23 9 24 8 25 7 26 6 27 5 28 4 29 3 30 2 31 1 32
REMARK H PARENT
REMARK Flexibility Score: inf
ROOT
ATOM      1  C   UNL     1     -16.359  21.470  43.648  1.00  0.00     0.000 C 
ENDROOT
BRANCH   1   2
ATOM      2  C   UNL     1     -16.740  20.701  44.931  1.00  0.00     0.000 C 
BRANCH   2   3
ATOM      3  C   UNL     1     -18.039  19.886  44.759  1.00  0.00     0.000 C 
BRANCH   3   4
ATOM      4  C   UNL     1     -19.036  20.086  45.918  1.00  0.00     0.000 C 
BRANCH   4   5
ATOM      5  C   UNL     1     -19.109  21.552  46.384  1.00  0.00     0.000 C 
BRANCH   5   6
ATOM      6  C   UNL     1     -20.312  22.302  45.772  1.00  0.00     0.000 C 
BRANCH   6   7
ATOM      7  C   UNL     1     -20.441  23.763  46.232  1.00  0.00     0.000 C 
BRANCH   7   8
ATOM      8  C   UNL     1     -20.864  24.714  45.104  1.00  0.00     0.000 C 
BRANCH   8   9
ATOM      9  C   UNL     1     -20.512  26.184  45.394  1.00  0.00     0.000 C 
BRANCH   9  10
ATOM     10  C   UNL     1     -20.294  27.040  44.131  1.00  0.00     0.000 C 
BRANCH  10  11
ATOM     11  C   UNL     1     -20.245  26.198  42.847  1.00  0.00     0.000 C 
BRANCH  11  12
ATOM     12  C   UNL     1     -19.284  26.812  41.821  1.00  0.00     0.000 C 
BRANCH  12  13
ATOM     13  C   UNL     1     -18.448  27.966  42.403  1.00  0.00     0.006 C 
BRANCH  13  14
ATOM     14  C   UNL     1     -18.467  29.251  41.562  1.00  0.00     0.053 C 
BRANCH  14  15
ATOM     15  C   UNL     1     -19.656  30.112  41.873  1.00  0.00     0.041 C 
ATOM     16  O   UNL     1     -19.894  30.461  43.059  1.00  0.00    -0.550 OA
ATOM     17  O   UNL     1     -20.505  30.520  40.853  1.00  0.00    -0.550 OA
ENDBRANCH  14  15
ENDBRANCH  13  14
ENDBRANCH  12  13
ENDBRANCH  11  12
ENDBRANCH  10  11
ENDBRANCH   9  10
ENDBRANCH   8   9
ENDBRANCH   7   8
ENDBRANCH   6   7
ENDBRANCH   5   6
ENDBRANCH   4   5
ENDBRANCH   3   4
ENDBRANCH   2   3
ENDBRANCH   1   2
BRANCH   1  18
ATOM     18  C   UNL     1     -17.572  22.134  42.959  1.00  0.00     0.000 C 
BRANCH  18  19
ATOM     19  C   UNL     1     -17.626  23.666  43.115  1.00  0.00     0.000 C 
BRANCH  19  20
ATOM     20  C   UNL     1     -17.256  24.197  44.512  1.00  0.00     0.000 C 
BRANCH  20  21
ATOM     21  C   UNL     1     -16.818  25.672  44.553  1.00  0.00     0.000 C 
BRANCH  21  22
ATOM     22  C   UNL     1     -15.296  25.853  44.432  1.00  0.00     0.000 C 
BRANCH  22  23
ATOM     23  C   UNL     1     -14.567  25.060  45.527  1.00  0.00     0.000 C 
BRANCH  23  24
ATOM     24  C   UNL     1     -13.186  24.549  45.076  1.00  0.00    -0.000 C 
BRANCH  24  25
ATOM     25  C   UNL     1     -13.188  23.139  44.449  1.00  0.00    -0.000 C 
BRANCH  25  26
ATOM     26  C   UNL     1     -12.754  23.129  42.966  1.00  0.00    -0.000 C 
BRANCH  26  27
ATOM     27  C   UNL     1     -13.906  23.514  42.023  1.00  0.00    -0.000 C 
BRANCH  27  28
ATOM     28  C   UNL     1     -13.447  24.520  40.959  1.00  0.00    -0.000 C 
BRANCH  28  29
ATOM     29  C   UNL     1     -12.319  25.444  41.448  1.00  0.00    -0.000 C 
BRANCH  29  30
ATOM     30  C   UNL     1     -12.833  26.813  41.933  1.00  0.00    -0.000 C 
BRANCH  30  31
ATOM     31  C   UNL     1     -11.966  27.411  43.051  1.00  0.00    -0.003 C 
ATOM     32  C   UNL     1     -12.686  28.509  43.833  1.00  0.00     0.004 C 
ENDBRANCH  30  31
ENDBRANCH  29  30
ENDBRANCH  28  29
ENDBRANCH  27  28
ENDBRANCH  26  27
ENDBRANCH  25  26
ENDBRANCH  24  25
ENDBRANCH  23  24
ENDBRANCH  22  23
ENDBRANCH  21  22
ENDBRANCH  20  21
ENDBRANCH  19  20
ENDBRANCH  18  19
ENDBRANCH   1  18
TORSDOF 28
ENDMDL
MODEL 6
REMARK VINA RESULT:    -3.410      2.289      6.843
REMARK INTER + INTRA:         -14.209
REMARK INTER:                  -8.346
REMARK INTRA:                  -5.863
REMARK UNBOUND:                -5.216
REMARK SMILES CCCCCCCCCCCCCCCCCCCCCCCCCCCCCC(=O)[O-]
REMARK SMILES IDX 16 1 17 2 18 3 19 4 20 5 21 6 22 7 23 8 24 9 25 10 26 11
REMARK SMILES IDX 27 12 28 13 29 14 30 15 31 16 32 17 15 18 14 19 13 20 12 21
REMARK SMILES IDX 11 22 10 23 9 24 8 25 7 26 6 27 5 28 4 29 3 30 2 31 1 32
REMARK H PARENT
REMARK Flexibility Score: inf
ROOT
ATOM      1  C   UNL     1     -17.662  21.657  43.124  1.00  0.00     0.000 C 
ENDROOT
BRANCH   1   2
ATOM      2  C   UNL     1     -17.616  20.611  44.258  1.00  0.00     0.000 C 
BRANCH   2   3
ATOM      3  C   UNL     1     -18.309  21.111  45.542  1.00  0.00     0.000 C 
BRANCH   3   4
ATOM      4  C   UNL     1     -19.468  20.201  45.997  1.00  0.00     0.000 C 
BRANCH   4   5
ATOM      5  C   UNL     1     -20.613  20.995  46.655  1.00  0.00     0.000 C 
BRANCH   5   6
ATOM      6  C   UNL     1     -20.435  22.521  46.495  1.00  0.00     0.000 C 
BRANCH   6   7
ATOM      7  C   UNL     1     -21.531  23.195  45.654  1.00  0.00     0.000 C 
BRANCH   7   8
ATOM      8  C   UNL     1     -21.193  24.644  45.277  1.00  0.00     0.000 C 
BRANCH   8   9
ATOM      9  C   UNL     1     -19.947  25.180  46.006  1.00  0.00     0.000 C 
BRANCH   9  10
ATOM     10  C   UNL     1     -19.606  26.646  45.677  1.00  0.00     0.000 C 
BRANCH  10  11
ATOM     11  C   UNL     1     -20.203  27.105  44.338  1.00  0.00     0.000 C 
BRANCH  11  12
ATOM     12  C   UNL     1     -19.678  28.493  43.946  1.00  0.00     0.000 C 
BRANCH  12  13
ATOM     13  C   UNL     1     -18.154  28.624  44.120  1.00  0.00     0.006 C 
BRANCH  13  14
ATOM     14  C   UNL     1     -17.525  29.791  43.345  1.00  0.00     0.053 C 
BRANCH  14  15
ATOM     15  C   UNL     1     -17.375  29.483  41.884  1.00  0.00     0.041 C 
ATOM     16  O   UNL     1     -18.394  29.306  41.165  1.00  0.00    -0.550 OA
ATOM     17  O   UNL     1     -16.110  29.384  41.320  1.00  0.00    -0.550 OA
ENDBRANCH  14  15
ENDBRANCH  13  14
ENDBRANCH  12  13
ENDBRANCH  11  12
ENDBRANCH  10  11
ENDBRANCH   9  10
ENDBRANCH   8   9
ENDBRANCH   7   8
ENDBRANCH   6   7
ENDBRANCH   5   6
ENDBRANCH   4   5
ENDBRANCH   3   4
ENDBRANCH   2   3
ENDBRANCH   1   2
BRANCH   1  18
ATOM     18  C   UNL     1     -18.325  22.984  43.555  1.00  0.00     0.000 C 
BRANCH  18  19
ATOM     19  C   UNL     1     -18.243  24.102  42.497  1.00  0.00     0.000 C 
BRANCH  19  20
ATOM     20  C   UNL     1     -17.314  25.276  42.853  1.00  0.00     0.000 C 
BRANCH  20  21
ATOM     21  C   UNL     1     -16.637  25.177  44.232  1.00  0.00     0.000 C 
BRANCH  21  22
ATOM     22  C   UNL     1     -15.379  26.052  44.351  1.00  0.00     0.000 C 
BRANCH  22  23
ATOM     23  C   UNL     1     -14.983  26.622  42.981  1.00  0.00     0.000 C 
BRANCH  23  24
ATOM     24  C   UNL     1     -13.470  26.883  42.856  1.00  0.00    -0.000 C 
BRANCH  24  25
ATOM     25  C   UNL     1     -12.771  26.118  41.712  1.00  0.00    -0.000 C 
BRANCH  25  26
ATOM     26  C   UNL     1     -13.516  24.831  41.293  1.00  0.00    -0.000 C 
BRANCH  26  27
ATOM     27  C   UNL     1     -13.105  23.620  42.148  1.00  0.00    -0.000 C 
BRANCH  27  28
ATOM     28  C   UNL     1     -14.318  22.751  42.509  1.00  0.00    -0.000 C 
BRANCH  28  29
ATOM     29  C   UNL     1     -14.076  21.856  43.737  1.00  0.00    -0.000 C 
BRANCH  29  30
ATOM     30  C   UNL     1     -14.134  22.634  45.066  1.00  0.00    -0.000 C 
BRANCH  30  31
ATOM     31  C   UNL     1     -14.668  21.783  46.228  1.00  0.00    -0.003 C 
ATOM     32  C   UNL     1     -14.329  20.300  46.078  1.00  0.00     0.004 C 
ENDBRANCH  30  31
ENDBRANCH  29  30
ENDBRANCH  28  29
ENDBRANCH  27  28
ENDBRANCH  26  27
ENDBRANCH  25  26
ENDBRANCH  24  25
ENDBRANCH  23  24
ENDBRANCH  22  23
ENDBRANCH  21  22
ENDBRANCH  20  21
ENDBRANCH  19  20
ENDBRANCH  18  19
ENDBRANCH   1  18
TORSDOF 28
ENDMDL
MODEL 7
REMARK VINA RESULT:    -3.393      3.482      7.978
REMARK INTER + INTRA:         -14.164
REMARK INTER:                  -8.320
REMARK INTRA:                  -5.844
REMARK UNBOUND:                -5.216
REMARK SMILES CCCCCCCCCCCCCCCCCCCCCCCCCCCCCC(=O)[O-]
REMARK SMILES IDX 16 1 17 2 18 3 19 4 20 5 21 6 22 7 23 8 24 9 25 10 26 11
REMARK SMILES IDX 27 12 28 13 29 14 30 15 31 16 32 17 15 18 14 19 13 20 12 21
REMARK SMILES IDX 11 22 10 23 9 24 8 25 7 26 6 27 5 28 4 29 3 30 2 31 1 32
REMARK H PARENT
REMARK Flexibility Score: inf
ROOT
ATOM      1  C   UNL     1     -17.354  21.388  43.636  1.00  0.00     0.000 C 
ENDROOT
BRANCH   1   2
ATOM      2  C   UNL     1     -18.018  22.194  42.500  1.00  0.00     0.000 C 
BRANCH   2   3
ATOM      3  C   UNL     1     -17.517  23.652  42.448  1.00  0.00     0.000 C 
BRANCH   3   4
ATOM      4  C   UNL     1     -18.640  24.686  42.659  1.00  0.00     0.000 C 
BRANCH   4   5
ATOM      5  C   UNL     1     -19.101  24.760  44.128  1.00  0.00     0.000 C 
BRANCH   5   6
ATOM      6  C   UNL     1     -18.554  26.011  44.850  1.00  0.00     0.000 C 
BRANCH   6   7
ATOM      7  C   UNL     1     -17.278  25.755  45.668  1.00  0.00     0.000 C 
BRANCH   7   8
ATOM      8  C   UNL     1     -15.996  25.865  44.833  1.00  0.00     0.000 C 
BRANCH   8   9
ATOM      9  C   UNL     1     -15.702  27.304  44.370  1.00  0.00     0.000 C 
BRANCH   9  10
ATOM     10  C   UNL     1     -15.574  27.459  42.842  1.00  0.00     0.000 C 
BRANCH  10  11
ATOM     11  C   UNL     1     -16.789  28.159  42.214  1.00  0.00     0.000 C 
BRANCH  11  12
ATOM     12  C   UNL     1     -17.486  29.071  43.231  1.00  0.00     0.000 C 
BRANCH  12  13
ATOM     13  C   UNL     1     -18.920  29.445  42.811  1.00  0.00     0.006 C 
BRANCH  13  14
ATOM     14  C   UNL     1     -19.738  28.278  42.239  1.00  0.00     0.053 C 
BRANCH  14  15
ATOM     15  C   UNL     1     -21.159  28.297  42.719  1.00  0.00     0.041 C 
ATOM     16  O   UNL     1     -21.489  27.656  43.751  1.00  0.00    -0.550 OA
ATOM     17  O   UNL     1     -22.120  29.015  42.019  1.00  0.00    -0.550 OA
ENDBRANCH  14  15
ENDBRANCH  13  14
ENDBRANCH  12  13
ENDBRANCH  11  12
ENDBRANCH  10  11
ENDBRANCH   9  10
ENDBRANCH   8   9
ENDBRANCH   7   8
ENDBRANCH   6   7
ENDBRANCH   5   6
ENDBRANCH   4   5
ENDBRANCH   3   4
ENDBRANCH   2   3
ENDBRANCH   1   2
BRANCH   1  18
ATOM     18  C   UNL     1     -18.205  21.349  44.925  1.00  0.00     0.000 C 
BRANCH  18  19
ATOM     19  C   UNL     1     -17.501  21.937  46.163  1.00  0.00     0.000 C 
BRANCH  19  20
ATOM     20  C   UNL     1     -16.053  22.407  45.933  1.00  0.00     0.000 C 
BRANCH  20  21
ATOM     21  C   UNL     1     -14.991  21.682  46.779  1.00  0.00     0.000 C 
BRANCH  21  22
ATOM     22  C   UNL     1     -15.314  20.197  47.011  1.00  0.00     0.000 C 
BRANCH  22  23
ATOM     23  C   UNL     1     -14.699  19.329  45.904  1.00  0.00     0.000 C 
BRANCH  23  24
ATOM     24  C   UNL     1     -13.171  19.188  46.034  1.00  0.00    -0.000 C 
BRANCH  24  25
ATOM     25  C   UNL     1     -12.359  19.810  44.879  1.00  0.00    -0.000 C 
BRANCH  25  26
ATOM     26  C   UNL     1     -11.596  21.090  45.288  1.00  0.00    -0.000 C 
BRANCH  26  27
ATOM     27  C   UNL     1     -12.090  22.328  44.522  1.00  0.00    -0.000 C 
BRANCH  27  28
ATOM     28  C   UNL     1     -13.168  21.959  43.494  1.00  0.00    -0.000 C 
BRANCH  28  29
ATOM     29  C   UNL     1     -13.903  23.184  42.923  1.00  0.00    -0.000 C 
BRANCH  29  30
ATOM     30  C   UNL     1     -12.944  24.307  42.484  1.00  0.00    -0.000 C 
BRANCH  30  31
ATOM     31  C   UNL     1     -13.388  24.991  41.182  1.00  0.00    -0.003 C 
ATOM     32  C   UNL     1     -13.505  24.014  40.013  1.00  0.00     0.004 C 
ENDBRANCH  30  31
ENDBRANCH  29  30
ENDBRANCH  28  29
ENDBRANCH  27  28
ENDBRANCH  26  27
ENDBRANCH  25  26
ENDBRANCH  24  25
ENDBRANCH  23  24
ENDBRANCH  22  23
ENDBRANCH  21  22
ENDBRANCH  20  21
ENDBRANCH  19  20
ENDBRANCH  18  19
ENDBRANCH   1  18
TORSDOF 28
ENDMDL
MODEL 8
REMARK VINA RESULT:    -3.393      2.478      5.759
REMARK INTER + INTRA:         -14.163
REMARK INTER:                  -8.173
REMARK INTRA:                  -5.990
REMARK UNBOUND:                -5.216
REMARK SMILES CCCCCCCCCCCCCCCCCCCCCCCCCCCCCC(=O)[O-]
REMARK SMILES IDX 16 1 17 2 18 3 19 4 20 5 21 6 22 7 23 8 24 9 25 10 26 11
REMARK SMILES IDX 27 12 28 13 29 14 30 15 31 16 32 17 15 18 14 19 13 20 12 21
REMARK SMILES IDX 11 22 10 23 9 24 8 25 7 26 6 27 5 28 4 29 3 30 2 31 1 32
REMARK H PARENT
REMARK Flexibility Score: inf
ROOT
ATOM      1  C   UNL     1     -18.448  22.237  46.126  1.00  0.00     0.000 C 
ENDROOT
BRANCH   1   2
ATOM      2  C   UNL     1     -18.676  21.568  44.754  1.00  0.00     0.000 C 
BRANCH   2   3
ATOM      3  C   UNL     1     -17.505  21.817  43.781  1.00  0.00     0.000 C 
BRANCH   3   4
ATOM      4  C   UNL     1     -17.934  22.543  42.491  1.00  0.00     0.000 C 
BRANCH   4   5
ATOM      5  C   UNL     1     -18.685  23.857  42.779  1.00  0.00     0.000 C 
BRANCH   5   6
ATOM      6  C   UNL     1     -17.723  25.040  43.023  1.00  0.00     0.000 C 
BRANCH   6   7
ATOM      7  C   UNL     1     -17.964  25.783  44.346  1.00  0.00     0.000 C 
BRANCH   7   8
ATOM      8  C   UNL     1     -16.817  25.610  45.351  1.00  0.00     0.000 C 
BRANCH   8   9
ATOM      9  C   UNL     1     -15.474  25.274  44.677  1.00  0.00     0.000 C 
BRANCH   9  10
ATOM     10  C   UNL     1     -14.607  26.507  44.354  1.00  0.00     0.000 C 
BRANCH  10  11
ATOM     11  C   UNL     1     -13.404  26.167  43.463  1.00  0.00     0.000 C 
BRANCH  11  12
ATOM     12  C   UNL     1     -13.854  25.793  42.044  1.00  0.00     0.000 C 
BRANCH  12  13
ATOM     13  C   UNL     1     -13.324  24.420  41.594  1.00  0.00     0.006 C 
BRANCH  13  14
ATOM     14  C   UNL     1     -14.149  23.225  42.094  1.00  0.00     0.053 C 
BRANCH  14  15
ATOM     15  C   UNL     1     -13.424  22.438  43.145  1.00  0.00     0.041 C 
ATOM     16  O   UNL     1     -12.307  22.830  43.574  1.00  0.00    -0.550 OA
ATOM     17  O   UNL     1     -13.980  21.268  43.645  1.00  0.00    -0.550 OA
ENDBRANCH  14  15
ENDBRANCH  13  14
ENDBRANCH  12  13
ENDBRANCH  11  12
ENDBRANCH  10  11
ENDBRANCH   9  10
ENDBRANCH   8   9
ENDBRANCH   7   8
ENDBRANCH   6   7
ENDBRANCH   5   6
ENDBRANCH   4   5
ENDBRANCH   3   4
ENDBRANCH   2   3
ENDBRANCH   1   2
BRANCH   1  18
ATOM     18  C   UNL     1     -19.579  23.215  46.515  1.00  0.00     0.000 C 
BRANCH  18  19
ATOM     19  C   UNL     1     -20.930  22.917  45.838  1.00  0.00     0.000 C 
BRANCH  19  20
ATOM     20  C   UNL     1     -21.686  24.150  45.309  1.00  0.00     0.000 C 
BRANCH  20  21
ATOM     21  C   UNL     1     -21.220  25.497  45.889  1.00  0.00     0.000 C 
BRANCH  21  22
ATOM     22  C   UNL     1     -21.530  26.690  44.969  1.00  0.00     0.000 C 
BRANCH  22  23
ATOM     23  C   UNL     1     -21.699  26.224  43.516  1.00  0.00     0.000 C 
BRANCH  23  24
ATOM     24  C   UNL     1     -20.898  27.080  42.517  1.00  0.00    -0.000 C 
BRANCH  24  25
ATOM     25  C   UNL     1     -21.410  28.525  42.342  1.00  0.00    -0.000 C 
BRANCH  25  26
ATOM     26  C   UNL     1     -20.344  29.594  42.672  1.00  0.00    -0.000 C 
BRANCH  26  27
ATOM     27  C   UNL     1     -18.974  28.968  42.984  1.00  0.00    -0.000 C 
BRANCH  27  28
ATOM     28  C   UNL     1     -17.989  29.170  41.825  1.00  0.00    -0.000 C 
BRANCH  28  29
ATOM     29  C   UNL     1     -16.626  28.497  42.065  1.00  0.00    -0.000 C 
BRANCH  29  30
ATOM     30  C   UNL     1     -15.547  29.485  42.546  1.00  0.00    -0.000 C 
BRANCH  30  31
ATOM     31  C   UNL     1     -14.566  29.881  41.432  1.00  0.00    -0.003 C 
ATOM     32  C   UNL     1     -13.125  29.479  41.745  1.00  0.00     0.004 C 
ENDBRANCH  30  31
ENDBRANCH  29  30
ENDBRANCH  28  29
ENDBRANCH  27  28
ENDBRANCH  26  27
ENDBRANCH  25  26
ENDBRANCH  24  25
ENDBRANCH  23  24
ENDBRANCH  22  23
ENDBRANCH  21  22
ENDBRANCH  20  21
ENDBRANCH  19  20
ENDBRANCH  18  19
ENDBRANCH   1  18
TORSDOF 28
ENDMDL
MODEL 9
REMARK VINA RESULT:    -3.365      2.365      7.070
REMARK INTER + INTRA:         -14.090
REMARK INTER:                  -7.782
REMARK INTRA:                  -6.308
REMARK UNBOUND:                -5.216
REMARK SMILES CCCCCCCCCCCCCCCCCCCCCCCCCCCCCC(=O)[O-]
REMARK SMILES IDX 16 1 17 2 18 3 19 4 20 5 21 6 22 7 23 8 24 9 25 10 26 11
REMARK SMILES IDX 27 12 28 13 29 14 30 15 31 16 32 17 15 18 14 19 13 20 12 21
REMARK SMILES IDX 11 22 10 23 9 24 8 25 7 26 6 27 5 28 4 29 3 30 2 31 1 32
REMARK H PARENT
REMARK Flexibility Score: inf
ROOT
ATOM      1  C   UNL     1     -18.017  22.517  42.487  1.00  0.00     0.000 C 
ENDROOT
BRANCH   1   2
ATOM      2  C   UNL     1     -16.998  21.753  43.357  1.00  0.00     0.000 C 
BRANCH   2   3
ATOM      3  C   UNL     1     -17.647  20.583  44.125  1.00  0.00     0.000 C 
BRANCH   3   4
ATOM      4  C   UNL     1     -16.933  20.260  45.453  1.00  0.00     0.000 C 
BRANCH   4   5
ATOM      5  C   UNL     1     -16.719  21.513  46.324  1.00  0.00     0.000 C 
BRANCH   5   6
ATOM      6  C   UNL     1     -17.773  21.634  47.446  1.00  0.00     0.000 C 
BRANCH   6   7
ATOM      7  C   UNL     1     -18.523  22.975  47.461  1.00  0.00     0.000 C 
BRANCH   7   8
ATOM      8  C   UNL     1     -18.927  23.453  46.060  1.00  0.00     0.000 C 
BRANCH   8   9
ATOM      9  C   UNL     1     -20.349  23.014  45.662  1.00  0.00     0.000 C 
BRANCH   9  10
ATOM     10  C   UNL     1     -21.461  23.610  46.547  1.00  0.00     0.000 C 
BRANCH  10  11
ATOM     11  C   UNL     1     -22.003  24.940  46.000  1.00  0.00     0.000 C 
BRANCH  11  12
ATOM     12  C   UNL     1     -22.305  24.838  44.499  1.00  0.00     0.000 C 
BRANCH  12  13
ATOM     13  C   UNL     1     -21.651  25.967  43.682  1.00  0.00     0.006 C 
BRANCH  13  14
ATOM     14  C   UNL     1     -20.254  26.377  44.171  1.00  0.00     0.053 C 
BRANCH  14  15
ATOM     15  C   UNL     1     -19.765  27.627  43.501  1.00  0.00     0.041 C 
ATOM     16  O   UNL     1     -19.250  27.572  42.353  1.00  0.00    -0.550 OA
ATOM     17  O   UNL     1     -19.873  28.851  44.148  1.00  0.00    -0.550 OA
ENDBRANCH  14  15
ENDBRANCH  13  14
ENDBRANCH  12  13
ENDBRANCH  11  12
ENDBRANCH  10  11
ENDBRANCH   9  10
ENDBRANCH   8   9
ENDBRANCH   7   8
ENDBRANCH   6   7
ENDBRANCH   5   6
ENDBRANCH   4   5
ENDBRANCH   3   4
ENDBRANCH   2   3
ENDBRANCH   1   2
BRANCH   1  18
ATOM     18  C   UNL     1     -17.835  24.050  42.551  1.00  0.00     0.000 C 
BRANCH  18  19
ATOM     19  C   UNL     1     -16.589  24.504  43.334  1.00  0.00     0.000 C 
BRANCH  19  20
ATOM     20  C   UNL     1     -16.209  25.986  43.162  1.00  0.00     0.000 C 
BRANCH  20  21
ATOM     21  C   UNL     1     -14.742  26.324  43.485  1.00  0.00     0.000 C 
BRANCH  21  22
ATOM     22  C   UNL     1     -13.944  26.788  42.255  1.00  0.00     0.000 C 
BRANCH  22  23
ATOM     23  C   UNL     1     -12.877  25.750  41.878  1.00  0.00     0.000 C 
BRANCH  23  24
ATOM     24  C   UNL     1     -13.434  24.608  41.008  1.00  0.00    -0.000 C 
BRANCH  24  25
ATOM     25  C   UNL     1     -13.538  23.242  41.718  1.00  0.00    -0.000 C 
BRANCH  25  26
ATOM     26  C   UNL     1     -12.836  23.214  43.094  1.00  0.00    -0.000 C 
BRANCH  26  27
ATOM     27  C   UNL     1     -13.581  22.328  44.106  1.00  0.00    -0.000 C 
BRANCH  27  28
ATOM     28  C   UNL     1     -13.344  22.800  45.547  1.00  0.00    -0.000 C 
BRANCH  28  29
ATOM     29  C   UNL     1     -12.764  24.223  45.629  1.00  0.00    -0.000 C 
BRANCH  29  30
ATOM     30  C   UNL     1     -13.478  25.101  46.674  1.00  0.00    -0.000 C 
BRANCH  30  31
ATOM     31  C   UNL     1     -14.877  24.578  47.033  1.00  0.00    -0.003 C 
ATOM     32  C   UNL     1     -15.957  25.654  46.915  1.00  0.00     0.004 C 
ENDBRANCH  30  31
ENDBRANCH  29  30
ENDBRANCH  28  29
ENDBRANCH  27  28
ENDBRANCH  26  27
ENDBRANCH  25  26
ENDBRANCH  24  25
ENDBRANCH  23  24
ENDBRANCH  22  23
ENDBRANCH  21  22
ENDBRANCH  20  21
ENDBRANCH  19  20
ENDBRANCH  18  19
ENDBRANCH   1  18
TORSDOF 28
ENDMDL
