MODEL 1
REMARK VINA RESULT:    -4.154      0.000      0.000
REMARK INTER + INTRA:          -4.591
REMARK INTER:                  -4.518
REMARK INTRA:                  -0.072
REMARK UNBOUND:                -0.072
REMARK SMILES CCc1cccc(O)c1
REMARK SMILES IDX 3 1 9 2 7 3 6 4 5 5 4 6 2 7 1 8 8 9
REMARK H PARENT 8 10
REMARK Flexibility Score: inf
ROOT
ATOM      1  C   UNL     1      46.739  32.899  61.095  1.00  0.00    -0.045 A 
ATOM      2  C   UNL     1      46.619  32.232  59.864  1.00  0.00     0.049 A 
ATOM      3  C   UNL     1      47.559  32.442  58.850  1.00  0.00     0.115 A 
ATOM      4  C   UNL     1      48.633  33.317  59.067  1.00  0.00     0.046 A 
ATOM      5  C   UNL     1      48.765  33.973  60.293  1.00  0.00     0.004 A 
ATOM      6  C   UNL     1      47.827  33.763  61.307  1.00  0.00     0.004 A 
ENDROOT
BRANCH   1   7
ATOM      7  C   UNL     1      45.745  32.646  62.197  1.00  0.00     0.032 C 
ATOM      8  C   UNL     1      46.435  32.646  63.557  1.00  0.00     0.009 C 
ENDBRANCH   1   7
BRANCH   3   9
ATOM      9  O   UNL     1      47.420  31.777  57.635  1.00  0.00    -0.508 OA
ATOM     10  H   UNL     1      47.120  30.809  57.592  1.00  0.00     0.293 HD
ENDBRANCH   3   9
TORSDOF 2
ENDMDL
MODEL 2
REMARK VINA RESULT:    -4.102     16.415     17.621
REMARK INTER + INTRA:          -4.534
REMARK INTER:                  -4.483
REMARK INTRA:                  -0.051
REMARK UNBOUND:                -0.072
REMARK SMILES CCc1cccc(O)c1
REMARK SMILES IDX 3 1 9 2 7 3 6 4 5 5 4 6 2 7 1 8 8 9
REMARK H PARENT 8 10
REMARK Flexibility Score: inf
ROOT
ATOM      1  C   UNL     1      37.654  18.731  54.165  1.00  0.00    -0.045 A 
ATOM      2  C   UNL     1      39.032  18.739  53.897  1.00  0.00     0.049 A 
ATOM      3  C   UNL     1      39.802  19.875  54.171  1.00  0.00     0.115 A 
ATOM      4  C   UNL     1      39.193  21.010  54.726  1.00  0.00     0.046 A 
ATOM      5  C   UNL     1      37.824  21.004  55.007  1.00  0.00     0.004 A 
ATOM      6  C   UNL     1      37.057  19.868  54.733  1.00  0.00     0.004 A 
ENDROOT
BRANCH   1   7
ATOM      7  C   UNL     1      36.835  17.496  53.899  1.00  0.00     0.032 C 
ATOM      8  C   UNL     1      37.653  16.460  53.135  1.00  0.00     0.009 C 
ENDBRANCH   1   7
BRANCH   3   9
ATOM      9  O   UNL     1      41.166  19.866  53.893  1.00  0.00    -0.508 OA
ATOM     10  H   UNL     1      41.612  20.634  53.405  1.00  0.00     0.293 HD
ENDBRANCH   3   9
TORSDOF 2
ENDMDL
MODEL 3
REMARK VINA RESULT:    -4.009     16.760     17.969
REMARK INTER + INTRA:          -4.432
REMARK INTER:                  -4.357
REMARK INTRA:                  -0.075
REMARK UNBOUND:                -0.072
REMARK SMILES CCc1cccc(O)c1
REMARK SMILES IDX 3 1 9 2 7 3 6 4 5 5 4 6 2 7 1 8 8 9
REMARK H PARENT 8 10
REMARK Flexibility Score: inf
ROOT
ATOM      1  C   UNL     1      38.129  18.426  53.676  1.00  0.00    -0.045 A 
ATOM      2  C   UNL     1      36.989  19.223  53.480  1.00  0.00     0.049 A 
ATOM      3  C   UNL     1      37.027  20.594  53.758  1.00  0.00     0.115 A 
ATOM      4  C   UNL     1      38.213  21.177  54.227  1.00  0.00     0.046 A 
ATOM      5  C   UNL     1      39.354  20.391  54.412  1.00  0.00     0.004 A 
ATOM      6  C   UNL     1      39.316  19.022  54.133  1.00  0.00     0.004 A 
ENDROOT
BRANCH   1   7
ATOM      7  C   UNL     1      38.095  16.958  53.345  1.00  0.00     0.032 C 
ATOM      8  C   UNL     1      39.509  16.390  53.267  1.00  0.00     0.009 C 
ENDBRANCH   1   7
BRANCH   3   9
ATOM      9  O   UNL     1      35.885  21.367  53.563  1.00  0.00    -0.508 OA
ATOM     10  H   UNL     1      34.982  20.942  53.386  1.00  0.00     0.293 HD
ENDBRANCH   3   9
TORSDOF 2
ENDMDL
MODEL 4
REMARK VINA RESULT:    -3.998      1.734      3.067
REMARK INTER + INTRA:          -4.421
REMARK INTER:                  -4.353
REMARK INTRA:                  -0.068
REMARK UNBOUND:                -0.072
REMARK SMILES CCc1cccc(O)c1
REMARK SMILES IDX 3 1 9 2 7 3 6 4 5 5 4 6 2 7 1 8 8 9
REMARK H PARENT 8 10
REMARK Flexibility Score: inf
ROOT
ATOM      1  C   UNL     1      47.079  33.464  63.483  1.00  0.00    -0.045 A 
ATOM      2  C   UNL     1      47.819  33.982  62.408  1.00  0.00     0.049 A 
ATOM      3  C   UNL     1      47.528  33.594  61.095  1.00  0.00     0.115 A 
ATOM      4  C   UNL     1      46.485  32.690  60.852  1.00  0.00     0.046 A 
ATOM      5  C   UNL     1      45.736  32.181  61.917  1.00  0.00     0.004 A 
ATOM      6  C   UNL     1      46.027  32.569  63.227  1.00  0.00     0.004 A 
ENDROOT
BRANCH   1   7
ATOM      7  C   UNL     1      47.372  33.908  64.891  1.00  0.00     0.032 C 
ATOM      8  C   UNL     1      47.384  32.715  65.842  1.00  0.00     0.009 C 
ENDBRANCH   1   7
BRANCH   3   9
ATOM      9  O   UNL     1      48.277  34.114  60.042  1.00  0.00    -0.508 OA
ATOM     10  H   UNL     1      49.255  34.354  60.157  1.00  0.00     0.293 HD
ENDBRANCH   3   9
TORSDOF 2
ENDMDL
MODEL 5
REMARK VINA RESULT:    -3.983     15.764     16.899
REMARK INTER + INTRA:          -4.404
REMARK INTER:                  -4.358
REMARK INTRA:                  -0.046
REMARK UNBOUND:                -0.072
REMARK SMILES CCc1cccc(O)c1
REMARK SMILES IDX 3 1 9 2 7 3 6 4 5 5 4 6 2 7 1 8 8 9
REMARK H PARENT 8 10
REMARK Flexibility Score: inf
ROOT
ATOM      1  C   UNL     1      38.064  19.220  54.248  1.00  0.00    -0.045 A 
ATOM      2  C   UNL     1      38.087  20.614  54.421  1.00  0.00     0.049 A 
ATOM      3  C   UNL     1      39.228  21.351  54.085  1.00  0.00     0.115 A 
ATOM      4  C   UNL     1      40.352  20.695  53.563  1.00  0.00     0.046 A 
ATOM      5  C   UNL     1      40.330  19.310  53.376  1.00  0.00     0.004 A 
ATOM      6  C   UNL     1      39.190  18.575  53.711  1.00  0.00     0.004 A 
ENDROOT
BRANCH   1   7
ATOM      7  C   UNL     1      36.824  18.433  54.579  1.00  0.00     0.032 C 
ATOM      8  C   UNL     1      36.479  18.567  56.059  1.00  0.00     0.009 C 
ENDBRANCH   1   7
BRANCH   3   9
ATOM      9  O   UNL     1      39.234  22.731  54.270  1.00  0.00    -0.508 OA
ATOM     10  H   UNL     1      39.125  23.142  55.190  1.00  0.00     0.293 HD
ENDBRANCH   3   9
TORSDOF 2
ENDMDL
MODEL 6
REMARK VINA RESULT:    -3.951      1.841      3.636
REMARK INTER + INTRA:          -4.370
REMARK INTER:                  -4.323
REMARK INTRA:                  -0.047
REMARK UNBOUND:                -0.072
REMARK SMILES CCc1cccc(O)c1
REMARK SMILES IDX 3 1 9 2 7 3 6 4 5 5 4 6 2 7 1 8 8 9
REMARK H PARENT 8 10
REMARK Flexibility Score: inf
ROOT
ATOM      1  C   UNL     1      47.254  33.528  61.432  1.00  0.00    -0.045 A 
ATOM      2  C   UNL     1      46.127  33.499  60.593  1.00  0.00     0.049 A 
ATOM      3  C   UNL     1      44.899  33.030  61.072  1.00  0.00     0.115 A 
ATOM      4  C   UNL     1      44.791  32.594  62.400  1.00  0.00     0.046 A 
ATOM      5  C   UNL     1      45.905  32.633  63.243  1.00  0.00     0.004 A 
ATOM      6  C   UNL     1      47.131  33.102  62.765  1.00  0.00     0.004 A 
ENDROOT
BRANCH   1   7
ATOM      7  C   UNL     1      48.566  34.064  60.924  1.00  0.00     0.032 C 
ATOM      8  C   UNL     1      48.958  33.383  59.617  1.00  0.00     0.009 C 
ENDBRANCH   1   7
BRANCH   3   9
ATOM      9  O   UNL     1      43.795  33.003  60.223  1.00  0.00    -0.508 OA
ATOM     10  H   UNL     1      43.280  33.847  59.998  1.00  0.00     0.293 HD
ENDBRANCH   3   9
TORSDOF 2
ENDMDL
MODEL 7
REMARK VINA RESULT:    -3.923     10.777     12.229
REMARK INTER + INTRA:          -4.339
REMARK INTER:                  -4.286
REMARK INTRA:                  -0.052
REMARK UNBOUND:                -0.072
REMARK SMILES CCc1cccc(O)c1
REMARK SMILES IDX 3 1 9 2 7 3 6 4 5 5 4 6 2 7 1 8 8 9
REMARK H PARENT 8 10
REMARK Flexibility Score: inf
ROOT
ATOM      1  C   UNL     1      42.490  24.813  52.757  1.00  0.00    -0.045 A 
ATOM      2  C   UNL     1      41.117  25.107  52.719  1.00  0.00     0.049 A 
ATOM      3  C   UNL     1      40.543  25.940  53.686  1.00  0.00     0.115 A 
ATOM      4  C   UNL     1      41.346  26.492  54.694  1.00  0.00     0.046 A 
ATOM      5  C   UNL     1      42.715  26.214  54.730  1.00  0.00     0.004 A 
ATOM      6  C   UNL     1      43.288  25.383  53.764  1.00  0.00     0.004 A 
ENDROOT
BRANCH   1   7
ATOM      7  C   UNL     1      43.111  23.944  51.697  1.00  0.00     0.032 C 
ATOM      8  C   UNL     1      43.320  22.525  52.217  1.00  0.00     0.009 C 
ENDBRANCH   1   7
BRANCH   3   9
ATOM      9  O   UNL     1      39.179  26.215  53.634  1.00  0.00    -0.508 OA
ATOM     10  H   UNL     1      38.826  27.068  53.217  1.00  0.00     0.293 HD
ENDBRANCH   3   9
TORSDOF 2
ENDMDL
MODEL 8
REMARK VINA RESULT:    -3.869     15.955     17.302
REMARK INTER + INTRA:          -4.281
REMARK INTER:                  -4.231
REMARK INTRA:                  -0.050
REMARK UNBOUND:                -0.072
REMARK SMILES CCc1cccc(O)c1
REMARK SMILES IDX 3 1 9 2 7 3 6 4 5 5 4 6 2 7 1 8 8 9
REMARK H PARENT 8 10
REMARK Flexibility Score: inf
ROOT
ATOM      1  C   UNL     1      39.266  20.115  53.662  1.00  0.00    -0.045 A 
ATOM      2  C   UNL     1      38.174  20.987  53.519  1.00  0.00     0.049 A 
ATOM      3  C   UNL     1      36.868  20.525  53.717  1.00  0.00     0.115 A 
ATOM      4  C   UNL     1      36.649  19.185  54.069  1.00  0.00     0.046 A 
ATOM      5  C   UNL     1      37.733  18.316  54.225  1.00  0.00     0.004 A 
ATOM      6  C   UNL     1      39.037  18.778  54.029  1.00  0.00     0.004 A 
ENDROOT
BRANCH   1   7
ATOM      7  C   UNL     1      40.672  20.622  53.481  1.00  0.00     0.032 C 
ATOM      8  C   UNL     1      40.679  21.918  52.677  1.00  0.00     0.009 C 
ENDBRANCH   1   7
BRANCH   3   9
ATOM      9  O   UNL     1      35.798  21.403  53.564  1.00  0.00    -0.508 OA
ATOM     10  H   UNL     1      35.925  22.329  53.173  1.00  0.00     0.293 HD
ENDBRANCH   3   9
TORSDOF 2
ENDMDL
MODEL 9
REMARK VINA RESULT:    -3.844     16.398     17.722
REMARK INTER + INTRA:          -4.253
REMARK INTER:                  -4.177
REMARK INTRA:                  -0.076
REMARK UNBOUND:                -0.072
REMARK SMILES CCc1cccc(O)c1
REMARK SMILES IDX 3 1 9 2 7 3 6 4 5 5 4 6 2 7 1 8 8 9
REMARK H PARENT 8 10
REMARK Flexibility Score: inf
ROOT
ATOM      1  C   UNL     1      39.052  18.611  53.734  1.00  0.00    -0.045 A 
ATOM      2  C   UNL     1      39.387  19.971  53.835  1.00  0.00     0.049 A 
ATOM      3  C   UNL     1      38.511  20.874  54.446  1.00  0.00     0.115 A 
ATOM      4  C   UNL     1      37.293  20.416  54.970  1.00  0.00     0.046 A 
ATOM      5  C   UNL     1      36.959  19.062  54.884  1.00  0.00     0.004 A 
ATOM      6  C   UNL     1      37.836  18.160  54.274  1.00  0.00     0.004 A 
ENDROOT
BRANCH   1   7
ATOM      7  C   UNL     1      40.011  17.636  53.105  1.00  0.00     0.032 C 
ATOM      8  C   UNL     1      39.499  16.206  53.250  1.00  0.00     0.009 C 
ENDBRANCH   1   7
BRANCH   3   9
ATOM      9  O   UNL     1      38.859  22.220  54.531  1.00  0.00    -0.508 OA
ATOM     10  H   UNL     1      39.686  22.583  54.072  1.00  0.00     0.293 HD
ENDBRANCH   3   9
TORSDOF 2
ENDMDL
