MODEL 1
REMARK VINA RESULT:    -3.089      0.000      0.000
REMARK INTER + INTRA:          -3.932
REMARK INTER:                  -3.812
REMARK INTRA:                  -0.120
REMARK UNBOUND:                -0.120
REMARK SMILES CCCCCC(=O)[O-]
REMARK SMILES IDX 4 1 5 2 6 3 7 4 8 5 3 6 2 7 1 8
REMARK H PARENT
REMARK Flexibility Score: inf
ROOT
ATOM      1  C   UNL     1     -44.615 -37.438  13.046  1.00  0.00     0.006 C 
ENDROOT
BRANCH   1   2
ATOM      2  C   UNL     1     -45.145 -37.347  14.483  1.00  0.00     0.053 C 
BRANCH   2   3
ATOM      3  C   UNL     1     -44.273 -38.092  15.446  1.00  0.00     0.041 C 
ATOM      4  O   UNL     1     -43.099 -38.411  15.121  1.00  0.00    -0.550 OA
ATOM      5  O   UNL     1     -44.744 -38.405  16.715  1.00  0.00    -0.550 OA
ENDBRANCH   2   3
ENDBRANCH   1   2
BRANCH   1   6
ATOM      6  C   UNL     1     -44.604 -36.071  12.342  1.00  0.00     0.000 C 
BRANCH   6   7
ATOM      7  C   UNL     1     -46.016 -35.493  12.157  1.00  0.00    -0.003 C 
ATOM      8  C   UNL     1     -46.125 -34.041  12.622  1.00  0.00     0.004 C 
ENDBRANCH   6   7
ENDBRANCH   1   6
TORSDOF 4
ENDMDL
MODEL 2
REMARK VINA RESULT:    -3.027     13.157     14.707
REMARK INTER + INTRA:          -3.855
REMARK INTER:                  -3.740
REMARK INTRA:                  -0.115
REMARK UNBOUND:                -0.120
REMARK SMILES CCCCCC(=O)[O-]
REMARK SMILES IDX 4 1 5 2 6 3 7 4 8 5 3 6 2 7 1 8
REMARK H PARENT
REMARK Flexibility Score: inf
ROOT
ATOM      1  C   UNL     1     -37.906 -34.176  26.110  1.00  0.00     0.006 C 
ENDROOT
BRANCH   1   2
ATOM      2  C   UNL     1     -37.575 -32.891  25.339  1.00  0.00     0.053 C 
BRANCH   2   3
ATOM      3  C   UNL     1     -38.289 -32.833  24.024  1.00  0.00     0.041 C 
ATOM      4  O   UNL     1     -39.535 -32.658  23.986  1.00  0.00    -0.550 OA
ATOM      5  O   UNL     1     -37.572 -32.938  22.837  1.00  0.00    -0.550 OA
ENDBRANCH   2   3
ENDBRANCH   1   2
BRANCH   1   6
ATOM      6  C   UNL     1     -37.777 -33.990  27.632  1.00  0.00     0.000 C 
BRANCH   6   7
ATOM      7  C   UNL     1     -38.168 -32.576  28.088  1.00  0.00    -0.003 C 
ATOM      8  C   UNL     1     -39.311 -32.578  29.103  1.00  0.00     0.004 C 
ENDBRANCH   6   7
ENDBRANCH   1   6
TORSDOF 4
ENDMDL
MODEL 3
REMARK VINA RESULT:    -2.904      1.573      2.098
REMARK INTER + INTRA:          -3.703
REMARK INTER:                  -3.591
REMARK INTRA:                  -0.112
REMARK UNBOUND:                -0.120
REMARK SMILES CCCCCC(=O)[O-]
REMARK SMILES IDX 4 1 5 2 6 3 7 4 8 5 3 6 2 7 1 8
REMARK H PARENT
REMARK Flexibility Score: inf
ROOT
ATOM      1  C   UNL     1     -43.994 -38.250  14.841  1.00  0.00     0.006 C 
ENDROOT
BRANCH   1   2
ATOM      2  C   UNL     1     -45.175 -37.739  15.678  1.00  0.00     0.053 C 
BRANCH   2   3
ATOM      3  C   UNL     1     -45.098 -38.216  17.096  1.00  0.00     0.041 C 
ATOM      4  O   UNL     1     -44.129 -37.881  17.825  1.00  0.00    -0.550 OA
ATOM      5  O   UNL     1     -46.116 -39.003  17.622  1.00  0.00    -0.550 OA
ENDBRANCH   2   3
ENDBRANCH   1   2
BRANCH   1   6
ATOM      6  C   UNL     1     -44.254 -38.125  13.331  1.00  0.00     0.000 C 
BRANCH   6   7
ATOM      7  C   UNL     1     -45.407 -37.162  13.009  1.00  0.00    -0.003 C 
ATOM      8  C   UNL     1     -44.943 -35.911  12.265  1.00  0.00     0.004 C 
ENDBRANCH   6   7
ENDBRANCH   1   6
TORSDOF 4
ENDMDL
MODEL 4
REMARK VINA RESULT:    -2.894     13.334     14.619
REMARK INTER + INTRA:          -3.691
REMARK INTER:                  -3.581
REMARK INTRA:                  -0.110
REMARK UNBOUND:                -0.120
REMARK SMILES CCCCCC(=O)[O-]
REMARK SMILES IDX 4 1 5 2 6 3 7 4 8 5 3 6 2 7 1 8
REMARK H PARENT
REMARK Flexibility Score: inf
ROOT
ATOM      1  C   UNL     1     -37.974 -34.183  26.148  1.00  0.00     0.006 C 
ENDROOT
BRANCH   1   2
ATOM      2  C   UNL     1     -37.874 -33.904  27.654  1.00  0.00     0.053 C 
BRANCH   2   3
ATOM      3  C   UNL     1     -38.923 -32.936  28.110  1.00  0.00     0.041 C 
ATOM      4  O   UNL     1     -38.612 -31.971  28.856  1.00  0.00    -0.550 OA
ATOM      5  O   UNL     1     -40.237 -33.081  27.682  1.00  0.00    -0.550 OA
ENDBRANCH   2   3
ENDBRANCH   1   2
BRANCH   1   6
ATOM      6  C   UNL     1     -37.679 -32.932  25.303  1.00  0.00     0.000 C 
BRANCH   6   7
ATOM      7  C   UNL     1     -38.362 -32.974  23.928  1.00  0.00    -0.003 C 
ATOM      8  C   UNL     1     -37.573 -32.227  22.853  1.00  0.00     0.004 C 
ENDBRANCH   6   7
ENDBRANCH   1   6
TORSDOF 4
ENDMDL
MODEL 5
REMARK VINA RESULT:    -2.879      2.777      4.586
REMARK INTER + INTRA:          -3.673
REMARK INTER:                  -3.621
REMARK INTRA:                  -0.052
REMARK UNBOUND:                -0.120
REMARK SMILES CCCCCC(=O)[O-]
REMARK SMILES IDX 4 1 5 2 6 3 7 4 8 5 3 6 2 7 1 8
REMARK H PARENT
REMARK Flexibility Score: inf
ROOT
ATOM      1  C   UNL     1     -44.549 -37.410  15.780  1.00  0.00     0.006 C 
ENDROOT
BRANCH   1   2
ATOM      2  C   UNL     1     -43.879 -38.213  14.657  1.00  0.00     0.053 C 
BRANCH   2   3
ATOM      3  C   UNL     1     -44.526 -37.958  13.330  1.00  0.00     0.041 C 
ATOM      4  O   UNL     1     -45.235 -38.846  12.790  1.00  0.00    -0.550 OA
ATOM      5  O   UNL     1     -44.374 -36.725  12.707  1.00  0.00    -0.550 OA
ENDBRANCH   2   3
ENDBRANCH   1   2
BRANCH   1   6
ATOM      6  C   UNL     1     -44.592 -38.190  17.106  1.00  0.00     0.000 C 
BRANCH   6   7
ATOM      7  C   UNL     1     -45.205 -37.371  18.252  1.00  0.00    -0.003 C 
ATOM      8  C   UNL     1     -44.161 -36.896  19.262  1.00  0.00     0.004 C 
ENDBRANCH   6   7
ENDBRANCH   1   6
TORSDOF 4
ENDMDL
MODEL 6
REMARK VINA RESULT:    -2.865      1.525      2.429
REMARK INTER + INTRA:          -3.655
REMARK INTER:                  -3.561
REMARK INTRA:                  -0.094
REMARK UNBOUND:                -0.120
REMARK SMILES CCCCCC(=O)[O-]
REMARK SMILES IDX 4 1 5 2 6 3 7 4 8 5 3 6 2 7 1 8
REMARK H PARENT
REMARK Flexibility Score: inf
ROOT
ATOM      1  C   UNL     1     -46.099 -35.875  12.437  1.00  0.00     0.006 C 
ENDROOT
BRANCH   1   2
ATOM      2  C   UNL     1     -44.672 -36.414  12.607  1.00  0.00     0.053 C 
BRANCH   2   3
ATOM      3  C   UNL     1     -44.662 -37.757  13.271  1.00  0.00     0.041 C 
ATOM      4  O   UNL     1     -45.360 -38.697  12.810  1.00  0.00    -0.550 OA
ATOM      5  O   UNL     1     -43.854 -37.979  14.380  1.00  0.00    -0.550 OA
ENDBRANCH   2   3
ENDBRANCH   1   2
BRANCH   1   6
ATOM      6  C   UNL     1     -46.125 -34.348  12.251  1.00  0.00     0.000 C 
BRANCH   6   7
ATOM      7  C   UNL     1     -45.671 -33.593  13.510  1.00  0.00    -0.003 C 
ATOM      8  C   UNL     1     -44.989 -32.264  13.189  1.00  0.00     0.004 C 
ENDBRANCH   6   7
ENDBRANCH   1   6
TORSDOF 4
ENDMDL
MODEL 7
REMARK VINA RESULT:    -2.863      2.567      4.220
REMARK INTER + INTRA:          -3.652
REMARK INTER:                  -3.452
REMARK INTRA:                  -0.200
REMARK UNBOUND:                -0.120
REMARK SMILES CCCCCC(=O)[O-]
REMARK SMILES IDX 4 1 5 2 6 3 7 4 8 5 3 6 2 7 1 8
REMARK H PARENT
REMARK Flexibility Score: inf
ROOT
ATOM      1  C   UNL     1     -44.807 -38.165  14.026  1.00  0.00     0.006 C 
ENDROOT
BRANCH   1   2
ATOM      2  C   UNL     1     -44.453 -37.146  12.933  1.00  0.00     0.053 C 
BRANCH   2   3
ATOM      3  C   UNL     1     -45.417 -36.000  12.911  1.00  0.00     0.041 C 
ATOM      4  O   UNL     1     -45.728 -35.413  13.980  1.00  0.00    -0.550 OA
ATOM      5  O   UNL     1     -45.944 -35.557  11.703  1.00  0.00    -0.550 OA
ENDBRANCH   2   3
ENDBRANCH   1   2
BRANCH   1   6
ATOM      6  C   UNL     1     -43.763 -38.190  15.156  1.00  0.00     0.000 C 
BRANCH   6   7
ATOM      7  C   UNL     1     -44.373 -37.868  16.529  1.00  0.00    -0.003 C 
ATOM      8  C   UNL     1     -45.857 -38.221  16.613  1.00  0.00     0.004 C 
ENDBRANCH   6   7
ENDBRANCH   1   6
TORSDOF 4
ENDMDL
MODEL 8
REMARK VINA RESULT:    -2.769      2.719      4.085
REMARK INTER + INTRA:          -3.537
REMARK INTER:                  -3.352
REMARK INTRA:                  -0.185
REMARK UNBOUND:                -0.120
REMARK SMILES CCCCCC(=O)[O-]
REMARK SMILES IDX 4 1 5 2 6 3 7 4 8 5 3 6 2 7 1 8
REMARK H PARENT
REMARK Flexibility Score: inf
ROOT
ATOM      1  C   UNL     1     -44.526 -36.647  12.656  1.00  0.00     0.006 C 
ENDROOT
BRANCH   1   2
ATOM      2  C   UNL     1     -45.744 -35.728  12.489  1.00  0.00     0.053 C 
BRANCH   2   3
ATOM      3  C   UNL     1     -45.649 -34.515  13.362  1.00  0.00     0.041 C 
ATOM      4  O   UNL     1     -45.653 -33.364  12.851  1.00  0.00    -0.550 OA
ATOM      5  O   UNL     1     -45.590 -34.654  14.744  1.00  0.00    -0.550 OA
ENDBRANCH   2   3
ENDBRANCH   1   2
BRANCH   1   6
ATOM      6  C   UNL     1     -44.870 -37.934  13.425  1.00  0.00     0.000 C 
BRANCH   6   7
ATOM      7  C   UNL     1     -43.921 -38.188  14.605  1.00  0.00    -0.003 C 
ATOM      8  C   UNL     1     -44.576 -37.919  15.959  1.00  0.00     0.004 C 
ENDBRANCH   6   7
ENDBRANCH   1   6
TORSDOF 4
ENDMDL
MODEL 9
REMARK VINA RESULT:    -2.711      2.722      3.292
REMARK INTER + INTRA:          -3.465
REMARK INTER:                  -3.379
REMARK INTRA:                  -0.086
REMARK UNBOUND:                -0.120
REMARK SMILES CCCCCC(=O)[O-]
REMARK SMILES IDX 4 1 5 2 6 3 7 4 8 5 3 6 2 7 1 8
REMARK H PARENT
REMARK Flexibility Score: inf
ROOT
ATOM      1  C   UNL     1     -44.703 -37.415  15.563  1.00  0.00     0.006 C 
ENDROOT
BRANCH   1   2
ATOM      2  C   UNL     1     -44.701 -38.131  16.921  1.00  0.00     0.053 C 
BRANCH   2   3
ATOM      3  C   UNL     1     -45.027 -37.194  18.043  1.00  0.00     0.041 C 
ATOM      4  O   UNL     1     -46.078 -36.501  18.005  1.00  0.00    -0.550 OA
ATOM      5  O   UNL     1     -44.188 -37.111  19.147  1.00  0.00    -0.550 OA
ENDBRANCH   2   3
ENDBRANCH   1   2
BRANCH   1   6
ATOM      6  C   UNL     1     -44.015 -38.246  14.467  1.00  0.00     0.000 C 
BRANCH   6   7
ATOM      7  C   UNL     1     -44.620 -38.004  13.076  1.00  0.00    -0.003 C 
ATOM      8  C   UNL     1     -46.125 -38.266  13.032  1.00  0.00     0.004 C 
ENDBRANCH   6   7
ENDBRANCH   1   6
TORSDOF 4
ENDMDL
