MODEL 1
REMARK VINA RESULT:    -6.189      0.000      0.000
REMARK INTER + INTRA:         -12.168
REMARK INTER:                  -9.264
REMARK INTRA:                  -2.903
REMARK UNBOUND:                -2.903
REMARK SMILES C[C@H]1O[C@H](O[C@@H]2CC[C@@]3(C)[C@H](CC[C@]4(C)[C@@H]3C=C[C@]35OC[C@@]6(CCC(C)(C)C[C@@H]63)[C@@H](O)C[C@@]54C)[C@@]2(C)CO)[C@H](O)[C@H](O[C@@H]2O[C@@H](CO)[C@H](O)[C@H](O)[C@H]2O)[C@H]1O
REMARK SMILES IDX 1 1 2 2 54 3 41 4 39 5 4 6 3 7 55 8 42 10 43 11 52 12 44 13
REMARK SMILES IDX 50 14 45 15 48 16 53 17 51 19 46 21 47 22 49 24 5 26 6 27
REMARK SMILES IDX 7 28 35 29 8 30 11 31 36 32 9 33 12 34 10 35 16 36 13 37
REMARK SMILES IDX 14 38 17 39 15 40 33 41 18 42 19 43 32 44 34 45 29 46 20 47
REMARK SMILES IDX 30 48 22 49 28 50 21 51 23 52 25 53 24 54 26 55 27 56 37 57
REMARK SMILES IDX 38 58 31 60 40 62
REMARK H PARENT 55 9 53 18 51 20 47 23 49 25 38 59 31 61 40 63
REMARK Flexibility Score: inf
ROOT
ATOM      1  C   UNL     1     102.684  89.904  20.720  1.00  0.00     0.041 C 
ATOM      2  C   UNL     1     103.325  88.513  20.415  1.00  0.00     0.150 C 
ATOM      3  C   UNL     1     103.423  88.240  18.889  1.00  0.00     0.175 C 
ATOM      4  C   UNL     1     101.945  88.128  18.226  1.00  0.00     0.186 C 
ATOM      5  C   UNL     1     101.242  86.904  19.180  1.00  0.00     0.202 C 
ATOM      6  C   UNL     1     102.129  86.432  20.424  1.00  0.00     0.282 C 
ATOM      7  O   UNL     1     102.665  87.507  21.184  1.00  0.00    -0.344 OA
ENDROOT
BRANCH   3   8
ATOM      8  O   UNL     1     104.672  88.731  18.517  1.00  0.00    -0.388 OA
ATOM      9  H   UNL     1     104.598  89.292  17.652  1.00  0.00     0.211 HD
ENDBRANCH   3   8
BRANCH   4  10
ATOM     10  O   UNL     1     101.768  87.863  16.710  1.00  0.00    -0.341 OA
BRANCH  10  11
ATOM     11  C   UNL     1     101.639  88.945  15.641  1.00  0.00     0.282 C 
ATOM     12  C   UNL     1     102.263  88.383  14.464  1.00  0.00     0.202 C 
ATOM     13  O   UNL     1     100.188  89.370  15.074  1.00  0.00    -0.341 OA
ATOM     14  C   UNL     1     101.185  87.237  14.186  1.00  0.00     0.179 C 
ATOM     15  C   UNL     1      99.171  88.429  14.441  1.00  0.00     0.178 C 
ATOM     16  C   UNL     1      99.679  87.173  14.955  1.00  0.00     0.177 C 
BRANCH  12  17
ATOM     17  O   UNL     1     102.145  89.406  13.441  1.00  0.00    -0.385 OA
ATOM     18  H   UNL     1     103.109  89.529  13.085  1.00  0.00     0.211 HD
ENDBRANCH  12  17
BRANCH  14  19
ATOM     19  O   UNL     1     101.675  86.047  13.848  1.00  0.00    -0.387 OA
ATOM     20  H   UNL     1     101.031  85.352  14.183  1.00  0.00     0.211 HD
ENDBRANCH  14  19
BRANCH  15  21
ATOM     21  C   UNL     1      98.878  88.212  12.699  1.00  0.00     0.191 C 
BRANCH  21  22
ATOM     22  O   UNL     1      99.669  88.989  11.695  1.00  0.00    -0.394 OA
ATOM     23  H   UNL     1      99.228  89.893  11.541  1.00  0.00     0.210 HD
ENDBRANCH  21  22
ENDBRANCH  15  21
BRANCH  16  24
ATOM     24  O   UNL     1      99.239  86.632  16.225  1.00  0.00    -0.387 OA
ATOM     25  H   UNL     1      98.245  86.936  16.438  1.00  0.00     0.211 HD
ENDBRANCH  16  24
ENDBRANCH  10  11
ENDBRANCH   4  10
BRANCH   6  26
ATOM     26  O   UNL     1     103.024  85.233  20.481  1.00  0.00    -0.346 OA
BRANCH  26  27
ATOM     27  C   UNL     1     103.263  84.661  21.788  1.00  0.00     0.130 C 
ATOM     28  C   UNL     1     104.773  84.352  22.016  1.00  0.00     0.033 C 
ATOM     29  C   UNL     1     102.401  83.389  22.303  1.00  0.00     0.020 C 
ATOM     30  C   UNL     1     105.242  82.862  22.063  1.00  0.00     0.010 C 
ATOM     31  C   UNL     1     102.855  81.968  21.772  1.00  0.00     0.006 C 
ATOM     32  C   UNL     1     100.882  83.663  22.184  1.00  0.00     0.017 C 
ATOM     33  C   UNL     1     104.363  81.805  21.291  1.00  0.00    -0.022 C 
ATOM     34  C   UNL     1     101.877  81.274  20.822  1.00  0.00     0.005 C 
ATOM     35  C   UNL     1     104.920  80.379  21.716  1.00  0.00     0.012 C 
ATOM     36  C   UNL     1     104.513  82.030  19.711  1.00  0.00     0.024 C 
ATOM     37  C   UNL     1     102.032  81.810  19.374  1.00  0.00     0.008 C 
ATOM     38  C   UNL     1     103.447  81.407  18.765  1.00  0.00    -0.017 C 
ATOM     39  C   UNL     1     105.902  81.775  19.128  1.00  0.00    -0.024 C 
ATOM     40  C   UNL     1     103.570  79.878  18.771  1.00  0.00     0.013 C 
ATOM     41  C   UNL     1     103.714  81.978  17.186  1.00  0.00     0.009 C 
ATOM     42  C   UNL     1     106.180  82.067  17.849  1.00  0.00     0.005 C 
ATOM     43  C   UNL     1     105.129  82.804  17.008  1.00  0.00     0.096 C 
ATOM     44  C   UNL     1     102.540  82.852  16.679  1.00  0.00     0.043 C 
ATOM     45  C   UNL     1     103.744  80.817  16.170  1.00  0.00     0.015 C 
ATOM     46  C   UNL     1     105.186  84.354  17.371  1.00  0.00     0.037 C 
ATOM     47  O   UNL     1     105.411  82.821  15.613  1.00  0.00    -0.369 OA
ATOM     48  C   UNL     1     102.803  84.298  16.929  1.00  0.00     0.124 C 
ATOM     49  C   UNL     1     104.211  84.797  16.352  1.00  0.00     0.026 C 
ATOM     50  C   UNL     1     106.661  84.920  17.090  1.00  0.00     0.014 C 
ATOM     51  C   UNL     1     104.723  83.999  15.136  1.00  0.00     0.171 C 
ATOM     52  C   UNL     1     104.184  86.280  16.167  1.00  0.00     0.013 C 
ATOM     53  C   UNL     1     106.853  86.339  16.398  1.00  0.00    -0.035 C 
ATOM     54  C   UNL     1     105.481  86.974  15.836  1.00  0.00     0.007 C 
ATOM     55  C   UNL     1     107.577  87.342  17.262  1.00  0.00     0.011 C 
ATOM     56  C   UNL     1     107.810  86.164  15.105  1.00  0.00     0.011 C 
BRANCH  29  57
ATOM     57  C   UNL     1     102.591  83.396  23.902  1.00  0.00     0.165 C 
BRANCH  57  58
ATOM     58  O   UNL     1     102.685  82.089  24.426  1.00  0.00    -0.396 OA
ATOM     59  H   UNL     1     102.971  82.188  25.384  1.00  0.00     0.210 HD
ENDBRANCH  57  58
ENDBRANCH  29  57
BRANCH  48  60
ATOM     60  O   UNL     1     101.734  85.031  16.441  1.00  0.00    -0.392 OA
ATOM     61  H   UNL     1     101.572  85.749  17.146  1.00  0.00     0.210 HD
ENDBRANCH  48  60
ENDBRANCH  26  27
ENDBRANCH   6  26
BRANCH   5  62
ATOM     62  O   UNL     1     100.683  85.749  18.502  1.00  0.00    -0.385 OA
ATOM     63  H   UNL     1      99.867  85.916  17.853  1.00  0.00     0.211 HD
ENDBRANCH   5  62
TORSDOF 14
ENDMDL
MODEL 2
REMARK VINA RESULT:    -6.037      2.784      8.509
REMARK INTER + INTRA:         -11.940
REMARK INTER:                  -9.136
REMARK INTRA:                  -2.804
REMARK UNBOUND:                -2.903
REMARK SMILES C[C@H]1O[C@H](O[C@@H]2CC[C@@]3(C)[C@H](CC[C@]4(C)[C@@H]3C=C[C@]35OC[C@@]6(CCC(C)(C)C[C@@H]63)[C@@H](O)C[C@@]54C)[C@@]2(C)CO)[C@H](O)[C@H](O[C@@H]2O[C@@H](CO)[C@H](O)[C@H](O)[C@H]2O)[C@H]1O
REMARK SMILES IDX 1 1 2 2 54 3 41 4 39 5 4 6 3 7 55 8 42 10 43 11 52 12 44 13
REMARK SMILES IDX 50 14 45 15 48 16 53 17 51 19 46 21 47 22 49 24 5 26 6 27
REMARK SMILES IDX 7 28 35 29 8 30 11 31 36 32 9 33 12 34 10 35 16 36 13 37
REMARK SMILES IDX 14 38 17 39 15 40 33 41 18 42 19 43 32 44 34 45 29 46 20 47
REMARK SMILES IDX 30 48 22 49 28 50 21 51 23 52 25 53 24 54 26 55 27 56 37 57
REMARK SMILES IDX 38 58 31 60 40 62
REMARK H PARENT 55 9 53 18 51 20 47 23 49 25 38 59 31 61 40 63
REMARK Flexibility Score: inf
ROOT
ATOM      1  C   UNL     1     101.678  87.355  12.022  1.00  0.00     0.041 C 
ATOM      2  C   UNL     1     103.133  87.305  12.589  1.00  0.00     0.150 C 
ATOM      3  C   UNL     1     103.408  85.989  13.367  1.00  0.00     0.175 C 
ATOM      4  C   UNL     1     102.481  85.900  14.697  1.00  0.00     0.186 C 
ATOM      5  C   UNL     1     102.886  87.356  15.486  1.00  0.00     0.202 C 
ATOM      6  C   UNL     1     103.830  88.333  14.642  1.00  0.00     0.282 C 
ATOM      7  O   UNL     1     103.409  88.513  13.297  1.00  0.00    -0.344 OA
ENDROOT
BRANCH   3   8
ATOM      8  O   UNL     1     103.909  85.106  12.414  1.00  0.00    -0.388 OA
ATOM      9  H   UNL     1     103.158  84.802  11.772  1.00  0.00     0.211 HD
ENDBRANCH   3   8
BRANCH   4  10
ATOM     10  O   UNL     1     102.562  84.679  15.648  1.00  0.00    -0.341 OA
BRANCH  10  11
ATOM     11  C   UNL     1     103.452  83.458  15.429  1.00  0.00     0.282 C 
ATOM     12  C   UNL     1     104.714  83.801  16.046  1.00  0.00     0.202 C 
ATOM     13  O   UNL     1     103.107  82.051  16.144  1.00  0.00    -0.341 OA
ATOM     14  C   UNL     1     104.206  83.818  17.560  1.00  0.00     0.179 C 
ATOM     15  C   UNL     1     102.940  81.835  17.643  1.00  0.00     0.178 C 
ATOM     16  C   UNL     1     102.703  83.207  18.042  1.00  0.00     0.177 C 
BRANCH  12  17
ATOM     17  O   UNL     1     105.568  82.645  15.843  1.00  0.00    -0.385 OA
ATOM     18  H   UNL     1     104.918  81.840  15.841  1.00  0.00     0.211 HD
ENDBRANCH  12  17
BRANCH  14  19
ATOM     19  O   UNL     1     104.654  84.820  18.313  1.00  0.00    -0.387 OA
ATOM     20  H   UNL     1     104.075  85.619  18.121  1.00  0.00     0.211 HD
ENDBRANCH  14  19
BRANCH  15  21
ATOM     21  C   UNL     1     104.158  81.160  18.752  1.00  0.00     0.191 C 
BRANCH  21  22
ATOM     22  O   UNL     1     105.478  80.687  18.230  1.00  0.00    -0.394 OA
ATOM     23  H   UNL     1     106.221  81.005  18.849  1.00  0.00     0.210 HD
ENDBRANCH  21  22
ENDBRANCH  15  21
BRANCH  16  24
ATOM     24  O   UNL     1     101.371  83.774  18.078  1.00  0.00    -0.387 OA
ATOM     25  H   UNL     1     101.322  84.575  18.773  1.00  0.00     0.211 HD
ENDBRANCH  16  24
ENDBRANCH  10  11
ENDBRANCH   4  10
BRANCH   6  26
ATOM     26  O   UNL     1     105.316  88.468  14.765  1.00  0.00    -0.346 OA
BRANCH  26  27
ATOM     27  C   UNL     1     106.101  87.284  14.495  1.00  0.00     0.130 C 
ATOM     28  C   UNL     1     106.294  86.413  15.772  1.00  0.00     0.033 C 
ATOM     29  C   UNL     1     107.529  87.395  13.736  1.00  0.00     0.020 C 
ATOM     30  C   UNL     1     107.710  86.336  16.429  1.00  0.00     0.010 C 
ATOM     31  C   UNL     1     108.768  87.821  14.625  1.00  0.00     0.006 C 
ATOM     32  C   UNL     1     107.392  88.177  12.408  1.00  0.00     0.017 C 
ATOM     33  C   UNL     1     108.682  87.554  16.192  1.00  0.00    -0.022 C 
ATOM     34  C   UNL     1     109.363  89.196  14.315  1.00  0.00     0.005 C 
ATOM     35  C   UNL     1     110.100  87.097  16.746  1.00  0.00     0.012 C 
ATOM     36  C   UNL     1     108.144  88.838  16.987  1.00  0.00     0.024 C 
ATOM     37  C   UNL     1     108.545  90.324  15.000  1.00  0.00     0.008 C 
ATOM     38  C   UNL     1     108.678  90.242  16.585  1.00  0.00    -0.017 C 
ATOM     39  C   UNL     1     108.140  88.726  18.510  1.00  0.00    -0.024 C 
ATOM     40  C   UNL     1     110.160  90.367  16.963  1.00  0.00     0.013 C 
ATOM     41  C   UNL     1     107.791  91.427  17.421  1.00  0.00     0.009 C 
ATOM     42  C   UNL     1     107.582  89.679  19.272  1.00  0.00     0.005 C 
ATOM     43  C   UNL     1     106.807  90.816  18.593  1.00  0.00     0.096 C 
ATOM     44  C   UNL     1     106.959  92.313  16.461  1.00  0.00     0.043 C 
ATOM     45  C   UNL     1     108.725  92.444  18.107  1.00  0.00     0.015 C 
ATOM     46  C   UNL     1     105.358  90.281  18.205  1.00  0.00     0.037 C 
ATOM     47  O   UNL     1     106.494  91.901  19.460  1.00  0.00    -0.369 OA
ATOM     48  C   UNL     1     105.569  91.792  16.322  1.00  0.00     0.124 C 
ATOM     49  C   UNL     1     104.828  91.575  17.725  1.00  0.00     0.026 C 
ATOM     50  C   UNL     1     104.602  89.765  19.523  1.00  0.00     0.014 C 
ATOM     51  C   UNL     1     105.322  92.495  18.858  1.00  0.00     0.171 C 
ATOM     52  C   UNL     1     103.348  91.566  17.518  1.00  0.00     0.013 C 
ATOM     53  C   UNL     1     103.065  90.104  19.746  1.00  0.00    -0.035 C 
ATOM     54  C   UNL     1     102.476  91.160  18.680  1.00  0.00     0.007 C 
ATOM     55  C   UNL     1     102.178  88.885  19.817  1.00  0.00     0.011 C 
ATOM     56  C   UNL     1     102.891  90.807  21.193  1.00  0.00     0.011 C 
BRANCH  29  57
ATOM     57  C   UNL     1     107.811  85.906  13.189  1.00  0.00     0.165 C 
BRANCH  57  58
ATOM     58  O   UNL     1     106.782  85.457  12.335  1.00  0.00    -0.396 OA
ATOM     59  H   UNL     1     107.233  85.021  11.551  1.00  0.00     0.210 HD
ENDBRANCH  57  58
ENDBRANCH  29  57
BRANCH  48  60
ATOM     60  O   UNL     1     104.868  92.630  15.470  1.00  0.00    -0.392 OA
ATOM     61  H   UNL     1     105.158  93.569  15.737  1.00  0.00     0.210 HD
ENDBRANCH  48  60
ENDBRANCH  26  27
ENDBRANCH   6  26
BRANCH   5  62
ATOM     62  O   UNL     1     103.349  87.281  16.859  1.00  0.00    -0.385 OA
ATOM     63  H   UNL     1     104.392  87.305  17.020  1.00  0.00     0.211 HD
ENDBRANCH   5  62
TORSDOF 14
ENDMDL
MODEL 3
REMARK VINA RESULT:    -6.028      3.883      9.342
REMARK INTER + INTRA:         -11.926
REMARK INTER:                  -9.709
REMARK INTRA:                  -2.218
REMARK UNBOUND:                -2.903
REMARK SMILES C[C@H]1O[C@H](O[C@@H]2CC[C@@]3(C)[C@H](CC[C@]4(C)[C@@H]3C=C[C@]35OC[C@@]6(CCC(C)(C)C[C@@H]63)[C@@H](O)C[C@@]54C)[C@@]2(C)CO)[C@H](O)[C@H](O[C@@H]2O[C@@H](CO)[C@H](O)[C@H](O)[C@H]2O)[C@H]1O
REMARK SMILES IDX 1 1 2 2 54 3 41 4 39 5 4 6 3 7 55 8 42 10 43 11 52 12 44 13
REMARK SMILES IDX 50 14 45 15 48 16 53 17 51 19 46 21 47 22 49 24 5 26 6 27
REMARK SMILES IDX 7 28 35 29 8 30 11 31 36 32 9 33 12 34 10 35 16 36 13 37
REMARK SMILES IDX 14 38 17 39 15 40 33 41 18 42 19 43 32 44 34 45 29 46 20 47
REMARK SMILES IDX 30 48 22 49 28 50 21 51 23 52 25 53 24 54 26 55 27 56 37 57
REMARK SMILES IDX 38 58 31 60 40 62
REMARK H PARENT 55 9 53 18 51 20 47 23 49 25 38 59 31 61 40 63
REMARK Flexibility Score: inf
ROOT
ATOM      1  C   UNL     1     102.623  88.329  12.497  1.00  0.00     0.041 C 
ATOM      2  C   UNL     1     104.097  87.826  12.376  1.00  0.00     0.150 C 
ATOM      3  C   UNL     1     104.349  86.552  13.229  1.00  0.00     0.175 C 
ATOM      4  C   UNL     1     104.188  86.876  14.812  1.00  0.00     0.186 C 
ATOM      5  C   UNL     1     105.294  88.159  15.005  1.00  0.00     0.202 C 
ATOM      6  C   UNL     1     105.940  88.696  13.644  1.00  0.00     0.282 C 
ATOM      7  O   UNL     1     104.991  88.915  12.610  1.00  0.00    -0.344 OA
ENDROOT
BRANCH   3   8
ATOM      8  O   UNL     1     104.074  85.488  12.374  1.00  0.00    -0.388 OA
ATOM      9  H   UNL     1     104.250  85.757  11.392  1.00  0.00     0.211 HD
ENDBRANCH   3   8
BRANCH   4  10
ATOM     10  O   UNL     1     104.386  85.768  15.878  1.00  0.00    -0.341 OA
BRANCH  10  11
ATOM     11  C   UNL     1     103.266  85.135  16.699  1.00  0.00     0.282 C 
ATOM     12  C   UNL     1     102.368  84.559  15.724  1.00  0.00     0.202 C 
ATOM     13  O   UNL     1     103.565  83.872  17.660  1.00  0.00    -0.341 OA
ATOM     14  C   UNL     1     103.346  83.412  15.195  1.00  0.00     0.179 C 
ATOM     15  C   UNL     1     104.179  82.549  17.221  1.00  0.00     0.178 C 
ATOM     16  C   UNL     1     104.784  82.984  15.978  1.00  0.00     0.177 C 
BRANCH  12  17
ATOM     17  O   UNL     1     101.298  83.954  16.496  1.00  0.00    -0.385 OA
ATOM     18  H   UNL     1     101.014  84.690  17.166  1.00  0.00     0.211 HD
ENDBRANCH  12  17
BRANCH  14  19
ATOM     19  O   UNL     1     103.367  83.227  13.877  1.00  0.00    -0.387 OA
ATOM     20  H   UNL     1     102.680  82.525  13.664  1.00  0.00     0.211 HD
ENDBRANCH  14  19
BRANCH  15  21
ATOM     21  C   UNL     1     103.299  81.039  16.884  1.00  0.00     0.191 C 
BRANCH  21  22
ATOM     22  O   UNL     1     103.756  80.122  15.794  1.00  0.00    -0.394 OA
ATOM     23  H   UNL     1     104.480  80.583  15.245  1.00  0.00     0.210 HD
ENDBRANCH  21  22
ENDBRANCH  15  21
BRANCH  16  24
ATOM     24  O   UNL     1     106.132  83.512  15.927  1.00  0.00    -0.387 OA
ATOM     25  H   UNL     1     106.288  84.218  16.703  1.00  0.00     0.211 HD
ENDBRANCH  16  24
ENDBRANCH  10  11
ENDBRANCH   4  10
BRANCH   6  26
ATOM     26  O   UNL     1     107.277  88.325  13.081  1.00  0.00    -0.346 OA
BRANCH  26  27
ATOM     27  C   UNL     1     107.413  86.984  12.560  1.00  0.00     0.130 C 
ATOM     28  C   UNL     1     107.791  85.965  13.676  1.00  0.00     0.033 C 
ATOM     29  C   UNL     1     108.348  86.691  11.268  1.00  0.00     0.020 C 
ATOM     30  C   UNL     1     109.226  85.346  13.681  1.00  0.00     0.010 C 
ATOM     31  C   UNL     1     109.905  86.577  11.536  1.00  0.00     0.006 C 
ATOM     32  C   UNL     1     107.966  87.615  10.086  1.00  0.00     0.017 C 
ATOM     33  C   UNL     1     110.376  86.184  13.005  1.00  0.00    -0.022 C 
ATOM     34  C   UNL     1     110.762  87.698  10.944  1.00  0.00     0.005 C 
ATOM     35  C   UNL     1     111.637  85.220  12.933  1.00  0.00     0.012 C 
ATOM     36  C   UNL     1     110.696  87.479  13.894  1.00  0.00     0.024 C 
ATOM     37  C   UNL     1     110.746  88.952  11.859  1.00  0.00     0.008 C 
ATOM     38  C   UNL     1     111.475  88.657  13.243  1.00  0.00    -0.017 C 
ATOM     39  C   UNL     1     111.274  87.209  15.282  1.00  0.00    -0.024 C 
ATOM     40  C   UNL     1     112.922  88.236  12.959  1.00  0.00     0.013 C 
ATOM     41  C   UNL     1     111.482  89.972  14.321  1.00  0.00     0.009 C 
ATOM     42  C   UNL     1     111.447  88.205  16.165  1.00  0.00     0.005 C 
ATOM     43  C   UNL     1     110.915  89.603  15.824  1.00  0.00     0.096 C 
ATOM     44  C   UNL     1     110.700  91.186  13.760  1.00  0.00     0.043 C 
ATOM     45  C   UNL     1     112.906  90.535  14.506  1.00  0.00     0.015 C 
ATOM     46  C   UNL     1     109.347  89.631  16.102  1.00  0.00     0.037 C 
ATOM     47  O   UNL     1     111.384  90.629  16.693  1.00  0.00    -0.369 OA
ATOM     48  C   UNL     1     109.288  91.181  14.239  1.00  0.00     0.124 C 
ATOM     49  C   UNL     1     109.158  91.072  15.832  1.00  0.00     0.026 C 
ATOM     50  C   UNL     1     109.066  89.258  17.637  1.00  0.00     0.014 C 
ATOM     51  C   UNL     1     110.359  91.644  16.612  1.00  0.00     0.171 C 
ATOM     52  C   UNL     1     107.823  91.584  16.265  1.00  0.00     0.013 C 
ATOM     53  C   UNL     1     107.978  90.068  18.469  1.00  0.00    -0.035 C 
ATOM     54  C   UNL     1     107.418  91.370  17.702  1.00  0.00     0.007 C 
ATOM     55  C   UNL     1     106.832  89.217  18.959  1.00  0.00     0.011 C 
ATOM     56  C   UNL     1     108.667  90.625  19.823  1.00  0.00     0.011 C 
BRANCH  29  57
ATOM     57  C   UNL     1     107.841  85.264  10.720  1.00  0.00     0.165 C 
BRANCH  57  58
ATOM     58  O   UNL     1     106.444  85.239  10.532  1.00  0.00    -0.396 OA
ATOM     59  H   UNL     1     106.211  84.301  10.259  1.00  0.00     0.210 HD
ENDBRANCH  57  58
ENDBRANCH  29  57
BRANCH  48  60
ATOM     60  O   UNL     1     108.644  92.293  13.723  1.00  0.00    -0.392 OA
ATOM     61  H   UNL     1     109.379  92.991  13.621  1.00  0.00     0.210 HD
ENDBRANCH  48  60
ENDBRANCH  26  27
ENDBRANCH   6  26
BRANCH   5  62
ATOM     62  O   UNL     1     106.320  88.026  16.024  1.00  0.00    -0.385 OA
ATOM     63  H   UNL     1     106.951  87.182  15.968  1.00  0.00     0.211 HD
ENDBRANCH   5  62
TORSDOF 14
ENDMDL
MODEL 4
REMARK VINA RESULT:    -5.993      3.419      7.150
REMARK INTER + INTRA:         -11.874
REMARK INTER:                  -8.924
REMARK INTRA:                  -2.949
REMARK UNBOUND:                -2.903
REMARK SMILES C[C@H]1O[C@H](O[C@@H]2CC[C@@]3(C)[C@H](CC[C@]4(C)[C@@H]3C=C[C@]35OC[C@@]6(CCC(C)(C)C[C@@H]63)[C@@H](O)C[C@@]54C)[C@@]2(C)CO)[C@H](O)[C@H](O[C@@H]2O[C@@H](CO)[C@H](O)[C@H](O)[C@H]2O)[C@H]1O
REMARK SMILES IDX 1 1 2 2 54 3 41 4 39 5 4 6 3 7 55 8 42 10 43 11 52 12 44 13
REMARK SMILES IDX 50 14 45 15 48 16 53 17 51 19 46 21 47 22 49 24 5 26 6 27
REMARK SMILES IDX 7 28 35 29 8 30 11 31 36 32 9 33 12 34 10 35 16 36 13 37
REMARK SMILES IDX 14 38 17 39 15 40 33 41 18 42 19 43 32 44 34 45 29 46 20 47
REMARK SMILES IDX 30 48 22 49 28 50 21 51 23 52 25 53 24 54 26 55 27 56 37 57
REMARK SMILES IDX 38 58 31 60 40 62
REMARK H PARENT 55 9 53 18 51 20 47 23 49 25 38 59 31 61 40 63
REMARK Flexibility Score: inf
ROOT
ATOM      1  C   UNL     1     102.438  83.993  17.090  1.00  0.00     0.041 C 
ATOM      2  C   UNL     1     103.151  85.381  17.005  1.00  0.00     0.150 C 
ATOM      3  C   UNL     1     102.646  86.221  15.800  1.00  0.00     0.175 C 
ATOM      4  C   UNL     1     103.038  85.509  14.394  1.00  0.00     0.186 C 
ATOM      5  C   UNL     1     104.726  85.345  14.561  1.00  0.00     0.202 C 
ATOM      6  C   UNL     1     105.299  85.748  15.999  1.00  0.00     0.282 C 
ATOM      7  O   UNL     1     104.564  85.194  17.082  1.00  0.00    -0.344 OA
ENDROOT
BRANCH   3   8
ATOM      8  O   UNL     1     101.582  86.966  16.303  1.00  0.00    -0.388 OA
ATOM      9  H   UNL     1     101.434  87.815  15.734  1.00  0.00     0.211 HD
ENDBRANCH   3   8
BRANCH   4  10
ATOM     10  O   UNL     1     102.643  86.147  13.038  1.00  0.00    -0.341 OA
BRANCH  10  11
ATOM     11  C   UNL     1     102.915  87.595  12.641  1.00  0.00     0.282 C 
ATOM     12  C   UNL     1     102.669  87.643  11.216  1.00  0.00     0.202 C 
ATOM     13  O   UNL     1     101.968  88.787  13.180  1.00  0.00    -0.341 OA
ATOM     14  C   UNL     1     101.091  87.399  11.271  1.00  0.00     0.179 C 
ATOM     15  C   UNL     1     100.458  88.873  12.994  1.00  0.00     0.178 C 
ATOM     16  C   UNL     1     100.188  87.480  12.700  1.00  0.00     0.177 C 
BRANCH  12  17
ATOM     17  O   UNL     1     102.926  89.018  10.828  1.00  0.00    -0.385 OA
ATOM     18  H   UNL     1     102.636  89.577  11.649  1.00  0.00     0.211 HD
ENDBRANCH  12  17
BRANCH  14  19
ATOM     19  O   UNL     1     100.600  86.559  10.363  1.00  0.00    -0.387 OA
ATOM     20  H   UNL     1     101.375  86.039   9.989  1.00  0.00     0.211 HD
ENDBRANCH  14  19
BRANCH  15  21
ATOM     21  C   UNL     1      99.600  89.850  11.778  1.00  0.00     0.191 C 
BRANCH  21  22
ATOM     22  O   UNL     1     100.363  90.722  10.831  1.00  0.00    -0.394 OA
ATOM     23  H   UNL     1     100.516  90.222   9.958  1.00  0.00     0.210 HD
ENDBRANCH  21  22
ENDBRANCH  15  21
BRANCH  16  24
ATOM     24  O   UNL     1      99.903  86.519  13.746  1.00  0.00    -0.387 OA
ATOM     25  H   UNL     1     100.612  85.729  13.732  1.00  0.00     0.211 HD
ENDBRANCH  16  24
ENDBRANCH  10  11
ENDBRANCH   4  10
BRANCH   6  26
ATOM     26  O   UNL     1     105.918  87.057  16.380  1.00  0.00    -0.346 OA
BRANCH  26  27
ATOM     27  C   UNL     1     105.013  88.120  16.755  1.00  0.00     0.130 C 
ATOM     28  C   UNL     1     104.888  89.196  15.635  1.00  0.00     0.033 C 
ATOM     29  C   UNL     1     105.178  88.883  18.176  1.00  0.00     0.020 C 
ATOM     30  C   UNL     1     105.513  90.609  15.871  1.00  0.00     0.010 C 
ATOM     31  C   UNL     1     106.284  90.014  18.244  1.00  0.00     0.006 C 
ATOM     32  C   UNL     1     105.222  87.871  19.347  1.00  0.00     0.017 C 
ATOM     33  C   UNL     1     106.722  90.704  16.878  1.00  0.00    -0.022 C 
ATOM     34  C   UNL     1     107.488  89.709  19.138  1.00  0.00     0.005 C 
ATOM     35  C   UNL     1     106.978  92.256  17.109  1.00  0.00     0.012 C 
ATOM     36  C   UNL     1     108.013  89.999  16.240  1.00  0.00     0.024 C 
ATOM     37  C   UNL     1     108.518  88.815  18.398  1.00  0.00     0.008 C 
ATOM     38  C   UNL     1     109.183  89.597  17.182  1.00  0.00    -0.017 C 
ATOM     39  C   UNL     1     108.587  90.664  14.991  1.00  0.00    -0.024 C 
ATOM     40  C   UNL     1     109.877  90.854  17.723  1.00  0.00     0.013 C 
ATOM     41  C   UNL     1     110.309  88.681  16.296  1.00  0.00     0.009 C 
ATOM     42  C   UNL     1     109.576  90.086  14.292  1.00  0.00     0.005 C 
ATOM     43  C   UNL     1     110.027  88.669  14.673  1.00  0.00     0.096 C 
ATOM     44  C   UNL     1     110.406  87.225  16.813  1.00  0.00     0.043 C 
ATOM     45  C   UNL     1     111.743  89.214  16.496  1.00  0.00     0.015 C 
ATOM     46  C   UNL     1     108.989  87.626  14.063  1.00  0.00     0.037 C 
ATOM     47  O   UNL     1     111.244  88.263  14.056  1.00  0.00    -0.369 OA
ATOM     48  C   UNL     1     109.507  86.321  16.039  1.00  0.00     0.124 C 
ATOM     49  C   UNL     1     109.730  86.409  14.455  1.00  0.00     0.026 C 
ATOM     50  C   UNL     1     108.915  87.807  12.470  1.00  0.00     0.014 C 
ATOM     51  C   UNL     1     111.153  86.821  14.031  1.00  0.00     0.171 C 
ATOM     52  C   UNL     1     109.211  85.167  13.804  1.00  0.00     0.013 C 
ATOM     53  C   UNL     1     108.866  86.531  11.523  1.00  0.00    -0.035 C 
ATOM     54  C   UNL     1     109.130  85.142  12.298  1.00  0.00     0.007 C 
ATOM     55  C   UNL     1     107.608  86.436  10.696  1.00  0.00     0.011 C 
ATOM     56  C   UNL     1     110.053  86.648  10.429  1.00  0.00     0.011 C 
BRANCH  29  57
ATOM     57  C   UNL     1     103.749  89.582  18.426  1.00  0.00     0.165 C 
BRANCH  57  58
ATOM     58  O   UNL     1     102.707  88.635  18.504  1.00  0.00    -0.396 OA
ATOM     59  H   UNL     1     102.826  88.153  19.377  1.00  0.00     0.210 HD
ENDBRANCH  57  58
ENDBRANCH  29  57
BRANCH  48  60
ATOM     60  O   UNL     1     109.648  85.034  16.529  1.00  0.00    -0.392 OA
ATOM     61  H   UNL     1     109.266  84.437  15.797  1.00  0.00     0.210 HD
ENDBRANCH  48  60
ENDBRANCH  26  27
ENDBRANCH   6  26
BRANCH   5  62
ATOM     62  O   UNL     1     105.570  85.897  13.517  1.00  0.00    -0.385 OA
ATOM     63  H   UNL     1     105.088  86.336  12.687  1.00  0.00     0.211 HD
ENDBRANCH   5  62
TORSDOF 14
ENDMDL
MODEL 5
REMARK VINA RESULT:    -5.783      4.336      8.931
REMARK INTER + INTRA:         -11.561
REMARK INTER:                  -8.559
REMARK INTRA:                  -3.002
REMARK UNBOUND:                -2.903
REMARK SMILES C[C@H]1O[C@H](O[C@@H]2CC[C@@]3(C)[C@H](CC[C@]4(C)[C@@H]3C=C[C@]35OC[C@@]6(CCC(C)(C)C[C@@H]63)[C@@H](O)C[C@@]54C)[C@@]2(C)CO)[C@H](O)[C@H](O[C@@H]2O[C@@H](CO)[C@H](O)[C@H](O)[C@H]2O)[C@H]1O
REMARK SMILES IDX 1 1 2 2 54 3 41 4 39 5 4 6 3 7 55 8 42 10 43 11 52 12 44 13
REMARK SMILES IDX 50 14 45 15 48 16 53 17 51 19 46 21 47 22 49 24 5 26 6 27
REMARK SMILES IDX 7 28 35 29 8 30 11 31 36 32 9 33 12 34 10 35 16 36 13 37
REMARK SMILES IDX 14 38 17 39 15 40 33 41 18 42 19 43 32 44 34 45 29 46 20 47
REMARK SMILES IDX 30 48 22 49 28 50 21 51 23 52 25 53 24 54 26 55 27 56 37 57
REMARK SMILES IDX 38 58 31 60 40 62
REMARK H PARENT 55 9 53 18 51 20 47 23 49 25 38 59 31 61 40 63
REMARK Flexibility Score: inf
ROOT
ATOM      1  C   UNL     1     108.445  85.885  10.709  1.00  0.00     0.041 C 
ATOM      2  C   UNL     1     107.914  86.612  11.985  1.00  0.00     0.150 C 
ATOM      3  C   UNL     1     109.064  87.257  12.807  1.00  0.00     0.175 C 
ATOM      4  C   UNL     1     110.055  86.119  13.406  1.00  0.00     0.186 C 
ATOM      5  C   UNL     1     108.957  85.136  14.263  1.00  0.00     0.202 C 
ATOM      6  C   UNL     1     107.418  85.523  14.065  1.00  0.00     0.282 C 
ATOM      7  O   UNL     1     107.052  85.734  12.708  1.00  0.00    -0.344 OA
ENDROOT
BRANCH   3   8
ATOM      8  O   UNL     1     109.184  88.550  12.303  1.00  0.00    -0.388 OA
ATOM      9  H   UNL     1     109.409  88.525  11.295  1.00  0.00     0.211 HD
ENDBRANCH   3   8
BRANCH   4  10
ATOM     10  O   UNL     1     111.287  86.503  14.263  1.00  0.00    -0.341 OA
BRANCH  10  11
ATOM     11  C   UNL     1     112.710  86.651  13.732  1.00  0.00     0.282 C 
ATOM     12  C   UNL     1     112.656  87.779  12.829  1.00  0.00     0.202 C 
ATOM     13  O   UNL     1     113.916  87.075  14.719  1.00  0.00    -0.341 OA
ATOM     14  C   UNL     1     112.384  88.908  13.926  1.00  0.00     0.179 C 
ATOM     15  C   UNL     1     113.958  88.332  15.579  1.00  0.00     0.178 C 
ATOM     16  C   UNL     1     112.543  88.644  15.590  1.00  0.00     0.177 C 
BRANCH  12  17
ATOM     17  O   UNL     1     114.007  87.928  12.318  1.00  0.00    -0.385 OA
ATOM     18  H   UNL     1     114.614  87.623  13.098  1.00  0.00     0.211 HD
ENDBRANCH  12  17
BRANCH  14  19
ATOM     19  O   UNL     1     111.474  89.824  13.604  1.00  0.00    -0.387 OA
ATOM     20  H   UNL     1     110.655  89.333  13.291  1.00  0.00     0.211 HD
ENDBRANCH  14  19
BRANCH  15  21
ATOM     21  C   UNL     1     114.832  89.837  15.204  1.00  0.00     0.191 C 
BRANCH  21  22
ATOM     22  O   UNL     1     115.687  89.931  13.980  1.00  0.00    -0.394 OA
ATOM     23  H   UNL     1     116.595  90.317  14.229  1.00  0.00     0.210 HD
ENDBRANCH  21  22
ENDBRANCH  15  21
BRANCH  16  24
ATOM     24  O   UNL     1     111.650  88.107  16.596  1.00  0.00    -0.387 OA
ATOM     25  H   UNL     1     111.885  87.093  16.805  1.00  0.00     0.211 HD
ENDBRANCH  16  24
ENDBRANCH  10  11
ENDBRANCH   4  10
BRANCH   6  26
ATOM     26  O   UNL     1     106.578  86.354  14.986  1.00  0.00    -0.346 OA
BRANCH  26  27
ATOM     27  C   UNL     1     107.185  87.556  15.512  1.00  0.00     0.130 C 
ATOM     28  C   UNL     1     107.613  87.384  17.000  1.00  0.00     0.033 C 
ATOM     29  C   UNL     1     106.446  88.990  15.359  1.00  0.00     0.020 C 
ATOM     30  C   UNL     1     106.821  88.151  18.108  1.00  0.00     0.010 C 
ATOM     31  C   UNL     1     105.294  89.304  16.399  1.00  0.00     0.006 C 
ATOM     32  C   UNL     1     106.069  89.265  13.883  1.00  0.00     0.017 C 
ATOM     33  C   UNL     1     105.325  88.534  17.792  1.00  0.00    -0.022 C 
ATOM     34  C   UNL     1     103.880  89.375  15.820  1.00  0.00     0.005 C 
ATOM     35  C   UNL     1     104.864  89.505  18.962  1.00  0.00     0.012 C 
ATOM     36  C   UNL     1     104.424  87.208  17.760  1.00  0.00     0.024 C 
ATOM     37  C   UNL     1     103.275  87.956  15.653  1.00  0.00     0.008 C 
ATOM     38  C   UNL     1     103.032  87.270  17.069  1.00  0.00    -0.017 C 
ATOM     39  C   UNL     1     104.287  86.461  19.085  1.00  0.00    -0.024 C 
ATOM     40  C   UNL     1     102.079  88.151  17.887  1.00  0.00     0.013 C 
ATOM     41  C   UNL     1     102.393  85.697  16.981  1.00  0.00     0.009 C 
ATOM     42  C   UNL     1     103.677  85.268  19.147  1.00  0.00     0.005 C 
ATOM     43  C   UNL     1     103.248  84.583  17.843  1.00  0.00     0.096 C 
ATOM     44  C   UNL     1     102.245  85.212  15.517  1.00  0.00     0.043 C 
ATOM     45  C   UNL     1     100.943  85.652  17.507  1.00  0.00     0.015 C 
ATOM     46  C   UNL     1     104.526  83.894  17.188  1.00  0.00     0.037 C 
ATOM     47  O   UNL     1     102.381  83.470  18.032  1.00  0.00    -0.369 OA
ATOM     48  C   UNL     1     103.442  84.433  15.089  1.00  0.00     0.124 C 
ATOM     49  C   UNL     1     103.805  83.230  16.081  1.00  0.00     0.026 C 
ATOM     50  C   UNL     1     105.158  82.840  18.221  1.00  0.00     0.014 C 
ATOM     51  C   UNL     1     102.604  82.656  16.859  1.00  0.00     0.171 C 
ATOM     52  C   UNL     1     104.634  82.215  15.363  1.00  0.00     0.013 C 
ATOM     53  C   UNL     1     105.663  81.423  17.707  1.00  0.00    -0.035 C 
ATOM     54  C   UNL     1     105.261  81.111  16.177  1.00  0.00     0.007 C 
ATOM     55  C   UNL     1     107.140  81.192  17.915  1.00  0.00     0.011 C 
ATOM     56  C   UNL     1     104.952  80.265  18.586  1.00  0.00     0.011 C 
BRANCH  29  57
ATOM     57  C   UNL     1     107.617  90.073  15.584  1.00  0.00     0.165 C 
BRANCH  57  58
ATOM     58  O   UNL     1     108.778  89.752  14.852  1.00  0.00    -0.396 OA
ATOM     59  H   UNL     1     108.554  88.939  14.306  1.00  0.00     0.210 HD
ENDBRANCH  57  58
ENDBRANCH  29  57
BRANCH  48  60
ATOM     60  O   UNL     1     103.248  84.010  13.784  1.00  0.00    -0.392 OA
ATOM     61  H   UNL     1     102.296  83.650  13.769  1.00  0.00     0.210 HD
ENDBRANCH  48  60
ENDBRANCH  26  27
ENDBRANCH   6  26
BRANCH   5  62
ATOM     62  O   UNL     1     109.227  84.876  15.665  1.00  0.00    -0.385 OA
ATOM     63  H   UNL     1     108.409  84.603  16.274  1.00  0.00     0.211 HD
ENDBRANCH   5  62
TORSDOF 14
ENDMDL
MODEL 6
REMARK VINA RESULT:    -5.742      3.762      8.542
REMARK INTER + INTRA:         -11.498
REMARK INTER:                  -8.824
REMARK INTRA:                  -2.674
REMARK UNBOUND:                -2.903
REMARK SMILES C[C@H]1O[C@H](O[C@@H]2CC[C@@]3(C)[C@H](CC[C@]4(C)[C@@H]3C=C[C@]35OC[C@@]6(CCC(C)(C)C[C@@H]63)[C@@H](O)C[C@@]54C)[C@@]2(C)CO)[C@H](O)[C@H](O[C@@H]2O[C@@H](CO)[C@H](O)[C@H](O)[C@H]2O)[C@H]1O
REMARK SMILES IDX 1 1 2 2 54 3 41 4 39 5 4 6 3 7 55 8 42 10 43 11 52 12 44 13
REMARK SMILES IDX 50 14 45 15 48 16 53 17 51 19 46 21 47 22 49 24 5 26 6 27
REMARK SMILES IDX 7 28 35 29 8 30 11 31 36 32 9 33 12 34 10 35 16 36 13 37
REMARK SMILES IDX 14 38 17 39 15 40 33 41 18 42 19 43 32 44 34 45 29 46 20 47
REMARK SMILES IDX 30 48 22 49 28 50 21 51 23 52 25 53 24 54 26 55 27 56 37 57
REMARK SMILES IDX 38 58 31 60 40 62
REMARK H PARENT 55 9 53 18 51 20 47 23 49 25 38 59 31 61 40 63
REMARK Flexibility Score: inf
ROOT
ATOM      1  C   UNL     1     101.874  87.476  12.888  1.00  0.00     0.041 C 
ATOM      2  C   UNL     1     103.359  87.033  13.088  1.00  0.00     0.150 C 
ATOM      3  C   UNL     1     103.464  85.641  13.769  1.00  0.00     0.175 C 
ATOM      4  C   UNL     1     102.878  85.693  15.282  1.00  0.00     0.186 C 
ATOM      5  C   UNL     1     103.809  86.950  15.960  1.00  0.00     0.202 C 
ATOM      6  C   UNL     1     104.749  87.721  14.920  1.00  0.00     0.282 C 
ATOM      7  O   UNL     1     104.088  88.088  13.717  1.00  0.00    -0.344 OA
ENDROOT
BRANCH   3   8
ATOM      8  O   UNL     1     103.490  84.728  12.717  1.00  0.00    -0.388 OA
ATOM      9  H   UNL     1     102.686  84.880  12.087  1.00  0.00     0.211 HD
ENDBRANCH   3   8
BRANCH   4  10
ATOM     10  O   UNL     1     102.864  84.428  16.177  1.00  0.00    -0.341 OA
BRANCH  10  11
ATOM     11  C   UNL     1     103.523  83.098  15.823  1.00  0.00     0.282 C 
ATOM     12  C   UNL     1     104.866  83.195  16.350  1.00  0.00     0.202 C 
ATOM     13  O   UNL     1     103.006  81.721  16.488  1.00  0.00    -0.341 OA
ATOM     14  C   UNL     1     104.480  83.194  17.900  1.00  0.00     0.179 C 
ATOM     15  C   UNL     1     102.916  81.436  17.982  1.00  0.00     0.178 C 
ATOM     16  C   UNL     1     102.936  82.800  18.472  1.00  0.00     0.177 C 
BRANCH  12  17
ATOM     17  O   UNL     1     105.502  81.933  16.017  1.00  0.00    -0.385 OA
ATOM     18  H   UNL     1     105.356  81.830  14.998  1.00  0.00     0.211 HD
ENDBRANCH  12  17
BRANCH  14  19
ATOM     19  O   UNL     1     105.139  84.060  18.665  1.00  0.00    -0.387 OA
ATOM     20  H   UNL     1     105.536  84.754  18.055  1.00  0.00     0.211 HD
ENDBRANCH  14  19
BRANCH  15  21
ATOM     21  C   UNL     1     104.084  80.505  18.950  1.00  0.00     0.191 C 
BRANCH  21  22
ATOM     22  O   UNL     1     105.275  79.875  18.300  1.00  0.00    -0.394 OA
ATOM     23  H   UNL     1     105.744  79.267  18.968  1.00  0.00     0.210 HD
ENDBRANCH  21  22
ENDBRANCH  15  21
BRANCH  16  24
ATOM     24  O   UNL     1     101.721  83.568  18.647  1.00  0.00    -0.387 OA
ATOM     25  H   UNL     1     101.246  83.316  19.563  1.00  0.00     0.211 HD
ENDBRANCH  16  24
ENDBRANCH  10  11
ENDBRANCH   4  10
BRANCH   6  26
ATOM     26  O   UNL     1     106.208  87.479  14.683  1.00  0.00    -0.346 OA
BRANCH  26  27
ATOM     27  C   UNL     1     107.092  87.685  15.808  1.00  0.00     0.130 C 
ATOM     28  C   UNL     1     107.748  89.097  15.777  1.00  0.00     0.033 C 
ATOM     29  C   UNL     1     108.241  86.598  16.165  1.00  0.00     0.020 C 
ATOM     30  C   UNL     1     109.276  89.215  15.466  1.00  0.00     0.010 C 
ATOM     31  C   UNL     1     109.571  86.672  15.308  1.00  0.00     0.006 C 
ATOM     32  C   UNL     1     107.640  85.178  16.297  1.00  0.00     0.017 C 
ATOM     33  C   UNL     1     109.930  88.060  14.617  1.00  0.00    -0.022 C 
ATOM     34  C   UNL     1     109.819  85.488  14.371  1.00  0.00     0.005 C 
ATOM     35  C   UNL     1     111.498  88.308  14.675  1.00  0.00     0.012 C 
ATOM     36  C   UNL     1     109.395  88.130  13.107  1.00  0.00     0.024 C 
ATOM     37  C   UNL     1     109.018  85.646  13.051  1.00  0.00     0.008 C 
ATOM     38  C   UNL     1     109.559  86.878  12.199  1.00  0.00    -0.017 C 
ATOM     39  C   UNL     1     109.795  89.373  12.314  1.00  0.00    -0.024 C 
ATOM     40  C   UNL     1     111.042  86.647  11.885  1.00  0.00     0.013 C 
ATOM     41  C   UNL     1     108.719  87.141  10.745  1.00  0.00     0.009 C 
ATOM     42  C   UNL     1     109.290  89.606  11.093  1.00  0.00     0.005 C 
ATOM     43  C   UNL     1     108.183  88.688  10.557  1.00  0.00     0.096 C 
ATOM     44  C   UNL     1     107.531  86.161  10.575  1.00  0.00     0.043 C 
ATOM     45  C   UNL     1     109.604  86.823   9.522  1.00  0.00     0.015 C 
ATOM     46  C   UNL     1     106.799  89.127  11.211  1.00  0.00     0.037 C 
ATOM     47  O   UNL     1     107.916  88.855   9.169  1.00  0.00    -0.369 OA
ATOM     48  C   UNL     1     106.263  86.767  11.073  1.00  0.00     0.124 C 
ATOM     49  C   UNL     1     105.949  88.201  10.433  1.00  0.00     0.026 C 
ATOM     50  C   UNL     1     106.502  90.665  10.863  1.00  0.00     0.014 C 
ATOM     51  C   UNL     1     106.545  88.418   9.028  1.00  0.00     0.171 C 
ATOM     52  C   UNL     1     104.489  88.499  10.553  1.00  0.00     0.013 C 
ATOM     53  C   UNL     1     105.035  91.120  10.450  1.00  0.00    -0.035 C 
ATOM     54  C   UNL     1     104.022  89.890  10.205  1.00  0.00     0.007 C 
ATOM     55  C   UNL     1     104.421  92.122  11.397  1.00  0.00     0.011 C 
ATOM     56  C   UNL     1     105.112  91.906   9.037  1.00  0.00     0.011 C 
BRANCH  29  57
ATOM     57  C   UNL     1     108.629  86.912  17.696  1.00  0.00     0.165 C 
BRANCH  57  58
ATOM     58  O   UNL     1     110.006  86.723  17.939  1.00  0.00    -0.396 OA
ATOM     59  H   UNL     1     110.333  87.561  18.385  1.00  0.00     0.210 HD
ENDBRANCH  57  58
ENDBRANCH  29  57
BRANCH  48  60
ATOM     60  O   UNL     1     105.235  85.858  10.881  1.00  0.00    -0.392 OA
ATOM     61  H   UNL     1     105.699  84.952  10.838  1.00  0.00     0.210 HD
ENDBRANCH  48  60
ENDBRANCH  26  27
ENDBRANCH   6  26
BRANCH   5  62
ATOM     62  O   UNL     1     104.542  86.672  17.181  1.00  0.00    -0.385 OA
ATOM     63  H   UNL     1     104.520  85.681  17.544  1.00  0.00     0.211 HD
ENDBRANCH   5  62
TORSDOF 14
ENDMDL
MODEL 7
REMARK VINA RESULT:    -5.660      6.625     10.765
REMARK INTER + INTRA:         -11.377
REMARK INTER:                  -8.593
REMARK INTRA:                  -2.784
REMARK UNBOUND:                -2.903
REMARK SMILES C[C@H]1O[C@H](O[C@@H]2CC[C@@]3(C)[C@H](CC[C@]4(C)[C@@H]3C=C[C@]35OC[C@@]6(CCC(C)(C)C[C@@H]63)[C@@H](O)C[C@@]54C)[C@@]2(C)CO)[C@H](O)[C@H](O[C@@H]2O[C@@H](CO)[C@H](O)[C@H](O)[C@H]2O)[C@H]1O
REMARK SMILES IDX 1 1 2 2 54 3 41 4 39 5 4 6 3 7 55 8 42 10 43 11 52 12 44 13
REMARK SMILES IDX 50 14 45 15 48 16 53 17 51 19 46 21 47 22 49 24 5 26 6 27
REMARK SMILES IDX 7 28 35 29 8 30 11 31 36 32 9 33 12 34 10 35 16 36 13 37
REMARK SMILES IDX 14 38 17 39 15 40 33 41 18 42 19 43 32 44 34 45 29 46 20 47
REMARK SMILES IDX 30 48 22 49 28 50 21 51 23 52 25 53 24 54 26 55 27 56 37 57
REMARK SMILES IDX 38 58 31 60 40 62
REMARK H PARENT 55 9 53 18 51 20 47 23 49 25 38 59 31 61 40 63
REMARK Flexibility Score: inf
ROOT
ATOM      1  C   UNL     1     109.312  96.930  16.607  1.00  0.00     0.041 C 
ATOM      2  C   UNL     1     108.748  95.546  17.059  1.00  0.00     0.150 C 
ATOM      3  C   UNL     1     108.776  95.382  18.604  1.00  0.00     0.175 C 
ATOM      4  C   UNL     1     110.303  95.366  19.155  1.00  0.00     0.186 C 
ATOM      5  C   UNL     1     110.977  94.097  18.238  1.00  0.00     0.202 C 
ATOM      6  C   UNL     1     110.015  93.508  17.103  1.00  0.00     0.282 C 
ATOM      7  O   UNL     1     109.385  94.508  16.314  1.00  0.00    -0.344 OA
ENDROOT
BRANCH   3   8
ATOM      8  O   UNL     1     107.541  95.859  19.037  1.00  0.00    -0.388 OA
ATOM      9  H   UNL     1     107.662  96.501  19.838  1.00  0.00     0.211 HD
ENDBRANCH   3   8
BRANCH   4  10
ATOM     10  O   UNL     1     110.604  95.217  20.668  1.00  0.00    -0.341 OA
BRANCH  10  11
ATOM     11  C   UNL     1     109.889  94.255  21.613  1.00  0.00     0.282 C 
ATOM     12  C   UNL     1     110.652  94.300  22.839  1.00  0.00     0.202 C 
ATOM     13  O   UNL     1     108.397  94.578  22.139  1.00  0.00    -0.341 OA
ATOM     14  C   UNL     1     110.295  95.802  23.249  1.00  0.00     0.179 C 
ATOM     15  C   UNL     1     107.971  95.839  22.879  1.00  0.00     0.178 C 
ATOM     16  C   UNL     1     109.072  96.703  22.503  1.00  0.00     0.177 C 
BRANCH  12  17
ATOM     17  O   UNL     1     109.979  93.387  23.745  1.00  0.00    -0.385 OA
ATOM     18  H   UNL     1     110.290  92.447  23.443  1.00  0.00     0.211 HD
ENDBRANCH  12  17
BRANCH  14  19
ATOM     19  O   UNL     1     111.305  96.535  23.713  1.00  0.00    -0.387 OA
ATOM     20  H   UNL     1     111.217  96.564  24.714  1.00  0.00     0.211 HD
ENDBRANCH  14  19
BRANCH  15  21
ATOM     21  C   UNL     1     107.741  96.004  24.637  1.00  0.00     0.191 C 
BRANCH  21  22
ATOM     22  O   UNL     1     107.967  94.835  25.543  1.00  0.00    -0.394 OA
ATOM     23  H   UNL     1     107.271  94.117  25.350  1.00  0.00     0.210 HD
ENDBRANCH  21  22
ENDBRANCH  15  21
BRANCH  16  24
ATOM     24  O   UNL     1     109.033  97.514  21.303  1.00  0.00    -0.387 OA
ATOM     25  H   UNL     1     108.618  98.469  21.510  1.00  0.00     0.211 HD
ENDBRANCH  16  24
ENDBRANCH  10  11
ENDBRANCH   4  10
BRANCH   6  26
ATOM     26  O   UNL     1     109.164  92.280  17.201  1.00  0.00    -0.346 OA
BRANCH  26  27
ATOM     27  C   UNL     1     108.224  92.226  18.299  1.00  0.00     0.130 C 
ATOM     28  C   UNL     1     108.665  91.202  19.387  1.00  0.00     0.033 C 
ATOM     29  C   UNL     1     106.640  92.023  18.021  1.00  0.00     0.020 C 
ATOM     30  C   UNL     1     107.847  89.880  19.556  1.00  0.00     0.010 C 
ATOM     31  C   UNL     1     106.158  90.540  17.742  1.00  0.00     0.006 C 
ATOM     32  C   UNL     1     106.116  93.069  17.009  1.00  0.00     0.017 C 
ATOM     33  C   UNL     1     107.061  89.352  18.297  1.00  0.00    -0.022 C 
ATOM     34  C   UNL     1     105.662  90.262  16.322  1.00  0.00     0.005 C 
ATOM     35  C   UNL     1     106.140  88.167  18.820  1.00  0.00     0.012 C 
ATOM     36  C   UNL     1     108.098  88.826  17.193  1.00  0.00     0.024 C 
ATOM     37  C   UNL     1     106.851  90.005  15.357  1.00  0.00     0.008 C 
ATOM     38  C   UNL     1     107.604  88.653  15.729  1.00  0.00    -0.017 C 
ATOM     39  C   UNL     1     108.927  87.605  17.585  1.00  0.00    -0.024 C 
ATOM     40  C   UNL     1     106.604  87.492  15.646  1.00  0.00     0.013 C 
ATOM     41  C   UNL     1     108.940  88.305  14.737  1.00  0.00     0.009 C 
ATOM     42  C   UNL     1     109.923  87.164  16.801  1.00  0.00     0.005 C 
ATOM     43  C   UNL     1     110.326  87.992  15.573  1.00  0.00     0.096 C 
ATOM     44  C   UNL     1     109.205  89.429  13.705  1.00  0.00     0.043 C 
ATOM     45  C   UNL     1     108.670  87.075  13.846  1.00  0.00     0.015 C 
ATOM     46  C   UNL     1     111.243  89.201  16.056  1.00  0.00     0.037 C 
ATOM     47  O   UNL     1     111.192  87.309  14.673  1.00  0.00    -0.369 OA
ATOM     48  C   UNL     1     110.214  90.400  14.218  1.00  0.00     0.124 C 
ATOM     49  C   UNL     1     111.572  89.706  14.706  1.00  0.00     0.026 C 
ATOM     50  C   UNL     1     112.532  88.628  16.822  1.00  0.00     0.014 C 
ATOM     51  C   UNL     1     111.900  88.375  14.002  1.00  0.00     0.171 C 
ATOM     52  C   UNL     1     112.679  90.710  14.706  1.00  0.00     0.013 C 
ATOM     53  C   UNL     1     113.965  89.264  16.560  1.00  0.00    -0.035 C 
ATOM     54  C   UNL     1     113.991  90.314  15.336  1.00  0.00     0.007 C 
ATOM     55  C   UNL     1     114.589  89.879  17.789  1.00  0.00     0.011 C 
ATOM     56  C   UNL     1     114.991  88.085  16.141  1.00  0.00     0.011 C 
BRANCH  29  57
ATOM     57  C   UNL     1     105.927  92.521  19.377  1.00  0.00     0.165 C 
BRANCH  57  58
ATOM     58  O   UNL     1     104.820  91.714  19.715  1.00  0.00    -0.396 OA
ATOM     59  H   UNL     1     104.983  90.818  19.293  1.00  0.00     0.210 HD
ENDBRANCH  57  58
ENDBRANCH  29  57
BRANCH  48  60
ATOM     60  O   UNL     1     110.424  91.369  13.251  1.00  0.00    -0.392 OA
ATOM     61  H   UNL     1     111.278  91.077  12.777  1.00  0.00     0.210 HD
ENDBRANCH  48  60
ENDBRANCH  26  27
ENDBRANCH   6  26
BRANCH   5  62
ATOM     62  O   UNL     1     111.627  93.013  18.950  1.00  0.00    -0.385 OA
ATOM     63  H   UNL     1     111.018  92.216  19.281  1.00  0.00     0.211 HD
ENDBRANCH   5  62
TORSDOF 14
ENDMDL
MODEL 8
REMARK VINA RESULT:    -5.654      3.371      7.776
REMARK INTER + INTRA:         -11.367
REMARK INTER:                  -8.526
REMARK INTRA:                  -2.841
REMARK UNBOUND:                -2.903
REMARK SMILES C[C@H]1O[C@H](O[C@@H]2CC[C@@]3(C)[C@H](CC[C@]4(C)[C@@H]3C=C[C@]35OC[C@@]6(CCC(C)(C)C[C@@H]63)[C@@H](O)C[C@@]54C)[C@@]2(C)CO)[C@H](O)[C@H](O[C@@H]2O[C@@H](CO)[C@H](O)[C@H](O)[C@H]2O)[C@H]1O
REMARK SMILES IDX 1 1 2 2 54 3 41 4 39 5 4 6 3 7 55 8 42 10 43 11 52 12 44 13
REMARK SMILES IDX 50 14 45 15 48 16 53 17 51 19 46 21 47 22 49 24 5 26 6 27
REMARK SMILES IDX 7 28 35 29 8 30 11 31 36 32 9 33 12 34 10 35 16 36 13 37
REMARK SMILES IDX 14 38 17 39 15 40 33 41 18 42 19 43 32 44 34 45 29 46 20 47
REMARK SMILES IDX 30 48 22 49 28 50 21 51 23 52 25 53 24 54 26 55 27 56 37 57
REMARK SMILES IDX 38 58 31 60 40 62
REMARK H PARENT 55 9 53 18 51 20 47 23 49 25 38 59 31 61 40 63
REMARK Flexibility Score: inf
ROOT
ATOM      1  C   UNL     1     102.639  84.686  15.516  1.00  0.00     0.041 C 
ATOM      2  C   UNL     1     103.874  85.542  15.939  1.00  0.00     0.150 C 
ATOM      3  C   UNL     1     103.901  85.809  17.469  1.00  0.00     0.175 C 
ATOM      4  C   UNL     1     102.637  86.723  17.918  1.00  0.00     0.186 C 
ATOM      5  C   UNL     1     102.824  88.078  16.900  1.00  0.00     0.202 C 
ATOM      6  C   UNL     1     103.981  87.936  15.805  1.00  0.00     0.282 C 
ATOM      7  O   UNL     1     103.958  86.699  15.106  1.00  0.00    -0.344 OA
ENDROOT
BRANCH   3   8
ATOM      8  O   UNL     1     104.637  84.755  18.004  1.00  0.00    -0.388 OA
ATOM      9  H   UNL     1     105.644  84.985  18.015  1.00  0.00     0.211 HD
ENDBRANCH   3   8
BRANCH   4  10
ATOM     10  O   UNL     1     102.430  87.129  19.399  1.00  0.00    -0.341 OA
BRANCH  10  11
ATOM     11  C   UNL     1     101.463  86.451  20.365  1.00  0.00     0.282 C 
ATOM     12  C   UNL     1     102.270  86.089  21.509  1.00  0.00     0.202 C 
ATOM     13  O   UNL     1     100.268  87.290  21.055  1.00  0.00    -0.341 OA
ATOM     14  C   UNL     1     102.574  87.571  22.023  1.00  0.00     0.179 C 
ATOM     15  C   UNL     1     100.438  88.552  21.892  1.00  0.00     0.178 C 
ATOM     16  C   UNL     1     101.762  88.939  21.447  1.00  0.00     0.177 C 
BRANCH  12  17
ATOM     17  O   UNL     1     101.357  85.443  22.435  1.00  0.00    -0.385 OA
ATOM     18  H   UNL     1     101.848  84.579  22.723  1.00  0.00     0.211 HD
ENDBRANCH  12  17
BRANCH  14  19
ATOM     19  O   UNL     1     103.824  87.805  22.416  1.00  0.00    -0.387 OA
ATOM     20  H   UNL     1     103.849  88.737  22.792  1.00  0.00     0.211 HD
ENDBRANCH  14  19
BRANCH  15  21
ATOM     21  C   UNL     1     100.426  88.647  23.670  1.00  0.00     0.191 C 
BRANCH  21  22
ATOM     22  O   UNL     1     100.125  87.433  24.491  1.00  0.00    -0.394 OA
ATOM     23  H   UNL     1     100.578  87.517  25.399  1.00  0.00     0.210 HD
ENDBRANCH  21  22
ENDBRANCH  15  21
BRANCH  16  24
ATOM     24  O   UNL     1     101.961  89.797  20.297  1.00  0.00    -0.387 OA
ATOM     25  H   UNL     1     101.208  90.544  20.251  1.00  0.00     0.211 HD
ENDBRANCH  16  24
ENDBRANCH  10  11
ENDBRANCH   4  10
BRANCH   6  26
ATOM     26  O   UNL     1     105.374  88.476  15.901  1.00  0.00    -0.346 OA
BRANCH  26  27
ATOM     27  C   UNL     1     105.575  89.605  16.783  1.00  0.00     0.130 C 
ATOM     28  C   UNL     1     106.110  90.850  16.014  1.00  0.00     0.033 C 
ATOM     29  C   UNL     1     106.433  89.443  18.148  1.00  0.00     0.020 C 
ATOM     30  C   UNL     1     107.585  91.310  16.252  1.00  0.00     0.010 C 
ATOM     31  C   UNL     1     108.009  89.480  17.999  1.00  0.00     0.006 C 
ATOM     32  C   UNL     1     105.897  88.272  19.006  1.00  0.00     0.017 C 
ATOM     33  C   UNL     1     108.615  90.214  16.723  1.00  0.00    -0.022 C 
ATOM     34  C   UNL     1     108.733  88.165  18.295  1.00  0.00     0.005 C 
ATOM     35  C   UNL     1     109.938  90.999  17.122  1.00  0.00     0.012 C 
ATOM     36  C   UNL     1     108.898  89.188  15.524  1.00  0.00     0.024 C 
ATOM     37  C   UNL     1     108.687  87.216  17.068  1.00  0.00     0.008 C 
ATOM     38  C   UNL     1     109.535  87.809  15.858  1.00  0.00    -0.017 C 
ATOM     39  C   UNL     1     109.595  89.772  14.296  1.00  0.00    -0.024 C 
ATOM     40  C   UNL     1     110.986  87.999  16.318  1.00  0.00     0.013 C 
ATOM     41  C   UNL     1     109.520  86.845  14.458  1.00  0.00     0.009 C 
ATOM     42  C   UNL     1     109.755  89.044  13.180  1.00  0.00     0.005 C 
ATOM     43  C   UNL     1     109.094  87.662  13.091  1.00  0.00     0.096 C 
ATOM     44  C   UNL     1     108.609  85.603  14.619  1.00  0.00     0.043 C 
ATOM     45  C   UNL     1     110.906  86.223  14.192  1.00  0.00     0.015 C 
ATOM     46  C   UNL     1     107.553  87.859  12.740  1.00  0.00     0.037 C 
ATOM     47  O   UNL     1     109.545  86.874  11.995  1.00  0.00    -0.369 OA
ATOM     48  C   UNL     1     107.240  85.871  14.092  1.00  0.00     0.124 C 
ATOM     49  C   UNL     1     107.235  86.423  12.589  1.00  0.00     0.026 C 
ATOM     50  C   UNL     1     107.413  88.662  11.359  1.00  0.00     0.014 C 
ATOM     51  C   UNL     1     108.442  85.977  11.739  1.00  0.00     0.171 C 
ATOM     52  C   UNL     1     105.899  86.178  11.965  1.00  0.00     0.013 C 
ATOM     53  C   UNL     1     106.331  88.217  10.282  1.00  0.00    -0.035 C 
ATOM     54  C   UNL     1     105.617  86.813  10.627  1.00  0.00     0.007 C 
ATOM     55  C   UNL     1     105.292  89.273   9.993  1.00  0.00     0.011 C 
ATOM     56  C   UNL     1     107.071  87.990   8.861  1.00  0.00     0.011 C 
BRANCH  29  57
ATOM     57  C   UNL     1     105.999  90.707  19.048  1.00  0.00     0.165 C 
BRANCH  57  58
ATOM     58  O   UNL     1     104.838  90.440  19.803  1.00  0.00    -0.396 OA
ATOM     59  H   UNL     1     105.040  89.629  20.359  1.00  0.00     0.210 HD
ENDBRANCH  57  58
ENDBRANCH  29  57
BRANCH  48  60
ATOM     60  O   UNL     1     106.476  84.725  14.245  1.00  0.00    -0.392 OA
ATOM     61  H   UNL     1     106.673  84.410  15.193  1.00  0.00     0.210 HD
ENDBRANCH  48  60
ENDBRANCH  26  27
ENDBRANCH   6  26
BRANCH   5  62
ATOM     62  O   UNL     1     102.881  89.390  17.518  1.00  0.00    -0.385 OA
ATOM     63  H   UNL     1     103.531  89.510  18.341  1.00  0.00     0.211 HD
ENDBRANCH   5  62
TORSDOF 14
ENDMDL
MODEL 9
REMARK VINA RESULT:    -5.408      2.966      8.190
REMARK INTER + INTRA:         -10.999
REMARK INTER:                  -8.103
REMARK INTRA:                  -2.896
REMARK UNBOUND:                -2.903
REMARK SMILES C[C@H]1O[C@H](O[C@@H]2CC[C@@]3(C)[C@H](CC[C@]4(C)[C@@H]3C=C[C@]35OC[C@@]6(CCC(C)(C)C[C@@H]63)[C@@H](O)C[C@@]54C)[C@@]2(C)CO)[C@H](O)[C@H](O[C@@H]2O[C@@H](CO)[C@H](O)[C@H](O)[C@H]2O)[C@H]1O
REMARK SMILES IDX 1 1 2 2 54 3 41 4 39 5 4 6 3 7 55 8 42 10 43 11 52 12 44 13
REMARK SMILES IDX 50 14 45 15 48 16 53 17 51 19 46 21 47 22 49 24 5 26 6 27
REMARK SMILES IDX 7 28 35 29 8 30 11 31 36 32 9 33 12 34 10 35 16 36 13 37
REMARK SMILES IDX 14 38 17 39 15 40 33 41 18 42 19 43 32 44 34 45 29 46 20 47
REMARK SMILES IDX 30 48 22 49 28 50 21 51 23 52 25 53 24 54 26 55 27 56 37 57
REMARK SMILES IDX 38 58 31 60 40 62
REMARK H PARENT 55 9 53 18 51 20 47 23 49 25 38 59 31 61 40 63
REMARK Flexibility Score: inf
ROOT
ATOM      1  C   UNL     1     104.578  83.411  15.210  1.00  0.00     0.041 C 
ATOM      2  C   UNL     1     105.272  84.621  15.914  1.00  0.00     0.150 C 
ATOM      3  C   UNL     1     105.017  84.627  17.446  1.00  0.00     0.175 C 
ATOM      4  C   UNL     1     103.442  84.856  17.768  1.00  0.00     0.186 C 
ATOM      5  C   UNL     1     103.137  86.311  16.934  1.00  0.00     0.202 C 
ATOM      6  C   UNL     1     104.353  86.834  16.037  1.00  0.00     0.282 C 
ATOM      7  O   UNL     1     104.939  85.826  15.225  1.00  0.00    -0.344 OA
ENDROOT
BRANCH   3   8
ATOM      8  O   UNL     1     106.072  83.898  17.988  1.00  0.00    -0.388 OA
ATOM      9  H   UNL     1     106.964  84.167  17.543  1.00  0.00     0.211 HD
ENDBRANCH   3   8
BRANCH   4  10
ATOM     10  O   UNL     1     102.923  84.899  19.228  1.00  0.00    -0.341 OA
BRANCH  10  11
ATOM     11  C   UNL     1     102.067  83.819  19.884  1.00  0.00     0.282 C 
ATOM     12  C   UNL     1     102.875  82.621  19.834  1.00  0.00     0.202 C 
ATOM     13  O   UNL     1     101.699  83.904  21.454  1.00  0.00    -0.341 OA
ATOM     14  C   UNL     1     104.006  83.092  20.860  1.00  0.00     0.179 C 
ATOM     15  C   UNL     1     102.701  83.999  22.597  1.00  0.00     0.178 C 
ATOM     16  C   UNL     1     103.853  84.459  21.847  1.00  0.00     0.177 C 
BRANCH  12  17
ATOM     17  O   UNL     1     102.069  81.587  20.457  1.00  0.00    -0.385 OA
ATOM     18  H   UNL     1     101.302  81.416  19.784  1.00  0.00     0.211 HD
ENDBRANCH  12  17
BRANCH  14  19
ATOM     19  O   UNL     1     105.259  82.806  20.516  1.00  0.00    -0.387 OA
ATOM     20  H   UNL     1     105.363  81.808  20.572  1.00  0.00     0.211 HD
ENDBRANCH  14  19
BRANCH  15  21
ATOM     21  C   UNL     1     103.243  82.661  23.638  1.00  0.00     0.191 C 
BRANCH  21  22
ATOM     22  O   UNL     1     102.665  81.291  23.473  1.00  0.00    -0.394 OA
ATOM     23  H   UNL     1     102.281  80.975  24.362  1.00  0.00     0.210 HD
ENDBRANCH  21  22
ENDBRANCH  15  21
BRANCH  16  24
ATOM     24  O   UNL     1     104.115  85.867  21.633  1.00  0.00    -0.387 OA
ATOM     25  H   UNL     1     103.207  86.417  21.603  1.00  0.00     0.211 HD
ENDBRANCH  16  24
ENDBRANCH  10  11
ENDBRANCH   4  10
BRANCH   6  26
ATOM     26  O   UNL     1     105.359  87.877  16.415  1.00  0.00    -0.346 OA
BRANCH  26  27
ATOM     27  C   UNL     1     104.845  89.100  16.989  1.00  0.00     0.130 C 
ATOM     28  C   UNL     1     104.953  90.295  15.996  1.00  0.00     0.033 C 
ATOM     29  C   UNL     1     105.347  89.603  18.446  1.00  0.00     0.020 C 
ATOM     30  C   UNL     1     105.987  91.430  16.288  1.00  0.00     0.010 C 
ATOM     31  C   UNL     1     106.741  90.353  18.491  1.00  0.00     0.006 C 
ATOM     32  C   UNL     1     105.185  88.486  19.505  1.00  0.00     0.017 C 
ATOM     33  C   UNL     1     107.248  91.052  17.154  1.00  0.00    -0.022 C 
ATOM     34  C   UNL     1     107.869  89.610  19.208  1.00  0.00     0.005 C 
ATOM     35  C   UNL     1     107.972  92.424  17.497  1.00  0.00     0.012 C 
ATOM     36  C   UNL     1     108.215  90.091  16.309  1.00  0.00     0.024 C 
ATOM     37  C   UNL     1     108.522  88.555  18.274  1.00  0.00     0.008 C 
ATOM     38  C   UNL     1     109.287  89.259  17.067  1.00  0.00    -0.017 C 
ATOM     39  C   UNL     1     108.855  90.711  15.068  1.00  0.00    -0.024 C 
ATOM     40  C   UNL     1     110.365  90.188  17.640  1.00  0.00     0.013 C 
ATOM     41  C   UNL     1     110.012  88.175  15.977  1.00  0.00     0.009 C 
ATOM     42  C   UNL     1     109.566  89.965  14.210  1.00  0.00     0.005 C 
ATOM     43  C   UNL     1     109.605  88.443  14.402  1.00  0.00     0.096 C 
ATOM     44  C   UNL     1     109.715  86.699  16.341  1.00  0.00     0.043 C 
ATOM     45  C   UNL     1     111.551  88.246  16.058  1.00  0.00     0.015 C 
ATOM     46  C   UNL     1     108.257  87.824  13.822  1.00  0.00     0.037 C 
ATOM     47  O   UNL     1     110.591  87.785  13.615  1.00  0.00    -0.369 OA
ATOM     48  C   UNL     1     108.527  86.193  15.595  1.00  0.00     0.124 C 
ATOM     49  C   UNL     1     108.633  86.406  14.011  1.00  0.00     0.026 C 
ATOM     50  C   UNL     1     108.109  88.212  12.272  1.00  0.00     0.014 C 
ATOM     51  C   UNL     1     110.074  86.443  13.466  1.00  0.00     0.171 C 
ATOM     52  C   UNL     1     107.717  85.455  13.311  1.00  0.00     0.013 C 
ATOM     53  C   UNL     1     107.605  87.130  11.222  1.00  0.00    -0.035 C 
ATOM     54  C   UNL     1     107.507  85.639  11.829  1.00  0.00     0.007 C 
ATOM     55  C   UNL     1     106.311  87.501  10.541  1.00  0.00     0.011 C 
ATOM     56  C   UNL     1     108.677  87.036  10.014  1.00  0.00     0.011 C 
BRANCH  29  57
ATOM     57  C   UNL     1     104.216  90.645  18.923  1.00  0.00     0.165 C 
BRANCH  57  58
ATOM     58  O   UNL     1     102.927  90.075  18.889  1.00  0.00    -0.396 OA
ATOM     59  H   UNL     1     102.322  90.764  18.480  1.00  0.00     0.210 HD
ENDBRANCH  57  58
ENDBRANCH  29  57
BRANCH  48  60
ATOM     60  O   UNL     1     108.319  84.869  15.944  1.00  0.00    -0.392 OA
ATOM     61  H   UNL     1     108.370  84.860  16.962  1.00  0.00     0.210 HD
ENDBRANCH  48  60
ENDBRANCH  26  27
ENDBRANCH   6  26
BRANCH   5  62
ATOM     62  O   UNL     1     102.557  87.414  17.679  1.00  0.00    -0.385 OA
ATOM     63  H   UNL     1     103.222  88.130  18.079  1.00  0.00     0.211 HD
ENDBRANCH   5  62
TORSDOF 14
ENDMDL
