MODEL 1
REMARK VINA RESULT:    -3.679      0.000      0.000
REMARK INTER + INTRA:          -3.909
REMARK INTER:                  -4.539
REMARK INTRA:                   0.630
REMARK UNBOUND:                 0.630
REMARK SMILES C=C1[C@@H]2CC[C@H]3[C@@H]2C(C)(C)CCC[C@@]13C
REMARK SMILES IDX 14 1 6 2 7 3 3 4 2 5 1 6 4 7 5 8 15 9 8 10 9 11 10 12 11 13
REMARK SMILES IDX 13 15 12 16
REMARK H PARENT
REMARK Flexibility Score: 80.00
ROOT
ATOM      1  C   UNL     1      48.769  33.526  29.189  1.00  0.00    -0.008 C 
ATOM      2  C   UNL     1      50.300  33.909  29.128  1.00  0.00     0.003 C 
ATOM      3  C   UNL     1      51.009  32.612  28.685  1.00  0.00     0.006 C 
ATOM      4  C   UNL     1      50.354  31.763  29.775  1.00  0.00     0.019 C 
ATOM      5  C   UNL     1      48.897  32.076  29.586  1.00  0.00    -0.068 C 
ATOM      6  C   UNL     1      47.890  31.226  29.822  1.00  0.00     0.009 C 
ATOM      7  C   UNL     1      50.806  32.521  31.047  1.00  0.00     0.008 C 
ATOM      8  C   UNL     1      50.870  33.994  30.572  1.00  0.00     0.005 C 
ATOM      9  C   UNL     1      47.974  34.318  30.262  1.00  0.00     0.016 C 
ENDROOT
BRANCH   3  10
ATOM     10  C   UNL     1      50.931  32.146  27.167  1.00  0.00    -0.032 C 
ATOM     11  C   UNL     1      52.306  32.442  26.507  1.00  0.00     0.011 C 
ATOM     12  C   UNL     1      50.719  30.615  27.052  1.00  0.00     0.011 C 
BRANCH  10  13
ATOM     13  C   UNL     1      49.888  32.908  26.300  1.00  0.00     0.007 CG0
ATOM     14  G   UNL     1      48.429  32.752  26.721  1.00  0.00     0.000 G0
ENDBRANCH  10  13
ENDBRANCH   3  10
BRANCH   1  15
ATOM     15  C   UNL     1      48.045  33.729  27.832  1.00  0.00     0.011 C 
BRANCH  15  16
ATOM     16  C   UNL     1      48.430  32.760  26.717  1.00  0.00     0.001 CG0
ATOM     17  G   UNL     1      49.888  32.911  26.292  1.00  0.00     0.000 G0
ENDBRANCH  15  16
ENDBRANCH   1  15
TORSDOF 0
ENDMDL
MODEL 2
REMARK VINA RESULT:    -3.515     18.937     20.656
REMARK INTER + INTRA:          -3.707
REMARK INTER:                  -4.353
REMARK INTRA:                   0.646
REMARK UNBOUND:                 0.630
REMARK SMILES C=C1[C@@H]2CC[C@H]3[C@@H]2C(C)(C)CCC[C@@]13C
REMARK SMILES IDX 14 1 6 2 7 3 3 4 2 5 1 6 4 7 5 8 15 9 8 10 9 11 10 12 11 13
REMARK SMILES IDX 13 15 12 16
REMARK H PARENT
REMARK Flexibility Score: 80.00
ROOT
ATOM      1  C   UNL     1      58.801  43.831  41.488  1.00  0.00    -0.008 C 
ATOM      2  C   UNL     1      57.337  43.701  42.067  1.00  0.00     0.003 C 
ATOM      3  C   UNL     1      57.282  44.723  43.221  1.00  0.00     0.006 C 
ATOM      4  C   UNL     1      58.547  44.185  43.891  1.00  0.00     0.019 C 
ATOM      5  C   UNL     1      59.532  44.193  42.757  1.00  0.00    -0.068 C 
ATOM      6  C   UNL     1      60.849  44.400  42.882  1.00  0.00     0.009 C 
ATOM      7  C   UNL     1      58.151  42.705  44.119  1.00  0.00     0.008 C 
ATOM      8  C   UNL     1      57.228  42.401  42.912  1.00  0.00     0.005 C 
ATOM      9  C   UNL     1      59.354  42.505  40.897  1.00  0.00     0.016 C 
ENDROOT
BRANCH   3  10
ATOM     10  C   UNL     1      57.157  46.274  42.900  1.00  0.00    -0.032 C 
ATOM     11  C   UNL     1      55.704  46.713  43.230  1.00  0.00     0.011 C 
ATOM     12  C   UNL     1      58.080  47.120  43.814  1.00  0.00     0.011 C 
BRANCH  10  13
ATOM     13  C   UNL     1      57.371  46.654  41.407  1.00  0.00     0.007 CG0
ATOM     14  G   UNL     1      58.757  46.364  40.837  1.00  0.00     0.000 G0
ENDBRANCH  10  13
ENDBRANCH   3  10
BRANCH   1  15
ATOM     15  C   UNL     1      58.915  44.914  40.383  1.00  0.00     0.011 C 
BRANCH  15  16
ATOM     16  C   UNL     1      58.755  46.360  40.845  1.00  0.00     0.001 CG0
ATOM     17  G   UNL     1      57.362  46.642  41.403  1.00  0.00     0.000 G0
ENDBRANCH  15  16
ENDBRANCH   1  15
TORSDOF 0
ENDMDL
MODEL 3
REMARK VINA RESULT:    -3.406      1.124      2.252
REMARK INTER + INTRA:          -3.573
REMARK INTER:                  -4.208
REMARK INTRA:                   0.635
REMARK UNBOUND:                 0.630
REMARK SMILES C=C1[C@@H]2CC[C@H]3[C@@H]2C(C)(C)CCC[C@@]13C
REMARK SMILES IDX 14 1 6 2 7 3 3 4 2 5 1 6 4 7 5 8 15 9 8 10 9 11 10 12 11 13
REMARK SMILES IDX 13 15 12 16
REMARK H PARENT
REMARK Flexibility Score: 80.00
ROOT
ATOM      1  C   UNL     1      50.284  33.456  29.424  1.00  0.00    -0.008 C 
ATOM      2  C   UNL     1      50.691  31.929  29.414  1.00  0.00     0.003 C 
ATOM      3  C   UNL     1      49.517  31.217  28.713  1.00  0.00     0.006 C 
ATOM      4  C   UNL     1      48.462  31.843  29.626  1.00  0.00     0.019 C 
ATOM      5  C   UNL     1      48.787  33.306  29.526  1.00  0.00    -0.068 C 
ATOM      6  C   UNL     1      47.894  34.300  29.608  1.00  0.00     0.009 C 
ATOM      7  C   UNL     1      48.961  31.375  31.015  1.00  0.00     0.008 C 
ATOM      8  C   UNL     1      50.500  31.333  30.837  1.00  0.00     0.005 C 
ATOM      9  C   UNL     1      50.841  34.238  30.645  1.00  0.00     0.016 C 
ENDROOT
BRANCH   3  10
ATOM     10  C   UNL     1      49.356  31.319  27.135  1.00  0.00    -0.032 C 
ATOM     11  C   UNL     1      49.789  29.958  26.523  1.00  0.00     0.011 C 
ATOM     12  C   UNL     1      47.876  31.524  26.726  1.00  0.00     0.011 C 
BRANCH  10  13
ATOM     13  C   UNL     1      50.263  32.382  26.451  1.00  0.00     0.007 CG0
ATOM     14  G   UNL     1      50.015  33.832  26.860  1.00  0.00     0.000 G0
ENDBRANCH  10  13
ENDBRANCH   3  10
BRANCH   1  15
ATOM     15  C   UNL     1      50.740  34.207  28.146  1.00  0.00     0.011 C 
BRANCH  15  16
ATOM     16  C   UNL     1      50.016  33.832  26.856  1.00  0.00     0.001 CG0
ATOM     17  G   UNL     1      50.272  32.384  26.444  1.00  0.00     0.000 G0
ENDBRANCH  15  16
ENDBRANCH   1  15
TORSDOF 0
ENDMDL
MODEL 4
REMARK VINA RESULT:    -3.372      5.333      7.655
REMARK INTER + INTRA:          -3.530
REMARK INTER:                  -4.165
REMARK INTRA:                   0.635
REMARK UNBOUND:                 0.630
REMARK SMILES C=C1[C@@H]2CC[C@H]3[C@@H]2C(C)(C)CCC[C@@]13C
REMARK SMILES IDX 14 1 6 2 7 3 3 4 2 5 1 6 4 7 5 8 15 9 8 10 9 11 10 12 11 13
REMARK SMILES IDX 13 15 12 16
REMARK H PARENT
REMARK Flexibility Score: 80.00
ROOT
ATOM      1  C   UNL     1      55.725  29.635  25.179  1.00  0.00    -0.008 C 
ATOM      2  C   UNL     1      55.170  28.285  24.576  1.00  0.00     0.003 C 
ATOM      3  C   UNL     1      54.632  27.506  25.794  1.00  0.00     0.006 C 
ATOM      4  C   UNL     1      55.932  27.650  26.586  1.00  0.00     0.019 C 
ATOM      5  C   UNL     1      56.174  29.132  26.528  1.00  0.00    -0.068 C 
ATOM      6  C   UNL     1      56.771  29.852  27.486  1.00  0.00     0.009 C 
ATOM      7  C   UNL     1      56.944  27.001  25.610  1.00  0.00     0.008 C 
ATOM      8  C   UNL     1      56.360  27.350  24.218  1.00  0.00     0.005 C 
ATOM      9  C   UNL     1      56.926  30.221  24.387  1.00  0.00     0.016 C 
ENDROOT
BRANCH   3  10
ATOM     10  C   UNL     1      53.252  27.928  26.458  1.00  0.00    -0.032 C 
ATOM     11  C   UNL     1      52.180  26.886  26.034  1.00  0.00     0.011 C 
ATOM     12  C   UNL     1      53.323  27.869  28.005  1.00  0.00     0.011 C 
BRANCH  10  13
ATOM     13  C   UNL     1      52.693  29.303  25.990  1.00  0.00     0.007 CG0
ATOM     14  G   UNL     1      53.552  30.520  26.324  1.00  0.00     0.000 G0
ENDBRANCH  10  13
ENDBRANCH   3  10
BRANCH   1  15
ATOM     15  C   UNL     1      54.643  30.743  25.267  1.00  0.00     0.011 C 
BRANCH  15  16
ATOM     16  C   UNL     1      53.544  30.524  26.303  1.00  0.00     0.001 CG0
ATOM     17  G   UNL     1      52.688  29.298  25.995  1.00  0.00     0.000 G0
ENDBRANCH  15  16
ENDBRANCH   1  15
TORSDOF 0
ENDMDL
MODEL 5
REMARK VINA RESULT:    -3.344      5.275      7.845
REMARK INTER + INTRA:          -3.496
REMARK INTER:                  -4.119
REMARK INTRA:                   0.624
REMARK UNBOUND:                 0.630
REMARK SMILES C=C1[C@@H]2CC[C@H]3[C@@H]2C(C)(C)CCC[C@@]13C
REMARK SMILES IDX 14 1 6 2 7 3 3 4 2 5 1 6 4 7 5 8 15 9 8 10 9 11 10 12 11 13
REMARK SMILES IDX 13 15 12 16
REMARK H PARENT
REMARK Flexibility Score: 80.00
ROOT
ATOM      1  C   UNL     1      55.892  28.166  24.894  1.00  0.00    -0.008 C 
ATOM      2  C   UNL     1      55.694  27.801  26.418  1.00  0.00     0.003 C 
ATOM      3  C   UNL     1      54.618  28.787  26.918  1.00  0.00     0.006 C 
ATOM      4  C   UNL     1      55.360  30.017  26.395  1.00  0.00     0.019 C 
ATOM      5  C   UNL     1      55.612  29.646  24.960  1.00  0.00    -0.068 C 
ATOM      6  C   UNL     1      55.666  30.511  23.940  1.00  0.00     0.009 C 
ATOM      7  C   UNL     1      56.715  29.878  27.130  1.00  0.00     0.008 C 
ATOM      8  C   UNL     1      56.896  28.344  27.240  1.00  0.00     0.005 C 
ATOM      9  C   UNL     1      57.332  27.904  24.375  1.00  0.00     0.016 C 
ENDROOT
BRANCH   3  10
ATOM     10  C   UNL     1      53.094  28.559  26.531  1.00  0.00    -0.032 C 
ATOM     11  C   UNL     1      52.362  28.004  27.785  1.00  0.00     0.011 C 
ATOM     12  C   UNL     1      52.391  29.895  26.179  1.00  0.00     0.011 C 
BRANCH  10  13
ATOM     13  C   UNL     1      52.851  27.504  25.415  1.00  0.00     0.007 CG0
ATOM     14  G   UNL     1      53.435  27.837  24.044  1.00  0.00     0.000 G0
ENDBRANCH  10  13
ENDBRANCH   3  10
BRANCH   1  15
ATOM     15  C   UNL     1      54.917  27.398  23.961  1.00  0.00     0.011 C 
BRANCH  15  16
ATOM     16  C   UNL     1      53.449  27.805  24.049  1.00  0.00     0.001 CG0
ATOM     17  G   UNL     1      52.846  27.517  25.422  1.00  0.00     0.000 G0
ENDBRANCH  15  16
ENDBRANCH   1  15
TORSDOF 0
ENDMDL
MODEL 6
REMARK VINA RESULT:    -3.090     19.209     21.073
REMARK INTER + INTRA:          -3.183
REMARK INTER:                  -3.813
REMARK INTRA:                   0.630
REMARK UNBOUND:                 0.630
REMARK SMILES C=C1[C@@H]2CC[C@H]3[C@@H]2C(C)(C)CCC[C@@]13C
REMARK SMILES IDX 14 1 6 2 7 3 3 4 2 5 1 6 4 7 5 8 15 9 8 10 9 11 10 12 11 13
REMARK SMILES IDX 13 15 12 16
REMARK H PARENT
REMARK Flexibility Score: 80.00
ROOT
ATOM      1  C   UNL     1      57.012  45.779  43.605  1.00  0.00    -0.008 C 
ATOM      2  C   UNL     1      57.108  44.278  44.087  1.00  0.00     0.003 C 
ATOM      3  C   UNL     1      57.961  43.576  43.011  1.00  0.00     0.006 C 
ATOM      4  C   UNL     1      57.095  44.077  41.855  1.00  0.00     0.019 C 
ATOM      5  C   UNL     1      57.050  45.556  42.113  1.00  0.00    -0.068 C 
ATOM      6  C   UNL     1      56.966  46.500  41.168  1.00  0.00     0.009 C 
ATOM      7  C   UNL     1      55.710  43.517  42.263  1.00  0.00     0.008 C 
ATOM      8  C   UNL     1      55.759  43.558  43.811  1.00  0.00     0.005 C 
ATOM      9  C   UNL     1      55.690  46.480  44.020  1.00  0.00     0.016 C 
ENDROOT
BRANCH   3  10
ATOM     10  C   UNL     1      59.534  43.802  42.974  1.00  0.00    -0.032 C 
ATOM     11  C   UNL     1      60.212  42.518  43.527  1.00  0.00     0.011 C 
ATOM     12  C   UNL     1      60.051  43.972  41.524  1.00  0.00     0.011 C 
BRANCH  10  13
ATOM     13  C   UNL     1      60.052  44.958  43.877  1.00  0.00     0.007 CG0
ATOM     14  G   UNL     1      59.557  46.357  43.517  1.00  0.00     0.000 G0
ENDBRANCH  10  13
ENDBRANCH   3  10
BRANCH   1  15
ATOM     15  C   UNL     1      58.184  46.653  44.125  1.00  0.00     0.011 C 
BRANCH  15  16
ATOM     16  C   UNL     1      59.556  46.357  43.526  1.00  0.00     0.001 CG0
ATOM     17  G   UNL     1      60.058  44.960  43.883  1.00  0.00     0.000 G0
ENDBRANCH  15  16
ENDBRANCH   1  15
TORSDOF 0
ENDMDL
MODEL 7
REMARK VINA RESULT:    -2.990      1.707      2.978
REMARK INTER + INTRA:          -3.059
REMARK INTER:                  -3.691
REMARK INTRA:                   0.632
REMARK UNBOUND:                 0.630
REMARK SMILES C=C1[C@@H]2CC[C@H]3[C@@H]2C(C)(C)CCC[C@@]13C
REMARK SMILES IDX 14 1 6 2 7 3 3 4 2 5 1 6 4 7 5 8 15 9 8 10 9 11 10 12 11 13
REMARK SMILES IDX 13 15 12 16
REMARK H PARENT
REMARK Flexibility Score: 80.00
ROOT
ATOM      1  C   UNL     1      48.713  32.705  29.528  1.00  0.00    -0.008 C 
ATOM      2  C   UNL     1      48.677  32.741  27.949  1.00  0.00     0.003 C 
ATOM      3  C   UNL     1      49.843  31.831  27.512  1.00  0.00     0.006 C 
ATOM      4  C   UNL     1      50.867  32.553  28.388  1.00  0.00     0.019 C 
ATOM      5  C   UNL     1      50.198  32.538  29.733  1.00  0.00    -0.068 C 
ATOM      6  C   UNL     1      50.834  32.478  30.909  1.00  0.00     0.009 C 
ATOM      7  C   UNL     1      50.743  34.000  27.851  1.00  0.00     0.008 C 
ATOM      8  C   UNL     1      49.250  34.096  27.449  1.00  0.00     0.005 C 
ATOM      9  C   UNL     1      48.213  34.019  30.189  1.00  0.00     0.016 C 
ENDROOT
BRANCH   3  10
ATOM     10  C   UNL     1      49.695  30.252  27.610  1.00  0.00    -0.032 C 
ATOM     11  C   UNL     1      49.477  29.704  26.172  1.00  0.00     0.011 C 
ATOM     12  C   UNL     1      50.996  29.589  28.131  1.00  0.00     0.011 C 
BRANCH  10  13
ATOM     13  C   UNL     1      48.467  29.757  28.426  1.00  0.00     0.007 CG0
ATOM     14  G   UNL     1      48.442  30.155  29.900  1.00  0.00     0.000 G0
ENDBRANCH  10  13
ENDBRANCH   3  10
BRANCH   1  15
ATOM     15  C   UNL     1      47.876  31.541  30.121  1.00  0.00     0.011 C 
BRANCH  15  16
ATOM     16  C   UNL     1      48.434  30.137  29.901  1.00  0.00     0.001 CG0
ATOM     17  G   UNL     1      48.464  29.747  28.425  1.00  0.00     0.000 G0
ENDBRANCH  15  16
ENDBRANCH   1  15
TORSDOF 0
ENDMDL
MODEL 8
REMARK VINA RESULT:    -2.941      4.343      6.831
REMARK INTER + INTRA:          -2.999
REMARK INTER:                  -3.634
REMARK INTRA:                   0.635
REMARK UNBOUND:                 0.630
REMARK SMILES C=C1[C@@H]2CC[C@H]3[C@@H]2C(C)(C)CCC[C@@]13C
REMARK SMILES IDX 14 1 6 2 7 3 3 4 2 5 1 6 4 7 5 8 15 9 8 10 9 11 10 12 11 13
REMARK SMILES IDX 13 15 12 16
REMARK H PARENT
REMARK Flexibility Score: 80.00
ROOT
ATOM      1  C   UNL     1      54.633  28.158  26.430  1.00  0.00    -0.008 C 
ATOM      2  C   UNL     1      55.130  29.525  27.048  1.00  0.00     0.003 C 
ATOM      3  C   UNL     1      54.752  30.588  25.997  1.00  0.00     0.006 C 
ATOM      4  C   UNL     1      55.431  29.840  24.849  1.00  0.00     0.019 C 
ATOM      5  C   UNL     1      54.829  28.469  24.967  1.00  0.00    -0.068 C 
ATOM      6  C   UNL     1      54.596  27.639  23.942  1.00  0.00     0.009 C 
ATOM      7  C   UNL     1      56.879  29.732  25.386  1.00  0.00     0.008 C 
ATOM      8  C   UNL     1      56.676  29.619  26.918  1.00  0.00     0.005 C 
ATOM      9  C   UNL     1      55.496  26.937  26.851  1.00  0.00     0.016 C 
ENDROOT
BRANCH   3  10
ATOM     10  C   UNL     1      53.240  31.054  25.850  1.00  0.00    -0.032 C 
ATOM     11  C   UNL     1      53.114  32.469  26.479  1.00  0.00     0.011 C 
ATOM     12  C   UNL     1      52.834  31.207  24.362  1.00  0.00     0.011 C 
BRANCH  10  13
ATOM     13  C   UNL     1      52.206  30.175  26.610  1.00  0.00     0.007 CG0
ATOM     14  G   UNL     1      52.098  28.724  26.150  1.00  0.00     0.000 G0
ENDBRANCH  10  13
ENDBRANCH   3  10
BRANCH   1  15
ATOM     15  C   UNL     1      53.161  27.833  26.797  1.00  0.00     0.011 C 
BRANCH  15  16
ATOM     16  C   UNL     1      52.100  28.721  26.153  1.00  0.00     0.001 CG0
ATOM     17  G   UNL     1      52.195  30.172  26.617  1.00  0.00     0.000 G0
ENDBRANCH  15  16
ENDBRANCH   1  15
TORSDOF 0
ENDMDL
MODEL 9
REMARK VINA RESULT:    -2.925      1.510      3.035
REMARK INTER + INTRA:          -2.979
REMARK INTER:                  -3.617
REMARK INTRA:                   0.638
REMARK UNBOUND:                 0.630
REMARK SMILES C=C1[C@@H]2CC[C@H]3[C@@H]2C(C)(C)CCC[C@@]13C
REMARK SMILES IDX 14 1 6 2 7 3 3 4 2 5 1 6 4 7 5 8 15 9 8 10 9 11 10 12 11 13
REMARK SMILES IDX 13 15 12 16
REMARK H PARENT
REMARK Flexibility Score: 80.00
ROOT
ATOM      1  C   UNL     1      50.871  33.429  28.125  1.00  0.00    -0.008 C 
ATOM      2  C   UNL     1      50.639  32.590  29.443  1.00  0.00     0.003 C 
ATOM      3  C   UNL     1      49.298  31.864  29.213  1.00  0.00     0.006 C 
ATOM      4  C   UNL     1      48.554  33.147  28.842  1.00  0.00     0.019 C 
ATOM      5  C   UNL     1      49.435  33.724  27.770  1.00  0.00    -0.068 C 
ATOM      6  C   UNL     1      49.007  34.453  26.732  1.00  0.00     0.009 C 
ATOM      7  C   UNL     1      48.789  34.000  30.112  1.00  0.00     0.008 C 
ATOM      8  C   UNL     1      50.189  33.538  30.588  1.00  0.00     0.005 C 
ATOM      9  C   UNL     1      51.659  34.747  28.359  1.00  0.00     0.016 C 
ENDROOT
BRANCH   3  10
ATOM     10  C   UNL     1      49.234  30.606  28.244  1.00  0.00    -0.032 C 
ATOM     11  C   UNL     1      49.103  29.333  29.125  1.00  0.00     0.011 C 
ATOM     12  C   UNL     1      47.969  30.641  27.348  1.00  0.00     0.011 C 
BRANCH  10  13
ATOM     13  C   UNL     1      50.507  30.377  27.381  1.00  0.00     0.007 CG0
ATOM     14  G   UNL     1      50.843  31.481  26.382  1.00  0.00     0.000 G0
ENDBRANCH  10  13
ENDBRANCH   3  10
BRANCH   1  15
ATOM     15  C   UNL     1      51.622  32.629  27.027  1.00  0.00     0.011 C 
BRANCH  15  16
ATOM     16  C   UNL     1      50.845  31.481  26.388  1.00  0.00     0.001 CG0
ATOM     17  G   UNL     1      50.506  30.379  27.388  1.00  0.00     0.000 G0
ENDBRANCH  15  16
ENDBRANCH   1  15
TORSDOF 0
ENDMDL
