MODEL 1
REMARK VINA RESULT:    -5.118      0.000      0.000
REMARK INTER + INTRA:          -5.960
REMARK INTER:                  -5.866
REMARK INTRA:                  -0.094
REMARK UNBOUND:                -0.094
REMARK SMILES C=Cc1ccc(O)c(OC)c1
REMARK SMILES IDX 8 1 6 2 5 3 4 4 3 5 11 6 9 7 10 8 7 9 2 11 1 12
REMARK H PARENT 7 10
REMARK Flexibility Score: inf
ROOT
ATOM      1  C   UNL     1       3.522  28.049  56.781  1.00  0.00     0.161 A 
ATOM      2  C   UNL     1       3.458  28.001  55.377  1.00  0.00     0.157 A 
ATOM      3  C   UNL     1       2.289  28.389  54.718  1.00  0.00     0.051 A 
ATOM      4  C   UNL     1       1.176  28.821  55.441  1.00  0.00     0.012 A 
ATOM      5  C   UNL     1       1.214  28.865  56.847  1.00  0.00    -0.022 A 
ATOM      6  C   UNL     1       2.395  28.487  57.507  1.00  0.00     0.058 A 
ENDROOT
BRANCH   1   7
ATOM      7  O   UNL     1       4.710  27.658  57.417  1.00  0.00    -0.493 OA
ATOM      8  C   UNL     1       4.772  26.947  58.651  1.00  0.00     0.278 C 
ENDBRANCH   1   7
BRANCH   2   9
ATOM      9  O   UNL     1       4.548  27.573  54.621  1.00  0.00    -0.504 OA
ATOM     10  H   UNL     1       5.318  28.187  54.388  1.00  0.00     0.293 HD
ENDBRANCH   2   9
BRANCH   5  11
ATOM     11  C   UNL     1       0.062  29.325  57.663  1.00  0.00     0.000 C 
ATOM     12  C   UNL     1      -0.975  30.010  57.180  1.00  0.00     0.009 C 
ENDBRANCH   5  11
TORSDOF 3
ENDMDL
MODEL 2
REMARK VINA RESULT:    -5.033      1.162      2.744
REMARK INTER + INTRA:          -5.863
REMARK INTER:                  -5.768
REMARK INTRA:                  -0.095
REMARK UNBOUND:                -0.094
REMARK SMILES C=Cc1ccc(O)c(OC)c1
REMARK SMILES IDX 8 1 6 2 5 3 4 4 3 5 11 6 9 7 10 8 7 9 2 11 1 12
REMARK H PARENT 7 10
REMARK Flexibility Score: inf
ROOT
ATOM      1  C   UNL     1       3.423  28.239  55.029  1.00  0.00     0.161 A 
ATOM      2  C   UNL     1       4.025  27.890  56.250  1.00  0.00     0.157 A 
ATOM      3  C   UNL     1       3.298  27.984  57.440  1.00  0.00     0.051 A 
ATOM      4  C   UNL     1       1.975  28.429  57.429  1.00  0.00     0.012 A 
ATOM      5  C   UNL     1       1.356  28.795  56.219  1.00  0.00    -0.022 A 
ATOM      6  C   UNL     1       2.086  28.686  55.023  1.00  0.00     0.058 A 
ENDROOT
BRANCH   1   7
ATOM      7  O   UNL     1       4.175  28.129  53.849  1.00  0.00    -0.493 OA
ATOM      8  C   UNL     1       4.150  29.074  52.783  1.00  0.00     0.278 C 
ENDBRANCH   1   7
BRANCH   2   9
ATOM      9  O   UNL     1       5.345  27.444  56.302  1.00  0.00    -0.504 OA
ATOM     10  H   UNL     1       5.602  26.568  56.740  1.00  0.00     0.293 HD
ENDBRANCH   2   9
BRANCH   5  11
ATOM     11  C   UNL     1      -0.050  29.265  56.151  1.00  0.00     0.000 C 
ATOM     12  C   UNL     1      -0.769  29.641  57.210  1.00  0.00     0.009 C 
ENDBRANCH   5  11
TORSDOF 3
ENDMDL
MODEL 3
REMARK VINA RESULT:    -4.771      2.079      4.028
REMARK INTER + INTRA:          -5.562
REMARK INTER:                  -5.543
REMARK INTRA:                  -0.018
REMARK UNBOUND:                -0.094
REMARK SMILES C=Cc1ccc(O)c(OC)c1
REMARK SMILES IDX 8 1 6 2 5 3 4 4 3 5 11 6 9 7 10 8 7 9 2 11 1 12
REMARK H PARENT 7 10
REMARK Flexibility Score: inf
ROOT
ATOM      1  C   UNL     1       1.141  28.503  56.728  1.00  0.00     0.161 A 
ATOM      2  C   UNL     1       1.258  28.596  55.330  1.00  0.00     0.157 A 
ATOM      3  C   UNL     1       2.501  28.406  54.720  1.00  0.00     0.051 A 
ATOM      4  C   UNL     1       3.634  28.130  55.487  1.00  0.00     0.012 A 
ATOM      5  C   UNL     1       3.542  28.045  56.889  1.00  0.00    -0.022 A 
ATOM      6  C   UNL     1       2.288  28.223  57.499  1.00  0.00     0.058 A 
ENDROOT
BRANCH   1   7
ATOM      7  O   UNL     1      -0.120  28.693  57.315  1.00  0.00    -0.493 OA
ATOM      8  C   UNL     1      -0.724  29.962  57.541  1.00  0.00     0.278 C 
ENDBRANCH   1   7
BRANCH   2   9
ATOM      9  O   UNL     1       0.151  28.872  54.531  1.00  0.00    -0.504 OA
ATOM     10  H   UNL     1       0.241  29.216  53.583  1.00  0.00     0.293 HD
ENDBRANCH   2   9
BRANCH   5  11
ATOM     11  C   UNL     1       4.713  27.745  57.750  1.00  0.00     0.000 C 
ATOM     12  C   UNL     1       4.700  26.872  58.758  1.00  0.00     0.009 C 
ENDBRANCH   5  11
TORSDOF 3
ENDMDL
MODEL 4
REMARK VINA RESULT:    -4.629      1.662      3.956
REMARK INTER + INTRA:          -5.400
REMARK INTER:                  -5.316
REMARK INTRA:                  -0.083
REMARK UNBOUND:                -0.094
REMARK SMILES C=Cc1ccc(O)c(OC)c1
REMARK SMILES IDX 8 1 6 2 5 3 4 4 3 5 11 6 9 7 10 8 7 9 2 11 1 12
REMARK H PARENT 7 10
REMARK Flexibility Score: inf
ROOT
ATOM      1  C   UNL     1       3.410  28.355  55.169  1.00  0.00     0.161 A 
ATOM      2  C   UNL     1       2.113  28.834  55.424  1.00  0.00     0.157 A 
ATOM      3  C   UNL     1       1.574  28.741  56.710  1.00  0.00     0.051 A 
ATOM      4  C   UNL     1       2.311  28.169  57.748  1.00  0.00     0.012 A 
ATOM      5  C   UNL     1       3.606  27.672  57.513  1.00  0.00    -0.022 A 
ATOM      6  C   UNL     1       4.151  27.779  56.221  1.00  0.00     0.058 A 
ENDROOT
BRANCH   1   7
ATOM      7  O   UNL     1       3.928  28.466  53.869  1.00  0.00    -0.493 OA
ATOM      8  C   UNL     1       4.685  29.574  53.392  1.00  0.00     0.278 C 
ENDBRANCH   1   7
BRANCH   2   9
ATOM      9  O   UNL     1       1.345  29.409  54.412  1.00  0.00    -0.504 OA
ATOM     10  H   UNL     1       0.821  28.852  53.749  1.00  0.00     0.293 HD
ENDBRANCH   2   9
BRANCH   5  11
ATOM     11  C   UNL     1       4.435  27.063  58.583  1.00  0.00     0.000 C 
ATOM     12  C   UNL     1       5.754  27.226  58.695  1.00  0.00     0.009 C 
ENDBRANCH   5  11
TORSDOF 3
ENDMDL
MODEL 5
REMARK VINA RESULT:    -4.216      8.627     10.543
REMARK INTER + INTRA:          -4.926
REMARK INTER:                  -4.831
REMARK INTRA:                  -0.095
REMARK UNBOUND:                -0.094
REMARK SMILES C=Cc1ccc(O)c(OC)c1
REMARK SMILES IDX 8 1 6 2 5 3 4 4 3 5 11 6 9 7 10 8 7 9 2 11 1 12
REMARK H PARENT 7 10
REMARK Flexibility Score: inf
ROOT
ATOM      1  C   UNL     1      -7.733  31.130  58.048  1.00  0.00     0.161 A 
ATOM      2  C   UNL     1      -7.516  29.886  57.429  1.00  0.00     0.157 A 
ATOM      3  C   UNL     1      -6.340  29.175  57.684  1.00  0.00     0.051 A 
ATOM      4  C   UNL     1      -5.371  29.691  58.546  1.00  0.00     0.012 A 
ATOM      5  C   UNL     1      -5.562  30.940  59.166  1.00  0.00    -0.022 A 
ATOM      6  C   UNL     1      -6.752  31.647  58.918  1.00  0.00     0.058 A 
ENDROOT
BRANCH   1   7
ATOM      7  O   UNL     1      -8.925  31.820  57.777  1.00  0.00    -0.493 OA
ATOM      8  C   UNL     1      -9.830  32.291  58.771  1.00  0.00     0.278 C 
ENDBRANCH   1   7
BRANCH   2   9
ATOM      9  O   UNL     1      -8.459  29.339  56.561  1.00  0.00    -0.504 OA
ATOM     10  H   UNL     1      -8.266  28.516  56.003  1.00  0.00     0.293 HD
ENDBRANCH   2   9
BRANCH   5  11
ATOM     11  C   UNL     1      -4.569  31.530  60.097  1.00  0.00     0.000 C 
ATOM     12  C   UNL     1      -3.253  31.546  59.880  1.00  0.00     0.009 C 
ENDBRANCH   5  11
TORSDOF 3
ENDMDL
MODEL 6
REMARK VINA RESULT:    -4.206      8.696     10.279
REMARK INTER + INTRA:          -4.914
REMARK INTER:                  -4.815
REMARK INTRA:                  -0.100
REMARK UNBOUND:                -0.094
REMARK SMILES C=Cc1ccc(O)c(OC)c1
REMARK SMILES IDX 8 1 6 2 5 3 4 4 3 5 11 6 9 7 10 8 7 9 2 11 1 12
REMARK H PARENT 7 10
REMARK Flexibility Score: inf
ROOT
ATOM      1  C   UNL     1      -7.145  29.779  57.482  1.00  0.00     0.161 A 
ATOM      2  C   UNL     1      -8.093  30.787  57.731  1.00  0.00     0.157 A 
ATOM      3  C   UNL     1      -7.812  31.797  58.654  1.00  0.00     0.051 A 
ATOM      4  C   UNL     1      -6.597  31.814  59.339  1.00  0.00     0.012 A 
ATOM      5  C   UNL     1      -5.638  30.809  59.115  1.00  0.00    -0.022 A 
ATOM      6  C   UNL     1      -5.918  29.801  58.176  1.00  0.00     0.058 A 
ENDROOT
BRANCH   1   7
ATOM      7  O   UNL     1      -7.452  28.778  56.546  1.00  0.00    -0.493 OA
ATOM      8  C   UNL     1      -7.478  27.383  56.832  1.00  0.00     0.278 C 
ENDBRANCH   1   7
BRANCH   2   9
ATOM      9  O   UNL     1      -9.320  30.802  57.068  1.00  0.00    -0.504 OA
ATOM     10  H   UNL     1      -9.933  31.608  57.085  1.00  0.00     0.293 HD
ENDBRANCH   2   9
BRANCH   5  11
ATOM     11  C   UNL     1      -4.327  30.785  59.809  1.00  0.00     0.000 C 
ATOM     12  C   UNL     1      -3.625  31.874  60.125  1.00  0.00     0.009 C 
ENDBRANCH   5  11
TORSDOF 3
ENDMDL
MODEL 7
REMARK VINA RESULT:    -4.174      2.702      4.815
REMARK INTER + INTRA:          -4.877
REMARK INTER:                  -4.776
REMARK INTRA:                  -0.101
REMARK UNBOUND:                -0.094
REMARK SMILES C=Cc1ccc(O)c(OC)c1
REMARK SMILES IDX 8 1 6 2 5 3 4 4 3 5 11 6 9 7 10 8 7 9 2 11 1 12
REMARK H PARENT 7 10
REMARK Flexibility Score: inf
ROOT
ATOM      1  C   UNL     1       0.830  29.422  55.448  1.00  0.00     0.161 A 
ATOM      2  C   UNL     1       0.273  29.244  56.726  1.00  0.00     0.157 A 
ATOM      3  C   UNL     1       1.008  28.599  57.725  1.00  0.00     0.051 A 
ATOM      4  C   UNL     1       2.293  28.122  57.464  1.00  0.00     0.012 A 
ATOM      5  C   UNL     1       2.866  28.278  56.188  1.00  0.00    -0.022 A 
ATOM      6  C   UNL     1       2.130  28.939  55.189  1.00  0.00     0.058 A 
ENDROOT
BRANCH   1   7
ATOM      7  O   UNL     1       0.072  30.077  54.465  1.00  0.00    -0.493 OA
ATOM      8  C   UNL     1       0.468  31.274  53.803  1.00  0.00     0.278 C 
ENDBRANCH   1   7
BRANCH   2   9
ATOM      9  O   UNL     1      -1.008  29.705  57.025  1.00  0.00    -0.504 OA
ATOM     10  H   UNL     1      -1.833  29.347  56.558  1.00  0.00     0.293 HD
ENDBRANCH   2   9
BRANCH   5  11
ATOM     11  C   UNL     1       4.231  27.797  55.860  1.00  0.00     0.000 C 
ATOM     12  C   UNL     1       5.241  27.753  56.730  1.00  0.00     0.009 C 
ENDBRANCH   5  11
TORSDOF 3
ENDMDL
MODEL 8
REMARK VINA RESULT:    -4.114      1.961      4.251
REMARK INTER + INTRA:          -4.809
REMARK INTER:                  -4.711
REMARK INTRA:                  -0.098
REMARK UNBOUND:                -0.094
REMARK SMILES C=Cc1ccc(O)c(OC)c1
REMARK SMILES IDX 8 1 6 2 5 3 4 4 3 5 11 6 9 7 10 8 7 9 2 11 1 12
REMARK H PARENT 7 10
REMARK Flexibility Score: inf
ROOT
ATOM      1  C   UNL     1       2.024  28.282  56.498  1.00  0.00     0.161 A 
ATOM      2  C   UNL     1       3.096  27.869  57.309  1.00  0.00     0.157 A 
ATOM      3  C   UNL     1       4.402  27.904  56.812  1.00  0.00     0.051 A 
ATOM      4  C   UNL     1       4.654  28.341  55.510  1.00  0.00     0.012 A 
ATOM      5  C   UNL     1       3.595  28.747  54.677  1.00  0.00    -0.022 A 
ATOM      6  C   UNL     1       2.284  28.724  55.185  1.00  0.00     0.058 A 
ENDROOT
BRANCH   1   7
ATOM      7  O   UNL     1       0.724  28.241  57.025  1.00  0.00    -0.493 OA
ATOM      8  C   UNL     1      -0.105  29.383  57.224  1.00  0.00     0.278 C 
ENDBRANCH   1   7
BRANCH   2   9
ATOM      9  O   UNL     1       2.884  27.424  58.613  1.00  0.00    -0.504 OA
ATOM     10  H   UNL     1       3.415  26.662  59.016  1.00  0.00     0.293 HD
ENDBRANCH   2   9
BRANCH   5  11
ATOM     11  C   UNL     1       3.809  29.229  53.290  1.00  0.00     0.000 C 
ATOM     12  C   UNL     1       4.499  28.565  52.362  1.00  0.00     0.009 C 
ENDBRANCH   5  11
TORSDOF 3
ENDMDL
MODEL 9
REMARK VINA RESULT:    -3.096      8.141      9.580
REMARK INTER + INTRA:          -3.642
REMARK INTER:                  -3.550
REMARK INTRA:                  -0.092
REMARK UNBOUND:                -0.094
REMARK SMILES C=Cc1ccc(O)c(OC)c1
REMARK SMILES IDX 8 1 6 2 5 3 4 4 3 5 11 6 9 7 10 8 7 9 2 11 1 12
REMARK H PARENT 7 10
REMARK Flexibility Score: inf
ROOT
ATOM      1  C   UNL     1      -5.721  30.775  59.099  1.00  0.00     0.161 A 
ATOM      2  C   UNL     1      -5.859  29.591  58.353  1.00  0.00     0.157 A 
ATOM      3  C   UNL     1      -6.801  29.520  57.323  1.00  0.00     0.051 A 
ATOM      4  C   UNL     1      -7.614  30.616  57.028  1.00  0.00     0.012 A 
ATOM      5  C   UNL     1      -7.501  31.807  57.770  1.00  0.00    -0.022 A 
ATOM      6  C   UNL     1      -6.544  31.879  58.797  1.00  0.00     0.058 A 
ENDROOT
BRANCH   1   7
ATOM      7  O   UNL     1      -4.764  30.819  60.125  1.00  0.00    -0.493 OA
ATOM      8  C   UNL     1      -3.616  31.662  60.125  1.00  0.00     0.278 C 
ENDBRANCH   1   7
BRANCH   2   9
ATOM      9  O   UNL     1      -5.068  28.475  58.619  1.00  0.00    -0.504 OA
ATOM     10  H   UNL     1      -5.464  27.555  58.769  1.00  0.00     0.293 HD
ENDBRANCH   2   9
BRANCH   5  11
ATOM     11  C   UNL     1      -8.334  33.004  57.492  1.00  0.00     0.000 C 
ATOM     12  C   UNL     1      -8.056  33.910  56.555  1.00  0.00     0.009 C 
ENDBRANCH   5  11
TORSDOF 3
ENDMDL
