MODEL 1
REMARK VINA RESULT:    -7.998      0.000      0.000
REMARK INTER + INTRA:          -9.257
REMARK INTER:                  -8.700
REMARK INTRA:                  -0.557
REMARK UNBOUND:                -0.557
REMARK SMILES C=C(C)[C@@H]1CC[C@@]2(C)CC[C@@]3(C)[C@@H](CC[C@H]4[C@@]5(C)CC[C@H](O)C(C)(C)[C@H]5CC[C@]43C)[C@@H]12
REMARK SMILES IDX 4 1 5 2 6 3 7 4 31 5 13 6 14 7 15 8 16 9 17 10 19 11 20 12
REMARK SMILES IDX 21 13 23 14 26 15 27 16 28 17 29 18 11 19 10 20 9 21 12 22
REMARK SMILES IDX 30 23 24 24 25 25 18 26 8 27 2 28 3 29 1 30 22 31
REMARK H PARENT 22 32
REMARK Flexibility Score: inf
ROOT
ATOM      1  C   UNL     1     148.872 136.590 148.600  1.00  0.00     0.018 C 
ATOM      2  C   UNL     1     149.597 137.915 148.333  1.00  0.00     0.009 C 
ATOM      3  C   UNL     1     148.518 138.992 148.201  1.00  0.00     0.008 C 
ATOM      4  C   UNL     1     147.148 138.290 148.328  1.00  0.00    -0.029 C 
ATOM      5  C   UNL     1     147.469 136.995 149.098  1.00  0.00     0.006 C 
ATOM      6  C   UNL     1     146.309 135.949 149.041  1.00  0.00    -0.000 C 
ATOM      7  C   UNL     1     146.585 134.691 149.867  1.00  0.00     0.005 C 
ATOM      8  C   UNL     1     145.296 133.907 150.075  1.00  0.00     0.005 C 
ATOM      9  C   UNL     1     144.564 133.497 148.752  1.00  0.00     0.002 C 
ATOM     10  C   UNL     1     143.248 132.565 148.997  1.00  0.00    -0.026 C 
ATOM     11  C   UNL     1     143.290 131.903 150.424  1.00  0.00     0.010 C 
ATOM     12  C   UNL     1     142.020 131.167 150.854  1.00  0.00     0.033 C 
ATOM     13  C   UNL     1     140.822 132.116 150.841  1.00  0.00     0.120 C 
ATOM     14  C   UNL     1     140.570 132.715 149.431  1.00  0.00    -0.006 C 
ATOM     15  C   UNL     1     141.894 133.396 148.843  1.00  0.00     0.003 C 
ATOM     16  C   UNL     1     142.130 134.852 149.318  1.00  0.00     0.005 C 
ATOM     17  C   UNL     1     143.158 135.619 148.453  1.00  0.00     0.008 C 
ATOM     18  C   UNL     1     144.317 134.760 147.818  1.00  0.00    -0.024 C 
ATOM     19  C   UNL     1     145.691 135.617 147.630  1.00  0.00    -0.024 C 
ATOM     20  C   UNL     1     145.406 136.988 146.914  1.00  0.00     0.008 C 
ATOM     21  C   UNL     1     146.593 137.971 146.913  1.00  0.00     0.007 C 
ATOM     22  C   UNL     1     146.721 134.800 146.751  1.00  0.00     0.012 C 
ATOM     23  C   UNL     1     143.828 134.286 146.393  1.00  0.00     0.012 C 
ATOM     24  C   UNL     1     139.404 133.739 149.558  1.00  0.00     0.014 C 
ATOM     25  C   UNL     1     140.042 131.623 148.454  1.00  0.00     0.014 C 
ATOM     26  C   UNL     1     143.284 131.407 147.942  1.00  0.00     0.012 C 
ATOM     27  C   UNL     1     146.161 139.199 149.101  1.00  0.00     0.011 C 
ENDROOT
BRANCH   1  28
ATOM     28  C   UNL     1     149.655 135.680 149.540  1.00  0.00    -0.077 C 
ATOM     29  C   UNL     1     149.854 136.079 150.981  1.00  0.00     0.039 C 
ATOM     30  C   UNL     1     150.148 134.496 149.130  1.00  0.00     0.008 C 
ENDBRANCH   1  28
BRANCH  13  31
ATOM     31  O   UNL     1     139.679 131.429 151.294  1.00  0.00    -0.393 OA
ATOM     32  H   UNL     1     138.894 132.000 151.084  1.00  0.00     0.210 HD
ENDBRANCH  13  31
TORSDOF 2
ENDMDL
MODEL 2
REMARK VINA RESULT:    -6.612      2.573      7.755
REMARK INTER + INTRA:          -7.749
REMARK INTER:                  -7.211
REMARK INTRA:                  -0.538
REMARK UNBOUND:                -0.557
REMARK SMILES C=C(C)[C@@H]1CC[C@@]2(C)CC[C@@]3(C)[C@@H](CC[C@H]4[C@@]5(C)CC[C@H](O)C(C)(C)[C@H]5CC[C@]43C)[C@@H]12
REMARK SMILES IDX 4 1 5 2 6 3 7 4 31 5 13 6 14 7 15 8 16 9 17 10 19 11 20 12
REMARK SMILES IDX 21 13 23 14 26 15 27 16 28 17 29 18 11 19 10 20 9 21 12 22
REMARK SMILES IDX 30 23 24 24 25 25 18 26 8 27 2 28 3 29 1 30 22 31
REMARK H PARENT 22 32
REMARK Flexibility Score: inf
ROOT
ATOM      1  C   UNL     1     140.132 132.329 149.075  1.00  0.00     0.018 C 
ATOM      2  C   UNL     1     138.948 131.566 148.469  1.00  0.00     0.009 C 
ATOM      3  C   UNL     1     139.345 131.195 147.038  1.00  0.00     0.008 C 
ATOM      4  C   UNL     1     140.744 131.797 146.777  1.00  0.00    -0.029 C 
ATOM      5  C   UNL     1     141.340 131.963 148.188  1.00  0.00     0.006 C 
ATOM      6  C   UNL     1     142.606 132.879 148.210  1.00  0.00    -0.000 C 
ATOM      7  C   UNL     1     143.253 132.989 149.592  1.00  0.00     0.005 C 
ATOM      8  C   UNL     1     144.658 133.564 149.471  1.00  0.00     0.005 C 
ATOM      9  C   UNL     1     144.729 134.960 148.764  1.00  0.00     0.002 C 
ATOM     10  C   UNL     1     146.226 135.606 148.744  1.00  0.00    -0.026 C 
ATOM     11  C   UNL     1     147.139 134.932 149.834  1.00  0.00     0.010 C 
ATOM     12  C   UNL     1     148.622 135.305 149.785  1.00  0.00     0.033 C 
ATOM     13  C   UNL     1     149.219 134.948 148.425  1.00  0.00     0.120 C 
ATOM     14  C   UNL     1     148.502 135.687 147.263  1.00  0.00    -0.006 C 
ATOM     15  C   UNL     1     146.919 135.458 147.314  1.00  0.00     0.003 C 
ATOM     16  C   UNL     1     146.441 134.143 146.648  1.00  0.00     0.005 C 
ATOM     17  C   UNL     1     144.923 134.124 146.349  1.00  0.00     0.008 C 
ATOM     18  C   UNL     1     144.004 134.924 147.348  1.00  0.00    -0.024 C 
ATOM     19  C   UNL     1     142.516 134.272 147.478  1.00  0.00    -0.024 C 
ATOM     20  C   UNL     1     141.891 134.009 146.059  1.00  0.00     0.008 C 
ATOM     21  C   UNL     1     140.596 133.171 146.072  1.00  0.00     0.007 C 
ATOM     22  C   UNL     1     141.562 135.254 148.269  1.00  0.00     0.012 C 
ATOM     23  C   UNL     1     143.855 136.391 146.784  1.00  0.00     0.012 C 
ATOM     24  C   UNL     1     149.116 135.171 145.928  1.00  0.00     0.014 C 
ATOM     25  C   UNL     1     148.830 137.210 147.293  1.00  0.00     0.014 C 
ATOM     26  C   UNL     1     146.094 137.123 149.116  1.00  0.00     0.012 C 
ATOM     27  C   UNL     1     141.578 130.828 145.903  1.00  0.00     0.011 C 
ENDROOT
BRANCH   1  28
ATOM     28  C   UNL     1     140.308 132.040 150.562  1.00  0.00    -0.077 C 
ATOM     29  C   UNL     1     139.975 133.102 151.579  1.00  0.00     0.039 C 
ATOM     30  C   UNL     1     140.720 130.837 151.005  1.00  0.00     0.008 C 
ENDBRANCH   1  28
BRANCH  13  31
ATOM     31  O   UNL     1     150.594 135.249 148.425  1.00  0.00    -0.393 OA
ATOM     32  H   UNL     1     150.698 136.138 147.993  1.00  0.00     0.210 HD
ENDBRANCH  13  31
TORSDOF 2
ENDMDL
MODEL 3
REMARK VINA RESULT:    -6.568      6.103      8.463
REMARK INTER + INTRA:          -7.701
REMARK INTER:                  -7.144
REMARK INTRA:                  -0.557
REMARK UNBOUND:                -0.557
REMARK SMILES C=C(C)[C@@H]1CC[C@@]2(C)CC[C@@]3(C)[C@@H](CC[C@H]4[C@@]5(C)CC[C@H](O)C(C)(C)[C@H]5CC[C@]43C)[C@@H]12
REMARK SMILES IDX 4 1 5 2 6 3 7 4 31 5 13 6 14 7 15 8 16 9 17 10 19 11 20 12
REMARK SMILES IDX 21 13 23 14 26 15 27 16 28 17 29 18 11 19 10 20 9 21 12 22
REMARK SMILES IDX 30 23 24 24 25 25 18 26 8 27 2 28 3 29 1 30 22 31
REMARK H PARENT 22 32
REMARK Flexibility Score: inf
ROOT
ATOM      1  C   UNL     1     142.919 143.435 144.497  1.00  0.00     0.018 C 
ATOM      2  C   UNL     1     143.429 144.764 143.927  1.00  0.00     0.009 C 
ATOM      3  C   UNL     1     143.699 144.533 142.437  1.00  0.00     0.008 C 
ATOM      4  C   UNL     1     143.407 143.045 142.142  1.00  0.00    -0.029 C 
ATOM      5  C   UNL     1     142.444 142.629 143.270  1.00  0.00     0.006 C 
ATOM      6  C   UNL     1     142.284 141.079 143.393  1.00  0.00    -0.000 C 
ATOM      7  C   UNL     1     141.271 140.656 144.458  1.00  0.00     0.005 C 
ATOM      8  C   UNL     1     140.888 139.194 144.268  1.00  0.00     0.005 C 
ATOM      9  C   UNL     1     142.096 138.198 144.290  1.00  0.00     0.002 C 
ATOM     10  C   UNL     1     141.653 136.631 144.195  1.00  0.00    -0.026 C 
ATOM     11  C   UNL     1     140.138 136.456 144.583  1.00  0.00     0.010 C 
ATOM     12  C   UNL     1     139.544 135.067 144.342  1.00  0.00     0.033 C 
ATOM     13  C   UNL     1     139.671 134.680 142.869  1.00  0.00     0.120 C 
ATOM     14  C   UNL     1     141.151 134.654 142.400  1.00  0.00    -0.006 C 
ATOM     15  C   UNL     1     141.893 136.032 142.735  1.00  0.00     0.003 C 
ATOM     16  C   UNL     1     141.676 137.148 141.683  1.00  0.00     0.005 C 
ATOM     17  C   UNL     1     142.693 138.308 141.800  1.00  0.00     0.008 C 
ATOM     18  C   UNL     1     143.219 138.633 143.250  1.00  0.00    -0.024 C 
ATOM     19  C   UNL     1     143.597 140.208 143.434  1.00  0.00    -0.024 C 
ATOM     20  C   UNL     1     144.519 140.705 142.261  1.00  0.00     0.008 C 
ATOM     21  C   UNL     1     144.728 142.232 142.211  1.00  0.00     0.007 C 
ATOM     22  C   UNL     1     144.364 140.424 144.799  1.00  0.00     0.012 C 
ATOM     23  C   UNL     1     144.526 137.778 143.483  1.00  0.00     0.012 C 
ATOM     24  C   UNL     1     141.155 134.356 140.872  1.00  0.00     0.014 C 
ATOM     25  C   UNL     1     141.913 133.458 143.045  1.00  0.00     0.014 C 
ATOM     26  C   UNL     1     142.501 135.833 145.244  1.00  0.00     0.012 C 
ATOM     27  C   UNL     1     142.760 142.905 140.742  1.00  0.00     0.011 C 
ENDROOT
BRANCH   1  28
ATOM     28  C   UNL     1     141.870 143.636 145.585  1.00  0.00    -0.077 C 
ATOM     29  C   UNL     1     140.524 144.220 145.234  1.00  0.00     0.039 C 
ATOM     30  C   UNL     1     142.094 143.268 146.860  1.00  0.00     0.008 C 
ENDBRANCH   1  28
BRANCH  13  31
ATOM     31  O   UNL     1     139.069 133.424 142.663  1.00  0.00    -0.393 OA
ATOM     32  H   UNL     1     139.491 133.027 141.856  1.00  0.00     0.210 HD
ENDBRANCH  13  31
TORSDOF 2
ENDMDL
MODEL 4
REMARK VINA RESULT:    -6.409      5.271      8.675
REMARK INTER + INTRA:          -7.528
REMARK INTER:                  -6.991
REMARK INTRA:                  -0.537
REMARK UNBOUND:                -0.557
REMARK SMILES C=C(C)[C@@H]1CC[C@@]2(C)CC[C@@]3(C)[C@@H](CC[C@H]4[C@@]5(C)CC[C@H](O)C(C)(C)[C@H]5CC[C@]43C)[C@@H]12
REMARK SMILES IDX 4 1 5 2 6 3 7 4 31 5 13 6 14 7 15 8 16 9 17 10 19 11 20 12
REMARK SMILES IDX 21 13 23 14 26 15 27 16 28 17 29 18 11 19 10 20 9 21 12 22
REMARK SMILES IDX 30 23 24 24 25 25 18 26 8 27 2 28 3 29 1 30 22 31
REMARK H PARENT 22 32
REMARK Flexibility Score: inf
ROOT
ATOM      1  C   UNL     1     138.882 132.017 149.719  1.00  0.00     0.018 C 
ATOM      2  C   UNL     1     138.928 132.179 151.243  1.00  0.00     0.009 C 
ATOM      3  C   UNL     1     139.856 133.361 151.535  1.00  0.00     0.008 C 
ATOM      4  C   UNL     1     140.409 133.858 150.181  1.00  0.00    -0.029 C 
ATOM      5  C   UNL     1     139.367 133.369 149.157  1.00  0.00     0.006 C 
ATOM      6  C   UNL     1     139.881 133.442 147.683  1.00  0.00    -0.000 C 
ATOM      7  C   UNL     1     138.828 133.033 146.652  1.00  0.00     0.005 C 
ATOM      8  C   UNL     1     139.254 133.481 145.260  1.00  0.00     0.005 C 
ATOM      9  C   UNL     1     140.651 132.940 144.803  1.00  0.00     0.002 C 
ATOM     10  C   UNL     1     141.036 133.342 143.270  1.00  0.00    -0.026 C 
ATOM     11  C   UNL     1     139.751 133.750 142.460  1.00  0.00     0.010 C 
ATOM     12  C   UNL     1     139.998 134.340 141.070  1.00  0.00     0.033 C 
ATOM     13  C   UNL     1     140.874 135.588 141.167  1.00  0.00     0.120 C 
ATOM     14  C   UNL     1     142.255 135.279 141.807  1.00  0.00    -0.006 C 
ATOM     15  C   UNL     1     142.093 134.537 143.215  1.00  0.00     0.003 C 
ATOM     16  C   UNL     1     141.853 135.486 144.416  1.00  0.00     0.005 C 
ATOM     17  C   UNL     1     142.096 134.814 145.787  1.00  0.00     0.008 C 
ATOM     18  C   UNL     1     141.775 133.273 145.878  1.00  0.00    -0.024 C 
ATOM     19  C   UNL     1     141.298 132.826 147.370  1.00  0.00    -0.024 C 
ATOM     20  C   UNL     1     142.290 133.368 148.464  1.00  0.00     0.008 C 
ATOM     21  C   UNL     1     141.794 133.210 149.916  1.00  0.00     0.007 C 
ATOM     22  C   UNL     1     141.253 131.249 147.474  1.00  0.00     0.012 C 
ATOM     23  C   UNL     1     143.102 132.492 145.526  1.00  0.00     0.012 C 
ATOM     24  C   UNL     1     143.017 136.630 141.953  1.00  0.00     0.014 C 
ATOM     25  C   UNL     1     143.132 134.426 140.842  1.00  0.00     0.014 C 
ATOM     26  C   UNL     1     141.638 132.068 142.582  1.00  0.00     0.012 C 
ATOM     27  C   UNL     1     140.530 135.402 150.199  1.00  0.00     0.011 C 
ENDROOT
BRANCH   1  28
ATOM     28  C   UNL     1     137.512 131.564 149.225  1.00  0.00    -0.077 C 
ATOM     29  C   UNL     1     137.383 130.287 148.433  1.00  0.00     0.039 C 
ATOM     30  C   UNL     1     136.393 132.256 149.509  1.00  0.00     0.008 C 
ENDBRANCH   1  28
BRANCH  13  31
ATOM     31  O   UNL     1     141.041 136.142 139.884  1.00  0.00    -0.393 OA
ATOM     32  H   UNL     1     140.882 135.413 139.229  1.00  0.00     0.210 HD
ENDBRANCH  13  31
TORSDOF 2
ENDMDL
MODEL 5
REMARK VINA RESULT:    -6.397      2.633      8.097
REMARK INTER + INTRA:          -7.514
REMARK INTER:                  -6.955
REMARK INTRA:                  -0.559
REMARK UNBOUND:                -0.557
REMARK SMILES C=C(C)[C@@H]1CC[C@@]2(C)CC[C@@]3(C)[C@@H](CC[C@H]4[C@@]5(C)CC[C@H](O)C(C)(C)[C@H]5CC[C@]43C)[C@@H]12
REMARK SMILES IDX 4 1 5 2 6 3 7 4 31 5 13 6 14 7 15 8 16 9 17 10 19 11 20 12
REMARK SMILES IDX 21 13 23 14 26 15 27 16 28 17 29 18 11 19 10 20 9 21 12 22
REMARK SMILES IDX 30 23 24 24 25 25 18 26 8 27 2 28 3 29 1 30 22 31
REMARK H PARENT 22 32
REMARK Flexibility Score: inf
ROOT
ATOM      1  C   UNL     1     139.765 131.450 148.371  1.00  0.00     0.018 C 
ATOM      2  C   UNL     1     138.705 130.825 149.286  1.00  0.00     0.009 C 
ATOM      3  C   UNL     1     138.764 131.582 150.615  1.00  0.00     0.008 C 
ATOM      4  C   UNL     1     139.907 132.616 150.507  1.00  0.00    -0.029 C 
ATOM      5  C   UNL     1     140.063 132.832 148.989  1.00  0.00     0.006 C 
ATOM      6  C   UNL     1     141.390 133.566 148.612  1.00  0.00    -0.000 C 
ATOM      7  C   UNL     1     141.520 133.856 147.116  1.00  0.00     0.005 C 
ATOM      8  C   UNL     1     142.619 134.882 146.872  1.00  0.00     0.005 C 
ATOM      9  C   UNL     1     144.023 134.475 147.436  1.00  0.00     0.002 C 
ATOM     10  C   UNL     1     145.206 135.535 147.068  1.00  0.00    -0.026 C 
ATOM     11  C   UNL     1     144.783 136.446 145.856  1.00  0.00     0.010 C 
ATOM     12  C   UNL     1     145.718 137.613 145.541  1.00  0.00     0.033 C 
ATOM     13  C   UNL     1     145.857 138.530 146.756  1.00  0.00     0.120 C 
ATOM     14  C   UNL     1     146.430 137.779 147.988  1.00  0.00    -0.006 C 
ATOM     15  C   UNL     1     145.584 136.460 148.312  1.00  0.00     0.003 C 
ATOM     16  C   UNL     1     144.316 136.708 149.169  1.00  0.00     0.005 C 
ATOM     17  C   UNL     1     143.743 135.418 149.802  1.00  0.00     0.008 C 
ATOM     18  C   UNL     1     143.934 134.089 148.976  1.00  0.00    -0.024 C 
ATOM     19  C   UNL     1     142.731 133.020 149.235  1.00  0.00    -0.024 C 
ATOM     20  C   UNL     1     142.478 132.820 150.775  1.00  0.00     0.008 C 
ATOM     21  C   UNL     1     141.204 132.023 151.119  1.00  0.00     0.007 C 
ATOM     22  C   UNL     1     143.107 131.620 148.605  1.00  0.00     0.012 C 
ATOM     23  C   UNL     1     145.292 133.432 149.444  1.00  0.00     0.012 C 
ATOM     24  C   UNL     1     146.428 138.773 149.186  1.00  0.00     0.014 C 
ATOM     25  C   UNL     1     147.930 137.420 147.767  1.00  0.00     0.014 C 
ATOM     26  C   UNL     1     146.461 134.711 146.618  1.00  0.00     0.012 C 
ATOM     27  C   UNL     1     139.509 133.918 151.244  1.00  0.00     0.011 C 
ENDROOT
BRANCH   1  28
ATOM     28  C   UNL     1     139.330 131.474 146.910  1.00  0.00    -0.077 C 
ATOM     29  C   UNL     1     140.101 130.681 145.883  1.00  0.00     0.039 C 
ATOM     30  C   UNL     1     138.243 132.157 146.506  1.00  0.00     0.008 C 
ENDBRANCH   1  28
BRANCH  13  31
ATOM     31  O   UNL     1     146.678 139.625 146.423  1.00  0.00    -0.393 OA
ATOM     32  H   UNL     1     146.922 140.076 147.273  1.00  0.00     0.210 HD
ENDBRANCH  13  31
TORSDOF 2
ENDMDL
MODEL 6
REMARK VINA RESULT:    -6.394      5.493      8.700
REMARK INTER + INTRA:          -7.512
REMARK INTER:                  -6.987
REMARK INTRA:                  -0.525
REMARK UNBOUND:                -0.557
REMARK SMILES C=C(C)[C@@H]1CC[C@@]2(C)CC[C@@]3(C)[C@@H](CC[C@H]4[C@@]5(C)CC[C@H](O)C(C)(C)[C@H]5CC[C@]43C)[C@@H]12
REMARK SMILES IDX 4 1 5 2 6 3 7 4 31 5 13 6 14 7 15 8 16 9 17 10 19 11 20 12
REMARK SMILES IDX 21 13 23 14 26 15 27 16 28 17 29 18 11 19 10 20 9 21 12 22
REMARK SMILES IDX 30 23 24 24 25 25 18 26 8 27 2 28 3 29 1 30 22 31
REMARK H PARENT 22 32
REMARK Flexibility Score: inf
ROOT
ATOM      1  C   UNL     1     140.084 132.671 150.004  1.00  0.00     0.018 C 
ATOM      2  C   UNL     1     139.101 132.704 151.181  1.00  0.00     0.009 C 
ATOM      3  C   UNL     1     137.732 132.301 150.627  1.00  0.00     0.008 C 
ATOM      4  C   UNL     1     137.894 132.092 149.105  1.00  0.00    -0.029 C 
ATOM      5  C   UNL     1     139.397 131.798 148.933  1.00  0.00     0.006 C 
ATOM      6  C   UNL     1     139.871 131.901 147.448  1.00  0.00    -0.000 C 
ATOM      7  C   UNL     1     141.344 131.535 147.254  1.00  0.00     0.005 C 
ATOM      8  C   UNL     1     141.635 131.289 145.779  1.00  0.00     0.005 C 
ATOM      9  C   UNL     1     141.280 132.490 144.838  1.00  0.00     0.002 C 
ATOM     10  C   UNL     1     141.702 132.246 143.282  1.00  0.00    -0.026 C 
ATOM     11  C   UNL     1     142.776 131.102 143.167  1.00  0.00     0.010 C 
ATOM     12  C   UNL     1     143.107 130.638 141.748  1.00  0.00     0.033 C 
ATOM     13  C   UNL     1     141.848 130.135 141.043  1.00  0.00     0.120 C 
ATOM     14  C   UNL     1     140.758 131.237 140.942  1.00  0.00    -0.006 C 
ATOM     15  C   UNL     1     140.441 131.875 142.375  1.00  0.00     0.003 C 
ATOM     16  C   UNL     1     139.421 131.074 143.222  1.00  0.00     0.005 C 
ATOM     17  C   UNL     1     138.829 131.885 144.399  1.00  0.00     0.008 C 
ATOM     18  C   UNL     1     139.777 132.962 145.051  1.00  0.00    -0.024 C 
ATOM     19  C   UNL     1     139.461 133.187 146.635  1.00  0.00    -0.024 C 
ATOM     20  C   UNL     1     137.923 133.415 146.875  1.00  0.00     0.008 C 
ATOM     21  C   UNL     1     137.493 133.391 148.355  1.00  0.00     0.007 C 
ATOM     22  C   UNL     1     140.242 134.454 147.167  1.00  0.00     0.012 C 
ATOM     23  C   UNL     1     139.531 134.328 144.297  1.00  0.00     0.012 C 
ATOM     24  C   UNL     1     139.492 130.589 140.309  1.00  0.00     0.014 C 
ATOM     25  C   UNL     1     141.187 132.347 139.937  1.00  0.00     0.014 C 
ATOM     26  C   UNL     1     142.365 133.566 142.756  1.00  0.00     0.012 C 
ATOM     27  C   UNL     1     137.012 130.907 148.641  1.00  0.00     0.011 C 
ENDROOT
BRANCH   1  28
ATOM     28  C   UNL     1     141.475 132.208 150.423  1.00  0.00    -0.077 C 
ATOM     29  C   UNL     1     141.664 130.832 151.012  1.00  0.00     0.039 C 
ATOM     30  C   UNL     1     142.561 132.982 150.245  1.00  0.00     0.008 C 
ENDBRANCH   1  28
BRANCH  13  31
ATOM     31  O   UNL     1     142.188 129.663 139.761  1.00  0.00    -0.393 OA
ATOM     32  H   UNL     1     141.969 128.695 139.739  1.00  0.00     0.210 HD
ENDBRANCH  13  31
TORSDOF 2
ENDMDL
MODEL 7
REMARK VINA RESULT:    -6.351      3.000      7.800
REMARK INTER + INTRA:          -7.465
REMARK INTER:                  -6.904
REMARK INTRA:                  -0.560
REMARK UNBOUND:                -0.557
REMARK SMILES C=C(C)[C@@H]1CC[C@@]2(C)CC[C@@]3(C)[C@@H](CC[C@H]4[C@@]5(C)CC[C@H](O)C(C)(C)[C@H]5CC[C@]43C)[C@@H]12
REMARK SMILES IDX 4 1 5 2 6 3 7 4 31 5 13 6 14 7 15 8 16 9 17 10 19 11 20 12
REMARK SMILES IDX 21 13 23 14 26 15 27 16 28 17 29 18 11 19 10 20 9 21 12 22
REMARK SMILES IDX 30 23 24 24 25 25 18 26 8 27 2 28 3 29 1 30 22 31
REMARK H PARENT 22 32
REMARK Flexibility Score: inf
ROOT
ATOM      1  C   UNL     1     141.717 131.542 147.457  1.00  0.00     0.018 C 
ATOM      2  C   UNL     1     140.202 131.309 147.412  1.00  0.00     0.009 C 
ATOM      3  C   UNL     1     139.554 132.661 147.105  1.00  0.00     0.008 C 
ATOM      4  C   UNL     1     140.686 133.709 147.033  1.00  0.00    -0.029 C 
ATOM      5  C   UNL     1     141.939 132.874 146.709  1.00  0.00     0.006 C 
ATOM      6  C   UNL     1     143.271 133.660 146.934  1.00  0.00    -0.000 C 
ATOM      7  C   UNL     1     144.519 132.867 146.542  1.00  0.00     0.005 C 
ATOM      8  C   UNL     1     145.718 133.798 146.424  1.00  0.00     0.005 C 
ATOM      9  C   UNL     1     146.027 134.626 147.718  1.00  0.00     0.002 C 
ATOM     10  C   UNL     1     147.378 135.532 147.606  1.00  0.00    -0.026 C 
ATOM     11  C   UNL     1     148.303 135.013 146.444  1.00  0.00     0.010 C 
ATOM     12  C   UNL     1     149.505 135.897 146.103  1.00  0.00     0.033 C 
ATOM     13  C   UNL     1     149.042 137.298 145.708  1.00  0.00     0.120 C 
ATOM     14  C   UNL     1     148.248 137.992 146.848  1.00  0.00    -0.006 C 
ATOM     15  C   UNL     1     147.042 137.073 147.361  1.00  0.00     0.003 C 
ATOM     16  C   UNL     1     145.748 137.187 146.516  1.00  0.00     0.005 C 
ATOM     17  C   UNL     1     144.497 136.625 147.234  1.00  0.00     0.008 C 
ATOM     18  C   UNL     1     144.739 135.416 148.215  1.00  0.00    -0.024 C 
ATOM     19  C   UNL     1     143.450 134.422 148.302  1.00  0.00    -0.024 C 
ATOM     20  C   UNL     1     142.128 135.236 148.556  1.00  0.00     0.008 C 
ATOM     21  C   UNL     1     140.830 134.416 148.408  1.00  0.00     0.007 C 
ATOM     22  C   UNL     1     143.638 133.394 149.489  1.00  0.00     0.012 C 
ATOM     23  C   UNL     1     144.999 136.017 149.652  1.00  0.00     0.012 C 
ATOM     24  C   UNL     1     147.739 139.358 146.302  1.00  0.00     0.014 C 
ATOM     25  C   UNL     1     149.191 138.359 148.032  1.00  0.00     0.014 C 
ATOM     26  C   UNL     1     148.173 135.368 148.947  1.00  0.00     0.012 C 
ATOM     27  C   UNL     1     140.374 134.744 145.924  1.00  0.00     0.011 C 
ENDROOT
BRANCH   1  28
ATOM     28  C   UNL     1     142.504 130.355 146.914  1.00  0.00    -0.077 C 
ATOM     29  C   UNL     1     143.415 129.574 147.828  1.00  0.00     0.039 C 
ATOM     30  C   UNL     1     142.381 129.950 145.636  1.00  0.00     0.008 C 
ENDBRANCH   1  28
BRANCH  13  31
ATOM     31  O   UNL     1     150.160 138.074 145.346  1.00  0.00    -0.393 OA
ATOM     32  H   UNL     1     149.823 138.845 144.819  1.00  0.00     0.210 HD
ENDBRANCH  13  31
TORSDOF 2
ENDMDL
MODEL 8
REMARK VINA RESULT:    -6.214      5.431      9.023
REMARK INTER + INTRA:          -7.316
REMARK INTER:                  -6.759
REMARK INTRA:                  -0.557
REMARK UNBOUND:                -0.557
REMARK SMILES C=C(C)[C@@H]1CC[C@@]2(C)CC[C@@]3(C)[C@@H](CC[C@H]4[C@@]5(C)CC[C@H](O)C(C)(C)[C@H]5CC[C@]43C)[C@@H]12
REMARK SMILES IDX 4 1 5 2 6 3 7 4 31 5 13 6 14 7 15 8 16 9 17 10 19 11 20 12
REMARK SMILES IDX 21 13 23 14 26 15 27 16 28 17 29 18 11 19 10 20 9 21 12 22
REMARK SMILES IDX 30 23 24 24 25 25 18 26 8 27 2 28 3 29 1 30 22 31
REMARK H PARENT 22 32
REMARK Flexibility Score: inf
ROOT
ATOM      1  C   UNL     1     138.946 132.254 149.678  1.00  0.00     0.018 C 
ATOM      2  C   UNL     1     139.487 132.557 151.080  1.00  0.00     0.009 C 
ATOM      3  C   UNL     1     140.754 133.396 150.895  1.00  0.00     0.008 C 
ATOM      4  C   UNL     1     140.996 133.535 149.376  1.00  0.00    -0.029 C 
ATOM      5  C   UNL     1     139.603 133.305 148.760  1.00  0.00     0.006 C 
ATOM      6  C   UNL     1     139.654 133.046 147.219  1.00  0.00    -0.000 C 
ATOM      7  C   UNL     1     138.271 132.894 146.583  1.00  0.00     0.005 C 
ATOM      8  C   UNL     1     138.372 133.025 145.069  1.00  0.00     0.005 C 
ATOM      9  C   UNL     1     139.358 132.011 144.394  1.00  0.00     0.002 C 
ATOM     10  C   UNL     1     139.366 132.096 142.766  1.00  0.00    -0.026 C 
ATOM     11  C   UNL     1     138.068 132.811 142.237  1.00  0.00     0.010 C 
ATOM     12  C   UNL     1     138.047 133.134 140.742  1.00  0.00     0.033 C 
ATOM     13  C   UNL     1     139.228 134.030 140.371  1.00  0.00     0.120 C 
ATOM     14  C   UNL     1     140.590 133.359 140.695  1.00  0.00    -0.006 C 
ATOM     15  C   UNL     1     140.651 132.868 142.217  1.00  0.00     0.003 C 
ATOM     16  C   UNL     1     141.058 133.968 143.229  1.00  0.00     0.005 C 
ATOM     17  C   UNL     1     141.498 133.405 144.601  1.00  0.00     0.008 C 
ATOM     18  C   UNL     1     140.797 132.074 145.068  1.00  0.00    -0.024 C 
ATOM     19  C   UNL     1     140.679 131.972 146.691  1.00  0.00    -0.024 C 
ATOM     20  C   UNL     1     142.062 132.275 147.376  1.00  0.00     0.008 C 
ATOM     21  C   UNL     1     141.998 132.446 148.907  1.00  0.00     0.007 C 
ATOM     22  C   UNL     1     140.223 130.517 147.110  1.00  0.00     0.012 C 
ATOM     23  C   UNL     1     141.681 130.869 144.558  1.00  0.00     0.012 C 
ATOM     24  C   UNL     1     141.710 134.394 140.379  1.00  0.00     0.014 C 
ATOM     25  C   UNL     1     140.861 132.167 139.729  1.00  0.00     0.014 C 
ATOM     26  C   UNL     1     139.351 130.629 142.213  1.00  0.00     0.012 C 
ATOM     27  C   UNL     1     141.548 134.947 149.060  1.00  0.00     0.011 C 
ENDROOT
BRANCH   1  28
ATOM     28  C   UNL     1     137.422 132.223 149.639  1.00  0.00    -0.077 C 
ATOM     29  C   UNL     1     136.705 130.949 149.264  1.00  0.00     0.039 C 
ATOM     30  C   UNL     1     136.683 133.298 149.971  1.00  0.00     0.008 C 
ENDBRANCH   1  28
BRANCH  13  31
ATOM     31  O   UNL     1     139.154 134.357 139.004  1.00  0.00    -0.393 OA
ATOM     32  H   UNL     1     139.173 135.348 138.940  1.00  0.00     0.210 HD
ENDBRANCH  13  31
TORSDOF 2
ENDMDL
MODEL 9
REMARK VINA RESULT:    -6.151      6.067      8.425
REMARK INTER + INTRA:          -7.247
REMARK INTER:                  -6.695
REMARK INTRA:                  -0.552
REMARK UNBOUND:                -0.557
REMARK SMILES C=C(C)[C@@H]1CC[C@@]2(C)CC[C@@]3(C)[C@@H](CC[C@H]4[C@@]5(C)CC[C@H](O)C(C)(C)[C@H]5CC[C@]43C)[C@@H]12
REMARK SMILES IDX 4 1 5 2 6 3 7 4 31 5 13 6 14 7 15 8 16 9 17 10 19 11 20 12
REMARK SMILES IDX 21 13 23 14 26 15 27 16 28 17 29 18 11 19 10 20 9 21 12 22
REMARK SMILES IDX 30 23 24 24 25 25 18 26 8 27 2 28 3 29 1 30 22 31
REMARK H PARENT 22 32
REMARK Flexibility Score: inf
ROOT
ATOM      1  C   UNL     1     141.289 131.565 141.388  1.00  0.00     0.018 C 
ATOM      2  C   UNL     1     140.886 131.669 139.912  1.00  0.00     0.009 C 
ATOM      3  C   UNL     1     139.421 132.114 139.882  1.00  0.00     0.008 C 
ATOM      4  C   UNL     1     138.939 132.210 141.347  1.00  0.00    -0.029 C 
ATOM      5  C   UNL     1     140.240 132.402 142.149  1.00  0.00     0.006 C 
ATOM      6  C   UNL     1     140.049 132.172 143.683  1.00  0.00    -0.000 C 
ATOM      7  C   UNL     1     141.316 132.437 144.499  1.00  0.00     0.005 C 
ATOM      8  C   UNL     1     140.971 132.565 145.977  1.00  0.00     0.005 C 
ATOM      9  C   UNL     1     140.226 131.327 146.581  1.00  0.00     0.002 C 
ATOM     10  C   UNL     1     139.966 131.440 148.186  1.00  0.00    -0.026 C 
ATOM     11  C   UNL     1     140.923 132.509 148.833  1.00  0.00     0.010 C 
ATOM     12  C   UNL     1     140.644 132.856 150.296  1.00  0.00     0.033 C 
ATOM     13  C   UNL     1     139.219 133.383 150.457  1.00  0.00     0.120 C 
ATOM     14  C   UNL     1     138.159 132.343 150.003  1.00  0.00    -0.006 C 
ATOM     15  C   UNL     1     138.452 131.823 148.519  1.00  0.00     0.003 C 
ATOM     16  C   UNL     1     137.899 132.738 147.398  1.00  0.00     0.005 C 
ATOM     17  C   UNL     1     137.831 132.044 146.017  1.00  0.00     0.008 C 
ATOM     18  C   UNL     1     138.936 130.959 145.725  1.00  0.00    -0.024 C 
ATOM     19  C   UNL     1     139.304 130.861 144.140  1.00  0.00    -0.024 C 
ATOM     20  C   UNL     1     138.001 130.740 143.267  1.00  0.00     0.008 C 
ATOM     21  C   UNL     1     138.229 130.890 141.749  1.00  0.00     0.007 C 
ATOM     22  C   UNL     1     140.204 129.589 143.872  1.00  0.00     0.012 C 
ATOM     23  C   UNL     1     138.364 129.563 146.189  1.00  0.00     0.012 C 
ATOM     24  C   UNL     1     136.761 133.021 150.109  1.00  0.00     0.014 C 
ATOM     25  C   UNL     1     138.101 131.145 150.997  1.00  0.00     0.014 C 
ATOM     26  C   UNL     1     140.315 130.051 148.824  1.00  0.00     0.012 C 
ATOM     27  C   UNL     1     137.975 133.411 141.504  1.00  0.00     0.011 C 
ENDROOT
BRANCH   1  28
ATOM     28  C   UNL     1     142.739 131.972 141.624  1.00  0.00    -0.077 C 
ATOM     29  C   UNL     1     143.141 133.422 141.510  1.00  0.00     0.039 C 
ATOM     30  C   UNL     1     143.678 131.074 141.973  1.00  0.00     0.008 C 
ENDBRANCH   1  28
BRANCH  13  31
ATOM     31  O   UNL     1     139.006 133.747 151.801  1.00  0.00    -0.393 OA
ATOM     32  H   UNL     1     139.281 134.697 151.893  1.00  0.00     0.210 HD
ENDBRANCH  13  31
TORSDOF 2
ENDMDL
