MODEL 1
REMARK VINA RESULT:    -3.062      0.000      0.000
REMARK INTER + INTRA:          -3.649
REMARK INTER:                  -3.509
REMARK INTRA:                  -0.140
REMARK UNBOUND:                -0.140
REMARK SMILES O=C([O-])C=Cc1ccc(O)cc1
REMARK SMILES IDX 6 1 7 2 12 3 8 4 11 5 9 6 5 7 4 8 2 9 1 10 3 11 10 12
REMARK H PARENT 10 13
REMARK Flexibility Score: inf
ROOT
ATOM      1  C   UNL     1       3.091   1.262 -18.534  1.00  0.00    -0.025 A 
ATOM      2  C   UNL     1       3.524   0.377 -17.525  1.00  0.00     0.012 A 
ATOM      3  C   UNL     1       2.889   2.615 -18.209  1.00  0.00     0.012 A 
ATOM      4  C   UNL     1       3.723   0.837 -16.220  1.00  0.00     0.047 A 
ATOM      5  C   UNL     1       3.089   3.070 -16.902  1.00  0.00     0.047 A 
ATOM      6  C   UNL     1       3.505   2.181 -15.903  1.00  0.00     0.115 A 
ENDROOT
BRANCH   1   7
ATOM      7  C   UNL     1       2.876   0.830 -19.937  1.00  0.00     0.010 C 
ATOM      8  C   UNL     1       3.231  -0.373 -20.409  1.00  0.00     0.025 C 
BRANCH   8   9
ATOM      9  C   UNL     1       2.991  -0.773 -21.807  1.00  0.00     0.064 C 
ATOM     10  O   UNL     1       2.875  -1.986 -22.128  1.00  0.00    -0.545 OA
ATOM     11  O   UNL     1       2.887   0.205 -22.787  1.00  0.00    -0.545 OA
ENDBRANCH   8   9
ENDBRANCH   1   7
BRANCH   6  12
ATOM     12  O   UNL     1       3.706   2.623 -14.597  1.00  0.00    -0.508 OA
ATOM     13  H   UNL     1       4.623   2.903 -14.269  1.00  0.00     0.293 HD
ENDBRANCH   6  12
TORSDOF 3
ENDMDL
MODEL 2
REMARK VINA RESULT:    -2.869      1.241      6.038
REMARK INTER + INTRA:          -3.429
REMARK INTER:                  -3.289
REMARK INTRA:                  -0.139
REMARK UNBOUND:                -0.140
REMARK SMILES O=C([O-])C=Cc1ccc(O)cc1
REMARK SMILES IDX 6 1 7 2 12 3 8 4 11 5 9 6 5 7 4 8 2 9 1 10 3 11 10 12
REMARK H PARENT 10 13
REMARK Flexibility Score: inf
ROOT
ATOM      1  C   UNL     1       3.200   1.766 -17.865  1.00  0.00    -0.025 A 
ATOM      2  C   UNL     1       2.983   2.489 -19.057  1.00  0.00     0.012 A 
ATOM      3  C   UNL     1       3.329   0.368 -17.934  1.00  0.00     0.012 A 
ATOM      4  C   UNL     1       2.876   1.819 -20.279  1.00  0.00     0.047 A 
ATOM      5  C   UNL     1       3.220  -0.297 -19.159  1.00  0.00     0.047 A 
ATOM      6  C   UNL     1       2.990   0.428 -20.334  1.00  0.00     0.115 A 
ENDROOT
BRANCH   1   7
ATOM      7  C   UNL     1       3.334   2.427 -16.543  1.00  0.00     0.010 C 
ATOM      8  C   UNL     1       4.494   2.544 -15.882  1.00  0.00     0.025 C 
BRANCH   8   9
ATOM      9  C   UNL     1       4.591   3.218 -14.576  1.00  0.00     0.064 C 
ATOM     10  O   UNL     1       5.710   3.513 -14.076  1.00  0.00    -0.545 OA
ATOM     11  O   UNL     1       3.430   3.537 -13.885  1.00  0.00    -0.545 OA
ENDBRANCH   8   9
ENDBRANCH   1   7
BRANCH   6  12
ATOM     12  O   UNL     1       2.879  -0.224 -21.561  1.00  0.00    -0.508 OA
ATOM     13  H   UNL     1       3.630  -0.798 -21.925  1.00  0.00     0.293 HD
ENDBRANCH   6  12
TORSDOF 3
ENDMDL
MODEL 3
REMARK VINA RESULT:    -2.188      0.989      1.238
REMARK INTER + INTRA:          -2.648
REMARK INTER:                  -2.495
REMARK INTRA:                  -0.153
REMARK UNBOUND:                -0.140
REMARK SMILES O=C([O-])C=Cc1ccc(O)cc1
REMARK SMILES IDX 6 1 7 2 12 3 8 4 11 5 9 6 5 7 4 8 2 9 1 10 3 11 10 12
REMARK H PARENT 10 13
REMARK Flexibility Score: inf
ROOT
ATOM      1  C   UNL     1       3.781   0.891 -17.386  1.00  0.00    -0.025 A 
ATOM      2  C   UNL     1       4.690   0.619 -16.343  1.00  0.00     0.012 A 
ATOM      3  C   UNL     1       2.969   2.035 -17.297  1.00  0.00     0.012 A 
ATOM      4  C   UNL     1       4.761   1.462 -15.230  1.00  0.00     0.047 A 
ATOM      5  C   UNL     1       3.043   2.875 -16.181  1.00  0.00     0.047 A 
ATOM      6  C   UNL     1       3.939   2.588 -15.144  1.00  0.00     0.115 A 
ENDROOT
BRANCH   1   7
ATOM      7  C   UNL     1       3.673   0.036 -18.595  1.00  0.00     0.010 C 
ATOM      8  C   UNL     1       2.994   0.385 -19.696  1.00  0.00     0.025 C 
BRANCH   8   9
ATOM      9  C   UNL     1       2.919  -0.485 -20.882  1.00  0.00     0.064 C 
ATOM     10  O   UNL     1       2.875  -1.740 -20.769  1.00  0.00    -0.545 OA
ATOM     11  O   UNL     1       2.892   0.087 -22.147  1.00  0.00    -0.545 OA
ENDBRANCH   8   9
ENDBRANCH   1   7
BRANCH   6  12
ATOM     12  O   UNL     1       4.021   3.418 -14.027  1.00  0.00    -0.508 OA
ATOM     13  H   UNL     1       3.531   4.303 -13.989  1.00  0.00     0.293 HD
ENDBRANCH   6  12
TORSDOF 3
ENDMDL
MODEL 4
REMARK VINA RESULT:    -2.117      1.356      5.675
REMARK INTER + INTRA:          -2.566
REMARK INTER:                  -2.427
REMARK INTRA:                  -0.139
REMARK UNBOUND:                -0.140
REMARK SMILES O=C([O-])C=Cc1ccc(O)cc1
REMARK SMILES IDX 6 1 7 2 12 3 8 4 11 5 9 6 5 7 4 8 2 9 1 10 3 11 10 12
REMARK H PARENT 10 13
REMARK Flexibility Score: inf
ROOT
ATOM      1  C   UNL     1       2.953   0.378 -19.794  1.00  0.00    -0.025 A 
ATOM      2  C   UNL     1       2.992  -0.857 -20.474  1.00  0.00     0.012 A 
ATOM      3  C   UNL     1       2.881   1.564 -20.546  1.00  0.00     0.012 A 
ATOM      4  C   UNL     1       2.985  -0.895 -21.872  1.00  0.00     0.047 A 
ATOM      5  C   UNL     1       2.875   1.521 -21.944  1.00  0.00     0.047 A 
ATOM      6  C   UNL     1       2.929   0.291 -22.610  1.00  0.00     0.115 A 
ENDROOT
BRANCH   1   7
ATOM      7  C   UNL     1       2.947   0.475 -18.313  1.00  0.00     0.010 C 
ATOM      8  C   UNL     1       3.852   1.167 -17.608  1.00  0.00     0.025 C 
BRANCH   8   9
ATOM      9  C   UNL     1       3.807   1.250 -16.138  1.00  0.00     0.064 C 
ATOM     10  O   UNL     1       4.284   0.332 -15.418  1.00  0.00    -0.545 OA
ATOM     11  O   UNL     1       3.232   2.361 -15.535  1.00  0.00    -0.545 OA
ENDBRANCH   8   9
ENDBRANCH   1   7
BRANCH   6  12
ATOM     12  O   UNL     1       2.924   0.236 -24.003  1.00  0.00    -0.508 OA
ATOM     13  H   UNL     1       3.185   1.037 -24.564  1.00  0.00     0.293 HD
ENDBRANCH   6  12
TORSDOF 3
ENDMDL
MODEL 5
REMARK VINA RESULT:    -1.689      1.601      5.846
REMARK INTER + INTRA:          -2.076
REMARK INTER:                  -1.930
REMARK INTRA:                  -0.146
REMARK UNBOUND:                -0.140
REMARK SMILES O=C([O-])C=Cc1ccc(O)cc1
REMARK SMILES IDX 6 1 7 2 12 3 8 4 11 5 9 6 5 7 4 8 2 9 1 10 3 11 10 12
REMARK H PARENT 10 13
REMARK Flexibility Score: inf
ROOT
ATOM      1  C   UNL     1       3.056   0.896 -20.110  1.00  0.00    -0.025 A 
ATOM      2  C   UNL     1       3.113   1.025 -21.514  1.00  0.00     0.012 A 
ATOM      3  C   UNL     1       2.970  -0.390 -19.551  1.00  0.00     0.012 A 
ATOM      4  C   UNL     1       3.060  -0.108 -22.330  1.00  0.00     0.047 A 
ATOM      5  C   UNL     1       2.915  -1.521 -20.372  1.00  0.00     0.047 A 
ATOM      6  C   UNL     1       2.958  -1.382 -21.764  1.00  0.00     0.115 A 
ENDROOT
BRANCH   1   7
ATOM      7  C   UNL     1       3.122   2.064 -19.197  1.00  0.00     0.010 C 
ATOM      8  C   UNL     1       3.913   2.123 -18.117  1.00  0.00     0.025 C 
BRANCH   8   9
ATOM      9  C   UNL     1       3.961   3.305 -17.240  1.00  0.00     0.064 C 
ATOM     10  O   UNL     1       2.992   4.110 -17.178  1.00  0.00    -0.545 OA
ATOM     11  O   UNL     1       5.090   3.536 -16.466  1.00  0.00    -0.545 OA
ENDBRANCH   8   9
ENDBRANCH   1   7
BRANCH   6  12
ATOM     12  O   UNL     1       2.904  -2.502 -22.592  1.00  0.00    -0.508 OA
ATOM     13  H   UNL     1       2.157  -2.626 -23.265  1.00  0.00     0.293 HD
ENDBRANCH   6  12
TORSDOF 3
ENDMDL
MODEL 6
REMARK VINA RESULT:    -1.662      1.002      1.966
REMARK INTER + INTRA:          -2.044
REMARK INTER:                  -1.911
REMARK INTRA:                  -0.133
REMARK UNBOUND:                -0.140
REMARK SMILES O=C([O-])C=Cc1ccc(O)cc1
REMARK SMILES IDX 6 1 7 2 12 3 8 4 11 5 9 6 5 7 4 8 2 9 1 10 3 11 10 12
REMARK H PARENT 10 13
REMARK Flexibility Score: inf
ROOT
ATOM      1  C   UNL     1       3.223   0.320 -18.647  1.00  0.00    -0.025 A 
ATOM      2  C   UNL     1       2.974   1.696 -18.837  1.00  0.00     0.012 A 
ATOM      3  C   UNL     1       3.579  -0.133 -17.366  1.00  0.00     0.012 A 
ATOM      4  C   UNL     1       3.104   2.591 -17.772  1.00  0.00     0.047 A 
ATOM      5  C   UNL     1       3.709   0.767 -16.303  1.00  0.00     0.047 A 
ATOM      6  C   UNL     1       3.474   2.132 -16.505  1.00  0.00     0.115 A 
ENDROOT
BRANCH   1   7
ATOM      7  C   UNL     1       3.087  -0.675 -19.740  1.00  0.00     0.010 C 
ATOM      8  C   UNL     1       4.024  -0.887 -20.675  1.00  0.00     0.025 C 
BRANCH   8   9
ATOM      9  C   UNL     1       3.860  -1.893 -21.739  1.00  0.00     0.064 C 
ATOM     10  O   UNL     1       2.896  -1.834 -22.549  1.00  0.00    -0.545 OA
ATOM     11  O   UNL     1       4.784  -2.922 -21.853  1.00  0.00    -0.545 OA
ENDBRANCH   8   9
ENDBRANCH   1   7
BRANCH   6  12
ATOM     12  O   UNL     1       3.601   3.038 -15.454  1.00  0.00    -0.508 OA
ATOM     13  H   UNL     1       3.605   2.731 -14.489  1.00  0.00     0.293 HD
ENDBRANCH   6  12
TORSDOF 3
ENDMDL
MODEL 7
REMARK VINA RESULT:    -0.878      1.141      2.047
REMARK INTER + INTRA:          -1.146
REMARK INTER:                  -1.009
REMARK INTRA:                  -0.137
REMARK UNBOUND:                -0.140
REMARK SMILES O=C([O-])C=Cc1ccc(O)cc1
REMARK SMILES IDX 6 1 7 2 12 3 8 4 11 5 9 6 5 7 4 8 2 9 1 10 3 11 10 12
REMARK H PARENT 10 13
REMARK Flexibility Score: inf
ROOT
ATOM      1  C   UNL     1       3.614   1.750 -18.386  1.00  0.00    -0.025 A 
ATOM      2  C   UNL     1       3.556   3.157 -18.312  1.00  0.00     0.012 A 
ATOM      3  C   UNL     1       4.021   1.028 -17.251  1.00  0.00     0.012 A 
ATOM      4  C   UNL     1       3.920   3.818 -17.136  1.00  0.00     0.047 A 
ATOM      5  C   UNL     1       4.385   1.694 -16.077  1.00  0.00     0.047 A 
ATOM      6  C   UNL     1       4.337   3.092 -16.018  1.00  0.00     0.115 A 
ENDROOT
BRANCH   1   7
ATOM      7  C   UNL     1       3.228   0.997 -19.606  1.00  0.00     0.010 C 
ATOM      8  C   UNL     1       3.440   1.439 -20.853  1.00  0.00     0.025 C 
BRANCH   8   9
ATOM      9  C   UNL     1       3.053   0.658 -22.041  1.00  0.00     0.064 C 
ATOM     10  O   UNL     1       2.876   1.214 -23.158  1.00  0.00    -0.545 OA
ATOM     11  O   UNL     1       2.884  -0.716 -21.929  1.00  0.00    -0.545 OA
ENDBRANCH   8   9
ENDBRANCH   1   7
BRANCH   6  12
ATOM     12  O   UNL     1       4.699   3.767 -14.853  1.00  0.00    -0.508 OA
ATOM     13  H   UNL     1       4.194   4.588 -14.540  1.00  0.00     0.293 HD
ENDBRANCH   6  12
TORSDOF 3
ENDMDL
