MODEL 1
REMARK VINA RESULT:    -6.558      0.000      0.000
REMARK INTER + INTRA:         -11.448
REMARK INTER:                  -9.624
REMARK INTRA:                  -1.824
REMARK UNBOUND:                -1.824
REMARK SMILES O=c1c(O[C@@H]2O[C@H](CO)[C@@H](O)[C@H](O)[C@H]2O)c(-c2ccc(O)c(O)c2)oc2cc(O)cc(O)c12
REMARK SMILES IDX 4 1 3 2 16 3 25 4 2 5 26 6 1 7 33 8 27 9 31 10 28 11 30 12
REMARK SMILES IDX 17 13 18 14 19 15 20 16 24 17 22 18 21 19 23 21 32 23 29 25
REMARK SMILES IDX 5 27 14 28 6 29 12 30 7 31 10 32 15 33 13 35 8 37 9 38 11 40
REMARK H PARENT 21 20 23 22 32 24 29 26 15 34 13 36 9 39 11 41
REMARK Flexibility Score: inf
ROOT
ATOM      1  O   UNL     1     120.218 127.418 135.348  1.00  0.00    -0.454 OA
ENDROOT
BRANCH   1   2
ATOM      2  C   UNL     1     120.393 127.409 133.958  1.00  0.00     0.214 A 
ATOM      3  C   UNL     1     119.722 126.485 133.130  1.00  0.00     0.180 A 
ATOM      4  O   UNL     1     119.982 126.457 131.826  1.00  0.00    -0.452 OA
ATOM      5  C   UNL     1     121.260 128.337 133.371  1.00  0.00     0.239 A 
ATOM      6  C   UNL     1     120.824 127.296 131.232  1.00  0.00     0.146 A 
ATOM      7  O   UNL     1     121.829 129.194 134.100  1.00  0.00    -0.285 OA
ATOM      8  C   UNL     1     121.496 128.290 131.982  1.00  0.00     0.111 A 
ATOM      9  C   UNL     1     121.033 127.191 129.855  1.00  0.00     0.094 A 
ATOM     10  C   UNL     1     122.376 129.178 131.316  1.00  0.00     0.134 A 
ATOM     11  C   UNL     1     121.904 128.070 129.204  1.00  0.00     0.123 A 
ATOM     12  C   UNL     1     122.569 129.058 129.932  1.00  0.00     0.093 A 
BRANCH   3  13
ATOM     13  C   UNL     1     118.714 125.537 133.657  1.00  0.00     0.025 A 
ATOM     14  C   UNL     1     119.095 124.437 134.441  1.00  0.00     0.016 A 
ATOM     15  C   UNL     1     118.131 123.556 134.932  1.00  0.00     0.051 A 
ATOM     16  C   UNL     1     116.773 123.763 134.667  1.00  0.00     0.157 A 
ATOM     17  C   UNL     1     117.353 125.761 133.409  1.00  0.00     0.062 A 
ATOM     18  C   UNL     1     116.377 124.884 133.899  1.00  0.00     0.158 A 
BRANCH  16  19
ATOM     19  O   UNL     1     115.859 122.841 135.183  1.00  0.00    -0.504 OA
ATOM     20  H   UNL     1     114.972 122.623 134.752  1.00  0.00     0.293 HD
ENDBRANCH  16  19
BRANCH  18  21
ATOM     21  O   UNL     1     115.042 125.162 133.602  1.00  0.00    -0.504 OA
ATOM     22  H   UNL     1     114.282 125.045 134.257  1.00  0.00     0.293 HD
ENDBRANCH  18  21
ENDBRANCH   3  13
BRANCH  10  23
ATOM     23  O   UNL     1     123.057 130.174 132.017  1.00  0.00    -0.507 OA
ATOM     24  H   UNL     1     122.569 130.848 132.595  1.00  0.00     0.293 HD
ENDBRANCH  10  23
BRANCH  11  25
ATOM     25  O   UNL     1     122.115 127.971 127.829  1.00  0.00    -0.508 OA
ATOM     26  H   UNL     1     122.297 128.791 127.261  1.00  0.00     0.293 HD
ENDBRANCH  11  25
ENDBRANCH   1   2
BRANCH   1  27
ATOM     27  C   UNL     1     119.281 128.275 136.007  1.00  0.00     0.339 C 
ATOM     28  C   UNL     1     118.214 127.463 136.761  1.00  0.00     0.214 C 
ATOM     29  O   UNL     1     119.948 129.213 136.839  1.00  0.00    -0.332 OA
ATOM     30  C   UNL     1     118.811 126.781 138.002  1.00  0.00     0.180 C 
ATOM     31  C   UNL     1     120.577 128.640 137.980  1.00  0.00     0.179 C 
ATOM     32  C   UNL     1     119.609 127.791 138.847  1.00  0.00     0.177 C 
BRANCH  28  33
ATOM     33  O   UNL     1     117.167 128.321 137.135  1.00  0.00    -0.384 OA
ATOM     34  H   UNL     1     116.340 127.772 137.163  1.00  0.00     0.211 HD
ENDBRANCH  28  33
BRANCH  30  35
ATOM     35  O   UNL     1     119.626 125.708 137.608  1.00  0.00    -0.387 OA
ATOM     36  H   UNL     1     120.327 126.079 137.012  1.00  0.00     0.211 HD
ENDBRANCH  30  35
BRANCH  31  37
ATOM     37  C   UNL     1     121.906 127.936 137.630  1.00  0.00     0.191 C 
BRANCH  37  38
ATOM     38  O   UNL     1     122.712 128.772 136.840  1.00  0.00    -0.394 OA
ATOM     39  H   UNL     1     122.132 129.507 136.511  1.00  0.00     0.210 HD
ENDBRANCH  37  38
ENDBRANCH  31  37
BRANCH  32  40
ATOM     40  O   UNL     1     118.705 128.641 139.508  1.00  0.00    -0.387 OA
ATOM     41  H   UNL     1     117.855 128.138 139.612  1.00  0.00     0.211 HD
ENDBRANCH  32  40
ENDBRANCH   1  27
TORSDOF 12
ENDMDL
MODEL 2
REMARK VINA RESULT:    -6.340      1.570      5.130
REMARK INTER + INTRA:         -11.128
REMARK INTER:                  -9.541
REMARK INTRA:                  -1.587
REMARK UNBOUND:                -1.824
REMARK SMILES O=c1c(O[C@@H]2O[C@H](CO)[C@@H](O)[C@H](O)[C@H]2O)c(-c2ccc(O)c(O)c2)oc2cc(O)cc(O)c12
REMARK SMILES IDX 4 1 3 2 16 3 25 4 2 5 26 6 1 7 33 8 27 9 31 10 28 11 30 12
REMARK SMILES IDX 17 13 18 14 19 15 20 16 24 17 22 18 21 19 23 21 32 23 29 25
REMARK SMILES IDX 5 27 14 28 6 29 12 30 7 31 10 32 15 33 13 35 8 37 9 38 11 40
REMARK H PARENT 21 20 23 22 32 24 29 26 15 34 13 36 9 39 11 41
REMARK Flexibility Score: inf
ROOT
ATOM      1  O   UNL     1     119.168 126.489 133.990  1.00  0.00    -0.454 OA
ENDROOT
BRANCH   1   2
ATOM      2  C   UNL     1     120.172 127.348 133.520  1.00  0.00     0.214 A 
ATOM      3  C   UNL     1     120.885 128.201 134.388  1.00  0.00     0.180 A 
ATOM      4  O   UNL     1     121.770 129.060 133.888  1.00  0.00    -0.452 OA
ATOM      5  C   UNL     1     120.473 127.366 132.155  1.00  0.00     0.239 A 
ATOM      6  C   UNL     1     122.061 129.136 132.594  1.00  0.00     0.146 A 
ATOM      7  O   UNL     1     119.870 126.575 131.380  1.00  0.00    -0.285 OA
ATOM      8  C   UNL     1     121.431 128.277 131.663  1.00  0.00     0.111 A 
ATOM      9  C   UNL     1     123.006 130.070 132.162  1.00  0.00     0.094 A 
ATOM     10  C   UNL     1     121.776 128.373 130.293  1.00  0.00     0.134 A 
ATOM     11  C   UNL     1     123.341 130.162 130.808  1.00  0.00     0.123 A 
ATOM     12  C   UNL     1     122.729 129.316 129.881  1.00  0.00     0.093 A 
BRANCH   3  13
ATOM     13  C   UNL     1     120.698 128.172 135.856  1.00  0.00     0.025 A 
ATOM     14  C   UNL     1     119.495 128.595 136.441  1.00  0.00     0.016 A 
ATOM     15  C   UNL     1     119.335 128.557 137.827  1.00  0.00     0.051 A 
ATOM     16  C   UNL     1     120.362 128.085 138.652  1.00  0.00     0.157 A 
ATOM     17  C   UNL     1     121.720 127.676 136.676  1.00  0.00     0.062 A 
ATOM     18  C   UNL     1     121.569 127.633 138.069  1.00  0.00     0.158 A 
BRANCH  16  19
ATOM     19  O   UNL     1     120.141 128.079 140.031  1.00  0.00    -0.504 OA
ATOM     20  H   UNL     1     120.242 127.262 140.615  1.00  0.00     0.293 HD
ENDBRANCH  16  19
BRANCH  18  21
ATOM     21  O   UNL     1     122.634 127.139 138.825  1.00  0.00    -0.504 OA
ATOM     22  H   UNL     1     123.515 126.841 138.431  1.00  0.00     0.293 HD
ENDBRANCH  18  21
ENDBRANCH   3  13
BRANCH  10  23
ATOM     23  O   UNL     1     121.180 127.544 129.342  1.00  0.00    -0.507 OA
ATOM     24  H   UNL     1     121.661 126.738 128.962  1.00  0.00     0.293 HD
ENDBRANCH  10  23
BRANCH  11  25
ATOM     25  O   UNL     1     124.284 131.091 130.372  1.00  0.00    -0.508 OA
ATOM     26  H   UNL     1     124.360 131.349 129.394  1.00  0.00     0.293 HD
ENDBRANCH  11  25
ENDBRANCH   1   2
BRANCH   1  27
ATOM     27  C   UNL     1     119.343 125.072 134.089  1.00  0.00     0.339 C 
ATOM     28  C   UNL     1     119.090 124.578 135.523  1.00  0.00     0.214 C 
ATOM     29  O   UNL     1     118.551 124.393 133.125  1.00  0.00    -0.332 OA
ATOM     30  C   UNL     1     117.596 124.649 135.879  1.00  0.00     0.180 C 
ATOM     31  C   UNL     1     117.150 124.469 133.361  1.00  0.00     0.179 C 
ATOM     32  C   UNL     1     116.744 123.990 134.779  1.00  0.00     0.177 C 
BRANCH  28  33
ATOM     33  O   UNL     1     119.554 123.257 135.640  1.00  0.00    -0.384 OA
ATOM     34  H   UNL     1     119.612 123.056 136.610  1.00  0.00     0.211 HD
ENDBRANCH  28  33
BRANCH  30  35
ATOM     35  O   UNL     1     117.216 125.987 136.068  1.00  0.00    -0.387 OA
ATOM     36  H   UNL     1     117.977 126.550 135.768  1.00  0.00     0.211 HD
ENDBRANCH  30  35
BRANCH  31  37
ATOM     37  C   UNL     1     116.556 125.835 132.953  1.00  0.00     0.191 C 
BRANCH  37  38
ATOM     38  O   UNL     1     117.082 126.251 131.719  1.00  0.00    -0.394 OA
ATOM     39  H   UNL     1     117.649 125.510 131.381  1.00  0.00     0.210 HD
ENDBRANCH  37  38
ENDBRANCH  31  37
BRANCH  32  40
ATOM     40  O   UNL     1     116.898 122.594 134.865  1.00  0.00    -0.387 OA
ATOM     41  H   UNL     1     116.215 122.189 134.269  1.00  0.00     0.211 HD
ENDBRANCH  32  40
ENDBRANCH   1  27
TORSDOF 12
ENDMDL
MODEL 3
REMARK VINA RESULT:    -6.339      1.590      4.998
REMARK INTER + INTRA:         -11.127
REMARK INTER:                  -9.484
REMARK INTRA:                  -1.643
REMARK UNBOUND:                -1.824
REMARK SMILES O=c1c(O[C@@H]2O[C@H](CO)[C@@H](O)[C@H](O)[C@H]2O)c(-c2ccc(O)c(O)c2)oc2cc(O)cc(O)c12
REMARK SMILES IDX 4 1 3 2 16 3 25 4 2 5 26 6 1 7 33 8 27 9 31 10 28 11 30 12
REMARK SMILES IDX 17 13 18 14 19 15 20 16 24 17 22 18 21 19 23 21 32 23 29 25
REMARK SMILES IDX 5 27 14 28 6 29 12 30 7 31 10 32 15 33 13 35 8 37 9 38 11 40
REMARK H PARENT 21 20 23 22 32 24 29 26 15 34 13 36 9 39 11 41
REMARK Flexibility Score: inf
ROOT
ATOM      1  O   UNL     1     119.605 126.165 134.346  1.00  0.00    -0.454 OA
ENDROOT
BRANCH   1   2
ATOM      2  C   UNL     1     120.427 127.129 133.746  1.00  0.00     0.214 A 
ATOM      3  C   UNL     1     120.983 128.195 134.484  1.00  0.00     0.180 A 
ATOM      4  O   UNL     1     121.689 129.133 133.859  1.00  0.00    -0.452 OA
ATOM      5  C   UNL     1     120.703 127.038 132.378  1.00  0.00     0.239 A 
ATOM      6  C   UNL     1     121.945 129.105 132.555  1.00  0.00     0.146 A 
ATOM      7  O   UNL     1     120.245 126.064 131.721  1.00  0.00    -0.285 OA
ATOM      8  C   UNL     1     121.471 128.041 131.752  1.00  0.00     0.111 A 
ATOM      9  C   UNL     1     122.696 130.136 131.986  1.00  0.00     0.094 A 
ATOM     10  C   UNL     1     121.774 128.033 130.369  1.00  0.00     0.134 A 
ATOM     11  C   UNL     1     122.991 130.124 130.620  1.00  0.00     0.123 A 
ATOM     12  C   UNL     1     122.533 129.077 129.818  1.00  0.00     0.093 A 
BRANCH   3  13
ATOM     13  C   UNL     1     120.823 128.308 135.951  1.00  0.00     0.025 A 
ATOM     14  C   UNL     1     119.707 128.948 136.511  1.00  0.00     0.016 A 
ATOM     15  C   UNL     1     119.571 129.043 137.897  1.00  0.00     0.051 A 
ATOM     16  C   UNL     1     120.534 128.491 138.748  1.00  0.00     0.157 A 
ATOM     17  C   UNL     1     121.779 127.733 136.801  1.00  0.00     0.062 A 
ATOM     18  C   UNL     1     121.651 127.821 138.193  1.00  0.00     0.158 A 
BRANCH  16  19
ATOM     19  O   UNL     1     120.343 128.625 140.125  1.00  0.00    -0.504 OA
ATOM     20  H   UNL     1     121.050 128.957 140.764  1.00  0.00     0.293 HD
ENDBRANCH  16  19
BRANCH  18  21
ATOM     21  O   UNL     1     122.647 127.236 138.977  1.00  0.00    -0.504 OA
ATOM     22  H   UNL     1     123.619 127.511 138.953  1.00  0.00     0.293 HD
ENDBRANCH  18  21
ENDBRANCH   3  13
BRANCH  10  23
ATOM     23  O   UNL     1     121.329 127.002 129.541  1.00  0.00    -0.507 OA
ATOM     24  H   UNL     1     121.196 127.136 128.546  1.00  0.00     0.293 HD
ENDBRANCH  10  23
BRANCH  11  25
ATOM     25  O   UNL     1     123.742 131.149 130.047  1.00  0.00    -0.508 OA
ATOM     26  H   UNL     1     124.453 130.959 129.349  1.00  0.00     0.293 HD
ENDBRANCH  11  25
ENDBRANCH   1   2
BRANCH   1  27
ATOM     27  C   UNL     1     118.183 126.303 134.432  1.00  0.00     0.339 C 
ATOM     28  C   UNL     1     117.482 125.612 133.251  1.00  0.00     0.214 C 
ATOM     29  O   UNL     1     117.705 125.857 135.693  1.00  0.00    -0.332 OA
ATOM     30  C   UNL     1     117.571 124.082 133.371  1.00  0.00     0.180 C 
ATOM     31  C   UNL     1     117.812 124.452 135.896  1.00  0.00     0.179 C 
ATOM     32  C   UNL     1     117.136 123.621 134.774  1.00  0.00     0.177 C 
BRANCH  28  33
ATOM     33  O   UNL     1     116.138 126.019 133.216  1.00  0.00    -0.384 OA
ATOM     34  H   UNL     1     115.919 126.211 132.266  1.00  0.00     0.211 HD
ENDBRANCH  28  33
BRANCH  30  35
ATOM     35  O   UNL     1     118.879 123.659 133.091  1.00  0.00    -0.387 OA
ATOM     36  H   UNL     1     119.066 123.898 132.146  1.00  0.00     0.211 HD
ENDBRANCH  30  35
BRANCH  31  37
ATOM     37  C   UNL     1     119.254 124.014 136.237  1.00  0.00     0.191 C 
BRANCH  37  38
ATOM     38  O   UNL     1     119.476 122.691 135.821  1.00  0.00    -0.394 OA
ATOM     39  H   UNL     1     120.225 122.337 136.366  1.00  0.00     0.210 HD
ENDBRANCH  37  38
ENDBRANCH  31  37
BRANCH  32  40
ATOM     40  O   UNL     1     115.739 123.744 134.877  1.00  0.00    -0.387 OA
ATOM     41  H   UNL     1     115.342 122.972 134.397  1.00  0.00     0.211 HD
ENDBRANCH  32  40
ENDBRANCH   1  27
TORSDOF 12
ENDMDL
MODEL 4
REMARK VINA RESULT:    -6.328      0.920      2.371
REMARK INTER + INTRA:         -11.111
REMARK INTER:                  -9.615
REMARK INTRA:                  -1.496
REMARK UNBOUND:                -1.824
REMARK SMILES O=c1c(O[C@@H]2O[C@H](CO)[C@@H](O)[C@H](O)[C@H]2O)c(-c2ccc(O)c(O)c2)oc2cc(O)cc(O)c12
REMARK SMILES IDX 4 1 3 2 16 3 25 4 2 5 26 6 1 7 33 8 27 9 31 10 28 11 30 12
REMARK SMILES IDX 17 13 18 14 19 15 20 16 24 17 22 18 21 19 23 21 32 23 29 25
REMARK SMILES IDX 5 27 14 28 6 29 12 30 7 31 10 32 15 33 13 35 8 37 9 38 11 40
REMARK H PARENT 21 20 23 22 32 24 29 26 15 34 13 36 9 39 11 41
REMARK Flexibility Score: inf
ROOT
ATOM      1  O   UNL     1     119.913 127.882 135.193  1.00  0.00    -0.454 OA
ENDROOT
BRANCH   1   2
ATOM      2  C   UNL     1     120.127 127.829 133.809  1.00  0.00     0.214 A 
ATOM      3  C   UNL     1     119.323 127.037 132.963  1.00  0.00     0.180 A 
ATOM      4  O   UNL     1     119.614 126.951 131.668  1.00  0.00    -0.452 OA
ATOM      5  C   UNL     1     121.167 128.576 133.248  1.00  0.00     0.239 A 
ATOM      6  C   UNL     1     120.614 127.615 131.100  1.00  0.00     0.146 A 
ATOM      7  O   UNL     1     121.862 129.320 133.993  1.00  0.00    -0.285 OA
ATOM      8  C   UNL     1     121.434 128.475 131.867  1.00  0.00     0.111 A 
ATOM      9  C   UNL     1     120.843 127.462 129.730  1.00  0.00     0.094 A 
ATOM     10  C   UNL     1     122.483 129.180 131.228  1.00  0.00     0.134 A 
ATOM     11  C   UNL     1     121.880 128.159 129.105  1.00  0.00     0.123 A 
ATOM     12  C   UNL     1     122.693 129.014 129.851  1.00  0.00     0.093 A 
BRANCH   3  13
ATOM     13  C   UNL     1     118.142 126.295 133.460  1.00  0.00     0.025 A 
ATOM     14  C   UNL     1     116.895 126.924 133.592  1.00  0.00     0.016 A 
ATOM     15  C   UNL     1     115.792 126.209 134.060  1.00  0.00     0.051 A 
ATOM     16  C   UNL     1     115.906 124.854 134.388  1.00  0.00     0.157 A 
ATOM     17  C   UNL     1     118.256 124.932 133.765  1.00  0.00     0.062 A 
ATOM     18  C   UNL     1     117.154 124.204 134.234  1.00  0.00     0.158 A 
BRANCH  16  19
ATOM     19  O   UNL     1     114.766 124.197 134.856  1.00  0.00    -0.504 OA
ATOM     20  H   UNL     1     113.826 124.419 134.562  1.00  0.00     0.293 HD
ENDBRANCH  16  19
BRANCH  18  21
ATOM     21  O   UNL     1     117.343 122.853 134.530  1.00  0.00    -0.504 OA
ATOM     22  H   UNL     1     118.248 122.403 134.558  1.00  0.00     0.293 HD
ENDBRANCH  18  21
ENDBRANCH   3  13
BRANCH  10  23
ATOM     23  O   UNL     1     123.313 130.040 131.948  1.00  0.00    -0.507 OA
ATOM     24  H   UNL     1     123.774 130.828 131.509  1.00  0.00     0.293 HD
ENDBRANCH  10  23
BRANCH  11  25
ATOM     25  O   UNL     1     122.113 128.012 127.738  1.00  0.00    -0.508 OA
ATOM     26  H   UNL     1     122.786 128.591 127.250  1.00  0.00     0.293 HD
ENDBRANCH  11  25
ENDBRANCH   1   2
BRANCH   1  27
ATOM     27  C   UNL     1     120.744 127.196 136.134  1.00  0.00     0.339 C 
ATOM     28  C   UNL     1     121.464 128.183 137.068  1.00  0.00     0.214 C 
ATOM     29  O   UNL     1     120.006 126.209 136.840  1.00  0.00    -0.332 OA
ATOM     30  C   UNL     1     120.481 128.826 138.059  1.00  0.00     0.180 C 
ATOM     31  C   UNL     1     119.033 126.735 137.735  1.00  0.00     0.179 C 
ATOM     32  C   UNL     1     119.624 127.750 138.750  1.00  0.00     0.177 C 
BRANCH  28  33
ATOM     33  O   UNL     1     122.476 127.500 137.763  1.00  0.00    -0.384 OA
ATOM     34  H   UNL     1     122.186 127.441 138.710  1.00  0.00     0.211 HD
ENDBRANCH  28  33
BRANCH  30  35
ATOM     35  O   UNL     1     119.669 129.754 137.388  1.00  0.00    -0.387 OA
ATOM     36  H   UNL     1     120.073 129.899 136.493  1.00  0.00     0.211 HD
ENDBRANCH  30  35
BRANCH  31  37
ATOM     37  C   UNL     1     117.764 127.227 137.004  1.00  0.00     0.191 C 
BRANCH  37  38
ATOM     38  O   UNL     1     117.129 128.235 137.747  1.00  0.00    -0.394 OA
ATOM     39  H   UNL     1     117.413 129.104 137.360  1.00  0.00     0.210 HD
ENDBRANCH  37  38
ENDBRANCH  31  37
BRANCH  32  40
ATOM     40  O   UNL     1     120.423 127.067 139.684  1.00  0.00    -0.387 OA
ATOM     41  H   UNL     1     120.112 127.338 140.586  1.00  0.00     0.211 HD
ENDBRANCH  32  40
ENDBRANCH   1  27
TORSDOF 12
ENDMDL
MODEL 5
REMARK VINA RESULT:    -6.237      2.954      7.179
REMARK INTER + INTRA:         -10.978
REMARK INTER:                  -9.233
REMARK INTRA:                  -1.745
REMARK UNBOUND:                -1.824
REMARK SMILES O=c1c(O[C@@H]2O[C@H](CO)[C@@H](O)[C@H](O)[C@H]2O)c(-c2ccc(O)c(O)c2)oc2cc(O)cc(O)c12
REMARK SMILES IDX 4 1 3 2 16 3 25 4 2 5 26 6 1 7 33 8 27 9 31 10 28 11 30 12
REMARK SMILES IDX 17 13 18 14 19 15 20 16 24 17 22 18 21 19 23 21 32 23 29 25
REMARK SMILES IDX 5 27 14 28 6 29 12 30 7 31 10 32 15 33 13 35 8 37 9 38 11 40
REMARK H PARENT 21 20 23 22 32 24 29 26 15 34 13 36 9 39 11 41
REMARK Flexibility Score: inf
ROOT
ATOM      1  O   UNL     1     118.693 126.743 132.606  1.00  0.00    -0.454 OA
ENDROOT
BRANCH   1   2
ATOM      2  C   UNL     1     117.522 126.251 133.198  1.00  0.00     0.214 A 
ATOM      3  C   UNL     1     116.293 126.935 133.094  1.00  0.00     0.180 A 
ATOM      4  O   UNL     1     115.225 126.476 133.741  1.00  0.00    -0.452 OA
ATOM      5  C   UNL     1     117.570 125.053 133.918  1.00  0.00     0.239 A 
ATOM      6  C   UNL     1     115.235 125.362 134.465  1.00  0.00     0.146 A 
ATOM      7  O   UNL     1     118.656 124.414 133.979  1.00  0.00    -0.285 OA
ATOM      8  C   UNL     1     116.413 124.586 134.576  1.00  0.00     0.111 A 
ATOM      9  C   UNL     1     114.063 124.957 135.110  1.00  0.00     0.094 A 
ATOM     10  C   UNL     1     116.386 123.396 135.342  1.00  0.00     0.134 A 
ATOM     11  C   UNL     1     114.043 123.782 135.866  1.00  0.00     0.123 A 
ATOM     12  C   UNL     1     115.198 123.007 135.979  1.00  0.00     0.093 A 
BRANCH   3  13
ATOM     13  C   UNL     1     116.133 128.154 132.270  1.00  0.00     0.025 A 
ATOM     14  C   UNL     1     115.620 128.085 130.966  1.00  0.00     0.016 A 
ATOM     15  C   UNL     1     115.474 129.245 130.204  1.00  0.00     0.051 A 
ATOM     16  C   UNL     1     115.820 130.494 130.732  1.00  0.00     0.157 A 
ATOM     17  C   UNL     1     116.459 129.406 132.810  1.00  0.00     0.062 A 
ATOM     18  C   UNL     1     116.314 130.577 132.055  1.00  0.00     0.158 A 
BRANCH  16  19
ATOM     19  O   UNL     1     115.655 131.616 129.916  1.00  0.00    -0.504 OA
ATOM     20  H   UNL     1     114.846 132.218 129.942  1.00  0.00     0.293 HD
ENDBRANCH  16  19
BRANCH  18  21
ATOM     21  O   UNL     1     116.670 131.787 132.654  1.00  0.00    -0.504 OA
ATOM     22  H   UNL     1     116.619 131.961 133.648  1.00  0.00     0.293 HD
ENDBRANCH  18  21
ENDBRANCH   3  13
BRANCH  10  23
ATOM     23  O   UNL     1     117.525 122.601 135.476  1.00  0.00    -0.507 OA
ATOM     24  H   UNL     1     117.564 121.830 136.131  1.00  0.00     0.293 HD
ENDBRANCH  10  23
BRANCH  11  25
ATOM     25  O   UNL     1     112.876 123.373 136.511  1.00  0.00    -0.508 OA
ATOM     26  H   UNL     1     112.904 122.907 137.411  1.00  0.00     0.293 HD
ENDBRANCH  11  25
ENDBRANCH   1   2
BRANCH   1  27
ATOM     27  C   UNL     1     119.579 127.648 133.272  1.00  0.00     0.339 C 
ATOM     28  C   UNL     1     120.707 126.895 133.996  1.00  0.00     0.214 C 
ATOM     29  O   UNL     1     120.064 128.637 132.376  1.00  0.00    -0.332 OA
ATOM     30  C   UNL     1     121.706 126.295 132.993  1.00  0.00     0.180 C 
ATOM     31  C   UNL     1     120.951 128.139 131.380  1.00  0.00     0.179 C 
ATOM     32  C   UNL     1     122.153 127.356 131.971  1.00  0.00     0.177 C 
BRANCH  28  33
ATOM     33  O   UNL     1     121.365 127.781 134.864  1.00  0.00    -0.384 OA
ATOM     34  H   UNL     1     120.919 128.663 134.768  1.00  0.00     0.211 HD
ENDBRANCH  28  33
BRANCH  30  35
ATOM     35  O   UNL     1     121.125 125.194 132.345  1.00  0.00    -0.387 OA
ATOM     36  H   UNL     1     121.318 125.291 131.377  1.00  0.00     0.211 HD
ENDBRANCH  30  35
BRANCH  31  37
ATOM     37  C   UNL     1     120.208 127.406 130.241  1.00  0.00     0.191 C 
BRANCH  37  38
ATOM     38  O   UNL     1     119.011 128.071 129.928  1.00  0.00    -0.394 OA
ATOM     39  H   UNL     1     118.657 127.656 129.099  1.00  0.00     0.210 HD
ENDBRANCH  37  38
ENDBRANCH  31  37
BRANCH  32  40
ATOM     40  O   UNL     1     123.030 128.253 132.606  1.00  0.00    -0.387 OA
ATOM     41  H   UNL     1     123.923 128.131 132.190  1.00  0.00     0.211 HD
ENDBRANCH  32  40
ENDBRANCH   1  27
TORSDOF 12
ENDMDL
MODEL 6
REMARK VINA RESULT:    -6.224      4.788      6.053
REMARK INTER + INTRA:         -10.959
REMARK INTER:                  -9.335
REMARK INTRA:                  -1.624
REMARK UNBOUND:                -1.824
REMARK SMILES O=c1c(O[C@@H]2O[C@H](CO)[C@@H](O)[C@H](O)[C@H]2O)c(-c2ccc(O)c(O)c2)oc2cc(O)cc(O)c12
REMARK SMILES IDX 4 1 3 2 16 3 25 4 2 5 26 6 1 7 33 8 27 9 31 10 28 11 30 12
REMARK SMILES IDX 17 13 18 14 19 15 20 16 24 17 22 18 21 19 23 21 32 23 29 25
REMARK SMILES IDX 5 27 14 28 6 29 12 30 7 31 10 32 15 33 13 35 8 37 9 38 11 40
REMARK H PARENT 21 20 23 22 32 24 29 26 15 34 13 36 9 39 11 41
REMARK Flexibility Score: inf
ROOT
ATOM      1  O   UNL     1     116.488 129.274 132.482  1.00  0.00    -0.454 OA
ENDROOT
BRANCH   1   2
ATOM      2  C   UNL     1     116.336 129.519 131.110  1.00  0.00     0.214 A 
ATOM      3  C   UNL     1     117.057 128.789 130.142  1.00  0.00     0.180 A 
ATOM      4  O   UNL     1     116.945 129.110 128.856  1.00  0.00    -0.452 OA
ATOM      5  C   UNL     1     115.452 130.516 130.686  1.00  0.00     0.239 A 
ATOM      6  C   UNL     1     116.144 130.073 128.412  1.00  0.00     0.146 A 
ATOM      7  O   UNL     1     114.773 131.142 131.544  1.00  0.00    -0.285 OA
ATOM      8  C   UNL     1     115.345 130.816 129.313  1.00  0.00     0.111 A 
ATOM      9  C   UNL     1     116.093 130.339 127.042  1.00  0.00     0.094 A 
ATOM     10  C   UNL     1     114.491 131.826 128.806  1.00  0.00     0.134 A 
ATOM     11  C   UNL     1     115.249 131.338 126.547  1.00  0.00     0.123 A 
ATOM     12  C   UNL     1     114.453 132.074 127.426  1.00  0.00     0.093 A 
BRANCH   3  13
ATOM     13  C   UNL     1     117.936 127.653 130.500  1.00  0.00     0.025 A 
ATOM     14  C   UNL     1     117.400 126.400 130.832  1.00  0.00     0.016 A 
ATOM     15  C   UNL     1     118.244 125.339 131.163  1.00  0.00     0.051 A 
ATOM     16  C   UNL     1     119.633 125.502 131.155  1.00  0.00     0.157 A 
ATOM     17  C   UNL     1     119.328 127.814 130.466  1.00  0.00     0.062 A 
ATOM     18  C   UNL     1     120.184 126.755 130.796  1.00  0.00     0.158 A 
BRANCH  16  19
ATOM     19  O   UNL     1     120.422 124.403 131.502  1.00  0.00    -0.504 OA
ATOM     20  H   UNL     1     121.336 124.475 131.925  1.00  0.00     0.293 HD
ENDBRANCH  16  19
BRANCH  18  21
ATOM     21  O   UNL     1     121.559 126.992 130.753  1.00  0.00    -0.504 OA
ATOM     22  H   UNL     1     121.972 127.873 130.482  1.00  0.00     0.293 HD
ENDBRANCH  18  21
ENDBRANCH   3  13
BRANCH  10  23
ATOM     23  O   UNL     1     113.685 132.580 129.659  1.00  0.00    -0.507 OA
ATOM     24  H   UNL     1     114.057 133.352 130.200  1.00  0.00     0.293 HD
ENDBRANCH  10  23
BRANCH  11  25
ATOM     25  O   UNL     1     115.193 131.607 125.180  1.00  0.00    -0.508 OA
ATOM     26  H   UNL     1     115.258 132.553 124.824  1.00  0.00     0.293 HD
ENDBRANCH  11  25
ENDBRANCH   1   2
BRANCH   1  27
ATOM     27  C   UNL     1     115.475 128.650 133.276  1.00  0.00     0.339 C 
ATOM     28  C   UNL     1     115.947 127.289 133.815  1.00  0.00     0.214 C 
ATOM     29  O   UNL     1     115.023 129.521 134.302  1.00  0.00    -0.332 OA
ATOM     30  C   UNL     1     117.015 127.465 134.907  1.00  0.00     0.180 C 
ATOM     31  C   UNL     1     115.986 129.777 135.319  1.00  0.00     0.179 C 
ATOM     32  C   UNL     1     116.549 128.483 135.964  1.00  0.00     0.177 C 
BRANCH  28  33
ATOM     33  O   UNL     1     114.841 126.591 134.327  1.00  0.00    -0.384 OA
ATOM     34  H   UNL     1     114.037 126.943 133.863  1.00  0.00     0.211 HD
ENDBRANCH  28  33
BRANCH  30  35
ATOM     35  O   UNL     1     118.226 127.872 134.324  1.00  0.00    -0.387 OA
ATOM     36  H   UNL     1     118.236 127.518 133.397  1.00  0.00     0.211 HD
ENDBRANCH  30  35
BRANCH  31  37
ATOM     37  C   UNL     1     117.063 130.789 134.870  1.00  0.00     0.191 C 
BRANCH  37  38
ATOM     38  O   UNL     1     116.499 131.770 134.039  1.00  0.00    -0.394 OA
ATOM     39  H   UNL     1     115.690 131.371 133.626  1.00  0.00     0.210 HD
ENDBRANCH  37  38
ENDBRANCH  31  37
BRANCH  32  40
ATOM     40  O   UNL     1     115.555 127.885 136.759  1.00  0.00    -0.387 OA
ATOM     41  H   UNL     1     115.506 126.930 136.493  1.00  0.00     0.211 HD
ENDBRANCH  32  40
ENDBRANCH   1  27
TORSDOF 12
ENDMDL
MODEL 7
REMARK VINA RESULT:    -6.016      4.848      6.069
REMARK INTER + INTRA:         -10.654
REMARK INTER:                  -9.226
REMARK INTRA:                  -1.427
REMARK UNBOUND:                -1.824
REMARK SMILES O=c1c(O[C@@H]2O[C@H](CO)[C@@H](O)[C@H](O)[C@H]2O)c(-c2ccc(O)c(O)c2)oc2cc(O)cc(O)c12
REMARK SMILES IDX 4 1 3 2 16 3 25 4 2 5 26 6 1 7 33 8 27 9 31 10 28 11 30 12
REMARK SMILES IDX 17 13 18 14 19 15 20 16 24 17 22 18 21 19 23 21 32 23 29 25
REMARK SMILES IDX 5 27 14 28 6 29 12 30 7 31 10 32 15 33 13 35 8 37 9 38 11 40
REMARK H PARENT 21 20 23 22 32 24 29 26 15 34 13 36 9 39 11 41
REMARK Flexibility Score: inf
ROOT
ATOM      1  O   UNL     1     116.392 129.285 132.436  1.00  0.00    -0.454 OA
ENDROOT
BRANCH   1   2
ATOM      2  C   UNL     1     116.270 129.544 131.064  1.00  0.00     0.214 A 
ATOM      3  C   UNL     1     117.018 128.831 130.104  1.00  0.00     0.180 A 
ATOM      4  O   UNL     1     116.934 129.166 128.820  1.00  0.00    -0.452 OA
ATOM      5  C   UNL     1     115.389 130.540 130.630  1.00  0.00     0.239 A 
ATOM      6  C   UNL     1     116.137 130.128 128.368  1.00  0.00     0.146 A 
ATOM      7  O   UNL     1     114.686 131.152 131.479  1.00  0.00    -0.285 OA
ATOM      8  C   UNL     1     115.312 130.855 129.258  1.00  0.00     0.111 A 
ATOM      9  C   UNL     1     116.116 130.409 127.000  1.00  0.00     0.094 A 
ATOM     10  C   UNL     1     114.463 131.865 128.743  1.00  0.00     0.134 A 
ATOM     11  C   UNL     1     115.277 131.408 126.497  1.00  0.00     0.123 A 
ATOM     12  C   UNL     1     114.455 132.129 127.365  1.00  0.00     0.093 A 
BRANCH   3  13
ATOM     13  C   UNL     1     117.896 127.696 130.470  1.00  0.00     0.025 A 
ATOM     14  C   UNL     1     117.363 126.432 130.762  1.00  0.00     0.016 A 
ATOM     15  C   UNL     1     118.206 125.373 131.102  1.00  0.00     0.051 A 
ATOM     16  C   UNL     1     119.594 125.550 131.141  1.00  0.00     0.157 A 
ATOM     17  C   UNL     1     119.287 127.871 130.484  1.00  0.00     0.062 A 
ATOM     18  C   UNL     1     120.143 126.814 130.822  1.00  0.00     0.158 A 
BRANCH  16  19
ATOM     19  O   UNL     1     120.382 124.452 131.493  1.00  0.00    -0.504 OA
ATOM     20  H   UNL     1     120.011 123.572 131.819  1.00  0.00     0.293 HD
ENDBRANCH  16  19
BRANCH  18  21
ATOM     21  O   UNL     1     121.516 127.064 130.828  1.00  0.00    -0.504 OA
ATOM     22  H   UNL     1     121.996 127.560 131.566  1.00  0.00     0.293 HD
ENDBRANCH  18  21
ENDBRANCH   3  13
BRANCH  10  23
ATOM     23  O   UNL     1     113.632 132.604 129.585  1.00  0.00    -0.507 OA
ATOM     24  H   UNL     1     113.246 133.497 129.304  1.00  0.00     0.293 HD
ENDBRANCH  10  23
BRANCH  11  25
ATOM     25  O   UNL     1     115.250 131.692 125.132  1.00  0.00    -0.508 OA
ATOM     26  H   UNL     1     114.663 131.168 124.494  1.00  0.00     0.293 HD
ENDBRANCH  11  25
ENDBRANCH   1   2
BRANCH   1  27
ATOM     27  C   UNL     1     117.152 130.115 133.319  1.00  0.00     0.339 C 
ATOM     28  C   UNL     1     116.241 130.867 134.304  1.00  0.00     0.214 C 
ATOM     29  O   UNL     1     118.169 129.368 133.970  1.00  0.00    -0.332 OA
ATOM     30  C   UNL     1     115.646 129.909 135.349  1.00  0.00     0.180 C 
ATOM     31  C   UNL     1     117.684 128.417 134.911  1.00  0.00     0.179 C 
ATOM     32  C   UNL     1     116.749 129.041 135.980  1.00  0.00     0.177 C 
BRANCH  28  33
ATOM     33  O   UNL     1     116.987 131.874 134.938  1.00  0.00    -0.384 OA
ATOM     34  H   UNL     1     116.381 132.652 135.053  1.00  0.00     0.211 HD
ENDBRANCH  28  33
BRANCH  30  35
ATOM     35  O   UNL     1     114.662 129.107 134.751  1.00  0.00    -0.387 OA
ATOM     36  H   UNL     1     114.064 129.713 134.239  1.00  0.00     0.211 HD
ENDBRANCH  30  35
BRANCH  31  37
ATOM     37  C   UNL     1     117.123 127.148 134.232  1.00  0.00     0.191 C 
BRANCH  37  38
ATOM     38  O   UNL     1     116.181 126.521 135.064  1.00  0.00    -0.394 OA
ATOM     39  H   UNL     1     115.285 126.705 134.679  1.00  0.00     0.210 HD
ENDBRANCH  37  38
ENDBRANCH  31  37
BRANCH  32  40
ATOM     40  O   UNL     1     117.506 129.838 136.856  1.00  0.00    -0.387 OA
ATOM     41  H   UNL     1     117.628 130.719 136.416  1.00  0.00     0.211 HD
ENDBRANCH  32  40
ENDBRANCH   1  27
TORSDOF 12
ENDMDL
MODEL 8
REMARK VINA RESULT:    -5.916      4.723      6.415
REMARK INTER + INTRA:         -10.506
REMARK INTER:                  -8.693
REMARK INTRA:                  -1.813
REMARK UNBOUND:                -1.824
REMARK SMILES O=c1c(O[C@@H]2O[C@H](CO)[C@@H](O)[C@H](O)[C@H]2O)c(-c2ccc(O)c(O)c2)oc2cc(O)cc(O)c12
REMARK SMILES IDX 4 1 3 2 16 3 25 4 2 5 26 6 1 7 33 8 27 9 31 10 28 11 30 12
REMARK SMILES IDX 17 13 18 14 19 15 20 16 24 17 22 18 21 19 23 21 32 23 29 25
REMARK SMILES IDX 5 27 14 28 6 29 12 30 7 31 10 32 15 33 13 35 8 37 9 38 11 40
REMARK H PARENT 21 20 23 22 32 24 29 26 15 34 13 36 9 39 11 41
REMARK Flexibility Score: inf
ROOT
ATOM      1  O   UNL     1     117.268 128.298 132.480  1.00  0.00    -0.454 OA
ENDROOT
BRANCH   1   2
ATOM      2  C   UNL     1     116.568 129.204 131.672  1.00  0.00     0.214 A 
ATOM      3  C   UNL     1     115.682 130.157 132.218  1.00  0.00     0.180 A 
ATOM      4  O   UNL     1     114.975 130.941 131.409  1.00  0.00    -0.452 OA
ATOM      5  C   UNL     1     116.744 129.163 130.285  1.00  0.00     0.239 A 
ATOM      6  C   UNL     1     115.086 130.910 130.085  1.00  0.00     0.146 A 
ATOM      7  O   UNL     1     117.566 128.343 129.793  1.00  0.00    -0.285 OA
ATOM      8  C   UNL     1     115.992 130.022 129.459  1.00  0.00     0.111 A 
ATOM      9  C   UNL     1     114.301 131.773 129.316  1.00  0.00     0.094 A 
ATOM     10  C   UNL     1     116.096 130.025 128.047  1.00  0.00     0.134 A 
ATOM     11  C   UNL     1     114.406 131.771 127.922  1.00  0.00     0.123 A 
ATOM     12  C   UNL     1     115.301 130.902 127.293  1.00  0.00     0.093 A 
BRANCH   3  13
ATOM     13  C   UNL     1     115.514 130.334 133.678  1.00  0.00     0.025 A 
ATOM     14  C   UNL     1     114.887 129.352 134.459  1.00  0.00     0.016 A 
ATOM     15  C   UNL     1     114.740 129.534 135.835  1.00  0.00     0.051 A 
ATOM     16  C   UNL     1     115.226 130.688 136.458  1.00  0.00     0.157 A 
ATOM     17  C   UNL     1     116.024 131.481 134.302  1.00  0.00     0.062 A 
ATOM     18  C   UNL     1     115.883 131.673 135.683  1.00  0.00     0.158 A 
BRANCH  16  19
ATOM     19  O   UNL     1     115.042 130.813 137.837  1.00  0.00    -0.504 OA
ATOM     20  H   UNL     1     115.349 130.128 138.512  1.00  0.00     0.293 HD
ENDBRANCH  16  19
BRANCH  18  21
ATOM     21  O   UNL     1     116.405 132.845 136.234  1.00  0.00    -0.504 OA
ATOM     22  H   UNL     1     117.291 133.249 135.966  1.00  0.00     0.293 HD
ENDBRANCH  18  21
ENDBRANCH   3  13
BRANCH  10  23
ATOM     23  O   UNL     1     116.978 129.167 127.389  1.00  0.00    -0.507 OA
ATOM     24  H   UNL     1     116.688 128.254 127.061  1.00  0.00     0.293 HD
ENDBRANCH  10  23
BRANCH  11  25
ATOM     25  O   UNL     1     113.627 132.631 127.149  1.00  0.00    -0.508 OA
ATOM     26  H   UNL     1     113.584 133.624 127.344  1.00  0.00     0.293 HD
ENDBRANCH  11  25
ENDBRANCH   1   2
BRANCH   1  27
ATOM     27  C   UNL     1     118.591 128.550 132.962  1.00  0.00     0.339 C 
ATOM     28  C   UNL     1     118.639 128.535 134.499  1.00  0.00     0.214 C 
ATOM     29  O   UNL     1     119.525 127.656 132.373  1.00  0.00    -0.332 OA
ATOM     30  C   UNL     1     118.465 127.109 135.045  1.00  0.00     0.180 C 
ATOM     31  C   UNL     1     119.382 126.302 132.791  1.00  0.00     0.179 C 
ATOM     32  C   UNL     1     119.420 126.134 134.333  1.00  0.00     0.177 C 
BRANCH  28  33
ATOM     33  O   UNL     1     119.866 129.071 134.923  1.00  0.00    -0.384 OA
ATOM     34  H   UNL     1     120.579 128.576 134.441  1.00  0.00     0.211 HD
ENDBRANCH  28  33
BRANCH  30  35
ATOM     35  O   UNL     1     117.131 126.701 134.891  1.00  0.00    -0.387 OA
ATOM     36  H   UNL     1     117.102 125.726 135.071  1.00  0.00     0.211 HD
ENDBRANCH  30  35
BRANCH  31  37
ATOM     37  C   UNL     1     118.197 125.593 132.099  1.00  0.00     0.191 C 
BRANCH  37  38
ATOM     38  O   UNL     1     118.190 125.878 130.723  1.00  0.00    -0.394 OA
ATOM     39  H   UNL     1     118.986 126.441 130.540  1.00  0.00     0.210 HD
ENDBRANCH  37  38
ENDBRANCH  31  37
BRANCH  32  40
ATOM     40  O   UNL     1     120.727 126.362 134.797  1.00  0.00    -0.387 OA
ATOM     41  H   UNL     1     120.725 126.181 135.773  1.00  0.00     0.211 HD
ENDBRANCH  32  40
ENDBRANCH   1  27
TORSDOF 12
ENDMDL
MODEL 9
REMARK VINA RESULT:    -5.889      3.142      6.807
REMARK INTER + INTRA:         -10.467
REMARK INTER:                  -8.739
REMARK INTRA:                  -1.729
REMARK UNBOUND:                -1.824
REMARK SMILES O=c1c(O[C@@H]2O[C@H](CO)[C@@H](O)[C@H](O)[C@H]2O)c(-c2ccc(O)c(O)c2)oc2cc(O)cc(O)c12
REMARK SMILES IDX 4 1 3 2 16 3 25 4 2 5 26 6 1 7 33 8 27 9 31 10 28 11 30 12
REMARK SMILES IDX 17 13 18 14 19 15 20 16 24 17 22 18 21 19 23 21 32 23 29 25
REMARK SMILES IDX 5 27 14 28 6 29 12 30 7 31 10 32 15 33 13 35 8 37 9 38 11 40
REMARK H PARENT 21 20 23 22 32 24 29 26 15 34 13 36 9 39 11 41
REMARK Flexibility Score: inf
ROOT
ATOM      1  O   UNL     1     119.120 127.838 133.537  1.00  0.00    -0.454 OA
ENDROOT
BRANCH   1   2
ATOM      2  C   UNL     1     118.321 128.821 134.136  1.00  0.00     0.214 A 
ATOM      3  C   UNL     1     118.485 129.190 135.488  1.00  0.00     0.180 A 
ATOM      4  O   UNL     1     117.651 130.067 136.039  1.00  0.00    -0.452 OA
ATOM      5  C   UNL     1     117.329 129.453 133.379  1.00  0.00     0.239 A 
ATOM      6  C   UNL     1     116.673 130.664 135.367  1.00  0.00     0.146 A 
ATOM      7  O   UNL     1     117.205 129.159 132.160  1.00  0.00    -0.285 OA
ATOM      8  C   UNL     1     116.474 130.392 133.992  1.00  0.00     0.111 A 
ATOM      9  C   UNL     1     115.845 131.572 136.031  1.00  0.00     0.094 A 
ATOM     10  C   UNL     1     115.432 131.056 133.301  1.00  0.00     0.134 A 
ATOM     11  C   UNL     1     114.817 132.224 135.344  1.00  0.00     0.123 A 
ATOM     12  C   UNL     1     114.615 131.967 133.987  1.00  0.00     0.093 A 
BRANCH   3  13
ATOM     13  C   UNL     1     119.574 128.644 136.330  1.00  0.00     0.025 A 
ATOM     14  C   UNL     1     119.297 127.784 137.403  1.00  0.00     0.016 A 
ATOM     15  C   UNL     1     120.337 127.276 138.184  1.00  0.00     0.051 A 
ATOM     16  C   UNL     1     121.667 127.602 137.901  1.00  0.00     0.157 A 
ATOM     17  C   UNL     1     120.907 128.954 136.028  1.00  0.00     0.062 A 
ATOM     18  C   UNL     1     121.958 128.448 136.805  1.00  0.00     0.158 A 
BRANCH  16  19
ATOM     19  O   UNL     1     122.660 127.066 138.724  1.00  0.00    -0.504 OA
ATOM     20  H   UNL     1     123.580 127.467 138.834  1.00  0.00     0.293 HD
ENDBRANCH  16  19
BRANCH  18  21
ATOM     21  O   UNL     1     123.260 128.810 136.454  1.00  0.00    -0.504 OA
ATOM     22  H   UNL     1     123.603 128.831 135.504  1.00  0.00     0.293 HD
ENDBRANCH  18  21
ENDBRANCH   3  13
BRANCH  10  23
ATOM     23  O   UNL     1     115.203 130.818 131.946  1.00  0.00    -0.507 OA
ATOM     24  H   UNL     1     114.517 130.143 131.631  1.00  0.00     0.293 HD
ENDBRANCH  10  23
BRANCH  11  25
ATOM     25  O   UNL     1     113.989 133.133 136.001  1.00  0.00    -0.508 OA
ATOM     26  H   UNL     1     113.549 133.901 135.507  1.00  0.00     0.293 HD
ENDBRANCH  11  25
ENDBRANCH   1   2
BRANCH   1  27
ATOM     27  C   UNL     1     118.964 126.441 133.804  1.00  0.00     0.339 C 
ATOM     28  C   UNL     1     117.985 125.788 132.815  1.00  0.00     0.214 C 
ATOM     29  O   UNL     1     120.225 125.787 133.845  1.00  0.00    -0.332 OA
ATOM     30  C   UNL     1     118.603 125.684 131.411  1.00  0.00     0.180 C 
ATOM     31  C   UNL     1     120.882 125.708 132.585  1.00  0.00     0.179 C 
ATOM     32  C   UNL     1     120.008 125.057 131.481  1.00  0.00     0.177 C 
BRANCH  28  33
ATOM     33  O   UNL     1     117.639 124.512 133.289  1.00  0.00    -0.384 OA
ATOM     34  H   UNL     1     117.256 124.636 134.196  1.00  0.00     0.211 HD
ENDBRANCH  28  33
BRANCH  30  35
ATOM     35  O   UNL     1     118.654 126.955 130.819  1.00  0.00    -0.387 OA
ATOM     36  H   UNL     1     118.536 126.826 129.842  1.00  0.00     0.211 HD
ENDBRANCH  30  35
BRANCH  31  37
ATOM     37  C   UNL     1     121.538 127.045 132.176  1.00  0.00     0.191 C 
BRANCH  37  38
ATOM     38  O   UNL     1     121.641 127.135 130.778  1.00  0.00    -0.394 OA
ATOM     39  H   UNL     1     122.608 127.167 130.560  1.00  0.00     0.210 HD
ENDBRANCH  37  38
ENDBRANCH  31  37
BRANCH  32  40
ATOM     40  O   UNL     1     119.876 123.681 131.739  1.00  0.00    -0.387 OA
ATOM     41  H   UNL     1     119.377 123.591 132.592  1.00  0.00     0.211 HD
ENDBRANCH  32  40
ENDBRANCH   1  27
TORSDOF 12
ENDMDL
