MODEL 1
REMARK VINA RESULT:    -4.447      0.000      0.000
REMARK INTER + INTRA:          -4.730
REMARK INTER:                  -4.707
REMARK INTRA:                  -0.023
REMARK UNBOUND:                -0.023
REMARK SMILES O=C([O-])c1cccnc1
REMARK SMILES IDX 4 1 5 2 9 3 6 4 8 5 7 6 2 7 1 8 3 9
REMARK H PARENT
REMARK Flexibility Score: inf
ROOT
ATOM      1  C   UNL     1    -120.333  -3.140  76.363  1.00  0.00     0.016 A 
ATOM      2  C   UNL     1    -120.144  -1.816  75.936  1.00  0.00     0.013 A 
ATOM      3  C   UNL     1    -120.215  -3.424  77.735  1.00  0.00     0.120 A 
ATOM      4  C   UNL     1    -119.847  -0.816  76.865  1.00  0.00     0.021 A 
ATOM      5  N   UNL     1    -119.924  -2.432  78.619  1.00  0.00    -0.264 NA
ATOM      6  C   UNL     1    -119.739  -1.147  78.216  1.00  0.00     0.111 A 
ENDROOT
BRANCH   1   7
ATOM      7  C   UNL     1    -120.648  -4.208  75.389  1.00  0.00     0.073 C 
ATOM      8  O   UNL     1    -121.161  -5.293  75.772  1.00  0.00    -0.545 OA
ATOM      9  O   UNL     1    -120.383  -4.027  74.037  1.00  0.00    -0.545 OA
ENDBRANCH   1   7
TORSDOF 1
ENDMDL
MODEL 2
REMARK VINA RESULT:    -4.441      0.919      1.938
REMARK INTER + INTRA:          -4.724
REMARK INTER:                  -4.702
REMARK INTRA:                  -0.022
REMARK UNBOUND:                -0.023
REMARK SMILES O=C([O-])c1cccnc1
REMARK SMILES IDX 4 1 5 2 9 3 6 4 8 5 7 6 2 7 1 8 3 9
REMARK H PARENT
REMARK Flexibility Score: inf
ROOT
ATOM      1  C   UNL     1    -120.253  -3.017  76.468  1.00  0.00     0.016 A 
ATOM      2  C   UNL     1    -120.142  -3.368  77.824  1.00  0.00     0.013 A 
ATOM      3  C   UNL     1    -119.990  -1.686  76.098  1.00  0.00     0.120 A 
ATOM      4  C   UNL     1    -119.778  -2.407  78.769  1.00  0.00     0.021 A 
ATOM      5  N   UNL     1    -119.636  -0.770  77.038  1.00  0.00    -0.264 NA
ATOM      6  C   UNL     1    -119.526  -1.099  78.352  1.00  0.00     0.111 A 
ENDROOT
BRANCH   1   7
ATOM      7  C   UNL     1    -120.640  -4.026  75.458  1.00  0.00     0.073 C 
ATOM      8  O   UNL     1    -120.297  -3.890  74.254  1.00  0.00    -0.545 OA
ATOM      9  O   UNL     1    -121.387  -5.139  75.825  1.00  0.00    -0.545 OA
ENDBRANCH   1   7
TORSDOF 1
ENDMDL
MODEL 3
REMARK VINA RESULT:    -4.437      0.063      1.077
REMARK INTER + INTRA:          -4.719
REMARK INTER:                  -4.695
REMARK INTRA:                  -0.023
REMARK UNBOUND:                -0.023
REMARK SMILES O=C([O-])c1cccnc1
REMARK SMILES IDX 4 1 5 2 9 3 6 4 8 5 7 6 2 7 1 8 3 9
REMARK H PARENT
REMARK Flexibility Score: inf
ROOT
ATOM      1  C   UNL     1    -120.299  -3.113  76.335  1.00  0.00     0.016 A 
ATOM      2  C   UNL     1    -120.082  -1.790  75.920  1.00  0.00     0.013 A 
ATOM      3  C   UNL     1    -120.211  -3.406  77.708  1.00  0.00     0.120 A 
ATOM      4  C   UNL     1    -119.787  -0.800  76.859  1.00  0.00     0.021 A 
ATOM      5  N   UNL     1    -119.922  -2.423  78.602  1.00  0.00    -0.264 NA
ATOM      6  C   UNL     1    -119.710  -1.139  78.210  1.00  0.00     0.111 A 
ENDROOT
BRANCH   1   7
ATOM      7  C   UNL     1    -120.612  -4.172  75.350  1.00  0.00     0.073 C 
ATOM      8  O   UNL     1    -120.338  -4.013  74.131  1.00  0.00    -0.545 OA
ATOM      9  O   UNL     1    -121.212  -5.357  75.758  1.00  0.00    -0.545 OA
ENDBRANCH   1   7
TORSDOF 1
ENDMDL
MODEL 4
REMARK VINA RESULT:    -4.187      2.930      3.883
REMARK INTER + INTRA:          -4.455
REMARK INTER:                  -4.438
REMARK INTRA:                  -0.016
REMARK UNBOUND:                -0.023
REMARK SMILES O=C([O-])c1cccnc1
REMARK SMILES IDX 4 1 5 2 9 3 6 4 8 5 7 6 2 7 1 8 3 9
REMARK H PARENT
REMARK Flexibility Score: inf
ROOT
ATOM      1  C   UNL     1    -120.052  -2.923  77.257  1.00  0.00     0.016 A 
ATOM      2  C   UNL     1    -120.816  -4.094  77.125  1.00  0.00     0.013 A 
ATOM      3  C   UNL     1    -119.520  -2.338  76.094  1.00  0.00     0.120 A 
ATOM      4  C   UNL     1    -121.034  -4.651  75.864  1.00  0.00     0.021 A 
ATOM      5  N   UNL     1    -119.746  -2.901  74.877  1.00  0.00    -0.264 NA
ATOM      6  C   UNL     1    -120.484  -4.034  74.739  1.00  0.00     0.111 A 
ENDROOT
BRANCH   1   7
ATOM      7  C   UNL     1    -119.815  -2.323  78.588  1.00  0.00     0.073 C 
ATOM      8  O   UNL     1    -118.950  -2.808  79.364  1.00  0.00    -0.545 OA
ATOM      9  O   UNL     1    -120.543  -1.213  78.999  1.00  0.00    -0.545 OA
ENDBRANCH   1   7
TORSDOF 1
ENDMDL
MODEL 5
REMARK VINA RESULT:    -4.158      1.422      1.863
REMARK INTER + INTRA:          -4.424
REMARK INTER:                  -4.401
REMARK INTRA:                  -0.023
REMARK UNBOUND:                -0.023
REMARK SMILES O=C([O-])c1cccnc1
REMARK SMILES IDX 4 1 5 2 9 3 6 4 8 5 7 6 2 7 1 8 3 9
REMARK H PARENT
REMARK Flexibility Score: inf
ROOT
ATOM      1  C   UNL     1    -119.697  -3.149  76.870  1.00  0.00     0.016 A 
ATOM      2  C   UNL     1    -120.134  -3.160  78.204  1.00  0.00     0.013 A 
ATOM      3  C   UNL     1    -118.526  -2.436  76.555  1.00  0.00     0.120 A 
ATOM      4  C   UNL     1    -119.412  -2.476  79.184  1.00  0.00     0.021 A 
ATOM      5  N   UNL     1    -117.842  -1.777  77.528  1.00  0.00    -0.264 NA
ATOM      6  C   UNL     1    -118.256  -1.782  78.823  1.00  0.00     0.111 A 
ENDROOT
BRANCH   1   7
ATOM      7  C   UNL     1    -120.453  -3.870  75.823  1.00  0.00     0.073 C 
ATOM      8  O   UNL     1    -121.182  -4.853  76.121  1.00  0.00    -0.545 OA
ATOM      9  O   UNL     1    -120.369  -3.472  74.494  1.00  0.00    -0.545 OA
ENDBRANCH   1   7
TORSDOF 1
ENDMDL
MODEL 6
REMARK VINA RESULT:    -4.147      1.400      1.806
REMARK INTER + INTRA:          -4.412
REMARK INTER:                  -4.391
REMARK INTRA:                  -0.022
REMARK UNBOUND:                -0.023
REMARK SMILES O=C([O-])c1cccnc1
REMARK SMILES IDX 4 1 5 2 9 3 6 4 8 5 7 6 2 7 1 8 3 9
REMARK H PARENT
REMARK Flexibility Score: inf
ROOT
ATOM      1  C   UNL     1    -119.581  -3.083  76.969  1.00  0.00     0.016 A 
ATOM      2  C   UNL     1    -118.370  -2.438  76.673  1.00  0.00     0.013 A 
ATOM      3  C   UNL     1    -120.008  -3.122  78.308  1.00  0.00     0.120 A 
ATOM      4  C   UNL     1    -117.619  -1.854  77.694  1.00  0.00     0.021 A 
ATOM      5  N   UNL     1    -119.257  -2.545  79.285  1.00  0.00    -0.264 NA
ATOM      6  C   UNL     1    -118.084  -1.919  79.008  1.00  0.00     0.111 A 
ENDROOT
BRANCH   1   7
ATOM      7  C   UNL     1    -120.386  -3.707  75.896  1.00  0.00     0.073 C 
ATOM      8  O   UNL     1    -120.380  -3.229  74.731  1.00  0.00    -0.545 OA
ATOM      9  O   UNL     1    -121.160  -4.830  76.160  1.00  0.00    -0.545 OA
ENDBRANCH   1   7
TORSDOF 1
ENDMDL
MODEL 7
REMARK VINA RESULT:    -4.120      2.978      3.649
REMARK INTER + INTRA:          -4.384
REMARK INTER:                  -4.368
REMARK INTRA:                  -0.016
REMARK UNBOUND:                -0.023
REMARK SMILES O=C([O-])c1cccnc1
REMARK SMILES IDX 4 1 5 2 9 3 6 4 8 5 7 6 2 7 1 8 3 9
REMARK H PARENT
REMARK Flexibility Score: inf
ROOT
ATOM      1  C   UNL     1    -119.999  -2.825  77.452  1.00  0.00     0.016 A 
ATOM      2  C   UNL     1    -119.504  -2.253  76.269  1.00  0.00     0.013 A 
ATOM      3  C   UNL     1    -120.739  -4.017  77.359  1.00  0.00     0.120 A 
ATOM      4  C   UNL     1    -119.749  -2.864  75.038  1.00  0.00     0.021 A 
ATOM      5  N   UNL     1    -120.964  -4.592  76.147  1.00  0.00    -0.264 NA
ATOM      6  C   UNL     1    -120.489  -4.046  74.997  1.00  0.00     0.111 A 
ENDROOT
BRANCH   1   7
ATOM      7  C   UNL     1    -119.746  -2.187  78.762  1.00  0.00     0.073 C 
ATOM      8  O   UNL     1    -118.784  -2.563  79.483  1.00  0.00    -0.545 OA
ATOM      9  O   UNL     1    -120.568  -1.162  79.215  1.00  0.00    -0.545 OA
ENDBRANCH   1   7
TORSDOF 1
ENDMDL
MODEL 8
REMARK VINA RESULT:    -3.858      3.069      3.862
REMARK INTER + INTRA:          -4.106
REMARK INTER:                  -4.085
REMARK INTRA:                  -0.021
REMARK UNBOUND:                -0.023
REMARK SMILES O=C([O-])c1cccnc1
REMARK SMILES IDX 4 1 5 2 9 3 6 4 8 5 7 6 2 7 1 8 3 9
REMARK H PARENT
REMARK Flexibility Score: inf
ROOT
ATOM      1  C   UNL     1    -119.241  -2.293  77.494  1.00  0.00     0.016 A 
ATOM      2  C   UNL     1    -119.175  -2.188  76.096  1.00  0.00     0.013 A 
ATOM      3  C   UNL     1    -120.072  -3.280  78.053  1.00  0.00     0.120 A 
ATOM      4  C   UNL     1    -119.922  -3.051  75.292  1.00  0.00     0.021 A 
ATOM      5  N   UNL     1    -120.790  -4.108  77.247  1.00  0.00    -0.264 NA
ATOM      6  C   UNL     1    -120.733  -4.015  75.893  1.00  0.00     0.111 A 
ENDROOT
BRANCH   1   7
ATOM      7  C   UNL     1    -118.455  -1.384  78.357  1.00  0.00     0.073 C 
ATOM      8  O   UNL     1    -118.314  -0.171  78.049  1.00  0.00    -0.545 OA
ATOM      9  O   UNL     1    -117.860  -1.857  79.520  1.00  0.00    -0.545 OA
ENDBRANCH   1   7
TORSDOF 1
ENDMDL
MODEL 9
REMARK VINA RESULT:    -3.822      2.390      2.602
REMARK INTER + INTRA:          -4.068
REMARK INTER:                  -4.052
REMARK INTRA:                  -0.016
REMARK UNBOUND:                -0.023
REMARK SMILES O=C([O-])c1cccnc1
REMARK SMILES IDX 4 1 5 2 9 3 6 4 8 5 7 6 2 7 1 8 3 9
REMARK H PARENT
REMARK Flexibility Score: inf
ROOT
ATOM      1  C   UNL     1    -118.900  -2.587  77.570  1.00  0.00     0.016 A 
ATOM      2  C   UNL     1    -117.565  -2.360  77.197  1.00  0.00     0.013 A 
ATOM      3  C   UNL     1    -119.208  -2.665  78.940  1.00  0.00     0.120 A 
ATOM      4  C   UNL     1    -116.579  -2.216  78.175  1.00  0.00     0.021 A 
ATOM      5  N   UNL     1    -118.228  -2.521  79.872  1.00  0.00    -0.264 NA
ATOM      6  C   UNL     1    -116.934  -2.301  79.522  1.00  0.00     0.111 A 
ENDROOT
BRANCH   1   7
ATOM      7  C   UNL     1    -119.954  -2.741  76.543  1.00  0.00     0.073 C 
ATOM      8  O   UNL     1    -120.426  -3.878  76.276  1.00  0.00    -0.545 OA
ATOM      9  O   UNL     1    -120.437  -1.632  75.860  1.00  0.00    -0.545 OA
ENDBRANCH   1   7
TORSDOF 1
ENDMDL
