MODEL 1
REMARK VINA RESULT:    -4.131      0.000      0.000
REMARK INTER + INTRA:          -8.914
REMARK INTER:                  -7.029
REMARK INTRA:                  -1.885
REMARK UNBOUND:                -1.885
REMARK SMILES CCCCCCCCCCCCCC(=O)[O-]
REMARK SMILES IDX 8 1 9 2 10 3 11 4 12 5 13 6 14 7 15 8 16 9 7 10 6 11 5 12
REMARK SMILES IDX 4 13 3 14 2 15 1 16
REMARK H PARENT
REMARK Flexibility Score: inf
ROOT
ATOM      1  C   UNL     1     -54.041  14.655 -30.281  1.00  0.00     0.000 C 
ENDROOT
BRANCH   1   2
ATOM      2  C   UNL     1     -52.734  14.310 -31.018  1.00  0.00     0.000 C 
BRANCH   2   3
ATOM      3  C   UNL     1     -51.849  15.521 -31.368  1.00  0.00     0.000 C 
BRANCH   3   4
ATOM      4  C   UNL     1     -50.460  15.457 -30.710  1.00  0.00     0.000 C 
BRANCH   4   5
ATOM      5  C   UNL     1     -50.380  14.402 -29.589  1.00  0.00     0.006 C 
BRANCH   5   6
ATOM      6  C   UNL     1     -49.252  13.374 -29.785  1.00  0.00     0.053 C 
BRANCH   6   7
ATOM      7  C   UNL     1     -49.690  11.975 -29.487  1.00  0.00     0.041 C 
ATOM      8  O   UNL     1     -50.827  11.574 -29.850  1.00  0.00    -0.550 OA
ATOM      9  O   UNL     1     -48.842  11.110 -28.805  1.00  0.00    -0.550 OA
ENDBRANCH   6   7
ENDBRANCH   5   6
ENDBRANCH   4   5
ENDBRANCH   3   4
ENDBRANCH   2   3
ENDBRANCH   1   2
BRANCH   1  10
ATOM     10  C   UNL     1     -53.918  14.542 -28.755  1.00  0.00     0.000 C 
BRANCH  10  11
ATOM     11  C   UNL     1     -54.081  15.914 -28.085  1.00  0.00    -0.000 C 
BRANCH  11  12
ATOM     12  C   UNL     1     -52.735  16.564 -27.720  1.00  0.00    -0.000 C 
BRANCH  12  13
ATOM     13  C   UNL     1     -52.399  17.849 -28.502  1.00  0.00    -0.000 C 
BRANCH  13  14
ATOM     14  C   UNL     1     -53.618  18.620 -29.049  1.00  0.00    -0.000 C 
BRANCH  14  15
ATOM     15  C   UNL     1     -53.881  18.430 -30.553  1.00  0.00    -0.003 C 
ATOM     16  C   UNL     1     -52.840  19.123 -31.430  1.00  0.00     0.004 C 
ENDBRANCH  14  15
ENDBRANCH  13  14
ENDBRANCH  12  13
ENDBRANCH  11  12
ENDBRANCH  10  11
ENDBRANCH   1  10
TORSDOF 12
ENDMDL
MODEL 2
REMARK VINA RESULT:    -4.130      1.837      3.372
REMARK INTER + INTRA:          -8.912
REMARK INTER:                  -8.018
REMARK INTRA:                  -0.894
REMARK UNBOUND:                -1.885
REMARK SMILES CCCCCCCCCCCCCC(=O)[O-]
REMARK SMILES IDX 8 1 9 2 10 3 11 4 12 5 13 6 14 7 15 8 16 9 7 10 6 11 5 12
REMARK SMILES IDX 4 13 3 14 2 15 1 16
REMARK H PARENT
REMARK Flexibility Score: inf
ROOT
ATOM      1  C   UNL     1     -50.391  15.333 -31.333  1.00  0.00     0.000 C 
ENDROOT
BRANCH   1   2
ATOM      2  C   UNL     1     -49.760  14.279 -30.405  1.00  0.00     0.000 C 
BRANCH   2   3
ATOM      3  C   UNL     1     -50.523  14.034 -29.090  1.00  0.00     0.000 C 
BRANCH   3   4
ATOM      4  C   UNL     1     -50.472  12.566 -28.632  1.00  0.00     0.000 C 
BRANCH   4   5
ATOM      5  C   UNL     1     -49.503  11.713 -29.476  1.00  0.00     0.006 C 
BRANCH   5   6
ATOM      6  C   UNL     1     -48.475  10.933 -28.639  1.00  0.00     0.053 C 
BRANCH   6   7
ATOM      7  C   UNL     1     -47.896   9.768 -29.377  1.00  0.00     0.041 C 
ATOM      8  O   UNL     1     -46.652   9.680 -29.549  1.00  0.00    -0.550 OA
ATOM      9  O   UNL     1     -48.731   8.777 -29.879  1.00  0.00    -0.550 OA
ENDBRANCH   6   7
ENDBRANCH   5   6
ENDBRANCH   4   5
ENDBRANCH   3   4
ENDBRANCH   2   3
ENDBRANCH   1   2
BRANCH   1  10
ATOM     10  C   UNL     1     -50.968  16.536 -30.573  1.00  0.00     0.000 C 
BRANCH  10  11
ATOM     11  C   UNL     1     -52.191  17.114 -31.301  1.00  0.00    -0.000 C 
BRANCH  11  12
ATOM     12  C   UNL     1     -52.591  18.506 -30.783  1.00  0.00    -0.000 C 
BRANCH  12  13
ATOM     13  C   UNL     1     -53.909  18.549 -29.985  1.00  0.00    -0.000 C 
BRANCH  13  14
ATOM     14  C   UNL     1     -53.748  18.519 -28.452  1.00  0.00    -0.000 C 
BRANCH  14  15
ATOM     15  C   UNL     1     -53.865  17.122 -27.817  1.00  0.00    -0.003 C 
ATOM     16  C   UNL     1     -52.620  16.722 -27.027  1.00  0.00     0.004 C 
ENDBRANCH  14  15
ENDBRANCH  13  14
ENDBRANCH  12  13
ENDBRANCH  11  12
ENDBRANCH  10  11
ENDBRANCH   1  10
TORSDOF 12
ENDMDL
MODEL 3
REMARK VINA RESULT:    -4.108     14.909     16.623
REMARK INTER + INTRA:          -8.875
REMARK INTER:                  -6.620
REMARK INTRA:                  -2.255
REMARK UNBOUND:                -1.885
REMARK SMILES CCCCCCCCCCCCCC(=O)[O-]
REMARK SMILES IDX 8 1 9 2 10 3 11 4 12 5 13 6 14 7 15 8 16 9 7 10 6 11 5 12
REMARK SMILES IDX 4 13 3 14 2 15 1 16
REMARK H PARENT
REMARK Flexibility Score: inf
ROOT
ATOM      1  C   UNL     1     -37.221  17.790 -29.232  1.00  0.00     0.000 C 
ENDROOT
BRANCH   1   2
ATOM      2  C   UNL     1     -36.968  18.410 -27.846  1.00  0.00     0.000 C 
BRANCH   2   3
ATOM      3  C   UNL     1     -35.821  19.436 -27.795  1.00  0.00     0.000 C 
BRANCH   3   4
ATOM      4  C   UNL     1     -34.794  19.241 -28.923  1.00  0.00     0.000 C 
BRANCH   4   5
ATOM      5  C   UNL     1     -34.532  20.535 -29.721  1.00  0.00     0.006 C 
BRANCH   5   6
ATOM      6  C   UNL     1     -34.885  20.424 -31.213  1.00  0.00     0.053 C 
BRANCH   6   7
ATOM      7  C   UNL     1     -35.109  21.759 -31.853  1.00  0.00     0.041 C 
ATOM      8  O   UNL     1     -35.819  21.855 -32.888  1.00  0.00    -0.550 OA
ATOM      9  O   UNL     1     -34.532  22.898 -31.306  1.00  0.00    -0.550 OA
ENDBRANCH   6   7
ENDBRANCH   5   6
ENDBRANCH   4   5
ENDBRANCH   3   4
ENDBRANCH   2   3
ENDBRANCH   1   2
BRANCH   1  10
ATOM     10  C   UNL     1     -38.585  18.174 -29.823  1.00  0.00     0.000 C 
BRANCH  10  11
ATOM     11  C   UNL     1     -38.420  19.112 -31.028  1.00  0.00    -0.000 C 
BRANCH  11  12
ATOM     12  C   UNL     1     -38.454  20.599 -30.635  1.00  0.00    -0.000 C 
BRANCH  12  13
ATOM     13  C   UNL     1     -39.212  20.910 -29.329  1.00  0.00    -0.000 C 
BRANCH  13  14
ATOM     14  C   UNL     1     -38.691  22.132 -28.545  1.00  0.00    -0.000 C 
BRANCH  14  15
ATOM     15  C   UNL     1     -37.346  22.691 -29.039  1.00  0.00    -0.003 C 
ATOM     16  C   UNL     1     -36.436  23.144 -27.897  1.00  0.00     0.004 C 
ENDBRANCH  14  15
ENDBRANCH  13  14
ENDBRANCH  12  13
ENDBRANCH  11  12
ENDBRANCH  10  11
ENDBRANCH   1  10
TORSDOF 12
ENDMDL
MODEL 4
REMARK VINA RESULT:    -4.055     14.263     16.505
REMARK INTER + INTRA:          -8.784
REMARK INTER:                  -7.526
REMARK INTRA:                  -1.258
REMARK UNBOUND:                -1.885
REMARK SMILES CCCCCCCCCCCCCC(=O)[O-]
REMARK SMILES IDX 8 1 9 2 10 3 11 4 12 5 13 6 14 7 15 8 16 9 7 10 6 11 5 12
REMARK SMILES IDX 4 13 3 14 2 15 1 16
REMARK H PARENT
REMARK Flexibility Score: inf
ROOT
ATOM      1  C   UNL     1     -34.442  21.066 -28.046  1.00  0.00     0.000 C 
ENDROOT
BRANCH   1   2
ATOM      2  C   UNL     1     -34.635  22.330 -27.188  1.00  0.00     0.000 C 
BRANCH   2   3
ATOM      3  C   UNL     1     -35.794  23.242 -27.631  1.00  0.00     0.000 C 
BRANCH   3   4
ATOM      4  C   UNL     1     -36.522  22.720 -28.882  1.00  0.00     0.000 C 
BRANCH   4   5
ATOM      5  C   UNL     1     -38.004  22.390 -28.614  1.00  0.00     0.006 C 
BRANCH   5   6
ATOM      6  C   UNL     1     -38.411  20.972 -29.046  1.00  0.00     0.053 C 
BRANCH   6   7
ATOM      7  C   UNL     1     -39.891  20.756 -28.995  1.00  0.00     0.041 C 
ATOM      8  O   UNL     1     -40.360  19.687 -28.523  1.00  0.00    -0.550 OA
ATOM      9  O   UNL     1     -40.755  21.735 -29.470  1.00  0.00    -0.550 OA
ENDBRANCH   6   7
ENDBRANCH   5   6
ENDBRANCH   4   5
ENDBRANCH   3   4
ENDBRANCH   2   3
ENDBRANCH   1   2
BRANCH   1  10
ATOM     10  C   UNL     1     -34.737  19.768 -27.280  1.00  0.00     0.000 C 
BRANCH  10  11
ATOM     11  C   UNL     1     -35.722  18.881 -28.056  1.00  0.00    -0.000 C 
BRANCH  11  12
ATOM     12  C   UNL     1     -35.066  18.161 -29.247  1.00  0.00    -0.000 C 
BRANCH  12  13
ATOM     13  C   UNL     1     -36.005  17.235 -30.044  1.00  0.00    -0.000 C 
BRANCH  13  14
ATOM     14  C   UNL     1     -37.495  17.323 -29.657  1.00  0.00    -0.000 C 
BRANCH  14  15
ATOM     15  C   UNL     1     -38.432  17.772 -30.792  1.00  0.00    -0.003 C 
ATOM     16  C   UNL     1     -39.479  16.718 -31.151  1.00  0.00     0.004 C 
ENDBRANCH  14  15
ENDBRANCH  13  14
ENDBRANCH  12  13
ENDBRANCH  11  12
ENDBRANCH  10  11
ENDBRANCH   1  10
TORSDOF 12
ENDMDL
MODEL 5
REMARK VINA RESULT:    -4.048      1.898      2.853
REMARK INTER + INTRA:          -8.772
REMARK INTER:                  -7.769
REMARK INTRA:                  -1.003
REMARK UNBOUND:                -1.885
REMARK SMILES CCCCCCCCCCCCCC(=O)[O-]
REMARK SMILES IDX 8 1 9 2 10 3 11 4 12 5 13 6 14 7 15 8 16 9 7 10 6 11 5 12
REMARK SMILES IDX 4 13 3 14 2 15 1 16
REMARK H PARENT
REMARK Flexibility Score: inf
ROOT
ATOM      1  C   UNL     1     -51.296  14.637 -28.790  1.00  0.00     0.000 C 
ENDROOT
BRANCH   1   2
ATOM      2  C   UNL     1     -50.453  14.378 -30.053  1.00  0.00     0.000 C 
BRANCH   2   3
ATOM      3  C   UNL     1     -49.368  13.297 -29.897  1.00  0.00     0.000 C 
BRANCH   3   4
ATOM      4  C   UNL     1     -49.952  11.886 -29.709  1.00  0.00     0.000 C 
BRANCH   4   5
ATOM      5  C   UNL     1     -48.905  10.869 -29.213  1.00  0.00     0.006 C 
BRANCH   5   6
ATOM      6  C   UNL     1     -48.924   9.535 -29.980  1.00  0.00     0.053 C 
BRANCH   6   7
ATOM      7  C   UNL     1     -47.567   8.914 -30.090  1.00  0.00     0.041 C 
ATOM      8  O   UNL     1     -47.422   7.804 -30.665  1.00  0.00    -0.550 OA
ATOM      9  O   UNL     1     -46.460   9.562 -29.557  1.00  0.00    -0.550 OA
ENDBRANCH   6   7
ENDBRANCH   5   6
ENDBRANCH   4   5
ENDBRANCH   3   4
ENDBRANCH   2   3
ENDBRANCH   1   2
BRANCH   1  10
ATOM     10  C   UNL     1     -52.805  14.502 -29.037  1.00  0.00     0.000 C 
BRANCH  10  11
ATOM     11  C   UNL     1     -53.597  15.488 -28.166  1.00  0.00    -0.000 C 
BRANCH  11  12
ATOM     12  C   UNL     1     -52.689  16.400 -27.321  1.00  0.00    -0.000 C 
BRANCH  12  13
ATOM     13  C   UNL     1     -52.621  17.866 -27.792  1.00  0.00    -0.000 C 
BRANCH  13  14
ATOM     14  C   UNL     1     -53.595  18.234 -28.929  1.00  0.00    -0.000 C 
BRANCH  14  15
ATOM     15  C   UNL     1     -52.948  18.355 -30.320  1.00  0.00    -0.003 C 
ATOM     16  C   UNL     1     -51.463  17.994 -30.319  1.00  0.00     0.004 C 
ENDBRANCH  14  15
ENDBRANCH  13  14
ENDBRANCH  12  13
ENDBRANCH  11  12
ENDBRANCH  10  11
ENDBRANCH   1  10
TORSDOF 12
ENDMDL
MODEL 6
REMARK VINA RESULT:    -4.042      1.368      3.051
REMARK INTER + INTRA:          -8.763
REMARK INTER:                  -7.043
REMARK INTRA:                  -1.720
REMARK UNBOUND:                -1.885
REMARK SMILES CCCCCCCCCCCCCC(=O)[O-]
REMARK SMILES IDX 8 1 9 2 10 3 11 4 12 5 13 6 14 7 15 8 16 9 7 10 6 11 5 12
REMARK SMILES IDX 4 13 3 14 2 15 1 16
REMARK H PARENT
REMARK Flexibility Score: inf
ROOT
ATOM      1  C   UNL     1     -50.424  14.922 -30.283  1.00  0.00     0.000 C 
ENDROOT
BRANCH   1   2
ATOM      2  C   UNL     1     -51.062  14.486 -28.951  1.00  0.00     0.000 C 
BRANCH   2   3
ATOM      3  C   UNL     1     -52.415  13.764 -29.086  1.00  0.00     0.000 C 
BRANCH   3   4
ATOM      4  C   UNL     1     -52.479  12.840 -30.315  1.00  0.00     0.000 C 
BRANCH   4   5
ATOM      5  C   UNL     1     -51.902  11.438 -30.037  1.00  0.00     0.006 C 
BRANCH   5   6
ATOM      6  C   UNL     1     -50.538  11.186 -30.702  1.00  0.00     0.053 C 
BRANCH   6   7
ATOM      7  C   UNL     1     -49.492  10.751 -29.724  1.00  0.00     0.041 C 
ATOM      8  O   UNL     1     -48.866   9.674 -29.903  1.00  0.00    -0.550 OA
ATOM      9  O   UNL     1     -49.208  11.535 -28.613  1.00  0.00    -0.550 OA
ENDBRANCH   6   7
ENDBRANCH   5   6
ENDBRANCH   4   5
ENDBRANCH   3   4
ENDBRANCH   2   3
ENDBRANCH   1   2
BRANCH   1  10
ATOM     10  C   UNL     1     -50.752  16.374 -30.660  1.00  0.00     0.000 C 
BRANCH  10  11
ATOM     11  C   UNL     1     -51.976  16.440 -31.585  1.00  0.00    -0.000 C 
BRANCH  11  12
ATOM     12  C   UNL     1     -53.236  16.959 -30.870  1.00  0.00    -0.000 C 
BRANCH  12  13
ATOM     13  C   UNL     1     -53.132  18.399 -30.331  1.00  0.00    -0.000 C 
BRANCH  13  14
ATOM     14  C   UNL     1     -53.426  18.558 -28.826  1.00  0.00    -0.000 C 
BRANCH  14  15
ATOM     15  C   UNL     1     -53.587  17.236 -28.055  1.00  0.00    -0.003 C 
ATOM     16  C   UNL     1     -52.591  17.095 -26.905  1.00  0.00     0.004 C 
ENDBRANCH  14  15
ENDBRANCH  13  14
ENDBRANCH  12  13
ENDBRANCH  11  12
ENDBRANCH  10  11
ENDBRANCH   1  10
TORSDOF 12
ENDMDL
MODEL 7
REMARK VINA RESULT:    -4.000      6.002      8.212
REMARK INTER + INTRA:          -8.691
REMARK INTER:                  -6.581
REMARK INTRA:                  -2.110
REMARK UNBOUND:                -1.885
REMARK SMILES CCCCCCCCCCCCCC(=O)[O-]
REMARK SMILES IDX 8 1 9 2 10 3 11 4 12 5 13 6 14 7 15 8 16 9 7 10 6 11 5 12
REMARK SMILES IDX 4 13 3 14 2 15 1 16
REMARK H PARENT
REMARK Flexibility Score: inf
ROOT
ATOM      1  C   UNL     1     -51.948  10.533 -31.531  1.00  0.00     0.000 C 
ENDROOT
BRANCH   1   2
ATOM      2  C   UNL     1     -51.074  10.025 -32.693  1.00  0.00     0.000 C 
BRANCH   2   3
ATOM      3  C   UNL     1     -49.614   9.713 -32.316  1.00  0.00     0.000 C 
BRANCH   3   4
ATOM      4  C   UNL     1     -49.159   8.322 -32.789  1.00  0.00     0.000 C 
BRANCH   4   5
ATOM      5  C   UNL     1     -48.549   7.477 -31.653  1.00  0.00     0.006 C 
BRANCH   5   6
ATOM      6  C   UNL     1     -48.606   8.158 -30.275  1.00  0.00     0.053 C 
BRANCH   6   7
ATOM      7  C   UNL     1     -47.260   8.265 -29.629  1.00  0.00     0.041 C 
ATOM      8  O   UNL     1     -46.779   7.287 -28.999  1.00  0.00    -0.550 OA
ATOM      9  O   UNL     1     -46.536   9.448 -29.721  1.00  0.00    -0.550 OA
ENDBRANCH   6   7
ENDBRANCH   5   6
ENDBRANCH   4   5
ENDBRANCH   3   4
ENDBRANCH   2   3
ENDBRANCH   1   2
BRANCH   1  10
ATOM     10  C   UNL     1     -53.152   9.625 -31.242  1.00  0.00     0.000 C 
BRANCH  10  11
ATOM     11  C   UNL     1     -52.871   8.701 -30.049  1.00  0.00    -0.000 C 
BRANCH  11  12
ATOM     12  C   UNL     1     -52.237   7.362 -30.467  1.00  0.00    -0.000 C 
BRANCH  12  13
ATOM     13  C   UNL     1     -53.013   6.584 -31.548  1.00  0.00    -0.000 C 
BRANCH  13  14
ATOM     14  C   UNL     1     -52.149   6.011 -32.690  1.00  0.00    -0.000 C 
BRANCH  14  15
ATOM     15  C   UNL     1     -52.273   6.756 -34.030  1.00  0.00    -0.003 C 
ATOM     16  C   UNL     1     -53.638   7.417 -34.219  1.00  0.00     0.004 C 
ENDBRANCH  14  15
ENDBRANCH  13  14
ENDBRANCH  12  13
ENDBRANCH  11  12
ENDBRANCH  10  11
ENDBRANCH   1  10
TORSDOF 12
ENDMDL
MODEL 8
REMARK VINA RESULT:    -3.998      1.813      3.659
REMARK INTER + INTRA:          -8.687
REMARK INTER:                  -7.290
REMARK INTRA:                  -1.397
REMARK UNBOUND:                -1.885
REMARK SMILES CCCCCCCCCCCCCC(=O)[O-]
REMARK SMILES IDX 8 1 9 2 10 3 11 4 12 5 13 6 14 7 15 8 16 9 7 10 6 11 5 12
REMARK SMILES IDX 4 13 3 14 2 15 1 16
REMARK H PARENT
REMARK Flexibility Score: inf
ROOT
ATOM      1  C   UNL     1     -49.837  14.340 -30.383  1.00  0.00     0.000 C 
ENDROOT
BRANCH   1   2
ATOM      2  C   UNL     1     -50.610  13.954 -29.108  1.00  0.00     0.000 C 
BRANCH   2   3
ATOM      3  C   UNL     1     -50.190  12.614 -28.477  1.00  0.00     0.000 C 
BRANCH   3   4
ATOM      4  C   UNL     1     -49.227  11.809 -29.367  1.00  0.00     0.000 C 
BRANCH   4   5
ATOM      5  C   UNL     1     -49.896  10.576 -30.006  1.00  0.00     0.006 C 
BRANCH   5   6
ATOM      6  C   UNL     1     -50.260  10.766 -31.488  1.00  0.00     0.053 C 
BRANCH   6   7
ATOM      7  C   UNL     1     -51.737  10.854 -31.712  1.00  0.00     0.041 C 
ATOM      8  O   UNL     1     -52.378   9.851 -32.121  1.00  0.00    -0.550 OA
ATOM      9  O   UNL     1     -52.408  12.047 -31.469  1.00  0.00    -0.550 OA
ENDBRANCH   6   7
ENDBRANCH   5   6
ENDBRANCH   4   5
ENDBRANCH   3   4
ENDBRANCH   2   3
ENDBRANCH   1   2
BRANCH   1  10
ATOM     10  C   UNL     1     -50.347  15.637 -31.027  1.00  0.00     0.000 C 
BRANCH  10  11
ATOM     11  C   UNL     1     -51.855  15.558 -31.305  1.00  0.00    -0.000 C 
BRANCH  11  12
ATOM     12  C   UNL     1     -52.549  16.929 -31.227  1.00  0.00    -0.000 C 
BRANCH  12  13
ATOM     13  C   UNL     1     -51.966  17.894 -30.176  1.00  0.00    -0.000 C 
BRANCH  13  14
ATOM     14  C   UNL     1     -52.934  18.291 -29.043  1.00  0.00    -0.000 C 
BRANCH  14  15
ATOM     15  C   UNL     1     -52.615  17.667 -27.673  1.00  0.00    -0.003 C 
ATOM     16  C   UNL     1     -53.048  16.205 -27.571  1.00  0.00     0.004 C 
ENDBRANCH  14  15
ENDBRANCH  13  14
ENDBRANCH  12  13
ENDBRANCH  11  12
ENDBRANCH  10  11
ENDBRANCH   1  10
TORSDOF 12
ENDMDL
MODEL 9
REMARK VINA RESULT:    -3.977      2.741      5.587
REMARK INTER + INTRA:          -8.651
REMARK INTER:                  -7.076
REMARK INTRA:                  -1.574
REMARK UNBOUND:                -1.885
REMARK SMILES CCCCCCCCCCCCCC(=O)[O-]
REMARK SMILES IDX 8 1 9 2 10 3 11 4 12 5 13 6 14 7 15 8 16 9 7 10 6 11 5 12
REMARK SMILES IDX 4 13 3 14 2 15 1 16
REMARK H PARENT
REMARK Flexibility Score: inf
ROOT
ATOM      1  C   UNL     1     -53.771  13.616 -28.150  1.00  0.00     0.000 C 
ENDROOT
BRANCH   1   2
ATOM      2  C   UNL     1     -53.959  15.140 -28.258  1.00  0.00     0.000 C 
BRANCH   2   3
ATOM      3  C   UNL     1     -52.781  15.977 -27.726  1.00  0.00     0.000 C 
BRANCH   3   4
ATOM      4  C   UNL     1     -53.178  17.427 -27.395  1.00  0.00     0.000 C 
BRANCH   4   5
ATOM      5  C   UNL     1     -53.113  18.357 -28.623  1.00  0.00     0.006 C 
BRANCH   5   6
ATOM      6  C   UNL     1     -52.052  17.947 -29.657  1.00  0.00     0.053 C 
BRANCH   6   7
ATOM      7  C   UNL     1     -52.504  18.167 -31.066  1.00  0.00     0.041 C 
ATOM      8  O   UNL     1     -52.367  19.295 -31.608  1.00  0.00    -0.550 OA
ATOM      9  O   UNL     1     -53.081  17.125 -31.783  1.00  0.00    -0.550 OA
ENDBRANCH   6   7
ENDBRANCH   5   6
ENDBRANCH   4   5
ENDBRANCH   3   4
ENDBRANCH   2   3
ENDBRANCH   1   2
BRANCH   1  10
ATOM     10  C   UNL     1     -53.817  12.907 -29.511  1.00  0.00     0.000 C 
BRANCH  10  11
ATOM     11  C   UNL     1     -53.437  13.867 -30.647  1.00  0.00    -0.000 C 
BRANCH  11  12
ATOM     12  C   UNL     1     -52.015  13.625 -31.183  1.00  0.00    -0.000 C 
BRANCH  12  13
ATOM     13  C   UNL     1     -50.928  14.535 -30.577  1.00  0.00    -0.000 C 
BRANCH  13  14
ATOM     14  C   UNL     1     -49.749  13.795 -29.914  1.00  0.00    -0.000 C 
BRANCH  14  15
ATOM     15  C   UNL     1     -50.149  12.801 -28.809  1.00  0.00    -0.003 C 
ATOM     16  C   UNL     1     -49.120  11.690 -28.609  1.00  0.00     0.004 C 
ENDBRANCH  14  15
ENDBRANCH  13  14
ENDBRANCH  12  13
ENDBRANCH  11  12
ENDBRANCH  10  11
ENDBRANCH   1  10
TORSDOF 12
ENDMDL
