MODEL 1
REMARK VINA RESULT:    -5.909      0.000      0.000
REMARK INTER + INTRA:          -7.211
REMARK INTER:                  -6.945
REMARK INTRA:                  -0.266
REMARK UNBOUND:                -0.266
REMARK SMILES O=c1cc(-c2ccc(O)c(O)c2)oc2cc(O)cc(O)c12
REMARK SMILES IDX 4 1 3 2 2 3 1 4 21 5 19 6 18 7 16 8 15 9 14 10 13 11 5 12
REMARK SMILES IDX 6 13 7 14 8 15 12 16 10 17 9 18 11 20 20 22 17 24
REMARK H PARENT 9 19 11 21 20 23 17 25
REMARK Flexibility Score: inf
ROOT
ATOM      1  C   UNL     1       5.258  10.736   7.137  1.00  0.00     0.138 A 
ATOM      2  C   UNL     1       5.152   9.399   7.542  1.00  0.00     0.100 A 
ATOM      3  C   UNL     1       4.175   9.033   8.469  1.00  0.00     0.197 A 
ATOM      4  O   UNL     1       4.064   7.816   8.766  1.00  0.00    -0.289 OA
ATOM      5  C   UNL     1       3.321  10.021   9.018  1.00  0.00     0.107 A 
ATOM      6  C   UNL     1       2.317   9.772   9.999  1.00  0.00     0.134 A 
ATOM      7  C   UNL     1       1.453  10.807  10.382  1.00  0.00     0.093 A 
ATOM      8  C   UNL     1       1.598  12.095   9.861  1.00  0.00     0.123 A 
ATOM      9  C   UNL     1       2.611  12.361   8.942  1.00  0.00     0.094 A 
ATOM     10  C   UNL     1       3.466  11.342   8.515  1.00  0.00     0.146 A 
ATOM     11  O   UNL     1       4.409  11.634   7.625  1.00  0.00    -0.456 OA
ENDROOT
BRANCH   1  12
ATOM     12  C   UNL     1       6.279  11.179   6.155  1.00  0.00     0.021 A 
ATOM     13  C   UNL     1       5.918  11.762   4.925  1.00  0.00     0.016 A 
ATOM     14  C   UNL     1       6.901  12.159   4.014  1.00  0.00     0.051 A 
ATOM     15  C   UNL     1       8.257  11.977   4.310  1.00  0.00     0.157 A 
ATOM     16  C   UNL     1       7.643  10.986   6.438  1.00  0.00     0.062 A 
ATOM     17  C   UNL     1       8.629  11.385   5.528  1.00  0.00     0.158 A 
BRANCH  15  18
ATOM     18  O   UNL     1       9.234  12.375   3.399  1.00  0.00    -0.504 OA
ATOM     19  H   UNL     1       9.335  13.345   3.121  1.00  0.00     0.293 HD
ENDBRANCH  15  18
BRANCH  17  20
ATOM     20  O   UNL     1       9.971  11.184   5.851  1.00  0.00    -0.504 OA
ATOM     21  H   UNL     1      10.302  11.199   6.809  1.00  0.00     0.293 HD
ENDBRANCH  17  20
ENDBRANCH   1  12
BRANCH   6  22
ATOM     22  O   UNL     1       2.142   8.545  10.644  1.00  0.00    -0.507 OA
ATOM     23  H   UNL     1       2.647   7.699  10.424  1.00  0.00     0.293 HD
ENDBRANCH   6  22
BRANCH   8  24
ATOM     24  O   UNL     1       0.745  13.122  10.258  1.00  0.00    -0.508 OA
ATOM     25  H   UNL     1      -0.013  13.441   9.666  1.00  0.00     0.293 HD
ENDBRANCH   8  24
TORSDOF 5
ENDMDL
MODEL 2
REMARK VINA RESULT:    -3.484      1.730      7.184
REMARK INTER + INTRA:          -4.361
REMARK INTER:                  -4.098
REMARK INTRA:                  -0.263
REMARK UNBOUND:                -0.266
REMARK SMILES O=c1cc(-c2ccc(O)c(O)c2)oc2cc(O)cc(O)c12
REMARK SMILES IDX 4 1 3 2 2 3 1 4 21 5 19 6 18 7 16 8 15 9 14 10 13 11 5 12
REMARK SMILES IDX 6 13 7 14 8 15 12 16 10 17 9 18 11 20 20 22 17 24
REMARK H PARENT 9 19 11 21 20 23 17 25
REMARK Flexibility Score: inf
ROOT
ATOM      1  C   UNL     1       5.152  12.110   8.463  1.00  0.00     0.138 A 
ATOM      2  C   UNL     1       6.238  12.517   9.250  1.00  0.00     0.100 A 
ATOM      3  C   UNL     1       7.489  12.700   8.659  1.00  0.00     0.197 A 
ATOM      4  O   UNL     1       8.430  13.125   9.378  1.00  0.00    -0.289 OA
ATOM      5  C   UNL     1       7.659  12.440   7.277  1.00  0.00     0.107 A 
ATOM      6  C   UNL     1       8.896  12.552   6.576  1.00  0.00     0.134 A 
ATOM      7  C   UNL     1       8.919  12.384   5.185  1.00  0.00     0.093 A 
ATOM      8  C   UNL     1       7.760  12.048   4.481  1.00  0.00     0.123 A 
ATOM      9  C   UNL     1       6.558  11.884   5.164  1.00  0.00     0.094 A 
ATOM     10  C   UNL     1       6.495  12.079   6.546  1.00  0.00     0.146 A 
ATOM     11  O   UNL     1       5.326  11.927   7.158  1.00  0.00    -0.456 OA
ENDROOT
BRANCH   1  12
ATOM     12  C   UNL     1       3.801  11.901   9.040  1.00  0.00     0.021 A 
ATOM     13  C   UNL     1       2.838  12.928   9.058  1.00  0.00     0.016 A 
ATOM     14  C   UNL     1       1.576  12.706   9.619  1.00  0.00     0.051 A 
ATOM     15  C   UNL     1       1.257  11.462  10.176  1.00  0.00     0.157 A 
ATOM     16  C   UNL     1       3.477  10.659   9.614  1.00  0.00     0.062 A 
ATOM     17  C   UNL     1       2.213  10.434  10.174  1.00  0.00     0.158 A 
BRANCH  15  18
ATOM     18  O   UNL     1      -0.002  11.245  10.732  1.00  0.00    -0.504 OA
ATOM     19  H   UNL     1      -0.618  10.520  10.382  1.00  0.00     0.293 HD
ENDBRANCH  15  18
BRANCH  17  20
ATOM     20  O   UNL     1       1.929   9.185  10.725  1.00  0.00    -0.504 OA
ATOM     21  H   UNL     1       2.448   8.353  10.469  1.00  0.00     0.293 HD
ENDBRANCH  17  20
ENDBRANCH   1  12
BRANCH   6  22
ATOM     22  O   UNL     1      10.125  12.800   7.194  1.00  0.00    -0.507 OA
ATOM     23  H   UNL     1      10.970  13.067   6.712  1.00  0.00     0.293 HD
ENDBRANCH   6  22
BRANCH   8  24
ATOM     24  O   UNL     1       7.795  11.867   3.101  1.00  0.00    -0.508 OA
ATOM     25  H   UNL     1       7.445  12.574   2.464  1.00  0.00     0.293 HD
ENDBRANCH   8  24
TORSDOF 5
ENDMDL
