MODEL 1
REMARK VINA RESULT:    -2.975      0.000      0.000
REMARK INTER + INTRA:          -3.788
REMARK INTER:                  -3.584
REMARK INTRA:                  -0.204
REMARK UNBOUND:                -0.204
REMARK SMILES OCC(O)CO
REMARK SMILES IDX 3 1 5 2 6 3 2 5 1 6 4 8
REMARK H PARENT 6 4 1 7 4 9
REMARK Flexibility Score: inf
ROOT
ATOM      1  C   UNL     1       9.682  20.106  54.341  1.00  0.00     0.165 C 
ENDROOT
BRANCH   1   2
ATOM      2  C   UNL     1       8.690  21.198  53.920  1.00  0.00     0.190 C 
BRANCH   2   3
ATOM      3  O   UNL     1       9.353  22.242  53.260  1.00  0.00    -0.394 OA
ATOM      4  H   UNL     1      10.099  22.514  53.855  1.00  0.00     0.210 HD
ENDBRANCH   2   3
ENDBRANCH   1   2
BRANCH   1   5
ATOM      5  C   UNL     1       9.912  19.068  53.229  1.00  0.00     0.190 C 
BRANCH   5   6
ATOM      6  O   UNL     1       9.185  19.394  52.074  1.00  0.00    -0.394 OA
ATOM      7  H   UNL     1       9.748  19.145  51.296  1.00  0.00     0.210 HD
ENDBRANCH   5   6
ENDBRANCH   1   5
BRANCH   1   8
ATOM      8  O   UNL     1      10.899  20.696  54.722  1.00  0.00    -0.388 OA
ATOM      9  H   UNL     1      11.171  20.268  55.575  1.00  0.00     0.211 HD
ENDBRANCH   1   8
TORSDOF 5
ENDMDL
MODEL 2
REMARK VINA RESULT:    -2.937      0.751      2.501
REMARK INTER + INTRA:          -3.742
REMARK INTER:                  -3.520
REMARK INTRA:                  -0.223
REMARK UNBOUND:                -0.204
REMARK SMILES OCC(O)CO
REMARK SMILES IDX 3 1 5 2 6 3 2 5 1 6 4 8
REMARK H PARENT 6 4 1 7 4 9
REMARK Flexibility Score: inf
ROOT
ATOM      1  C   UNL     1       8.904  19.822  53.813  1.00  0.00     0.165 C 
ENDROOT
BRANCH   1   2
ATOM      2  C   UNL     1       9.986  19.745  54.898  1.00  0.00     0.190 C 
BRANCH   2   3
ATOM      3  O   UNL     1      10.927  20.771  54.732  1.00  0.00    -0.394 OA
ATOM      4  H   UNL     1      10.497  21.446  54.145  1.00  0.00     0.210 HD
ENDBRANCH   2   3
ENDBRANCH   1   2
BRANCH   1   5
ATOM      5  C   UNL     1       8.134  21.153  53.850  1.00  0.00     0.190 C 
BRANCH   5   6
ATOM      6  O   UNL     1       8.878  22.184  53.255  1.00  0.00    -0.394 OA
ATOM      7  H   UNL     1       8.548  22.281  52.324  1.00  0.00     0.210 HD
ENDBRANCH   5   6
ENDBRANCH   1   5
BRANCH   1   8
ATOM      8  O   UNL     1       9.489  19.628  52.550  1.00  0.00    -0.388 OA
ATOM      9  H   UNL     1       9.545  18.648  52.406  1.00  0.00     0.211 HD
ENDBRANCH   1   8
TORSDOF 5
ENDMDL
MODEL 3
REMARK VINA RESULT:    -2.921      0.762      2.397
REMARK INTER + INTRA:          -3.723
REMARK INTER:                  -3.716
REMARK INTRA:                  -0.007
REMARK UNBOUND:                -0.204
REMARK SMILES OCC(O)CO
REMARK SMILES IDX 3 1 5 2 6 3 2 5 1 6 4 8
REMARK H PARENT 6 4 1 7 4 9
REMARK Flexibility Score: inf
ROOT
ATOM      1  C   UNL     1       8.913  20.959  54.005  1.00  0.00     0.165 C 
ENDROOT
BRANCH   1   2
ATOM      2  C   UNL     1       7.905  20.278  53.069  1.00  0.00     0.190 C 
BRANCH   2   3
ATOM      3  O   UNL     1       8.562  19.682  51.984  1.00  0.00    -0.394 OA
ATOM      4  H   UNL     1       8.751  20.414  51.341  1.00  0.00     0.210 HD
ENDBRANCH   2   3
ENDBRANCH   1   2
BRANCH   1   5
ATOM      5  C   UNL     1       9.970  19.976  54.538  1.00  0.00     0.190 C 
BRANCH   5   6
ATOM      6  O   UNL     1      11.098  20.658  55.018  1.00  0.00    -0.394 OA
ATOM      7  H   UNL     1      10.811  21.584  55.228  1.00  0.00     0.210 HD
ENDBRANCH   5   6
ENDBRANCH   1   5
BRANCH   1   8
ATOM      8  O   UNL     1       9.531  22.027  53.334  1.00  0.00    -0.388 OA
ATOM      9  H   UNL     1       9.337  22.847  53.858  1.00  0.00     0.211 HD
ENDBRANCH   1   8
TORSDOF 5
ENDMDL
MODEL 4
REMARK VINA RESULT:    -2.893     19.286     20.540
REMARK INTER + INTRA:          -3.689
REMARK INTER:                  -3.469
REMARK INTRA:                  -0.220
REMARK UNBOUND:                -0.204
REMARK SMILES OCC(O)CO
REMARK SMILES IDX 3 1 5 2 6 3 2 5 1 6 4 8
REMARK H PARENT 6 4 1 7 4 9
REMARK Flexibility Score: inf
ROOT
ATOM      1  C   UNL     1       9.331  10.405  35.228  1.00  0.00     0.165 C 
ENDROOT
BRANCH   1   2
ATOM      2  C   UNL     1       9.882  11.375  36.282  1.00  0.00     0.190 C 
BRANCH   2   3
ATOM      3  O   UNL     1      10.234  10.687  37.452  1.00  0.00    -0.394 OA
ATOM      4  H   UNL     1      11.100  11.071  37.746  1.00  0.00     0.210 HD
ENDBRANCH   2   3
ENDBRANCH   1   2
BRANCH   1   5
ATOM      5  C   UNL     1       9.779   8.954  35.481  1.00  0.00     0.190 C 
BRANCH   5   6
ATOM      6  O   UNL     1       8.960   8.331  36.435  1.00  0.00    -0.394 OA
ATOM      7  H   UNL     1       9.066   8.836  37.283  1.00  0.00     0.210 HD
ENDBRANCH   5   6
ENDBRANCH   1   5
BRANCH   1   8
ATOM      8  O   UNL     1       7.929  10.488  35.199  1.00  0.00    -0.388 OA
ATOM      9  H   UNL     1       7.663  10.516  34.243  1.00  0.00     0.211 HD
ENDBRANCH   1   8
TORSDOF 5
ENDMDL
MODEL 5
REMARK VINA RESULT:    -2.889     19.808     20.710
REMARK INTER + INTRA:          -3.684
REMARK INTER:                  -3.461
REMARK INTRA:                  -0.223
REMARK UNBOUND:                -0.204
REMARK SMILES OCC(O)CO
REMARK SMILES IDX 3 1 5 2 6 3 2 5 1 6 4 8
REMARK H PARENT 6 4 1 7 4 9
REMARK Flexibility Score: inf
ROOT
ATOM      1  C   UNL     1      10.166  10.054  36.075  1.00  0.00     0.165 C 
ENDROOT
BRANCH   1   2
ATOM      2  C   UNL     1       9.845   8.663  35.512  1.00  0.00     0.190 C 
BRANCH   2   3
ATOM      3  O   UNL     1       8.958   7.980  36.355  1.00  0.00    -0.394 OA
ATOM      4  H   UNL     1       8.272   8.643  36.628  1.00  0.00     0.210 HD
ENDBRANCH   2   3
ENDBRANCH   1   2
BRANCH   1   5
ATOM      5  C   UNL     1       9.123  11.106  35.661  1.00  0.00     0.190 C 
BRANCH   5   6
ATOM      6  O   UNL     1       7.960  10.497  35.164  1.00  0.00    -0.394 OA
ATOM      7  H   UNL     1       7.488  10.096  35.939  1.00  0.00     0.210 HD
ENDBRANCH   5   6
ENDBRANCH   1   5
BRANCH   1   8
ATOM      8  O   UNL     1      10.264   9.983  37.475  1.00  0.00    -0.388 OA
ATOM      9  H   UNL     1       9.346  10.105  37.834  1.00  0.00     0.211 HD
ENDBRANCH   1   8
TORSDOF 5
ENDMDL
MODEL 6
REMARK VINA RESULT:    -2.818      1.277      2.238
REMARK INTER + INTRA:          -3.599
REMARK INTER:                  -3.378
REMARK INTRA:                  -0.221
REMARK UNBOUND:                -0.204
REMARK SMILES OCC(O)CO
REMARK SMILES IDX 3 1 5 2 6 3 2 5 1 6 4 8
REMARK H PARENT 6 4 1 7 4 9
REMARK Flexibility Score: inf
ROOT
ATOM      1  C   UNL     1       8.889  19.803  53.977  1.00  0.00     0.165 C 
ENDROOT
BRANCH   1   2
ATOM      2  C   UNL     1       8.141  21.142  53.936  1.00  0.00     0.190 C 
BRANCH   2   3
ATOM      3  O   UNL     1       8.913  22.120  53.293  1.00  0.00    -0.394 OA
ATOM      4  H   UNL     1       8.878  22.924  53.874  1.00  0.00     0.210 HD
ENDBRANCH   2   3
ENDBRANCH   1   2
BRANCH   1   5
ATOM      5  C   UNL     1      10.002  19.789  55.040  1.00  0.00     0.190 C 
BRANCH   5   6
ATOM      6  O   UNL     1      10.973  20.764  54.767  1.00  0.00    -0.394 OA
ATOM      7  H   UNL     1      11.407  20.992  55.630  1.00  0.00     0.210 HD
ENDBRANCH   5   6
ENDBRANCH   1   5
BRANCH   1   8
ATOM      8  O   UNL     1       7.975  18.761  54.210  1.00  0.00    -0.388 OA
ATOM      9  H   UNL     1       7.075  19.113  53.986  1.00  0.00     0.211 HD
ENDBRANCH   1   8
TORSDOF 5
ENDMDL
MODEL 7
REMARK VINA RESULT:    -2.761      1.889      2.180
REMARK INTER + INTRA:          -3.529
REMARK INTER:                  -3.331
REMARK INTRA:                  -0.198
REMARK UNBOUND:                -0.204
REMARK SMILES OCC(O)CO
REMARK SMILES IDX 3 1 5 2 6 3 2 5 1 6 4 8
REMARK H PARENT 6 4 1 7 4 9
REMARK Flexibility Score: inf
ROOT
ATOM      1  C   UNL     1       7.714  20.505  53.615  1.00  0.00     0.165 C 
ENDROOT
BRANCH   1   2
ATOM      2  C   UNL     1       9.153  20.667  54.123  1.00  0.00     0.190 C 
BRANCH   2   3
ATOM      3  O   UNL     1       9.783  21.747  53.490  1.00  0.00    -0.394 OA
ATOM      4  H   UNL     1      10.629  21.390  53.114  1.00  0.00     0.210 HD
ENDBRANCH   2   3
ENDBRANCH   1   2
BRANCH   1   5
ATOM      5  C   UNL     1       7.602  19.436  52.514  1.00  0.00     0.190 C 
BRANCH   5   6
ATOM      6  O   UNL     1       8.692  19.501  51.633  1.00  0.00    -0.394 OA
ATOM      7  H   UNL     1       9.494  19.209  52.140  1.00  0.00     0.210 HD
ENDBRANCH   5   6
ENDBRANCH   1   5
BRANCH   1   8
ATOM      8  O   UNL     1       6.866  20.193  54.691  1.00  0.00    -0.388 OA
ATOM      9  H   UNL     1       6.233  20.951  54.787  1.00  0.00     0.211 HD
ENDBRANCH   1   8
TORSDOF 5
ENDMDL
MODEL 8
REMARK VINA RESULT:    -2.739      1.713      2.598
REMARK INTER + INTRA:          -3.504
REMARK INTER:                  -3.301
REMARK INTRA:                  -0.203
REMARK UNBOUND:                -0.204
REMARK SMILES OCC(O)CO
REMARK SMILES IDX 3 1 5 2 6 3 2 5 1 6 4 8
REMARK H PARENT 6 4 1 7 4 9
REMARK Flexibility Score: inf
ROOT
ATOM      1  C   UNL     1       8.381  19.648  53.911  1.00  0.00     0.165 C 
ENDROOT
BRANCH   1   2
ATOM      2  C   UNL     1       7.885  19.604  52.459  1.00  0.00     0.190 C 
BRANCH   2   3
ATOM      3  O   UNL     1       8.947  19.344  51.581  1.00  0.00    -0.394 OA
ATOM      4  H   UNL     1       9.761  19.286  52.145  1.00  0.00     0.210 HD
ENDBRANCH   2   3
ENDBRANCH   1   2
BRANCH   1   5
ATOM      5  C   UNL     1       9.761  20.316  54.036  1.00  0.00     0.190 C 
BRANCH   5   6
ATOM      6  O   UNL     1       9.739  21.621  53.520  1.00  0.00    -0.394 OA
ATOM      7  H   UNL     1       9.925  22.236  54.276  1.00  0.00     0.210 HD
ENDBRANCH   5   6
ENDBRANCH   1   5
BRANCH   1   8
ATOM      8  O   UNL     1       7.438  20.315  54.711  1.00  0.00    -0.388 OA
ATOM      9  H   UNL     1       6.592  20.346  54.193  1.00  0.00     0.211 HD
ENDBRANCH   1   8
TORSDOF 5
ENDMDL
MODEL 9
REMARK VINA RESULT:    -2.621      2.072      3.263
REMARK INTER + INTRA:          -3.362
REMARK INTER:                  -3.144
REMARK INTRA:                  -0.217
REMARK UNBOUND:                -0.204
REMARK SMILES OCC(O)CO
REMARK SMILES IDX 3 1 5 2 6 3 2 5 1 6 4 8
REMARK H PARENT 6 4 1 7 4 9
REMARK Flexibility Score: inf
ROOT
ATOM      1  C   UNL     1       7.736  19.556  53.587  1.00  0.00     0.165 C 
ENDROOT
BRANCH   1   2
ATOM      2  C   UNL     1       7.613  19.038  52.148  1.00  0.00     0.190 C 
BRANCH   2   3
ATOM      3  O   UNL     1       8.789  19.293  51.428  1.00  0.00    -0.394 OA
ATOM      4  H   UNL     1       8.503  19.509  50.502  1.00  0.00     0.210 HD
ENDBRANCH   2   3
ENDBRANCH   1   2
BRANCH   1   5
ATOM      5  C   UNL     1       7.345  21.039  53.708  1.00  0.00     0.190 C 
BRANCH   5   6
ATOM      6  O   UNL     1       8.185  21.849  52.927  1.00  0.00    -0.394 OA
ATOM      7  H   UNL     1       7.630  22.597  52.583  1.00  0.00     0.210 HD
ENDBRANCH   5   6
ENDBRANCH   1   5
BRANCH   1   8
ATOM      8  O   UNL     1       6.945  18.769  54.440  1.00  0.00    -0.388 OA
ATOM      9  H   UNL     1       6.805  19.295  55.270  1.00  0.00     0.211 HD
ENDBRANCH   1   8
TORSDOF 5
ENDMDL
