MODEL 1
REMARK VINA RESULT:    -3.826      0.000      0.000
REMARK INTER + INTRA:          -2.189
REMARK INTER:                  -4.721
REMARK INTRA:                   2.532
REMARK UNBOUND:                 2.532
REMARK SMILES C=C1CC[C@@H]2[C@H]([C@@H]3[C@H](C)CC[C@@H]13)C2(C)C
REMARK SMILES IDX 3 1 2 2 1 3 12 4 9 5 8 6 10 7 7 8 11 9 4 11 5 12 6 13 13 14
REMARK SMILES IDX 14 16 15 17
REMARK H PARENT
REMARK Flexibility Score: 80.00
ROOT
ATOM      1  C   UNL     1     137.076 140.627 132.614  1.00  0.00     0.031 C 
ENDROOT
BRANCH   1   2
ATOM      2  C   UNL     1     136.195 139.833 133.557  1.00  0.00    -0.074 C 
ATOM      3  C   UNL     1     135.946 140.301 134.791  1.00  0.00     0.008 C 
BRANCH   2   4
ATOM      4  C   UNL     1     135.531 138.543 133.109  1.00  0.00     0.018 C 
ATOM      5  C   UNL     1     133.920 136.392 131.257  1.00  0.00     0.008 C 
ATOM      6  C   UNL     1     135.401 136.735 131.503  1.00  0.00    -0.010 C 
ATOM      7  C   UNL     1     135.887 136.140 132.838  1.00  0.00     0.004 C 
ATOM      8  C   UNL     1     135.704 138.243 131.622  1.00  0.00     0.003 CG0
ATOM      9  C   UNL     1     136.089 137.308 133.809  1.00  0.00     0.008 C 
ATOM     10  G   UNL     1     134.818 139.178 130.769  1.00  0.00     0.000 G0
ENDBRANCH   2   4
ENDBRANCH   1   2
BRANCH   1  11
ATOM     11  C   UNL     1     136.283 141.401 131.543  1.00  0.00     0.009 C 
BRANCH  11  12
ATOM     12  C   UNL     1     135.081 140.713 130.831  1.00  0.00    -0.001 C 
ATOM     13  C   UNL     1     134.815 139.192 130.751  1.00  0.00     0.002 CG0
ATOM     14  C   UNL     1     135.388 139.934 129.533  1.00  0.00    -0.029 C 
ATOM     15  G   UNL     1     135.695 138.268 131.622  1.00  0.00     0.000 G0
ATOM     16  C   UNL     1     134.380 140.113 128.392  1.00  0.00     0.011 C 
ATOM     17  C   UNL     1     136.832 139.614 129.101  1.00  0.00     0.011 C 
ENDBRANCH  11  12
ENDBRANCH   1  11
TORSDOF 0
ENDMDL
MODEL 2
REMARK VINA RESULT:    -3.822      2.711      5.343
REMARK INTER + INTRA:          -2.184
REMARK INTER:                  -4.758
REMARK INTRA:                   2.574
REMARK UNBOUND:                 2.532
REMARK SMILES C=C1CC[C@@H]2[C@H]([C@@H]3[C@H](C)CC[C@@H]13)C2(C)C
REMARK SMILES IDX 3 1 2 2 1 3 12 4 9 5 8 6 10 7 7 8 11 9 4 11 5 12 6 13 13 14
REMARK SMILES IDX 14 16 15 17
REMARK H PARENT
REMARK Flexibility Score: 80.00
ROOT
ATOM      1  C   UNL     1     136.935 133.293 132.626  1.00  0.00     0.031 C 
ENDROOT
BRANCH   1   2
ATOM      2  C   UNL     1     137.783 133.759 131.460  1.00  0.00    -0.074 C 
ATOM      3  C   UNL     1     138.430 132.859 130.702  1.00  0.00     0.008 C 
BRANCH   2   4
ATOM      4  C   UNL     1     137.863 135.229 131.089  1.00  0.00     0.018 C 
ATOM      5  C   UNL     1     136.956 138.305 130.484  1.00  0.00     0.008 C 
ATOM      6  C   UNL     1     137.490 137.540 131.709  1.00  0.00    -0.010 C 
ATOM      7  C   UNL     1     139.011 137.326 131.601  1.00  0.00     0.004 C 
ATOM      8  C   UNL     1     136.914 136.120 131.886  1.00  0.00     0.003 CG0
ATOM      9  C   UNL     1     139.242 135.834 131.336  1.00  0.00     0.008 C 
ATOM     10  G   UNL     1     135.455 135.921 131.416  1.00  0.00     0.000 G0
ENDBRANCH   2   4
ENDBRANCH   1   2
BRANCH   1  11
ATOM     11  C   UNL     1     135.423 133.321 132.331  1.00  0.00     0.009 C 
BRANCH  11  12
ATOM     12  C   UNL     1     134.814 134.528 131.558  1.00  0.00    -0.001 C 
ATOM     13  C   UNL     1     135.443 135.933 131.414  1.00  0.00     0.002 CG0
ATOM     14  C   UNL     1     134.289 135.709 132.404  1.00  0.00    -0.029 C 
ATOM     15  G   UNL     1     136.899 136.114 131.899  1.00  0.00     0.000 G0
ATOM     16  C   UNL     1     132.959 136.320 131.946  1.00  0.00     0.011 C 
ATOM     17  C   UNL     1     134.592 135.826 133.910  1.00  0.00     0.011 C 
ENDBRANCH  11  12
ENDBRANCH   1  11
TORSDOF 0
ENDMDL
MODEL 3
REMARK VINA RESULT:    -3.789      1.581      3.668
REMARK INTER + INTRA:          -2.143
REMARK INTER:                  -4.775
REMARK INTRA:                   2.632
REMARK UNBOUND:                 2.532
REMARK SMILES C=C1CC[C@@H]2[C@H]([C@@H]3[C@H](C)CC[C@@H]13)C2(C)C
REMARK SMILES IDX 3 1 2 2 1 3 12 4 9 5 8 6 10 7 7 8 11 9 4 11 5 12 6 13 13 14
REMARK SMILES IDX 14 16 15 17
REMARK H PARENT
REMARK Flexibility Score: 80.00
ROOT
ATOM      1  C   UNL     1     133.349 136.883 132.735  1.00  0.00     0.031 C 
ENDROOT
BRANCH   1   2
ATOM      2  C   UNL     1     133.702 136.013 131.547  1.00  0.00    -0.074 C 
ATOM      3  C   UNL     1     132.733 135.361 130.883  1.00  0.00     0.008 C 
BRANCH   2   4
ATOM      4  C   UNL     1     135.133 135.914 131.047  1.00  0.00     0.018 C 
ATOM      5  C   UNL     1     138.131 136.791 130.104  1.00  0.00     0.008 C 
ATOM      6  C   UNL     1     137.488 136.333 131.425  1.00  0.00    -0.010 C 
ATOM      7  C   UNL     1     137.278 134.807 131.433  1.00  0.00     0.004 C 
ATOM      8  C   UNL     1     136.085 136.914 131.696  1.00  0.00     0.003 CG0
ATOM      9  C   UNL     1     135.770 134.555 131.322  1.00  0.00     0.008 C 
ATOM     10  G   UNL     1     135.830 138.340 131.157  1.00  0.00     0.000 G0
ENDBRANCH   2   4
ENDBRANCH   1   2
BRANCH   1  11
ATOM     11  C   UNL     1     133.357 138.390 132.412  1.00  0.00     0.009 C 
BRANCH  11  12
ATOM     12  C   UNL     1     134.441 138.964 131.455  1.00  0.00    -0.001 C 
ATOM     13  C   UNL     1     135.827 138.343 131.166  1.00  0.00     0.002 CG0
ATOM     14  C   UNL     1     135.711 139.553 132.107  1.00  0.00    -0.029 C 
ATOM     15  G   UNL     1     136.097 136.921 131.708  1.00  0.00     0.000 G0
ATOM     16  C   UNL     1     136.232 140.859 131.495  1.00  0.00     0.011 C 
ATOM     17  C   UNL     1     136.028 139.344 133.600  1.00  0.00     0.011 C 
ENDBRANCH  11  12
ENDBRANCH   1  11
TORSDOF 0
ENDMDL
MODEL 4
REMARK VINA RESULT:    -3.743      3.040      5.061
REMARK INTER + INTRA:          -2.087
REMARK INTER:                  -4.679
REMARK INTRA:                   2.592
REMARK UNBOUND:                 2.532
REMARK SMILES C=C1CC[C@@H]2[C@H]([C@@H]3[C@H](C)CC[C@@H]13)C2(C)C
REMARK SMILES IDX 3 1 2 2 1 3 12 4 9 5 8 6 10 7 7 8 11 9 4 11 5 12 6 13 13 14
REMARK SMILES IDX 14 16 15 17
REMARK H PARENT
REMARK Flexibility Score: 80.00
ROOT
ATOM      1  C   UNL     1     140.502 136.425 132.601  1.00  0.00     0.031 C 
ENDROOT
BRANCH   1   2
ATOM      2  C   UNL     1     140.433 137.587 131.633  1.00  0.00    -0.074 C 
ATOM      3  C   UNL     1     141.532 137.958 130.955  1.00  0.00     0.008 C 
BRANCH   2   4
ATOM      4  C   UNL     1     139.122 138.305 131.362  1.00  0.00     0.018 C 
ATOM      5  C   UNL     1     135.959 138.804 130.732  1.00  0.00     0.008 C 
ATOM      6  C   UNL     1     136.825 138.723 132.003  1.00  0.00    -0.010 C 
ATOM      7  C   UNL     1     137.613 140.029 132.214  1.00  0.00     0.004 C 
ATOM      8  C   UNL     1     137.905 137.622 131.980  1.00  0.00     0.003 CG0
ATOM      9  C   UNL     1     139.087 139.721 131.929  1.00  0.00     0.008 C 
ATOM     10  G   UNL     1     137.544 136.338 131.199  1.00  0.00     0.000 G0
ENDBRANCH   2   4
ENDBRANCH   1   2
BRANCH   1  11
ATOM     11  C   UNL     1     139.891 135.126 132.041  1.00  0.00     0.009 C 
BRANCH  11  12
ATOM     12  C   UNL     1     138.598 135.197 131.176  1.00  0.00    -0.001 C 
ATOM     13  C   UNL     1     137.545 136.328 131.196  1.00  0.00     0.002 CG0
ATOM     14  C   UNL     1     137.253 134.998 131.909  1.00  0.00    -0.029 C 
ATOM     15  G   UNL     1     137.892 137.609 131.988  1.00  0.00     0.000 G0
ATOM     16  C   UNL     1     136.220 134.127 131.184  1.00  0.00     0.011 C 
ATOM     17  C   UNL     1     137.158 135.004 133.447  1.00  0.00     0.011 C 
ENDBRANCH  11  12
ENDBRANCH   1  11
TORSDOF 0
ENDMDL
MODEL 5
REMARK VINA RESULT:    -3.717      2.319      3.602
REMARK INTER + INTRA:          -2.055
REMARK INTER:                  -4.717
REMARK INTRA:                   2.663
REMARK UNBOUND:                 2.532
REMARK SMILES C=C1CC[C@@H]2[C@H]([C@@H]3[C@H](C)CC[C@@H]13)C2(C)C
REMARK SMILES IDX 3 1 2 2 1 3 12 4 9 5 8 6 10 7 7 8 11 9 4 11 5 12 6 13 13 14
REMARK SMILES IDX 14 16 15 17
REMARK H PARENT
REMARK Flexibility Score: 80.00
ROOT
ATOM      1  C   UNL     1     136.662 140.307 132.608  1.00  0.00     0.031 C 
ENDROOT
BRANCH   1   2
ATOM      2  C   UNL     1     135.866 139.891 131.387  1.00  0.00    -0.074 C 
ATOM      3  C   UNL     1     135.100 140.792 130.751  1.00  0.00     0.008 C 
BRANCH   2   4
ATOM      4  C   UNL     1     135.971 138.484 130.827  1.00  0.00     0.018 C 
ATOM      5  C   UNL     1     137.263 135.687 129.751  1.00  0.00     0.008 C 
ATOM      6  C   UNL     1     136.732 136.201 131.102  1.00  0.00    -0.010 C 
ATOM      7  C   UNL     1     135.192 136.186 131.127  1.00  0.00     0.004 C 
ATOM      8  C   UNL     1     137.107 137.661 131.430  1.00  0.00     0.003 CG0
ATOM      9  C   UNL     1     134.722 137.644 131.082  1.00  0.00     0.008 C 
ATOM     10  G   UNL     1     138.474 138.143 130.894  1.00  0.00     0.000 G0
ENDBRANCH   2   4
ENDBRANCH   1   2
BRANCH   1  11
ATOM     11  C   UNL     1     138.160 140.519 132.317  1.00  0.00     0.009 C 
BRANCH  11  12
ATOM     12  C   UNL     1     138.877 139.607 131.279  1.00  0.00    -0.001 C 
ATOM     13  C   UNL     1     138.468 138.168 130.890  1.00  0.00     0.002 CG0
ATOM     14  C   UNL     1     139.660 138.396 131.834  1.00  0.00    -0.029 C 
ATOM     15  G   UNL     1     137.111 137.647 131.415  1.00  0.00     0.000 G0
ATOM     16  C   UNL     1     141.021 138.125 131.181  1.00  0.00     0.011 C 
ATOM     17  C   UNL     1     139.523 137.943 133.300  1.00  0.00     0.011 C 
ENDBRANCH  11  12
ENDBRANCH   1  11
TORSDOF 0
ENDMDL
MODEL 6
REMARK VINA RESULT:    -3.657      2.467      3.566
REMARK INTER + INTRA:          -1.981
REMARK INTER:                  -4.553
REMARK INTRA:                   2.572
REMARK UNBOUND:                 2.532
REMARK SMILES C=C1CC[C@@H]2[C@H]([C@@H]3[C@H](C)CC[C@@H]13)C2(C)C
REMARK SMILES IDX 3 1 2 2 1 3 12 4 9 5 8 6 10 7 7 8 11 9 4 11 5 12 6 13 13 14
REMARK SMILES IDX 14 16 15 17
REMARK H PARENT
REMARK Flexibility Score: 80.00
ROOT
ATOM      1  C   UNL     1     138.199 139.540 133.912  1.00  0.00     0.031 C 
ENDROOT
BRANCH   1   2
ATOM      2  C   UNL     1     138.931 138.306 133.428  1.00  0.00    -0.074 C 
ATOM      3  C   UNL     1     139.375 137.401 134.316  1.00  0.00     0.008 C 
BRANCH   2   4
ATOM      4  C   UNL     1     139.116 138.036 131.945  1.00  0.00     0.018 C 
ATOM      5  C   UNL     1     138.457 137.761 128.760  1.00  0.00     0.008 C 
ATOM      6  C   UNL     1     139.037 138.860 129.669  1.00  0.00    -0.010 C 
ATOM      7  C   UNL     1     140.511 138.569 130.010  1.00  0.00     0.004 C 
ATOM      8  C   UNL     1     138.346 138.996 131.042  1.00  0.00     0.003 CG0
ATOM      9  C   UNL     1     140.566 138.171 131.488  1.00  0.00     0.008 C 
ATOM     10  G   UNL     1     136.834 138.677 131.069  1.00  0.00     0.000 G0
ENDBRANCH   2   4
ENDBRANCH   1   2
BRANCH   1  11
ATOM     11  C   UNL     1     136.672 139.458 133.723  1.00  0.00     0.009 C 
BRANCH  11  12
ATOM     12  C   UNL     1     136.093 138.814 132.430  1.00  0.00    -0.001 C 
ATOM     13  C   UNL     1     136.820 138.672 131.073  1.00  0.00     0.002 CG0
ATOM     14  C   UNL     1     135.758 139.767 131.261  1.00  0.00    -0.029 C 
ATOM     15  G   UNL     1     138.328 139.007 131.036  1.00  0.00     0.000 G0
ATOM     16  C   UNL     1     134.445 139.483 130.521  1.00  0.00     0.011 C 
ATOM     17  C   UNL     1     136.222 141.236 131.254  1.00  0.00     0.011 C 
ENDBRANCH  11  12
ENDBRANCH   1  11
TORSDOF 0
ENDMDL
MODEL 7
REMARK VINA RESULT:    -3.641      2.054      3.370
REMARK INTER + INTRA:          -1.961
REMARK INTER:                  -4.559
REMARK INTRA:                   2.598
REMARK UNBOUND:                 2.532
REMARK SMILES C=C1CC[C@@H]2[C@H]([C@@H]3[C@H](C)CC[C@@H]13)C2(C)C
REMARK SMILES IDX 3 1 2 2 1 3 12 4 9 5 8 6 10 7 7 8 11 9 4 11 5 12 6 13 13 14
REMARK SMILES IDX 14 16 15 17
REMARK H PARENT
REMARK Flexibility Score: 80.00
ROOT
ATOM      1  C   UNL     1     137.684 140.274 132.502  1.00  0.00     0.031 C 
ENDROOT
BRANCH   1   2
ATOM      2  C   UNL     1     136.449 140.337 131.628  1.00  0.00    -0.074 C 
ATOM      3  C   UNL     1     136.084 141.503 131.070  1.00  0.00     0.008 C 
BRANCH   2   4
ATOM      4  C   UNL     1     135.646 139.086 131.314  1.00  0.00     0.018 C 
ATOM      5  C   UNL     1     134.940 136.007 130.495  1.00  0.00     0.008 C 
ATOM      6  C   UNL     1     135.150 136.770 131.816  1.00  0.00    -0.010 C 
ATOM      7  C   UNL     1     133.905 137.602 132.173  1.00  0.00     0.004 C 
ATOM      8  C   UNL     1     136.303 137.795 131.794  1.00  0.00     0.003 CG0
ATOM      9  C   UNL     1     134.271 139.076 131.974  1.00  0.00     0.008 C 
ATOM     10  G   UNL     1     137.511 137.432 130.901  1.00  0.00     0.000 G0
ENDBRANCH   2   4
ENDBRANCH   1   2
BRANCH   1  11
ATOM     11  C   UNL     1     138.902 139.649 131.794  1.00  0.00     0.009 C 
BRANCH  11  12
ATOM     12  C   UNL     1     138.697 138.431 130.847  1.00  0.00    -0.001 C 
ATOM     13  C   UNL     1     137.514 137.436 130.879  1.00  0.00     0.002 CG0
ATOM     14  C   UNL     1     138.874 137.026 131.465  1.00  0.00    -0.029 C 
ATOM     15  G   UNL     1     136.315 137.786 131.788  1.00  0.00     0.000 G0
ATOM     16  C   UNL     1     139.632 136.008 130.605  1.00  0.00     0.011 C 
ATOM     17  C   UNL     1     138.975 136.816 132.988  1.00  0.00     0.011 C 
ENDBRANCH  11  12
ENDBRANCH   1  11
TORSDOF 0
ENDMDL
MODEL 8
REMARK VINA RESULT:    -3.600      3.673      4.411
REMARK INTER + INTRA:          -1.911
REMARK INTER:                  -4.512
REMARK INTRA:                   2.602
REMARK UNBOUND:                 2.532
REMARK SMILES C=C1CC[C@@H]2[C@H]([C@@H]3[C@H](C)CC[C@@H]13)C2(C)C
REMARK SMILES IDX 3 1 2 2 1 3 12 4 9 5 8 6 10 7 7 8 11 9 4 11 5 12 6 13 13 14
REMARK SMILES IDX 14 16 15 17
REMARK H PARENT
REMARK Flexibility Score: 80.00
ROOT
ATOM      1  C   UNL     1     141.085 137.482 131.544  1.00  0.00     0.031 C 
ENDROOT
BRANCH   1   2
ATOM      2  C   UNL     1     140.214 136.494 132.293  1.00  0.00    -0.074 C 
ATOM      3  C   UNL     1     140.346 136.362 133.623  1.00  0.00     0.008 C 
BRANCH   2   4
ATOM      4  C   UNL     1     139.143 135.693 131.574  1.00  0.00     0.018 C 
ATOM      5  C   UNL     1     136.660 134.962 129.587  1.00  0.00     0.008 C 
ATOM      6  C   UNL     1     138.195 134.917 129.485  1.00  0.00    -0.010 C 
ATOM      7  C   UNL     1     138.758 133.690 130.227  1.00  0.00     0.004 C 
ATOM      8  C   UNL     1     138.921 136.119 130.125  1.00  0.00     0.003 CG0
ATOM      9  C   UNL     1     139.467 134.205 131.484  1.00  0.00     0.008 C 
ATOM     10  G   UNL     1     138.174 137.470 130.061  1.00  0.00     0.000 G0
ENDBRANCH   2   4
ENDBRANCH   1   2
BRANCH   1  11
ATOM     11  C   UNL     1     140.347 138.779 131.162  1.00  0.00     0.009 C 
BRANCH  11  12
ATOM     12  C   UNL     1     138.873 138.707 130.668  1.00  0.00    -0.001 C 
ATOM     13  C   UNL     1     138.175 137.474 130.049  1.00  0.00     0.002 CG0
ATOM     14  C   UNL     1     138.649 138.621 129.142  1.00  0.00    -0.029 C 
ATOM     15  G   UNL     1     138.929 136.126 130.107  1.00  0.00     0.000 G0
ATOM     16  C   UNL     1     137.504 139.476 128.586  1.00  0.00     0.011 C 
ATOM     17  C   UNL     1     139.808 138.343 128.166  1.00  0.00     0.011 C 
ENDBRANCH  11  12
ENDBRANCH   1  11
TORSDOF 0
ENDMDL
MODEL 9
REMARK VINA RESULT:    -3.549      3.542      5.818
REMARK INTER + INTRA:          -1.847
REMARK INTER:                  -4.464
REMARK INTRA:                   2.617
REMARK UNBOUND:                 2.532
REMARK SMILES C=C1CC[C@@H]2[C@H]([C@@H]3[C@H](C)CC[C@@H]13)C2(C)C
REMARK SMILES IDX 3 1 2 2 1 3 12 4 9 5 8 6 10 7 7 8 11 9 4 11 5 12 6 13 13 14
REMARK SMILES IDX 14 16 15 17
REMARK H PARENT
REMARK Flexibility Score: 80.00
ROOT
ATOM      1  C   UNL     1     138.096 134.336 132.864  1.00  0.00     0.031 C 
ENDROOT
BRANCH   1   2
ATOM      2  C   UNL     1     137.428 133.606 131.717  1.00  0.00    -0.074 C 
ATOM      3  C   UNL     1     137.970 132.474 131.239  1.00  0.00     0.008 C 
BRANCH   2   4
ATOM      4  C   UNL     1     136.113 134.096 131.137  1.00  0.00     0.018 C 
ATOM      5  C   UNL     1     133.065 135.250 130.962  1.00  0.00     0.008 C 
ATOM      6  C   UNL     1     134.475 135.869 130.938  1.00  0.00    -0.010 C 
ATOM      7  C   UNL     1     135.132 135.683 129.557  1.00  0.00     0.004 C 
ATOM      8  C   UNL     1     135.476 135.236 131.927  1.00  0.00     0.003 CG0
ATOM      9  C   UNL     1     136.253 134.651 129.722  1.00  0.00     0.008 C 
ATOM     10  G   UNL     1     134.875 134.713 133.252  1.00  0.00     0.000 G0
ENDBRANCH   2   4
ENDBRANCH   1   2
BRANCH   1  11
ATOM     11  C   UNL     1     137.395 134.118 134.218  1.00  0.00     0.009 C 
BRANCH  11  12
ATOM     12  C   UNL     1     135.840 134.073 134.279  1.00  0.00    -0.001 C 
ATOM     13  C   UNL     1     134.866 134.700 133.255  1.00  0.00     0.002 CG0
ATOM     14  C   UNL     1     135.113 135.398 134.602  1.00  0.00    -0.029 C 
ATOM     15  G   UNL     1     135.470 135.245 131.941  1.00  0.00     0.000 G0
ATOM     16  C   UNL     1     133.932 135.292 135.574  1.00  0.00     0.011 C 
ATOM     17  C   UNL     1     135.850 136.750 134.595  1.00  0.00     0.011 C 
ENDBRANCH  11  12
ENDBRANCH   1  11
TORSDOF 0
ENDMDL
