MODEL 1
REMARK VINA RESULT:    -5.466      0.000      0.000
REMARK INTER + INTRA:          -5.916
REMARK INTER:                  -5.786
REMARK INTRA:                  -0.130
REMARK UNBOUND:                -0.130
REMARK SMILES CC(C)[C@@H]1CC[C@@H](C)CC1=O
REMARK SMILES IDX 8 1 7 2 6 3 5 4 4 5 10 6 11 7 9 8 2 9 1 10 3 11
REMARK H PARENT
REMARK Flexibility Score: inf
ROOT
ATOM      1  C   UNL     1      96.683 -59.722 105.366  1.00  0.00     0.008 C 
ATOM      2  C   UNL     1      95.380 -60.175 104.699  1.00  0.00    -0.007 C 
ATOM      3  C   UNL     1      95.636 -61.379 103.769  1.00  0.00     0.004 C 
ATOM      4  C   UNL     1      94.343 -61.844 103.073  1.00  0.00     0.012 C 
ATOM      5  C   UNL     1      93.684 -60.702 102.262  1.00  0.00     0.058 C 
ATOM      6  C   UNL     1      93.523 -59.514 103.197  1.00  0.00     0.136 C 
ATOM      7  O   UNL     1      92.430 -59.019 103.432  1.00  0.00    -0.299 OA
ATOM      8  C   UNL     1      94.740 -59.013 103.920  1.00  0.00     0.079 C 
ENDROOT
BRANCH   5   9
ATOM      9  C   UNL     1      92.342 -61.123 101.577  1.00  0.00    -0.007 C 
ATOM     10  C   UNL     1      92.279 -62.630 101.267  1.00  0.00     0.008 C 
ATOM     11  C   UNL     1      92.127 -60.345 100.265  1.00  0.00     0.008 C 
ENDBRANCH   5   9
TORSDOF 1
ENDMDL
MODEL 2
REMARK VINA RESULT:    -5.174      1.694      3.971
REMARK INTER + INTRA:          -5.606
REMARK INTER:                  -5.434
REMARK INTRA:                  -0.172
REMARK UNBOUND:                -0.130
REMARK SMILES CC(C)[C@@H]1CC[C@@H](C)CC1=O
REMARK SMILES IDX 8 1 7 2 6 3 5 4 4 5 10 6 11 7 9 8 2 9 1 10 3 11
REMARK H PARENT
REMARK Flexibility Score: inf
ROOT
ATOM      1  C   UNL     1      92.202 -58.649 101.467  1.00  0.00     0.008 C 
ATOM      2  C   UNL     1      93.427 -59.375 102.034  1.00  0.00    -0.007 C 
ATOM      3  C   UNL     1      93.313 -60.896 101.803  1.00  0.00     0.004 C 
ATOM      4  C   UNL     1      94.526 -61.651 102.379  1.00  0.00     0.012 C 
ATOM      5  C   UNL     1      94.707 -61.376 103.892  1.00  0.00     0.058 C 
ATOM      6  C   UNL     1      94.736 -59.868 104.080  1.00  0.00     0.136 C 
ATOM      7  O   UNL     1      95.692 -59.297 104.585  1.00  0.00    -0.299 OA
ATOM      8  C   UNL     1      93.592 -59.065 103.533  1.00  0.00     0.079 C 
ENDROOT
BRANCH   5   9
ATOM      9  C   UNL     1      95.958 -62.089 104.505  1.00  0.00    -0.007 C 
ATOM     10  C   UNL     1      96.826 -62.786 103.440  1.00  0.00     0.008 C 
ATOM     11  C   UNL     1      95.535 -63.136 105.552  1.00  0.00     0.008 C 
ENDBRANCH   5   9
TORSDOF 1
ENDMDL
MODEL 3
REMARK VINA RESULT:    -5.155      1.664      3.808
REMARK INTER + INTRA:          -5.586
REMARK INTER:                  -5.411
REMARK INTRA:                  -0.175
REMARK UNBOUND:                -0.130
REMARK SMILES CC(C)[C@@H]1CC[C@@H](C)CC1=O
REMARK SMILES IDX 8 1 7 2 6 3 5 4 4 5 10 6 11 7 9 8 2 9 1 10 3 11
REMARK H PARENT
REMARK Flexibility Score: inf
ROOT
ATOM      1  C   UNL     1      91.686 -58.260 101.026  1.00  0.00     0.008 C 
ATOM      2  C   UNL     1      92.819 -59.159 101.533  1.00  0.00    -0.007 C 
ATOM      3  C   UNL     1      92.516 -60.640 101.228  1.00  0.00     0.004 C 
ATOM      4  C   UNL     1      93.633 -61.567 101.743  1.00  0.00     0.012 C 
ATOM      5  C   UNL     1      93.865 -61.396 103.264  1.00  0.00     0.058 C 
ATOM      6  C   UNL     1      94.082 -59.914 103.527  1.00  0.00     0.136 C 
ATOM      7  O   UNL     1      95.107 -59.491 104.042  1.00  0.00    -0.299 OA
ATOM      8  C   UNL     1      93.039 -58.950 103.042  1.00  0.00     0.079 C 
ENDROOT
BRANCH   5   9
ATOM      9  C   UNL     1      95.026 -62.287 103.817  1.00  0.00    -0.007 C 
ATOM     10  C   UNL     1      95.977 -62.779 102.710  1.00  0.00     0.008 C 
ATOM     11  C   UNL     1      94.469 -63.514 104.562  1.00  0.00     0.008 C 
ENDBRANCH   5   9
TORSDOF 1
ENDMDL
MODEL 4
REMARK VINA RESULT:    -5.023      0.994      1.207
REMARK INTER + INTRA:          -5.447
REMARK INTER:                  -5.278
REMARK INTRA:                  -0.169
REMARK UNBOUND:                -0.130
REMARK SMILES CC(C)[C@@H]1CC[C@@H](C)CC1=O
REMARK SMILES IDX 8 1 7 2 6 3 5 4 4 5 10 6 11 7 9 8 2 9 1 10 3 11
REMARK H PARENT
REMARK Flexibility Score: inf
ROOT
ATOM      1  C   UNL     1      96.673 -59.324 105.166  1.00  0.00     0.008 C 
ATOM      2  C   UNL     1      95.368 -60.036 104.794  1.00  0.00    -0.007 C 
ATOM      3  C   UNL     1      95.641 -61.504 104.405  1.00  0.00     0.004 C 
ATOM      4  C   UNL     1      94.346 -62.237 104.011  1.00  0.00     0.012 C 
ATOM      5  C   UNL     1      93.616 -61.527 102.845  1.00  0.00     0.058 C 
ATOM      6  C   UNL     1      93.438 -60.070 103.239  1.00  0.00     0.136 C 
ATOM      7  O   UNL     1      92.335 -59.547 103.309  1.00  0.00    -0.299 OA
ATOM      8  C   UNL     1      94.657 -59.294 103.648  1.00  0.00     0.079 C 
ENDROOT
BRANCH   5   9
ATOM      9  C   UNL     1      92.269 -62.216 102.445  1.00  0.00    -0.007 C 
ATOM     10  C   UNL     1      91.968 -63.468 103.291  1.00  0.00     0.008 C 
ATOM     11  C   UNL     1      92.280 -62.622 100.960  1.00  0.00     0.008 C 
ENDBRANCH   5   9
TORSDOF 1
ENDMDL
MODEL 5
REMARK VINA RESULT:    -4.970      1.955      4.074
REMARK INTER + INTRA:          -5.390
REMARK INTER:                  -5.221
REMARK INTRA:                  -0.169
REMARK UNBOUND:                -0.130
REMARK SMILES CC(C)[C@@H]1CC[C@@H](C)CC1=O
REMARK SMILES IDX 8 1 7 2 6 3 5 4 4 5 10 6 11 7 9 8 2 9 1 10 3 11
REMARK H PARENT
REMARK Flexibility Score: inf
ROOT
ATOM      1  C   UNL     1      91.678 -58.190 101.171  1.00  0.00     0.008 C 
ATOM      2  C   UNL     1      92.248 -59.419 101.887  1.00  0.00    -0.007 C 
ATOM      3  C   UNL     1      93.485 -59.035 102.725  1.00  0.00     0.004 C 
ATOM      4  C   UNL     1      94.088 -60.257 103.442  1.00  0.00     0.012 C 
ATOM      5  C   UNL     1      94.475 -61.375 102.443  1.00  0.00     0.058 C 
ATOM      6  C   UNL     1      93.252 -61.666 101.589  1.00  0.00     0.136 C 
ATOM      7  O   UNL     1      92.744 -62.777 101.542  1.00  0.00    -0.299 OA
ATOM      8  C   UNL     1      92.602 -60.519 100.870  1.00  0.00     0.079 C 
ENDROOT
BRANCH   5   9
ATOM      9  C   UNL     1      95.048 -62.655 103.138  1.00  0.00    -0.007 C 
ATOM     10  C   UNL     1      95.130 -62.514 104.670  1.00  0.00     0.008 C 
ATOM     11  C   UNL     1      96.454 -62.986 102.604  1.00  0.00     0.008 C 
ENDBRANCH   5   9
TORSDOF 1
ENDMDL
MODEL 6
REMARK VINA RESULT:    -4.925      1.557      2.391
REMARK INTER + INTRA:          -5.342
REMARK INTER:                  -5.180
REMARK INTRA:                  -0.162
REMARK UNBOUND:                -0.130
REMARK SMILES CC(C)[C@@H]1CC[C@@H](C)CC1=O
REMARK SMILES IDX 8 1 7 2 6 3 5 4 4 5 10 6 11 7 9 8 2 9 1 10 3 11
REMARK H PARENT
REMARK Flexibility Score: inf
ROOT
ATOM      1  C   UNL     1      96.292 -58.995 105.511  1.00  0.00     0.008 C 
ATOM      2  C   UNL     1      95.649 -59.593 104.255  1.00  0.00    -0.007 C 
ATOM      3  C   UNL     1      94.244 -58.997 104.026  1.00  0.00     0.004 C 
ATOM      4  C   UNL     1      93.570 -59.594 102.777  1.00  0.00     0.012 C 
ATOM      5  C   UNL     1      93.463 -61.136 102.864  1.00  0.00     0.058 C 
ATOM      6  C   UNL     1      94.853 -61.672 103.166  1.00  0.00     0.136 C 
ATOM      7  O   UNL     1      95.417 -62.463 102.424  1.00  0.00    -0.299 OA
ATOM      8  C   UNL     1      95.577 -61.126 104.362  1.00  0.00     0.079 C 
ENDROOT
BRANCH   5   9
ATOM      9  C   UNL     1      92.825 -61.785 101.591  1.00  0.00    -0.007 C 
ATOM     10  C   UNL     1      92.115 -60.756 100.692  1.00  0.00     0.008 C 
ATOM     11  C   UNL     1      91.809 -62.875 101.981  1.00  0.00     0.008 C 
ENDBRANCH   5   9
TORSDOF 1
ENDMDL
MODEL 7
REMARK VINA RESULT:    -4.880      1.508      4.618
REMARK INTER + INTRA:          -5.295
REMARK INTER:                  -5.332
REMARK INTRA:                   0.037
REMARK UNBOUND:                -0.130
REMARK SMILES CC(C)[C@@H]1CC[C@@H](C)CC1=O
REMARK SMILES IDX 8 1 7 2 6 3 5 4 4 5 10 6 11 7 9 8 2 9 1 10 3 11
REMARK H PARENT
REMARK Flexibility Score: inf
ROOT
ATOM      1  C   UNL     1      91.805 -60.576 100.226  1.00  0.00     0.008 C 
ATOM      2  C   UNL     1      92.482 -60.630 101.599  1.00  0.00    -0.007 C 
ATOM      3  C   UNL     1      93.330 -59.363 101.837  1.00  0.00     0.004 C 
ATOM      4  C   UNL     1      94.036 -59.400 103.205  1.00  0.00     0.012 C 
ATOM      5  C   UNL     1      94.934 -60.652 103.355  1.00  0.00     0.058 C 
ATOM      6  C   UNL     1      94.078 -61.867 103.036  1.00  0.00     0.136 C 
ATOM      7  O   UNL     1      93.906 -62.767 103.845  1.00  0.00    -0.299 OA
ATOM      8  C   UNL     1      93.349 -61.895 101.724  1.00  0.00     0.079 C 
ENDROOT
BRANCH   5   9
ATOM      9  C   UNL     1      95.632 -60.750 104.752  1.00  0.00    -0.007 C 
ATOM     10  C   UNL     1      96.200 -59.400 105.228  1.00  0.00     0.008 C 
ATOM     11  C   UNL     1      96.778 -61.778 104.722  1.00  0.00     0.008 C 
ENDBRANCH   5   9
TORSDOF 1
ENDMDL
MODEL 8
REMARK VINA RESULT:    -4.635      1.918      2.909
REMARK INTER + INTRA:          -5.036
REMARK INTER:                  -4.946
REMARK INTRA:                  -0.089
REMARK UNBOUND:                -0.130
REMARK SMILES CC(C)[C@@H]1CC[C@@H](C)CC1=O
REMARK SMILES IDX 8 1 7 2 6 3 5 4 4 5 10 6 11 7 9 8 2 9 1 10 3 11
REMARK H PARENT
REMARK Flexibility Score: inf
ROOT
ATOM      1  C   UNL     1      98.167 -61.544 105.895  1.00  0.00     0.008 C 
ATOM      2  C   UNL     1      97.193 -61.202 104.762  1.00  0.00    -0.007 C 
ATOM      3  C   UNL     1      96.109 -60.222 105.255  1.00  0.00     0.004 C 
ATOM      4  C   UNL     1      95.107 -59.874 104.139  1.00  0.00     0.012 C 
ATOM      5  C   UNL     1      94.427 -61.140 103.562  1.00  0.00     0.058 C 
ATOM      6  C   UNL     1      95.530 -62.107 103.163  1.00  0.00     0.136 C 
ATOM      7  O   UNL     1      95.650 -62.514 102.016  1.00  0.00    -0.299 OA
ATOM      8  C   UNL     1      96.551 -62.482 104.197  1.00  0.00     0.079 C 
ENDROOT
BRANCH   5   9
ATOM      9  C   UNL     1      93.436 -60.832 102.392  1.00  0.00    -0.007 C 
ATOM     10  C   UNL     1      92.732 -59.472 102.551  1.00  0.00     0.008 C 
ATOM     11  C   UNL     1      92.359 -61.928 102.281  1.00  0.00     0.008 C 
ENDBRANCH   5   9
TORSDOF 1
ENDMDL
MODEL 9
REMARK VINA RESULT:    -4.620      3.562      5.447
REMARK INTER + INTRA:          -5.020
REMARK INTER:                  -4.863
REMARK INTRA:                  -0.157
REMARK UNBOUND:                -0.130
REMARK SMILES CC(C)[C@@H]1CC[C@@H](C)CC1=O
REMARK SMILES IDX 8 1 7 2 6 3 5 4 4 5 10 6 11 7 9 8 2 9 1 10 3 11
REMARK H PARENT
REMARK Flexibility Score: inf
ROOT
ATOM      1  C   UNL     1     101.642 -61.263 106.264  1.00  0.00     0.008 C 
ATOM      2  C   UNL     1     100.326 -61.187 105.483  1.00  0.00    -0.007 C 
ATOM      3  C   UNL     1      99.289 -60.338 106.246  1.00  0.00     0.004 C 
ATOM      4  C   UNL     1      97.950 -60.259 105.490  1.00  0.00     0.012 C 
ATOM      5  C   UNL     1      97.360 -61.665 105.220  1.00  0.00     0.058 C 
ATOM      6  C   UNL     1      98.440 -62.489 104.538  1.00  0.00     0.136 C 
ATOM      7  O   UNL     1      98.275 -62.986 103.434  1.00  0.00    -0.299 OA
ATOM      8  C   UNL     1      99.777 -62.599 105.213  1.00  0.00     0.079 C 
ENDROOT
BRANCH   5   9
ATOM      9  C   UNL     1      96.021 -61.630 104.410  1.00  0.00    -0.007 C 
ATOM     10  C   UNL     1      95.324 -60.258 104.474  1.00  0.00     0.008 C 
ATOM     11  C   UNL     1      95.041 -62.700 104.924  1.00  0.00     0.008 C 
ENDBRANCH   5   9
TORSDOF 1
ENDMDL
