MODEL 1
REMARK VINA RESULT:    -6.992      0.000      0.000
REMARK INTER + INTRA:          -8.698
REMARK INTER:                  -8.422
REMARK INTRA:                  -0.276
REMARK UNBOUND:                -0.276
REMARK SMILES O=c1c(O)c(-c2ccc(O)c(O)c2)oc2cc(O)cc(O)c12
REMARK SMILES IDX 5 1 3 2 2 3 1 4 22 5 20 6 19 7 17 8 16 9 15 10 14 11 6 12
REMARK SMILES IDX 7 13 8 14 9 15 13 16 11 17 10 18 12 20 4 22 21 24 18 26
REMARK H PARENT 10 19 12 21 4 23 21 25 18 27
REMARK Flexibility Score: inf
ROOT
ATOM      1  C   UNL     1      98.161 104.340 116.146  1.00  0.00     0.180 A 
ATOM      2  C   UNL     1      98.267 103.134 115.426  1.00  0.00     0.208 A 
ATOM      3  C   UNL     1      98.317 101.924 116.135  1.00  0.00     0.238 A 
ATOM      4  O   UNL     1      98.423 100.838 115.502  1.00  0.00    -0.285 OA
ATOM      5  C   UNL     1      98.241 101.936 117.543  1.00  0.00     0.111 A 
ATOM      6  C   UNL     1      98.281 100.760 118.331  1.00  0.00     0.134 A 
ATOM      7  C   UNL     1      98.190 100.857 119.728  1.00  0.00     0.093 A 
ATOM      8  C   UNL     1      98.060 102.100 120.350  1.00  0.00     0.123 A 
ATOM      9  C   UNL     1      98.021 103.265 119.576  1.00  0.00     0.094 A 
ATOM     10  C   UNL     1      98.112 103.192 118.184  1.00  0.00     0.146 A 
ATOM     11  O   UNL     1      98.077 104.313 117.473  1.00  0.00    -0.452 OA
ENDROOT
BRANCH   1  12
ATOM     12  C   UNL     1      98.122 105.658 115.471  1.00  0.00     0.025 A 
ATOM     13  C   UNL     1      99.285 106.442 115.419  1.00  0.00     0.016 A 
ATOM     14  C   UNL     1      99.277 107.678 114.771  1.00  0.00     0.051 A 
ATOM     15  C   UNL     1      98.113 108.145 114.152  1.00  0.00     0.157 A 
ATOM     16  C   UNL     1      96.958 106.119 114.831  1.00  0.00     0.062 A 
ATOM     17  C   UNL     1      96.948 107.359 114.177  1.00  0.00     0.158 A 
BRANCH  15  18
ATOM     18  O   UNL     1      98.134 109.384 113.514  1.00  0.00    -0.504 OA
ATOM     19  H   UNL     1      98.831 109.620 112.819  1.00  0.00     0.293 HD
ENDBRANCH  15  18
BRANCH  17  20
ATOM     20  O   UNL     1      95.788 107.812 113.550  1.00  0.00    -0.504 OA
ATOM     21  H   UNL     1      95.087 108.344 114.052  1.00  0.00     0.293 HD
ENDBRANCH  17  20
ENDBRANCH   1  12
BRANCH   2  22
ATOM     22  O   UNL     1      98.291 103.145 114.030  1.00  0.00    -0.502 OA
ATOM     23  H   UNL     1      97.485 102.889 113.470  1.00  0.00     0.293 HD
ENDBRANCH   2  22
BRANCH   6  24
ATOM     24  O   UNL     1      98.409  99.503 117.740  1.00  0.00    -0.507 OA
ATOM     25  H   UNL     1      98.919  98.752 118.190  1.00  0.00     0.293 HD
ENDBRANCH   6  24
BRANCH   8  26
ATOM     26  O   UNL     1      97.970 102.168 121.738  1.00  0.00    -0.508 OA
ATOM     27  H   UNL     1      98.357 102.947 122.257  1.00  0.00     0.293 HD
ENDBRANCH   8  26
TORSDOF 6
ENDMDL
MODEL 2
REMARK VINA RESULT:    -6.986     11.056     12.617
REMARK INTER + INTRA:          -8.691
REMARK INTER:                  -8.393
REMARK INTRA:                  -0.299
REMARK UNBOUND:                -0.276
REMARK SMILES O=c1c(O)c(-c2ccc(O)c(O)c2)oc2cc(O)cc(O)c12
REMARK SMILES IDX 5 1 3 2 2 3 1 4 22 5 20 6 19 7 17 8 16 9 15 10 14 11 6 12
REMARK SMILES IDX 7 13 8 14 9 15 13 16 11 17 10 18 12 20 4 22 21 24 18 26
REMARK H PARENT 10 19 12 21 4 23 21 25 18 27
REMARK Flexibility Score: inf
ROOT
ATOM      1  C   UNL     1     109.189 103.140 116.251  1.00  0.00     0.180 A 
ATOM      2  C   UNL     1     109.105 104.345 115.525  1.00  0.00     0.208 A 
ATOM      3  C   UNL     1     109.077 105.559 116.228  1.00  0.00     0.238 A 
ATOM      4  O   UNL     1     108.991 106.643 115.590  1.00  0.00    -0.285 OA
ATOM      5  C   UNL     1     109.152 105.552 117.636  1.00  0.00     0.111 A 
ATOM      6  C   UNL     1     109.134 106.732 118.419  1.00  0.00     0.134 A 
ATOM      7  C   UNL     1     109.223 106.641 119.816  1.00  0.00     0.093 A 
ATOM      8  C   UNL     1     109.331 105.399 120.444  1.00  0.00     0.123 A 
ATOM      9  C   UNL     1     109.348 104.230 119.676  1.00  0.00     0.094 A 
ATOM     10  C   UNL     1     109.259 104.298 118.283  1.00  0.00     0.146 A 
ATOM     11  O   UNL     1     109.273 103.173 117.578  1.00  0.00    -0.452 OA
ENDROOT
BRANCH   1  12
ATOM     12  C   UNL     1     109.204 101.819 115.583  1.00  0.00     0.025 A 
ATOM     13  C   UNL     1     108.009 101.092 115.463  1.00  0.00     0.016 A 
ATOM     14  C   UNL     1     107.995  99.853 114.819  1.00  0.00     0.051 A 
ATOM     15  C   UNL     1     109.171  99.327 114.273  1.00  0.00     0.157 A 
ATOM     16  C   UNL     1     110.381 101.298 115.015  1.00  0.00     0.062 A 
ATOM     17  C   UNL     1     110.369 100.055 114.366  1.00  0.00     0.158 A 
BRANCH  15  18
ATOM     18  O   UNL     1     109.128  98.087 113.638  1.00  0.00    -0.504 OA
ATOM     19  H   UNL     1     108.486  97.892 112.879  1.00  0.00     0.293 HD
ENDBRANCH  15  18
BRANCH  17  20
ATOM     20  O   UNL     1     111.541  99.544 113.811  1.00  0.00    -0.504 OA
ATOM     21  H   UNL     1     111.569  98.626 113.383  1.00  0.00     0.293 HD
ENDBRANCH  17  20
ENDBRANCH   1  12
BRANCH   2  22
ATOM     22  O   UNL     1     109.081 104.326 114.129  1.00  0.00    -0.502 OA
ATOM     23  H   UNL     1     109.413 103.535 113.590  1.00  0.00     0.293 HD
ENDBRANCH   2  22
BRANCH   6  24
ATOM     24  O   UNL     1     109.029 107.989 117.821  1.00  0.00    -0.507 OA
ATOM     25  H   UNL     1     109.579 108.778 118.140  1.00  0.00     0.293 HD
ENDBRANCH   6  24
BRANCH   8  26
ATOM     26  O   UNL     1     109.419 105.337 121.833  1.00  0.00    -0.508 OA
ATOM     27  H   UNL     1     110.187 104.864 122.295  1.00  0.00     0.293 HD
ENDBRANCH   8  26
TORSDOF 6
ENDMDL
MODEL 3
REMARK VINA RESULT:    -6.807      2.153      6.996
REMARK INTER + INTRA:          -8.476
REMARK INTER:                  -8.265
REMARK INTRA:                  -0.211
REMARK UNBOUND:                -0.276
REMARK SMILES O=c1c(O)c(-c2ccc(O)c(O)c2)oc2cc(O)cc(O)c12
REMARK SMILES IDX 5 1 3 2 2 3 1 4 22 5 20 6 19 7 17 8 16 9 15 10 14 11 6 12
REMARK SMILES IDX 7 13 8 14 9 15 13 16 11 17 10 18 12 20 4 22 21 24 18 26
REMARK H PARENT 10 19 12 21 4 23 21 25 18 27
REMARK Flexibility Score: inf
ROOT
ATOM      1  C   UNL     1      98.073 102.722 118.550  1.00  0.00     0.180 A 
ATOM      2  C   UNL     1      96.836 102.206 118.117  1.00  0.00     0.208 A 
ATOM      3  C   UNL     1      96.145 102.871 117.093  1.00  0.00     0.238 A 
ATOM      4  O   UNL     1      95.031 102.425 116.704  1.00  0.00    -0.285 OA
ATOM      5  C   UNL     1      96.706 104.025 116.508  1.00  0.00     0.111 A 
ATOM      6  C   UNL     1      96.075 104.752 115.469  1.00  0.00     0.134 A 
ATOM      7  C   UNL     1      96.704 105.885 114.932  1.00  0.00     0.093 A 
ATOM      8  C   UNL     1      97.947 106.304 115.412  1.00  0.00     0.123 A 
ATOM      9  C   UNL     1      98.575 105.591 116.438  1.00  0.00     0.094 A 
ATOM     10  C   UNL     1      97.964 104.460 116.988  1.00  0.00     0.146 A 
ATOM     11  O   UNL     1      98.579 103.804 117.965  1.00  0.00    -0.452 OA
ENDROOT
BRANCH   1  12
ATOM     12  C   UNL     1      98.853 102.088 119.638  1.00  0.00     0.025 A 
ATOM     13  C   UNL     1      99.483 100.855 119.407  1.00  0.00     0.016 A 
ATOM     14  C   UNL     1     100.240 100.248 120.411  1.00  0.00     0.051 A 
ATOM     15  C   UNL     1     100.393 100.870 121.655  1.00  0.00     0.157 A 
ATOM     16  C   UNL     1      99.025 102.722 120.882  1.00  0.00     0.062 A 
ATOM     17  C   UNL     1      99.787 102.115 121.890  1.00  0.00     0.158 A 
BRANCH  15  18
ATOM     18  O   UNL     1     101.154 100.239 122.639  1.00  0.00    -0.504 OA
ATOM     19  H   UNL     1     102.136 100.446 122.775  1.00  0.00     0.293 HD
ENDBRANCH  15  18
BRANCH  17  20
ATOM     20  O   UNL     1      99.948 102.747 123.122  1.00  0.00    -0.504 OA
ATOM     21  H   UNL     1     100.784 102.617 123.680  1.00  0.00     0.293 HD
ENDBRANCH  17  20
ENDBRANCH   1  12
BRANCH   2  22
ATOM     22  O   UNL     1      96.325 101.033 118.679  1.00  0.00    -0.502 OA
ATOM     23  H   UNL     1      96.675 100.115 118.432  1.00  0.00     0.293 HD
ENDBRANCH   2  22
BRANCH   6  24
ATOM     24  O   UNL     1      94.834 104.357 114.968  1.00  0.00    -0.507 OA
ATOM     25  H   UNL     1      94.592 103.380 114.853  1.00  0.00     0.293 HD
ENDBRANCH   6  24
BRANCH   8  26
ATOM     26  O   UNL     1      98.551 107.433 114.861  1.00  0.00    -0.508 OA
ATOM     27  H   UNL     1      98.008 108.241 114.581  1.00  0.00     0.293 HD
ENDBRANCH   8  26
TORSDOF 6
ENDMDL
MODEL 4
REMARK VINA RESULT:    -6.804     11.468     12.805
REMARK INTER + INTRA:          -8.472
REMARK INTER:                  -8.271
REMARK INTRA:                  -0.201
REMARK UNBOUND:                -0.276
REMARK SMILES O=c1c(O)c(-c2ccc(O)c(O)c2)oc2cc(O)cc(O)c12
REMARK SMILES IDX 5 1 3 2 2 3 1 4 22 5 20 6 19 7 17 8 16 9 15 10 14 11 6 12
REMARK SMILES IDX 7 13 8 14 9 15 13 16 11 17 10 18 12 20 4 22 21 24 18 26
REMARK H PARENT 10 19 12 21 4 23 21 25 18 27
REMARK Flexibility Score: inf
ROOT
ATOM      1  C   UNL     1     109.536 104.517 118.459  1.00  0.00     0.180 A 
ATOM      2  C   UNL     1     110.773 105.036 118.029  1.00  0.00     0.208 A 
ATOM      3  C   UNL     1     111.458 104.384 116.992  1.00  0.00     0.238 A 
ATOM      4  O   UNL     1     112.571 104.833 116.606  1.00  0.00    -0.285 OA
ATOM      5  C   UNL     1     110.890 103.242 116.391  1.00  0.00     0.111 A 
ATOM      6  C   UNL     1     111.514 102.530 115.337  1.00  0.00     0.134 A 
ATOM      7  C   UNL     1     110.879 101.408 114.785  1.00  0.00     0.093 A 
ATOM      8  C   UNL     1     109.637 100.985 115.263  1.00  0.00     0.123 A 
ATOM      9  C   UNL     1     109.016 101.684 116.303  1.00  0.00     0.094 A 
ATOM     10  C   UNL     1     109.632 102.803 116.869  1.00  0.00     0.146 A 
ATOM     11  O   UNL     1     109.024 103.446 117.859  1.00  0.00    -0.452 OA
ENDROOT
BRANCH   1  12
ATOM     12  C   UNL     1     108.763 105.136 119.560  1.00  0.00     0.025 A 
ATOM     13  C   UNL     1     108.149 106.381 119.357  1.00  0.00     0.016 A 
ATOM     14  C   UNL     1     107.397 106.974 120.373  1.00  0.00     0.051 A 
ATOM     15  C   UNL     1     107.235 106.327 121.603  1.00  0.00     0.157 A 
ATOM     16  C   UNL     1     108.581 104.476 120.789  1.00  0.00     0.062 A 
ATOM     17  C   UNL     1     107.826 105.069 121.811  1.00  0.00     0.158 A 
BRANCH  15  18
ATOM     18  O   UNL     1     106.482 106.944 122.600  1.00  0.00    -0.504 OA
ATOM     19  H   UNL     1     106.786 107.797 123.054  1.00  0.00     0.293 HD
ENDBRANCH  15  18
BRANCH  17  20
ATOM     20  O   UNL     1     107.656 104.412 123.028  1.00  0.00    -0.504 OA
ATOM     21  H   UNL     1     108.447 104.140 123.600  1.00  0.00     0.293 HD
ENDBRANCH  17  20
ENDBRANCH   1  12
BRANCH   2  22
ATOM     22  O   UNL     1     111.290 106.197 118.608  1.00  0.00    -0.502 OA
ATOM     23  H   UNL     1     112.199 106.222 119.058  1.00  0.00     0.293 HD
ENDBRANCH   2  22
BRANCH   6  24
ATOM     24  O   UNL     1     112.754 102.929 114.837  1.00  0.00    -0.507 OA
ATOM     25  H   UNL     1     113.462 103.342 115.434  1.00  0.00     0.293 HD
ENDBRANCH   6  24
BRANCH   8  26
ATOM     26  O   UNL     1     109.027  99.868 114.696  1.00  0.00    -0.508 OA
ATOM     27  H   UNL     1     109.567  99.067 114.391  1.00  0.00     0.293 HD
ENDBRANCH   8  26
TORSDOF 6
ENDMDL
MODEL 5
REMARK VINA RESULT:    -6.721      3.186      5.898
REMARK INTER + INTRA:          -8.372
REMARK INTER:                  -8.040
REMARK INTRA:                  -0.332
REMARK UNBOUND:                -0.276
REMARK SMILES O=c1c(O)c(-c2ccc(O)c(O)c2)oc2cc(O)cc(O)c12
REMARK SMILES IDX 5 1 3 2 2 3 1 4 22 5 20 6 19 7 17 8 16 9 15 10 14 11 6 12
REMARK SMILES IDX 7 13 8 14 9 15 13 16 11 17 10 18 12 20 4 22 21 24 18 26
REMARK H PARENT 10 19 12 21 4 23 21 25 18 27
REMARK Flexibility Score: inf
ROOT
ATOM      1  C   UNL     1      99.455 103.848 120.134  1.00  0.00     0.180 A 
ATOM      2  C   UNL     1      99.338 102.570 120.715  1.00  0.00     0.208 A 
ATOM      3  C   UNL     1      99.000 101.481 119.896  1.00  0.00     0.238 A 
ATOM      4  O   UNL     1      98.881 100.334 120.407  1.00  0.00    -0.285 OA
ATOM      5  C   UNL     1      98.805 101.682 118.514  1.00  0.00     0.111 A 
ATOM      6  C   UNL     1      98.467 100.637 117.620  1.00  0.00     0.134 A 
ATOM      7  C   UNL     1      98.300 100.917 116.256  1.00  0.00     0.093 A 
ATOM      8  C   UNL     1      98.464 102.215 115.769  1.00  0.00     0.123 A 
ATOM      9  C   UNL     1      98.798 103.251 116.648  1.00  0.00     0.094 A 
ATOM     10  C   UNL     1      98.967 102.994 118.011  1.00  0.00     0.146 A 
ATOM     11  O   UNL     1      99.278 103.997 118.825  1.00  0.00    -0.452 OA
ENDROOT
BRANCH   1  12
ATOM     12  C   UNL     1      99.789 105.048 120.934  1.00  0.00     0.025 A 
ATOM     13  C   UNL     1     101.130 105.439 121.065  1.00  0.00     0.016 A 
ATOM     14  C   UNL     1     101.467 106.580 121.797  1.00  0.00     0.051 A 
ATOM     15  C   UNL     1     100.469 107.355 122.397  1.00  0.00     0.157 A 
ATOM     16  C   UNL     1      98.785 105.841 121.520  1.00  0.00     0.062 A 
ATOM     17  C   UNL     1      99.120 106.987 122.254  1.00  0.00     0.158 A 
BRANCH  15  18
ATOM     18  O   UNL     1     100.836 108.487 123.124  1.00  0.00    -0.504 OA
ATOM     19  H   UNL     1     101.547 109.130 122.798  1.00  0.00     0.293 HD
ENDBRANCH  15  18
BRANCH  17  20
ATOM     20  O   UNL     1      98.121 107.764 122.837  1.00  0.00    -0.504 OA
ATOM     21  H   UNL     1      97.156 107.453 122.865  1.00  0.00     0.293 HD
ENDBRANCH  17  20
ENDBRANCH   1  12
BRANCH   2  22
ATOM     22  O   UNL     1      99.584 102.389 122.078  1.00  0.00    -0.502 OA
ATOM     23  H   UNL     1      99.918 103.138 122.674  1.00  0.00     0.293 HD
ENDBRANCH   2  22
BRANCH   6  24
ATOM     24  O   UNL     1      98.297  99.329 118.075  1.00  0.00    -0.507 OA
ATOM     25  H   UNL     1      98.383  99.091 119.057  1.00  0.00     0.293 HD
ENDBRANCH   6  24
BRANCH   8  26
ATOM     26  O   UNL     1      98.293 102.466 114.409  1.00  0.00    -0.508 OA
ATOM     27  H   UNL     1      98.997 102.952 113.867  1.00  0.00     0.293 HD
ENDBRANCH   8  26
TORSDOF 6
ENDMDL
MODEL 6
REMARK VINA RESULT:    -6.639      3.328      5.434
REMARK INTER + INTRA:          -8.274
REMARK INTER:                  -7.965
REMARK INTRA:                  -0.309
REMARK UNBOUND:                -0.276
REMARK SMILES O=c1c(O)c(-c2ccc(O)c(O)c2)oc2cc(O)cc(O)c12
REMARK SMILES IDX 5 1 3 2 2 3 1 4 22 5 20 6 19 7 17 8 16 9 15 10 14 11 6 12
REMARK SMILES IDX 7 13 8 14 9 15 13 16 11 17 10 18 12 20 4 22 21 24 18 26
REMARK H PARENT 10 19 12 21 4 23 21 25 18 27
REMARK Flexibility Score: inf
ROOT
ATOM      1  C   UNL     1     100.012 101.844 115.984  1.00  0.00     0.180 A 
ATOM      2  C   UNL     1      98.757 102.391 115.650  1.00  0.00     0.208 A 
ATOM      3  C   UNL     1      97.947 102.904 116.675  1.00  0.00     0.238 A 
ATOM      4  O   UNL     1      96.817 103.386 116.389  1.00  0.00    -0.285 OA
ATOM      5  C   UNL     1      98.409 102.882 118.007  1.00  0.00     0.111 A 
ATOM      6  C   UNL     1      97.655 103.383 119.096  1.00  0.00     0.134 A 
ATOM      7  C   UNL     1      98.189 103.333 120.392  1.00  0.00     0.093 A 
ATOM      8  C   UNL     1      99.458 102.796 120.620  1.00  0.00     0.123 A 
ATOM      9  C   UNL     1     100.206 102.299 119.548  1.00  0.00     0.094 A 
ATOM     10  C   UNL     1      99.692 102.337 118.249  1.00  0.00     0.146 A 
ATOM     11  O   UNL     1     100.420 101.854 117.250  1.00  0.00    -0.452 OA
ENDROOT
BRANCH   1  12
ATOM     12  C   UNL     1     100.915 101.266 114.964  1.00  0.00     0.025 A 
ATOM     13  C   UNL     1     100.884  99.885 114.717  1.00  0.00     0.016 A 
ATOM     14  C   UNL     1     101.712  99.320 113.744  1.00  0.00     0.051 A 
ATOM     15  C   UNL     1     102.573 100.127 112.994  1.00  0.00     0.157 A 
ATOM     16  C   UNL     1     101.766 102.079 114.194  1.00  0.00     0.062 A 
ATOM     17  C   UNL     1     102.597 101.515 113.215  1.00  0.00     0.158 A 
BRANCH  15  18
ATOM     18  O   UNL     1     103.390  99.536 112.032  1.00  0.00    -0.504 OA
ATOM     19  H   UNL     1     103.624 100.002 111.164  1.00  0.00     0.293 HD
ENDBRANCH  15  18
BRANCH  17  20
ATOM     20  O   UNL     1     103.442 102.327 112.461  1.00  0.00    -0.504 OA
ATOM     21  H   UNL     1     104.367 102.580 112.789  1.00  0.00     0.293 HD
ENDBRANCH  17  20
ENDBRANCH   1  12
BRANCH   2  22
ATOM     22  O   UNL     1      98.344 102.445 114.317  1.00  0.00    -0.502 OA
ATOM     23  H   UNL     1      98.903 102.881 113.592  1.00  0.00     0.293 HD
ENDBRANCH   2  22
BRANCH   6  24
ATOM     24  O   UNL     1      96.385 103.928 118.901  1.00  0.00    -0.507 OA
ATOM     25  H   UNL     1      95.666 103.871 119.612  1.00  0.00     0.293 HD
ENDBRANCH   6  24
BRANCH   8  26
ATOM     26  O   UNL     1      99.965 102.759 121.917  1.00  0.00    -0.508 OA
ATOM     27  H   UNL     1     100.082 101.886 122.416  1.00  0.00     0.293 HD
ENDBRANCH   8  26
TORSDOF 6
ENDMDL
MODEL 7
REMARK VINA RESULT:    -6.588      9.544     11.128
REMARK INTER + INTRA:          -8.212
REMARK INTER:                  -7.892
REMARK INTRA:                  -0.320
REMARK UNBOUND:                -0.276
REMARK SMILES O=c1c(O)c(-c2ccc(O)c(O)c2)oc2cc(O)cc(O)c12
REMARK SMILES IDX 5 1 3 2 2 3 1 4 22 5 20 6 19 7 17 8 16 9 15 10 14 11 6 12
REMARK SMILES IDX 7 13 8 14 9 15 13 16 11 17 10 18 12 20 4 22 21 24 18 26
REMARK H PARENT 10 19 12 21 4 23 21 25 18 27
REMARK Flexibility Score: inf
ROOT
ATOM      1  C   UNL     1     106.775 105.634 120.616  1.00  0.00     0.180 A 
ATOM      2  C   UNL     1     107.717 104.853 121.313  1.00  0.00     0.208 A 
ATOM      3  C   UNL     1     108.821 104.340 120.616  1.00  0.00     0.238 A 
ATOM      4  O   UNL     1     109.666 103.630 121.227  1.00  0.00    -0.285 OA
ATOM      5  C   UNL     1     108.976 104.629 119.244  1.00  0.00     0.111 A 
ATOM      6  C   UNL     1     110.062 104.153 118.470  1.00  0.00     0.134 A 
ATOM      7  C   UNL     1     110.150 104.494 117.112  1.00  0.00     0.093 A 
ATOM      8  C   UNL     1     109.177 105.299 116.515  1.00  0.00     0.123 A 
ATOM      9  C   UNL     1     108.102 105.771 117.275  1.00  0.00     0.094 A 
ATOM     10  C   UNL     1     107.995 105.442 118.629  1.00  0.00     0.146 A 
ATOM     11  O   UNL     1     106.961 105.899 119.326  1.00  0.00    -0.452 OA
ENDROOT
BRANCH   1  12
ATOM     12  C   UNL     1     105.574 106.195 121.277  1.00  0.00     0.025 A 
ATOM     13  C   UNL     1     105.570 107.542 121.673  1.00  0.00     0.016 A 
ATOM     14  C   UNL     1     104.441 108.098 122.279  1.00  0.00     0.051 A 
ATOM     15  C   UNL     1     103.296 107.323 122.486  1.00  0.00     0.157 A 
ATOM     16  C   UNL     1     104.414 105.423 121.467  1.00  0.00     0.062 A 
ATOM     17  C   UNL     1     103.279 105.979 122.073  1.00  0.00     0.158 A 
BRANCH  15  18
ATOM     18  O   UNL     1     102.185 107.904 123.096  1.00  0.00    -0.504 OA
ATOM     19  H   UNL     1     101.569 107.379 123.705  1.00  0.00     0.293 HD
ENDBRANCH  15  18
BRANCH  17  20
ATOM     20  O   UNL     1     102.136 105.206 122.263  1.00  0.00    -0.504 OA
ATOM     21  H   UNL     1     101.377 105.206 121.592  1.00  0.00     0.293 HD
ENDBRANCH  17  20
ENDBRANCH   1  12
BRANCH   2  22
ATOM     22  O   UNL     1     107.567 104.622 122.683  1.00  0.00    -0.502 OA
ATOM     23  H   UNL     1     108.289 104.183 123.242  1.00  0.00     0.293 HD
ENDBRANCH   2  22
BRANCH   6  24
ATOM     24  O   UNL     1     111.051 103.349 119.038  1.00  0.00    -0.507 OA
ATOM     25  H   UNL     1     111.172 102.381 118.764  1.00  0.00     0.293 HD
ENDBRANCH   6  24
BRANCH   8  26
ATOM     26  O   UNL     1     109.289 105.624 115.165  1.00  0.00    -0.508 OA
ATOM     27  H   UNL     1     108.861 106.459 114.783  1.00  0.00     0.293 HD
ENDBRANCH   8  26
TORSDOF 6
ENDMDL
MODEL 8
REMARK VINA RESULT:    -6.540      3.753      8.104
REMARK INTER + INTRA:          -8.155
REMARK INTER:                  -7.831
REMARK INTRA:                  -0.324
REMARK UNBOUND:                -0.276
REMARK SMILES O=c1c(O)c(-c2ccc(O)c(O)c2)oc2cc(O)cc(O)c12
REMARK SMILES IDX 5 1 3 2 2 3 1 4 22 5 20 6 19 7 17 8 16 9 15 10 14 11 6 12
REMARK SMILES IDX 7 13 8 14 9 15 13 16 11 17 10 18 12 20 4 22 21 24 18 26
REMARK H PARENT 10 19 12 21 4 23 21 25 18 27
REMARK Flexibility Score: inf
ROOT
ATOM      1  C   UNL     1     100.450 101.946 120.493  1.00  0.00     0.180 A 
ATOM      2  C   UNL     1      99.500 102.751 121.151  1.00  0.00     0.208 A 
ATOM      3  C   UNL     1      98.409 103.248 120.421  1.00  0.00     0.238 A 
ATOM      4  O   UNL     1      97.559 103.980 120.996  1.00  0.00    -0.285 OA
ATOM      5  C   UNL     1      98.275 102.918 119.057  1.00  0.00     0.111 A 
ATOM      6  C   UNL     1      97.203 103.375 118.251  1.00  0.00     0.134 A 
ATOM      7  C   UNL     1      97.135 102.993 116.903  1.00  0.00     0.093 A 
ATOM      8  C   UNL     1      98.114 102.167 116.346  1.00  0.00     0.123 A 
ATOM      9  C   UNL     1      99.175 101.713 117.137  1.00  0.00     0.094 A 
ATOM     10  C   UNL     1      99.262 102.083 118.481  1.00  0.00     0.146 A 
ATOM     11  O   UNL     1     100.283 101.643 119.208  1.00  0.00    -0.452 OA
ENDROOT
BRANCH   1  12
ATOM     12  C   UNL     1     101.637 101.400 121.189  1.00  0.00     0.025 A 
ATOM     13  C   UNL     1     101.623 100.071 121.641  1.00  0.00     0.016 A 
ATOM     14  C   UNL     1     102.738  99.529 122.282  1.00  0.00     0.051 A 
ATOM     15  C   UNL     1     103.891 100.300 122.468  1.00  0.00     0.157 A 
ATOM     16  C   UNL     1     102.804 102.167 121.358  1.00  0.00     0.062 A 
ATOM     17  C   UNL     1     103.927 101.624 122.000  1.00  0.00     0.158 A 
BRANCH  15  18
ATOM     18  O   UNL     1     104.989  99.733 123.114  1.00  0.00    -0.504 OA
ATOM     19  H   UNL     1     105.755  99.311 122.603  1.00  0.00     0.293 HD
ENDBRANCH  15  18
BRANCH  17  20
ATOM     20  O   UNL     1     105.077 102.393 122.169  1.00  0.00    -0.504 OA
ATOM     21  H   UNL     1     105.194 103.283 121.700  1.00  0.00     0.293 HD
ENDBRANCH  17  20
ENDBRANCH   1  12
BRANCH   2  22
ATOM     22  O   UNL     1      99.630 103.024 122.515  1.00  0.00    -0.502 OA
ATOM     23  H   UNL     1     100.533 103.087 122.973  1.00  0.00     0.293 HD
ENDBRANCH   2  22
BRANCH   6  24
ATOM     24  O   UNL     1      96.210 104.200 118.779  1.00  0.00    -0.507 OA
ATOM     25  H   UNL     1      96.427 105.104 119.183  1.00  0.00     0.293 HD
ENDBRANCH   6  24
BRANCH   8  26
ATOM     26  O   UNL     1      98.022 101.802 115.005  1.00  0.00    -0.508 OA
ATOM     27  H   UNL     1      97.311 102.190 114.397  1.00  0.00     0.293 HD
ENDBRANCH   8  26
TORSDOF 6
ENDMDL
MODEL 9
REMARK VINA RESULT:    -6.462      9.333     11.990
REMARK INTER + INTRA:          -8.060
REMARK INTER:                  -7.880
REMARK INTRA:                  -0.181
REMARK UNBOUND:                -0.276
REMARK SMILES O=c1c(O)c(-c2ccc(O)c(O)c2)oc2cc(O)cc(O)c12
REMARK SMILES IDX 5 1 3 2 2 3 1 4 22 5 20 6 19 7 17 8 16 9 15 10 14 11 6 12
REMARK SMILES IDX 7 13 8 14 9 15 13 16 11 17 10 18 12 20 4 22 21 24 18 26
REMARK H PARENT 10 19 12 21 4 23 21 25 18 27
REMARK Flexibility Score: inf
ROOT
ATOM      1  C   UNL     1     106.422 102.497 111.614  1.00  0.00     0.180 A 
ATOM      2  C   UNL     1     106.234 103.812 112.082  1.00  0.00     0.208 A 
ATOM      3  C   UNL     1     105.328 104.648 111.412  1.00  0.00     0.238 A 
ATOM      4  O   UNL     1     105.160 105.831 111.815  1.00  0.00    -0.285 OA
ATOM      5  C   UNL     1     104.612 104.153 110.302  1.00  0.00     0.111 A 
ATOM      6  C   UNL     1     103.678 104.930 109.574  1.00  0.00     0.134 A 
ATOM      7  C   UNL     1     102.999 104.361 108.487  1.00  0.00     0.093 A 
ATOM      8  C   UNL     1     103.233 103.035 108.114  1.00  0.00     0.123 A 
ATOM      9  C   UNL     1     104.155 102.264 108.830  1.00  0.00     0.094 A 
ATOM     10  C   UNL     1     104.844 102.812 109.915  1.00  0.00     0.146 A 
ATOM     11  O   UNL     1     105.718 102.060 110.573  1.00  0.00    -0.452 OA
ENDROOT
BRANCH   1  12
ATOM     12  C   UNL     1     107.373 101.562 112.255  1.00  0.00     0.025 A 
ATOM     13  C   UNL     1     106.896 100.363 112.809  1.00  0.00     0.016 A 
ATOM     14  C   UNL     1     107.778  99.456 113.400  1.00  0.00     0.051 A 
ATOM     15  C   UNL     1     109.151  99.724 113.435  1.00  0.00     0.157 A 
ATOM     16  C   UNL     1     108.756 101.820 112.272  1.00  0.00     0.062 A 
ATOM     17  C   UNL     1     109.644 100.910 112.863  1.00  0.00     0.158 A 
BRANCH  15  18
ATOM     18  O   UNL     1     110.007  98.802 114.034  1.00  0.00    -0.504 OA
ATOM     19  H   UNL     1     109.974  97.814 113.813  1.00  0.00     0.293 HD
ENDBRANCH  15  18
BRANCH  17  20
ATOM     20  O   UNL     1     111.011 101.176 112.881  1.00  0.00    -0.504 OA
ATOM     21  H   UNL     1     111.464 101.575 113.695  1.00  0.00     0.293 HD
ENDBRANCH  17  20
ENDBRANCH   1  12
BRANCH   2  22
ATOM     22  O   UNL     1     106.919 104.263 113.213  1.00  0.00    -0.502 OA
ATOM     23  H   UNL     1     107.030 105.248 113.425  1.00  0.00     0.293 HD
ENDBRANCH   2  22
BRANCH   6  24
ATOM     24  O   UNL     1     103.420 106.256 109.922  1.00  0.00    -0.507 OA
ATOM     25  H   UNL     1     103.332 106.546 110.889  1.00  0.00     0.293 HD
ENDBRANCH   6  24
BRANCH   8  26
ATOM     26  O   UNL     1     102.544 102.494 107.031  1.00  0.00    -0.508 OA
ATOM     27  H   UNL     1     101.545 102.622 106.921  1.00  0.00     0.293 HD
ENDBRANCH   8  26
TORSDOF 6
ENDMDL
