MODEL 1
REMARK VINA RESULT:    -6.844      0.000      0.000
REMARK INTER + INTRA:         -10.709
REMARK INTER:                  -9.644
REMARK INTRA:                  -1.065
REMARK UNBOUND:                -1.065
REMARK SMILES C=C(CC[C@@H](C(=O)[O-])[C@H]1[C@H](O)C[C@]2(C)C3=C(CC[C@]12C)[C@]1(C)CC[C@@H](O)C(C)(C)[C@H]1CC3)C(C)C
REMARK SMILES IDX 4 1 5 2 6 3 7 4 8 5 9 6 10 7 19 8 12 9 13 10 18 11 20 12
REMARK SMILES IDX 14 13 15 14 17 15 16 16 32 17 21 18 31 19 30 20 23 21 22 22
REMARK SMILES IDX 27 23 24 24 25 25 28 26 29 27 11 28 26 30 3 32 2 33 1 34
REMARK SMILES IDX 33 35 34 36 35 37
REMARK H PARENT 11 29 26 31
REMARK Flexibility Score: inf
ROOT
ATOM      1  C   UNL     1     138.836 145.272 120.535  1.00  0.00     0.014 C 
ENDROOT
BRANCH   1   2
ATOM      2  C   UNL     1     137.838 144.285 121.205  1.00  0.00     0.042 C 
BRANCH   2   3
ATOM      3  C   UNL     1     138.387 143.744 122.509  1.00  0.00     0.045 C 
ATOM      4  O   UNL     1     138.763 142.544 122.606  1.00  0.00    -0.550 OA
ATOM      5  O   UNL     1     138.428 144.555 123.635  1.00  0.00    -0.550 OA
ENDBRANCH   2   3
BRANCH   2   6
ATOM      6  C   UNL     1     136.354 144.812 121.276  1.00  0.00     0.033 C 
ATOM      7  C   UNL     1     136.272 146.333 121.405  1.00  0.00     0.119 C 
ATOM      8  C   UNL     1     135.252 144.404 120.211  1.00  0.00    -0.017 C 
ATOM      9  C   UNL     1     134.802 146.652 121.191  1.00  0.00     0.043 C 
ATOM     10  C   UNL     1     134.337 145.720 120.052  1.00  0.00    -0.003 C 
ATOM     11  C   UNL     1     134.439 143.188 120.756  1.00  0.00     0.012 C 
ATOM     12  C   UNL     1     135.847 143.925 118.855  1.00  0.00     0.013 C 
ATOM     13  C   UNL     1     134.619 146.477 118.712  1.00  0.00     0.017 C 
ATOM     14  C   UNL     1     132.803 145.477 120.219  1.00  0.00    -0.064 C 
ATOM     15  C   UNL     1     133.357 143.614 121.730  1.00  0.00     0.032 C 
ATOM     16  C   UNL     1     132.331 144.437 120.981  1.00  0.00    -0.064 C 
ATOM     17  C   UNL     1     131.848 146.478 119.566  1.00  0.00     0.032 C 
ATOM     18  C   UNL     1     130.818 144.197 121.225  1.00  0.00    -0.008 C 
ATOM     19  C   UNL     1     130.365 146.316 119.904  1.00  0.00     0.009 C 
ATOM     20  C   UNL     1     130.013 144.826 120.029  1.00  0.00     0.007 C 
ATOM     21  C   UNL     1     130.492 142.673 121.269  1.00  0.00     0.014 C 
ATOM     22  C   UNL     1     130.519 144.821 122.615  1.00  0.00     0.016 C 
ATOM     23  C   UNL     1     128.471 144.487 119.918  1.00  0.00    -0.006 C 
ATOM     24  C   UNL     1     128.991 142.369 121.285  1.00  0.00     0.033 C 
ATOM     25  C   UNL     1     128.282 142.943 120.058  1.00  0.00     0.120 C 
ATOM     26  C   UNL     1     127.586 145.252 120.938  1.00  0.00     0.014 C 
ATOM     27  C   UNL     1     127.961 144.878 118.501  1.00  0.00     0.014 C 
BRANCH   7  28
ATOM     28  O   UNL     1     136.695 146.753 122.678  1.00  0.00    -0.393 OA
ATOM     29  H   UNL     1     136.661 147.744 122.673  1.00  0.00     0.210 HD
ENDBRANCH   7  28
BRANCH  25  30
ATOM     30  O   UNL     1     126.916 142.609 120.135  1.00  0.00    -0.393 OA
ATOM     31  H   UNL     1     126.664 142.602 121.096  1.00  0.00     0.210 HD
ENDBRANCH  25  30
ENDBRANCH   2   6
ENDBRANCH   1   2
BRANCH   1  32
ATOM     32  C   UNL     1     140.047 144.608 119.851  1.00  0.00     0.031 C 
BRANCH  32  33
ATOM     33  C   UNL     1     141.223 145.553 119.716  1.00  0.00    -0.075 C 
ATOM     34  C   UNL     1     141.044 146.760 119.145  1.00  0.00     0.008 C 
BRANCH  33  35
ATOM     35  C   UNL     1     142.591 145.116 120.218  1.00  0.00     0.008 C 
ATOM     36  C   UNL     1     142.874 143.650 119.873  1.00  0.00     0.012 C 
ATOM     37  C   UNL     1     143.696 146.033 119.684  1.00  0.00     0.012 C 
ENDBRANCH  33  35
ENDBRANCH  32  33
ENDBRANCH   1  32
TORSDOF 8
ENDMDL
MODEL 2
REMARK VINA RESULT:    -6.134      4.801      8.509
REMARK INTER + INTRA:          -9.709
REMARK INTER:                  -7.864
REMARK INTRA:                  -1.845
REMARK UNBOUND:                -1.065
REMARK SMILES C=C(CC[C@@H](C(=O)[O-])[C@H]1[C@H](O)C[C@]2(C)C3=C(CC[C@]12C)[C@]1(C)CC[C@@H](O)C(C)(C)[C@H]1CC3)C(C)C
REMARK SMILES IDX 4 1 5 2 6 3 7 4 8 5 9 6 10 7 19 8 12 9 13 10 18 11 20 12
REMARK SMILES IDX 14 13 15 14 17 15 16 16 32 17 21 18 31 19 30 20 23 21 22 22
REMARK SMILES IDX 27 23 24 24 25 25 28 26 29 27 11 28 26 30 3 32 2 33 1 34
REMARK SMILES IDX 33 35 34 36 35 37
REMARK H PARENT 11 29 26 31
REMARK Flexibility Score: inf
ROOT
ATOM      1  C   UNL     1     132.547 144.796 120.068  1.00  0.00     0.014 C 
ENDROOT
BRANCH   1   2
ATOM      2  C   UNL     1     133.313 144.190 121.280  1.00  0.00     0.042 C 
BRANCH   2   3
ATOM      3  C   UNL     1     134.762 143.915 120.936  1.00  0.00     0.045 C 
ATOM      4  O   UNL     1     135.285 142.794 121.182  1.00  0.00    -0.550 OA
ATOM      5  O   UNL     1     135.551 144.920 120.394  1.00  0.00    -0.550 OA
ENDBRANCH   2   3
BRANCH   2   6
ATOM      6  C   UNL     1     133.087 144.958 122.638  1.00  0.00     0.033 C 
ATOM      7  C   UNL     1     132.868 146.458 122.441  1.00  0.00     0.119 C 
ATOM      8  C   UNL     1     132.011 144.496 123.708  1.00  0.00    -0.017 C 
ATOM      9  C   UNL     1     132.413 146.955 123.802  1.00  0.00     0.043 C 
ATOM     10  C   UNL     1     131.459 145.870 124.343  1.00  0.00    -0.003 C 
ATOM     11  C   UNL     1     132.708 143.597 124.777  1.00  0.00     0.012 C 
ATOM     12  C   UNL     1     130.876 143.618 123.109  1.00  0.00     0.013 C 
ATOM     13  C   UNL     1     130.029 146.229 123.817  1.00  0.00     0.017 C 
ATOM     14  C   UNL     1     131.488 145.931 125.903  1.00  0.00    -0.064 C 
ATOM     15  C   UNL     1     133.426 144.415 125.834  1.00  0.00     0.032 C 
ATOM     16  C   UNL     1     132.396 145.195 126.622  1.00  0.00    -0.064 C 
ATOM     17  C   UNL     1     130.521 146.892 126.598  1.00  0.00     0.032 C 
ATOM     18  C   UNL     1     132.502 145.273 128.168  1.00  0.00    -0.008 C 
ATOM     19  C   UNL     1     130.703 147.063 128.106  1.00  0.00     0.009 C 
ATOM     20  C   UNL     1     131.109 145.725 128.742  1.00  0.00     0.007 C 
ATOM     21  C   UNL     1     132.840 143.879 128.779  1.00  0.00     0.014 C 
ATOM     22  C   UNL     1     133.675 146.251 128.454  1.00  0.00     0.016 C 
ATOM     23  C   UNL     1     130.889 145.628 130.307  1.00  0.00    -0.006 C 
ATOM     24  C   UNL     1     132.741 143.840 130.306  1.00  0.00     0.033 C 
ATOM     25  C   UNL     1     131.341 144.216 130.795  1.00  0.00     0.120 C 
ATOM     26  C   UNL     1     131.602 146.750 131.109  1.00  0.00     0.014 C 
ATOM     27  C   UNL     1     129.370 145.750 130.619  1.00  0.00     0.014 C 
BRANCH   7  28
ATOM     28  O   UNL     1     134.059 147.093 122.048  1.00  0.00    -0.393 OA
ATOM     29  H   UNL     1     134.541 146.451 121.467  1.00  0.00     0.210 HD
ENDBRANCH   7  28
BRANCH  25  30
ATOM     30  O   UNL     1     131.324 144.140 132.201  1.00  0.00    -0.393 OA
ATOM     31  H   UNL     1     132.214 143.810 132.493  1.00  0.00     0.210 HD
ENDBRANCH  25  30
ENDBRANCH   2   6
ENDBRANCH   1   2
BRANCH   1  32
ATOM     32  C   UNL     1     131.203 144.116 119.743  1.00  0.00     0.031 C 
BRANCH  32  33
ATOM     33  C   UNL     1     130.033 145.073 119.846  1.00  0.00    -0.075 C 
ATOM     34  C   UNL     1     130.262 146.397 119.923  1.00  0.00     0.008 C 
BRANCH  33  35
ATOM     35  C   UNL     1     128.617 144.516 119.873  1.00  0.00     0.008 C 
ATOM     36  C   UNL     1     127.766 145.196 120.951  1.00  0.00     0.012 C 
ATOM     37  C   UNL     1     127.953 144.625 118.496  1.00  0.00     0.012 C 
ENDBRANCH  33  35
ENDBRANCH  32  33
ENDBRANCH   1  32
TORSDOF 8
ENDMDL
MODEL 3
REMARK VINA RESULT:    -6.116      2.273      9.656
REMARK INTER + INTRA:          -9.683
REMARK INTER:                  -8.327
REMARK INTRA:                  -1.356
REMARK UNBOUND:                -1.065
REMARK SMILES C=C(CC[C@@H](C(=O)[O-])[C@H]1[C@H](O)C[C@]2(C)C3=C(CC[C@]12C)[C@]1(C)CC[C@@H](O)C(C)(C)[C@H]1CC3)C(C)C
REMARK SMILES IDX 4 1 5 2 6 3 7 4 8 5 9 6 10 7 19 8 12 9 13 10 18 11 20 12
REMARK SMILES IDX 14 13 15 14 17 15 16 16 32 17 21 18 31 19 30 20 23 21 22 22
REMARK SMILES IDX 27 23 24 24 25 25 28 26 29 27 11 28 26 30 3 32 2 33 1 34
REMARK SMILES IDX 33 35 34 36 35 37
REMARK H PARENT 11 29 26 31
REMARK Flexibility Score: inf
ROOT
ATOM      1  C   UNL     1     130.684 144.860 120.258  1.00  0.00     0.014 C 
ENDROOT
BRANCH   1   2
ATOM      2  C   UNL     1     131.546 145.507 121.380  1.00  0.00     0.042 C 
BRANCH   2   3
ATOM      3  C   UNL     1     130.790 145.568 122.691  1.00  0.00     0.045 C 
ATOM      4  O   UNL     1     130.466 144.514 123.303  1.00  0.00    -0.550 OA
ATOM      5  O   UNL     1     130.393 146.794 123.208  1.00  0.00    -0.550 OA
ENDBRANCH   2   3
BRANCH   2   6
ATOM      6  C   UNL     1     133.010 144.934 121.484  1.00  0.00     0.033 C 
ATOM      7  C   UNL     1     133.077 143.428 121.232  1.00  0.00     0.119 C 
ATOM      8  C   UNL     1     134.230 145.563 120.689  1.00  0.00    -0.017 C 
ATOM      9  C   UNL     1     134.561 143.129 121.112  1.00  0.00     0.043 C 
ATOM     10  C   UNL     1     135.157 144.303 120.308  1.00  0.00    -0.003 C 
ATOM     11  C   UNL     1     134.974 146.578 121.613  1.00  0.00     0.012 C 
ATOM     12  C   UNL     1     133.799 146.386 119.440  1.00  0.00     0.013 C 
ATOM     13  C   UNL     1     135.034 143.916 118.796  1.00  0.00     0.017 C 
ATOM     14  C   UNL     1     136.661 144.450 120.704  1.00  0.00    -0.064 C 
ATOM     15  C   UNL     1     135.934 145.888 122.564  1.00  0.00     0.032 C 
ATOM     16  C   UNL     1     137.040 145.250 121.753  1.00  0.00    -0.064 C 
ATOM     17  C   UNL     1     137.686 143.617 119.932  1.00  0.00     0.032 C 
ATOM     18  C   UNL     1     138.514 145.375 122.220  1.00  0.00    -0.008 C 
ATOM     19  C   UNL     1     139.119 143.644 120.465  1.00  0.00     0.009 C 
ATOM     20  C   UNL     1     139.454 145.043 121.004  1.00  0.00     0.007 C 
ATOM     21  C   UNL     1     138.833 146.829 122.686  1.00  0.00     0.014 C 
ATOM     22  C   UNL     1     138.648 144.412 123.431  1.00  0.00     0.016 C 
ATOM     23  C   UNL     1     140.999 145.353 121.158  1.00  0.00    -0.006 C 
ATOM     24  C   UNL     1     140.322 147.073 122.949  1.00  0.00     0.033 C 
ATOM     25  C   UNL     1     141.170 146.805 121.705  1.00  0.00     0.120 C 
ATOM     26  C   UNL     1     141.757 144.329 122.045  1.00  0.00     0.014 C 
ATOM     27  C   UNL     1     141.672 145.316 119.756  1.00  0.00     0.014 C 
BRANCH   7  28
ATOM     28  O   UNL     1     132.506 142.714 122.300  1.00  0.00    -0.393 OA
ATOM     29  H   UNL     1     131.524 142.818 122.215  1.00  0.00     0.210 HD
ENDBRANCH   7  28
BRANCH  25  30
ATOM     30  O   UNL     1     142.518 147.068 122.020  1.00  0.00    -0.393 OA
ATOM     31  H   UNL     1     142.555 147.339 122.975  1.00  0.00     0.210 HD
ENDBRANCH  25  30
ENDBRANCH   2   6
ENDBRANCH   1   2
BRANCH   1  32
ATOM     32  C   UNL     1     129.553 145.753 119.710  1.00  0.00     0.031 C 
BRANCH  32  33
ATOM     33  C   UNL     1     128.265 144.985 119.494  1.00  0.00    -0.075 C 
ATOM     34  C   UNL     1     127.983 144.489 118.274  1.00  0.00     0.008 C 
BRANCH  33  35
ATOM     35  C   UNL     1     127.306 144.798 120.661  1.00  0.00     0.008 C 
ATOM     36  C   UNL     1     127.638 143.536 121.464  1.00  0.00     0.012 C 
ATOM     37  C   UNL     1     127.282 146.036 121.562  1.00  0.00     0.012 C 
ENDBRANCH  33  35
ENDBRANCH  32  33
ENDBRANCH   1  32
TORSDOF 8
ENDMDL
MODEL 4
REMARK VINA RESULT:    -6.100      6.448     10.251
REMARK INTER + INTRA:          -9.660
REMARK INTER:                  -7.697
REMARK INTRA:                  -1.963
REMARK UNBOUND:                -1.065
REMARK SMILES C=C(CC[C@@H](C(=O)[O-])[C@H]1[C@H](O)C[C@]2(C)C3=C(CC[C@]12C)[C@]1(C)CC[C@@H](O)C(C)(C)[C@H]1CC3)C(C)C
REMARK SMILES IDX 4 1 5 2 6 3 7 4 8 5 9 6 10 7 19 8 12 9 13 10 18 11 20 12
REMARK SMILES IDX 14 13 15 14 17 15 16 16 32 17 21 18 31 19 30 20 23 21 22 22
REMARK SMILES IDX 27 23 24 24 25 25 28 26 29 27 11 28 26 30 3 32 2 33 1 34
REMARK SMILES IDX 33 35 34 36 35 37
REMARK H PARENT 11 29 26 31
REMARK Flexibility Score: inf
ROOT
ATOM      1  C   UNL     1     131.714 145.441 131.782  1.00  0.00     0.014 C 
ENDROOT
BRANCH   1   2
ATOM      2  C   UNL     1     132.464 145.743 130.453  1.00  0.00     0.042 C 
BRANCH   2   3
ATOM      3  C   UNL     1     133.956 145.531 130.599  1.00  0.00     0.045 C 
ATOM      4  O   UNL     1     134.487 144.427 130.298  1.00  0.00    -0.550 OA
ATOM      5  O   UNL     1     134.753 146.539 131.124  1.00  0.00    -0.550 OA
ENDBRANCH   2   3
BRANCH   2   6
ATOM      6  C   UNL     1     131.819 145.075 129.179  1.00  0.00     0.033 C 
ATOM      7  C   UNL     1     131.091 143.769 129.500  1.00  0.00     0.119 C 
ATOM      8  C   UNL     1     130.873 145.870 128.186  1.00  0.00    -0.017 C 
ATOM      9  C   UNL     1     130.334 143.436 128.227  1.00  0.00     0.043 C 
ATOM     10  C   UNL     1     129.788 144.782 127.704  1.00  0.00    -0.003 C 
ATOM     11  C   UNL     1     131.723 146.415 126.995  1.00  0.00     0.012 C 
ATOM     12  C   UNL     1     130.213 147.125 128.827  1.00  0.00     0.013 C 
ATOM     13  C   UNL     1     128.395 144.994 128.387  1.00  0.00     0.017 C 
ATOM     14  C   UNL     1     129.614 144.667 126.156  1.00  0.00    -0.064 C 
ATOM     15  C   UNL     1     131.967 145.357 125.935  1.00  0.00     0.032 C 
ATOM     16  C   UNL     1     130.641 144.992 125.304  1.00  0.00    -0.064 C 
ATOM     17  C   UNL     1     128.290 144.114 125.625  1.00  0.00     0.032 C 
ATOM     18  C   UNL     1     130.534 144.834 123.764  1.00  0.00    -0.008 C 
ATOM     19  C   UNL     1     128.224 143.842 124.122  1.00  0.00     0.009 C 
ATOM     20  C   UNL     1     129.016 144.914 123.358  1.00  0.00     0.007 C 
ATOM     21  C   UNL     1     131.286 145.984 123.029  1.00  0.00     0.014 C 
ATOM     22  C   UNL     1     131.226 143.483 123.438  1.00  0.00     0.016 C 
ATOM     23  C   UNL     1     128.670 145.039 121.819  1.00  0.00    -0.006 C 
ATOM     24  C   UNL     1     131.034 146.012 121.519  1.00  0.00     0.033 C 
ATOM     25  C   UNL     1     129.548 146.168 121.193  1.00  0.00     0.120 C 
ATOM     26  C   UNL     1     128.827 143.709 121.033  1.00  0.00     0.014 C 
ATOM     27  C   UNL     1     127.186 145.480 121.661  1.00  0.00     0.014 C 
BRANCH   7  28
ATOM     28  O   UNL     1     132.004 142.750 129.821  1.00  0.00    -0.393 OA
ATOM     29  H   UNL     1     132.819 142.923 129.284  1.00  0.00     0.210 HD
ENDBRANCH   7  28
BRANCH  25  30
ATOM     30  O   UNL     1     129.399 146.203 119.793  1.00  0.00    -0.393 OA
ATOM     31  H   UNL     1     130.212 146.634 119.417  1.00  0.00     0.210 HD
ENDBRANCH  25  30
ENDBRANCH   2   6
ENDBRANCH   1   2
BRANCH   1  32
ATOM     32  C   UNL     1     131.111 146.674 132.484  1.00  0.00     0.031 C 
BRANCH  32  33
ATOM     33  C   UNL     1     129.654 146.476 132.846  1.00  0.00    -0.075 C 
ATOM     34  C   UNL     1     129.243 146.718 134.106  1.00  0.00     0.008 C 
BRANCH  33  35
ATOM     35  C   UNL     1     128.681 145.995 131.780  1.00  0.00     0.008 C 
ATOM     36  C   UNL     1     128.067 144.640 132.149  1.00  0.00     0.012 C 
ATOM     37  C   UNL     1     127.592 147.039 131.512  1.00  0.00     0.012 C 
ENDBRANCH  33  35
ENDBRANCH  32  33
ENDBRANCH   1  32
TORSDOF 8
ENDMDL
MODEL 5
REMARK VINA RESULT:    -6.070      4.905      8.880
REMARK INTER + INTRA:          -9.618
REMARK INTER:                  -7.810
REMARK INTRA:                  -1.808
REMARK UNBOUND:                -1.065
REMARK SMILES C=C(CC[C@@H](C(=O)[O-])[C@H]1[C@H](O)C[C@]2(C)C3=C(CC[C@]12C)[C@]1(C)CC[C@@H](O)C(C)(C)[C@H]1CC3)C(C)C
REMARK SMILES IDX 4 1 5 2 6 3 7 4 8 5 9 6 10 7 19 8 12 9 13 10 18 11 20 12
REMARK SMILES IDX 14 13 15 14 17 15 16 16 32 17 21 18 31 19 30 20 23 21 22 22
REMARK SMILES IDX 27 23 24 24 25 25 28 26 29 27 11 28 26 30 3 32 2 33 1 34
REMARK SMILES IDX 33 35 34 36 35 37
REMARK H PARENT 11 29 26 31
REMARK Flexibility Score: inf
ROOT
ATOM      1  C   UNL     1     130.365 145.190 120.309  1.00  0.00     0.014 C 
ENDROOT
BRANCH   1   2
ATOM      2  C   UNL     1     129.605 145.880 121.478  1.00  0.00     0.042 C 
BRANCH   2   3
ATOM      3  C   UNL     1     128.136 146.057 121.153  1.00  0.00     0.045 C 
ATOM      4  O   UNL     1     127.764 146.407 120.000  1.00  0.00    -0.550 OA
ATOM      5  O   UNL     1     127.180 145.890 122.146  1.00  0.00    -0.550 OA
ENDBRANCH   2   3
BRANCH   2   6
ATOM      6  C   UNL     1     129.902 145.265 122.898  1.00  0.00     0.033 C 
ATOM      7  C   UNL     1     130.245 143.776 122.838  1.00  0.00     0.119 C 
ATOM      8  C   UNL     1     130.941 145.911 123.907  1.00  0.00    -0.017 C 
ATOM      9  C   UNL     1     130.748 143.447 124.232  1.00  0.00     0.043 C 
ATOM     10  C   UNL     1     131.611 144.654 124.658  1.00  0.00    -0.003 C 
ATOM     11  C   UNL     1     130.178 146.846 124.897  1.00  0.00     0.012 C 
ATOM     12  C   UNL     1     131.996 146.821 123.213  1.00  0.00     0.013 C 
ATOM     13  C   UNL     1     133.062 144.366 124.148  1.00  0.00     0.017 C 
ATOM     14  C   UNL     1     131.595 144.736 126.218  1.00  0.00    -0.064 C 
ATOM     15  C   UNL     1     129.537 146.073 126.034  1.00  0.00     0.032 C 
ATOM     16  C   UNL     1     130.633 145.459 126.878  1.00  0.00    -0.064 C 
ATOM     17  C   UNL     1     132.644 143.928 126.985  1.00  0.00     0.032 C 
ATOM     18  C   UNL     1     130.542 145.516 128.426  1.00  0.00    -0.008 C 
ATOM     19  C   UNL     1     132.485 143.884 128.505  1.00  0.00     0.009 C 
ATOM     20  C   UNL     1     131.971 145.237 129.020  1.00  0.00     0.007 C 
ATOM     21  C   UNL     1     130.092 146.928 128.909  1.00  0.00     0.014 C 
ATOM     22  C   UNL     1     129.458 144.475 128.816  1.00  0.00     0.016 C 
ATOM     23  C   UNL     1     132.191 145.496 130.566  1.00  0.00    -0.006 C 
ATOM     24  C   UNL     1     130.197 147.117 130.425  1.00  0.00     0.033 C 
ATOM     25  C   UNL     1     131.626 146.906 130.927  1.00  0.00     0.120 C 
ATOM     26  C   UNL     1     131.580 144.399 131.478  1.00  0.00     0.014 C 
ATOM     27  C   UNL     1     133.717 145.531 130.868  1.00  0.00     0.014 C 
BRANCH   7  28
ATOM     28  O   UNL     1     129.109 143.011 122.521  1.00  0.00    -0.393 OA
ATOM     29  H   UNL     1     129.220 142.719 121.581  1.00  0.00     0.210 HD
ENDBRANCH   7  28
BRANCH  25  30
ATOM     30  O   UNL     1     131.644 147.114 132.320  1.00  0.00    -0.393 OA
ATOM     31  H   UNL     1     132.477 147.610 132.537  1.00  0.00     0.210 HD
ENDBRANCH  25  30
ENDBRANCH   2   6
ENDBRANCH   1   2
BRANCH   1  32
ATOM     32  C   UNL     1     131.504 146.025 119.691  1.00  0.00     0.031 C 
BRANCH  32  33
ATOM     33  C   UNL     1     132.871 145.434 119.973  1.00  0.00    -0.075 C 
ATOM     34  C   UNL     1     132.980 144.128 120.281  1.00  0.00     0.008 C 
BRANCH  33  35
ATOM     35  C   UNL     1     134.097 146.334 119.915  1.00  0.00     0.008 C 
ATOM     36  C   UNL     1     135.017 146.108 121.119  1.00  0.00     0.012 C 
ATOM     37  C   UNL     1     134.856 146.150 118.597  1.00  0.00     0.012 C 
ENDBRANCH  33  35
ENDBRANCH  32  33
ENDBRANCH   1  32
TORSDOF 8
ENDMDL
MODEL 6
REMARK VINA RESULT:    -6.046      8.197     11.467
REMARK INTER + INTRA:          -9.585
REMARK INTER:                  -7.621
REMARK INTRA:                  -1.963
REMARK UNBOUND:                -1.065
REMARK SMILES C=C(CC[C@@H](C(=O)[O-])[C@H]1[C@H](O)C[C@]2(C)C3=C(CC[C@]12C)[C@]1(C)CC[C@@H](O)C(C)(C)[C@H]1CC3)C(C)C
REMARK SMILES IDX 4 1 5 2 6 3 7 4 8 5 9 6 10 7 19 8 12 9 13 10 18 11 20 12
REMARK SMILES IDX 14 13 15 14 17 15 16 16 32 17 21 18 31 19 30 20 23 21 22 22
REMARK SMILES IDX 27 23 24 24 25 25 28 26 29 27 11 28 26 30 3 32 2 33 1 34
REMARK SMILES IDX 33 35 34 36 35 37
REMARK H PARENT 11 29 26 31
REMARK Flexibility Score: inf
ROOT
ATOM      1  C   UNL     1     144.488 143.303 120.716  1.00  0.00     0.014 C 
ENDROOT
BRANCH   1   2
ATOM      2  C   UNL     1     144.249 142.469 122.007  1.00  0.00     0.042 C 
BRANCH   2   3
ATOM      3  C   UNL     1     145.067 141.194 122.001  1.00  0.00     0.045 C 
ATOM      4  O   UNL     1     144.691 140.179 122.648  1.00  0.00    -0.550 OA
ATOM      5  O   UNL     1     146.279 141.149 121.324  1.00  0.00    -0.550 OA
ENDBRANCH   2   3
BRANCH   2   6
ATOM      6  C   UNL     1     144.329 143.303 123.341  1.00  0.00     0.033 C 
ATOM      7  C   UNL     1     145.211 144.545 123.212  1.00  0.00     0.119 C 
ATOM      8  C   UNL     1     143.036 143.768 124.135  1.00  0.00    -0.017 C 
ATOM      9  C   UNL     1     144.946 145.332 124.483  1.00  0.00     0.043 C 
ATOM     10  C   UNL     1     143.430 145.208 124.740  1.00  0.00    -0.003 C 
ATOM     11  C   UNL     1     142.724 142.728 125.257  1.00  0.00     0.012 C 
ATOM     12  C   UNL     1     141.754 143.821 123.256  1.00  0.00     0.013 C 
ATOM     13  C   UNL     1     142.747 146.381 123.960  1.00  0.00     0.017 C 
ATOM     14  C   UNL     1     143.182 145.366 126.274  1.00  0.00    -0.064 C 
ATOM     15  C   UNL     1     143.576 142.946 126.493  1.00  0.00     0.032 C 
ATOM     16  C   UNL     1     143.200 144.276 127.108  1.00  0.00    -0.064 C 
ATOM     17  C   UNL     1     142.990 146.781 126.823  1.00  0.00     0.032 C 
ATOM     18  C   UNL     1     143.022 144.395 128.645  1.00  0.00    -0.008 C 
ATOM     19  C   UNL     1     142.936 146.915 128.345  1.00  0.00     0.009 C 
ATOM     20  C   UNL     1     142.209 145.706 128.954  1.00  0.00     0.007 C 
ATOM     21  C   UNL     1     142.213 143.188 129.211  1.00  0.00     0.014 C 
ATOM     22  C   UNL     1     144.459 144.365 129.232  1.00  0.00     0.016 C 
ATOM     23  C   UNL     1     141.676 145.913 130.430  1.00  0.00    -0.006 C 
ATOM     24  C   UNL     1     141.812 143.355 130.679  1.00  0.00     0.033 C 
ATOM     25  C   UNL     1     140.961 144.607 130.898  1.00  0.00     0.120 C 
ATOM     26  C   UNL     1     142.777 146.339 131.438  1.00  0.00     0.014 C 
ATOM     27  C   UNL     1     140.604 147.042 130.434  1.00  0.00     0.014 C 
BRANCH   7  28
ATOM     28  O   UNL     1     146.568 144.190 123.116  1.00  0.00    -0.393 OA
ATOM     29  H   UNL     1     146.678 143.358 123.643  1.00  0.00     0.210 HD
ENDBRANCH   7  28
BRANCH  25  30
ATOM     30  O   UNL     1     140.619 144.681 132.262  1.00  0.00    -0.393 OA
ATOM     31  H   UNL     1     141.438 144.938 132.761  1.00  0.00     0.210 HD
ENDBRANCH  25  30
ENDBRANCH   2   6
ENDBRANCH   1   2
BRANCH   1  32
ATOM     32  C   UNL     1     143.221 143.598 119.888  1.00  0.00     0.031 C 
BRANCH  32  33
ATOM     33  C   UNL     1     142.839 145.063 119.921  1.00  0.00    -0.075 C 
ATOM     34  C   UNL     1     143.784 145.992 120.164  1.00  0.00     0.008 C 
BRANCH  33  35
ATOM     35  C   UNL     1     141.388 145.459 119.691  1.00  0.00     0.008 C 
ATOM     36  C   UNL     1     140.461 144.239 119.723  1.00  0.00     0.012 C 
ATOM     37  C   UNL     1     140.937 146.521 120.698  1.00  0.00     0.012 C 
ENDBRANCH  33  35
ENDBRANCH  32  33
ENDBRANCH   1  32
TORSDOF 8
ENDMDL
MODEL 7
REMARK VINA RESULT:    -5.953      5.939      9.901
REMARK INTER + INTRA:          -9.454
REMARK INTER:                  -7.545
REMARK INTRA:                  -1.909
REMARK UNBOUND:                -1.065
REMARK SMILES C=C(CC[C@@H](C(=O)[O-])[C@H]1[C@H](O)C[C@]2(C)C3=C(CC[C@]12C)[C@]1(C)CC[C@@H](O)C(C)(C)[C@H]1CC3)C(C)C
REMARK SMILES IDX 4 1 5 2 6 3 7 4 8 5 9 6 10 7 19 8 12 9 13 10 18 11 20 12
REMARK SMILES IDX 14 13 15 14 17 15 16 16 32 17 21 18 31 19 30 20 23 21 22 22
REMARK SMILES IDX 27 23 24 24 25 25 28 26 29 27 11 28 26 30 3 32 2 33 1 34
REMARK SMILES IDX 33 35 34 36 35 37
REMARK H PARENT 11 29 26 31
REMARK Flexibility Score: inf
ROOT
ATOM      1  C   UNL     1     130.340 143.339 120.848  1.00  0.00     0.014 C 
ENDROOT
BRANCH   1   2
ATOM      2  C   UNL     1     129.252 143.328 121.959  1.00  0.00     0.042 C 
BRANCH   2   3
ATOM      3  C   UNL     1     128.173 142.307 121.666  1.00  0.00     0.045 C 
ATOM      4  O   UNL     1     126.954 142.633 121.663  1.00  0.00    -0.550 OA
ATOM      5  O   UNL     1     128.513 140.978 121.453  1.00  0.00    -0.550 OA
ENDBRANCH   2   3
BRANCH   2   6
ATOM      6  C   UNL     1     129.825 143.287 123.427  1.00  0.00     0.033 C 
ATOM      7  C   UNL     1     131.154 142.539 123.523  1.00  0.00     0.119 C 
ATOM      8  C   UNL     1     129.994 144.592 124.313  1.00  0.00    -0.017 C 
ATOM      9  C   UNL     1     131.657 142.838 124.925  1.00  0.00     0.043 C 
ATOM     10  C   UNL     1     131.328 144.325 125.175  1.00  0.00    -0.003 C 
ATOM     11  C   UNL     1     128.735 144.760 125.220  1.00  0.00     0.012 C 
ATOM     12  C   UNL     1     130.076 145.903 123.478  1.00  0.00     0.013 C 
ATOM     13  C   UNL     1     132.549 145.147 124.643  1.00  0.00     0.017 C 
ATOM     14  C   UNL     1     131.168 144.535 126.714  1.00  0.00    -0.064 C 
ATOM     15  C   UNL     1     128.805 143.893 126.463  1.00  0.00     0.032 C 
ATOM     16  C   UNL     1     129.949 144.379 127.326  1.00  0.00    -0.064 C 
ATOM     17  C   UNL     1     132.427 144.849 127.525  1.00  0.00     0.032 C 
ATOM     18  C   UNL     1     129.758 144.516 128.860  1.00  0.00    -0.008 C 
ATOM     19  C   UNL     1     132.266 144.865 129.046  1.00  0.00     0.009 C 
ATOM     20  C   UNL     1     130.895 145.446 129.424  1.00  0.00     0.007 C 
ATOM     21  C   UNL     1     128.388 145.180 129.197  1.00  0.00     0.014 C 
ATOM     22  C   UNL     1     129.769 143.064 129.410  1.00  0.00     0.016 C 
ATOM     23  C   UNL     1     130.765 145.946 130.920  1.00  0.00    -0.006 C 
ATOM     24  C   UNL     1     128.234 145.546 130.676  1.00  0.00     0.033 C 
ATOM     25  C   UNL     1     129.326 146.510 131.141  1.00  0.00     0.120 C 
ATOM     26  C   UNL     1     131.107 144.860 131.975  1.00  0.00     0.014 C 
ATOM     27  C   UNL     1     131.754 147.125 131.154  1.00  0.00     0.014 C 
BRANCH   7  28
ATOM     28  O   UNL     1     130.967 141.157 123.342  1.00  0.00    -0.393 OA
ATOM     29  H   UNL     1     130.064 141.045 122.951  1.00  0.00     0.210 HD
ENDBRANCH   7  28
BRANCH  25  30
ATOM     30  O   UNL     1     129.107 146.812 132.499  1.00  0.00    -0.393 OA
ATOM     31  H   UNL     1     129.202 145.966 133.011  1.00  0.00     0.210 HD
ENDBRANCH  25  30
ENDBRANCH   2   6
ENDBRANCH   1   2
BRANCH   1  32
ATOM     32  C   UNL     1     129.891 143.945 119.503  1.00  0.00     0.031 C 
BRANCH  32  33
ATOM     33  C   UNL     1     129.584 145.424 119.612  1.00  0.00    -0.075 C 
ATOM     34  C   UNL     1     130.589 146.300 119.806  1.00  0.00     0.008 C 
BRANCH  33  35
ATOM     35  C   UNL     1     128.140 145.894 119.511  1.00  0.00     0.008 C 
ATOM     36  C   UNL     1     127.250 144.835 118.852  1.00  0.00     0.012 C 
ATOM     37  C   UNL     1     127.592 146.299 120.883  1.00  0.00     0.012 C 
ENDBRANCH  33  35
ENDBRANCH  32  33
ENDBRANCH   1  32
TORSDOF 8
ENDMDL
MODEL 8
REMARK VINA RESULT:    -5.879      8.677     12.020
REMARK INTER + INTRA:          -9.350
REMARK INTER:                  -7.457
REMARK INTRA:                  -1.893
REMARK UNBOUND:                -1.065
REMARK SMILES C=C(CC[C@@H](C(=O)[O-])[C@H]1[C@H](O)C[C@]2(C)C3=C(CC[C@]12C)[C@]1(C)CC[C@@H](O)C(C)(C)[C@H]1CC3)C(C)C
REMARK SMILES IDX 4 1 5 2 6 3 7 4 8 5 9 6 10 7 19 8 12 9 13 10 18 11 20 12
REMARK SMILES IDX 14 13 15 14 17 15 16 16 32 17 21 18 31 19 30 20 23 21 22 22
REMARK SMILES IDX 27 23 24 24 25 25 28 26 29 27 11 28 26 30 3 32 2 33 1 34
REMARK SMILES IDX 33 35 34 36 35 37
REMARK H PARENT 11 29 26 31
REMARK Flexibility Score: inf
ROOT
ATOM      1  C   UNL     1     142.749 143.422 119.750  1.00  0.00     0.014 C 
ENDROOT
BRANCH   1   2
ATOM      2  C   UNL     1     143.701 144.298 120.613  1.00  0.00     0.042 C 
BRANCH   2   3
ATOM      3  C   UNL     1     144.150 145.533 119.860  1.00  0.00     0.045 C 
ATOM      4  O   UNL     1     145.298 145.595 119.341  1.00  0.00    -0.550 OA
ATOM      5  O   UNL     1     143.317 146.641 119.781  1.00  0.00    -0.550 OA
ENDBRANCH   2   3
BRANCH   2   6
ATOM      6  C   UNL     1     143.186 144.564 122.079  1.00  0.00     0.033 C 
ATOM      7  C   UNL     1     141.664 144.488 122.195  1.00  0.00     0.119 C 
ATOM      8  C   UNL     1     143.759 143.788 123.338  1.00  0.00    -0.017 C 
ATOM      9  C   UNL     1     141.397 144.503 123.690  1.00  0.00     0.043 C 
ATOM     10  C   UNL     1     142.492 143.614 124.316  1.00  0.00    -0.003 C 
ATOM     11  C   UNL     1     144.891 144.642 123.992  1.00  0.00     0.012 C 
ATOM     12  C   UNL     1     144.426 142.429 122.979  1.00  0.00     0.013 C 
ATOM     13  C   UNL     1     141.937 142.151 124.308  1.00  0.00     0.017 C 
ATOM     14  C   UNL     1     142.725 144.093 125.785  1.00  0.00    -0.064 C 
ATOM     15  C   UNL     1     144.338 145.727 124.898  1.00  0.00     0.032 C 
ATOM     16  C   UNL     1     143.647 145.068 126.072  1.00  0.00    -0.064 C 
ATOM     17  C   UNL     1     141.842 143.490 126.879  1.00  0.00     0.032 C 
ATOM     18  C   UNL     1     143.865 145.618 127.507  1.00  0.00    -0.008 C 
ATOM     19  C   UNL     1     141.969 144.113 128.270  1.00  0.00     0.009 C 
ATOM     20  C   UNL     1     143.428 144.512 128.537  1.00  0.00     0.007 C 
ATOM     21  C   UNL     1     145.370 145.938 127.760  1.00  0.00     0.014 C 
ATOM     22  C   UNL     1     143.046 146.935 127.575  1.00  0.00     0.016 C 
ATOM     23  C   UNL     1     143.798 144.736 130.060  1.00  0.00    -0.006 C 
ATOM     24  C   UNL     1     145.685 146.272 129.221  1.00  0.00     0.033 C 
ATOM     25  C   UNL     1     145.306 145.127 130.161  1.00  0.00     0.120 C 
ATOM     26  C   UNL     1     142.901 145.781 130.775  1.00  0.00     0.014 C 
ATOM     27  C   UNL     1     143.626 143.395 130.830  1.00  0.00     0.014 C 
BRANCH   7  28
ATOM     28  O   UNL     1     141.056 145.588 121.566  1.00  0.00    -0.393 OA
ATOM     29  H   UNL     1     140.088 145.382 121.512  1.00  0.00     0.210 HD
ENDBRANCH   7  28
BRANCH  25  30
ATOM     30  O   UNL     1     145.641 145.500 131.477  1.00  0.00    -0.393 OA
ATOM     31  H   UNL     1     146.046 144.707 131.919  1.00  0.00     0.210 HD
ENDBRANCH  25  30
ENDBRANCH   2   6
ENDBRANCH   1   2
BRANCH   1  32
ATOM     32  C   UNL     1     143.434 142.263 118.999  1.00  0.00     0.031 C 
BRANCH  32  33
ATOM     33  C   UNL     1     143.466 140.987 119.814  1.00  0.00    -0.075 C 
ATOM     34  C   UNL     1     142.373 140.612 120.507  1.00  0.00     0.008 C 
BRANCH  33  35
ATOM     35  C   UNL     1     144.740 140.155 119.844  1.00  0.00     0.008 C 
ATOM     36  C   UNL     1     145.989 141.037 119.752  1.00  0.00     0.012 C 
ATOM     37  C   UNL     1     144.786 139.259 121.086  1.00  0.00     0.012 C 
ENDBRANCH  33  35
ENDBRANCH  32  33
ENDBRANCH   1  32
TORSDOF 8
ENDMDL
MODEL 9
REMARK VINA RESULT:    -5.818      5.349      9.591
REMARK INTER + INTRA:          -9.264
REMARK INTER:                  -7.588
REMARK INTRA:                  -1.676
REMARK UNBOUND:                -1.065
REMARK SMILES C=C(CC[C@@H](C(=O)[O-])[C@H]1[C@H](O)C[C@]2(C)C3=C(CC[C@]12C)[C@]1(C)CC[C@@H](O)C(C)(C)[C@H]1CC3)C(C)C
REMARK SMILES IDX 4 1 5 2 6 3 7 4 8 5 9 6 10 7 19 8 12 9 13 10 18 11 20 12
REMARK SMILES IDX 14 13 15 14 17 15 16 16 32 17 21 18 31 19 30 20 23 21 22 22
REMARK SMILES IDX 27 23 24 24 25 25 28 26 29 27 11 28 26 30 3 32 2 33 1 34
REMARK SMILES IDX 33 35 34 36 35 37
REMARK H PARENT 11 29 26 31
REMARK Flexibility Score: inf
ROOT
ATOM      1  C   UNL     1     130.094 142.935 119.996  1.00  0.00     0.014 C 
ENDROOT
BRANCH   1   2
ATOM      2  C   UNL     1     131.176 143.533 120.940  1.00  0.00     0.042 C 
BRANCH   2   3
ATOM      3  C   UNL     1     132.171 144.380 120.174  1.00  0.00     0.045 C 
ATOM      4  O   UNL     1     132.113 145.640 120.211  1.00  0.00    -0.550 OA
ATOM      5  O   UNL     1     133.128 143.774 119.371  1.00  0.00    -0.550 OA
ENDBRANCH   2   3
BRANCH   2   6
ATOM      6  C   UNL     1     130.599 144.202 122.245  1.00  0.00     0.033 C 
ATOM      7  C   UNL     1     129.222 144.831 122.029  1.00  0.00     0.119 C 
ATOM      8  C   UNL     1     130.516 143.436 123.631  1.00  0.00    -0.017 C 
ATOM      9  C   UNL     1     128.739 145.173 123.427  1.00  0.00     0.043 C 
ATOM     10  C   UNL     1     129.165 143.985 124.315  1.00  0.00    -0.003 C 
ATOM     11  C   UNL     1     131.781 143.775 124.479  1.00  0.00     0.012 C 
ATOM     12  C   UNL     1     130.522 141.887 123.485  1.00  0.00     0.013 C 
ATOM     13  C   UNL     1     128.003 142.939 124.250  1.00  0.00     0.017 C 
ATOM     14  C   UNL     1     129.335 144.508 125.777  1.00  0.00    -0.064 C 
ATOM     15  C   UNL     1     131.651 145.107 125.195  1.00  0.00     0.032 C 
ATOM     16  C   UNL     1     130.540 144.998 126.216  1.00  0.00    -0.064 C 
ATOM     17  C   UNL     1     128.098 144.522 126.678  1.00  0.00     0.032 C 
ATOM     18  C   UNL     1     130.737 145.585 127.639  1.00  0.00    -0.008 C 
ATOM     19  C   UNL     1     128.257 145.210 128.034  1.00  0.00     0.009 C 
ATOM     20  C   UNL     1     129.663 144.947 128.596  1.00  0.00     0.007 C 
ATOM     21  C   UNL     1     132.147 145.231 128.202  1.00  0.00     0.014 C 
ATOM     22  C   UNL     1     130.629 147.125 127.470  1.00  0.00     0.016 C 
ATOM     23  C   UNL     1     129.824 145.191 130.152  1.00  0.00    -0.006 C 
ATOM     24  C   UNL     1     132.323 145.588 129.680  1.00  0.00     0.033 C 
ATOM     25  C   UNL     1     131.297 144.877 130.563  1.00  0.00     0.120 C 
ATOM     26  C   UNL     1     129.408 146.615 130.608  1.00  0.00     0.014 C 
ATOM     27  C   UNL     1     128.915 144.191 130.923  1.00  0.00     0.014 C 
BRANCH   7  28
ATOM     28  O   UNL     1     129.317 145.988 121.235  1.00  0.00    -0.393 OA
ATOM     29  H   UNL     1     130.073 145.839 120.611  1.00  0.00     0.210 HD
ENDBRANCH   7  28
BRANCH  25  30
ATOM     30  O   UNL     1     131.533 145.240 131.903  1.00  0.00    -0.393 OA
ATOM     31  H   UNL     1     130.779 144.887 132.445  1.00  0.00     0.210 HD
ENDBRANCH  25  30
ENDBRANCH   2   6
ENDBRANCH   1   2
BRANCH   1  32
ATOM     32  C   UNL     1     129.550 141.556 120.421  1.00  0.00     0.031 C 
BRANCH  32  33
ATOM     33  C   UNL     1     128.038 141.536 120.512  1.00  0.00    -0.075 C 
ATOM     34  C   UNL     1     127.341 142.656 120.243  1.00  0.00     0.008 C 
BRANCH  33  35
ATOM     35  C   UNL     1     127.334 140.250 120.919  1.00  0.00     0.008 C 
ATOM     36  C   UNL     1     127.250 139.262 119.751  1.00  0.00     0.012 C 
ATOM     37  C   UNL     1     128.010 139.610 122.136  1.00  0.00     0.012 C 
ENDBRANCH  33  35
ENDBRANCH  32  33
ENDBRANCH   1  32
TORSDOF 8
ENDMDL
