MODEL 1
REMARK VINA RESULT:    -4.413      0.000      0.000
REMARK INTER + INTRA:          -6.358
REMARK INTER:                  -5.961
REMARK INTRA:                  -0.397
REMARK UNBOUND:                -0.397
REMARK SMILES CC(=O)CCC=C(C)CCC=C(C)C
REMARK SMILES IDX 7 1 6 2 8 3 9 4 10 5 11 6 13 7 12 8 14 9 5 10 4 11 2 12 3 13
REMARK SMILES IDX 1 14
REMARK H PARENT
REMARK Flexibility Score: inf
ROOT
ATOM      1  C   UNL     1      19.952 -23.347  14.170  1.00  0.00    -0.077 C 
ATOM      2  C   UNL     1      20.074 -24.189  13.120  1.00  0.00    -0.028 C 
ATOM      3  C   UNL     1      20.717 -23.571  15.453  1.00  0.00     0.039 C 
ENDROOT
BRANCH   1   4
ATOM      4  C   UNL     1      19.027 -22.151  14.058  1.00  0.00     0.034 C 
BRANCH   4   5
ATOM      5  C   UNL     1      19.807 -20.837  13.901  1.00  0.00     0.032 C 
BRANCH   5   6
ATOM      6  C   UNL     1      19.708 -19.975  15.139  1.00  0.00    -0.028 C 
ATOM      7  C   UNL     1      20.350 -17.875  13.935  1.00  0.00     0.039 C 
ATOM      8  C   UNL     1      19.987 -18.652  15.175  1.00  0.00    -0.080 C 
ATOM      9  C   UNL     1      19.882 -17.903  16.477  1.00  0.00     0.039 C 
ENDBRANCH   5   6
ENDBRANCH   4   5
ENDBRANCH   1   4
BRANCH   2  10
ATOM     10  C   UNL     1      20.964 -25.408  13.142  1.00  0.00     0.035 C 
BRANCH  10  11
ATOM     11  C   UNL     1      20.159 -26.686  12.888  1.00  0.00     0.079 C 
BRANCH  11  12
ATOM     12  C   UNL     1      20.959 -27.905  13.259  1.00  0.00     0.130 C 
ATOM     13  O   UNL     1      22.070 -27.775  13.752  1.00  0.00    -0.300 OA
ATOM     14  C   UNL     1      20.413 -29.277  13.007  1.00  0.00     0.087 C 
ENDBRANCH  11  12
ENDBRANCH  10  11
ENDBRANCH   2  10
TORSDOF 6
ENDMDL
MODEL 2
REMARK VINA RESULT:    -4.356      2.649      7.591
REMARK INTER + INTRA:          -6.281
REMARK INTER:                  -6.078
REMARK INTRA:                  -0.203
REMARK UNBOUND:                -0.397
REMARK SMILES CC(=O)CCC=C(C)CCC=C(C)C
REMARK SMILES IDX 7 1 6 2 8 3 9 4 10 5 11 6 13 7 12 8 14 9 5 10 4 11 2 12 3 13
REMARK SMILES IDX 1 14
REMARK H PARENT
REMARK Flexibility Score: inf
ROOT
ATOM      1  C   UNL     1      19.696 -23.285  14.155  1.00  0.00    -0.077 C 
ATOM      2  C   UNL     1      19.060 -22.118  13.909  1.00  0.00    -0.028 C 
ATOM      3  C   UNL     1      20.462 -23.509  15.437  1.00  0.00     0.039 C 
ENDROOT
BRANCH   1   4
ATOM      4  C   UNL     1      19.639 -24.394  13.123  1.00  0.00     0.034 C 
BRANCH   4   5
ATOM      5  C   UNL     1      20.830 -25.355  13.249  1.00  0.00     0.032 C 
BRANCH   5   6
ATOM      6  C   UNL     1      20.448 -26.772  12.889  1.00  0.00    -0.028 C 
ATOM      7  C   UNL     1      22.183 -27.799  14.374  1.00  0.00     0.039 C 
ATOM      8  C   UNL     1      21.073 -27.876  13.356  1.00  0.00    -0.080 C 
ATOM      9  C   UNL     1      20.622 -29.239  12.901  1.00  0.00     0.039 C 
ENDBRANCH   5   6
ENDBRANCH   4   5
ENDBRANCH   1   4
BRANCH   2  10
ATOM     10  C   UNL     1      19.068 -20.958  14.873  1.00  0.00     0.035 C 
BRANCH  10  11
ATOM     11  C   UNL     1      20.436 -20.269  14.901  1.00  0.00     0.079 C 
BRANCH  11  12
ATOM     12  C   UNL     1      20.294 -18.789  14.681  1.00  0.00     0.130 C 
ATOM     13  O   UNL     1      20.487 -18.318  13.569  1.00  0.00    -0.300 OA
ATOM     14  C   UNL     1      19.940 -17.882  15.820  1.00  0.00     0.087 C 
ENDBRANCH  11  12
ENDBRANCH  10  11
ENDBRANCH   2  10
TORSDOF 6
ENDMDL
MODEL 3
REMARK VINA RESULT:    -3.918     14.976     17.561
REMARK INTER + INTRA:          -5.690
REMARK INTER:                  -4.694
REMARK INTRA:                  -0.995
REMARK UNBOUND:                -0.397
REMARK SMILES CC(=O)CCC=C(C)CCC=C(C)C
REMARK SMILES IDX 7 1 6 2 8 3 9 4 10 5 11 6 13 7 12 8 14 9 5 10 4 11 2 12 3 13
REMARK SMILES IDX 1 14
REMARK H PARENT
REMARK Flexibility Score: inf
ROOT
ATOM      1  C   UNL     1       6.980 -35.620  15.539  1.00  0.00    -0.077 C 
ATOM      2  C   UNL     1       6.819 -34.321  15.204  1.00  0.00    -0.028 C 
ATOM      3  C   UNL     1       7.006 -36.064  16.983  1.00  0.00     0.039 C 
ENDROOT
BRANCH   1   4
ATOM      4  C   UNL     1       7.138 -36.655  14.443  1.00  0.00     0.034 C 
BRANCH   4   5
ATOM      5  C   UNL     1       7.877 -36.087  13.222  1.00  0.00     0.032 C 
BRANCH   5   6
ATOM      6  C   UNL     1       9.344 -36.448  13.237  1.00  0.00    -0.028 C 
ATOM      7  C   UNL     1      10.097 -34.088  13.608  1.00  0.00     0.039 C 
ATOM      8  C   UNL     1      10.352 -35.555  13.369  1.00  0.00    -0.080 C 
ATOM      9  C   UNL     1      11.780 -36.031  13.338  1.00  0.00     0.039 C 
ENDBRANCH   5   6
ENDBRANCH   4   5
ENDBRANCH   1   4
BRANCH   2  10
ATOM     10  C   UNL     1       6.662 -33.221  16.226  1.00  0.00     0.035 C 
BRANCH  10  11
ATOM     11  C   UNL     1       8.011 -32.574  16.556  1.00  0.00     0.079 C 
BRANCH  11  12
ATOM     12  C   UNL     1       8.221 -32.503  18.043  1.00  0.00     0.130 C 
ATOM     13  O   UNL     1       7.454 -33.088  18.794  1.00  0.00    -0.300 OA
ATOM     14  C   UNL     1       9.350 -31.700  18.613  1.00  0.00     0.087 C 
ENDBRANCH  11  12
ENDBRANCH  10  11
ENDBRANCH   2  10
TORSDOF 6
ENDMDL
MODEL 4
REMARK VINA RESULT:    -3.850     14.404     17.386
REMARK INTER + INTRA:          -5.597
REMARK INTER:                  -4.535
REMARK INTRA:                  -1.063
REMARK UNBOUND:                -0.397
REMARK SMILES CC(=O)CCC=C(C)CCC=C(C)C
REMARK SMILES IDX 7 1 6 2 8 3 9 4 10 5 11 6 13 7 12 8 14 9 5 10 4 11 2 12 3 13
REMARK SMILES IDX 1 14
REMARK H PARENT
REMARK Flexibility Score: inf
ROOT
ATOM      1  C   UNL     1       6.836 -35.180  16.952  1.00  0.00    -0.077 C 
ATOM      2  C   UNL     1       6.819 -33.844  16.747  1.00  0.00    -0.028 C 
ATOM      3  C   UNL     1       7.637 -35.794  18.076  1.00  0.00     0.039 C 
ENDROOT
BRANCH   1   4
ATOM      4  C   UNL     1       6.035 -36.082  16.034  1.00  0.00     0.034 C 
BRANCH   4   5
ATOM      5  C   UNL     1       6.444 -35.910  14.564  1.00  0.00     0.032 C 
BRANCH   5   6
ATOM      6  C   UNL     1       7.923 -36.140  14.363  1.00  0.00    -0.028 C 
ATOM      7  C   UNL     1       8.322 -33.859  13.407  1.00  0.00     0.039 C 
ATOM      8  C   UNL     1       8.770 -35.242  13.808  1.00  0.00    -0.080 C 
ATOM      9  C   UNL     1      10.223 -35.597  13.630  1.00  0.00     0.039 C 
ENDBRANCH   5   6
ENDBRANCH   4   5
ENDBRANCH   1   4
BRANCH   2  10
ATOM     10  C   UNL     1       7.591 -32.871  17.604  1.00  0.00     0.035 C 
BRANCH  10  11
ATOM     11  C   UNL     1       8.864 -32.397  16.896  1.00  0.00     0.079 C 
BRANCH  11  12
ATOM     12  C   UNL     1       9.665 -31.487  17.786  1.00  0.00     0.130 C 
ATOM     13  O   UNL     1      10.524 -30.766  17.301  1.00  0.00    -0.300 OA
ATOM     14  C   UNL     1       9.431 -31.473  19.266  1.00  0.00     0.087 C 
ENDBRANCH  11  12
ENDBRANCH  10  11
ENDBRANCH   2  10
TORSDOF 6
ENDMDL
MODEL 5
REMARK VINA RESULT:    -3.805     14.912     17.604
REMARK INTER + INTRA:          -5.536
REMARK INTER:                  -4.186
REMARK INTRA:                  -1.350
REMARK UNBOUND:                -0.397
REMARK SMILES CC(=O)CCC=C(C)CCC=C(C)C
REMARK SMILES IDX 7 1 6 2 8 3 9 4 10 5 11 6 13 7 12 8 14 9 5 10 4 11 2 12 3 13
REMARK SMILES IDX 1 14
REMARK H PARENT
REMARK Flexibility Score: inf
ROOT
ATOM      1  C   UNL     1       6.978 -36.423  13.855  1.00  0.00    -0.077 C 
ATOM      2  C   UNL     1       8.321 -36.580  13.872  1.00  0.00    -0.028 C 
ATOM      3  C   UNL     1       6.307 -35.489  12.875  1.00  0.00     0.039 C 
ENDROOT
BRANCH   1   4
ATOM      4  C   UNL     1       6.127 -37.199  14.840  1.00  0.00     0.034 C 
BRANCH   4   5
ATOM      5  C   UNL     1       6.260 -36.650  16.268  1.00  0.00     0.032 C 
BRANCH   5   6
ATOM      6  C   UNL     1       6.040 -35.156  16.317  1.00  0.00    -0.028 C 
ATOM      7  C   UNL     1       8.406 -34.657  16.969  1.00  0.00     0.039 C 
ATOM      8  C   UNL     1       6.984 -34.254  16.668  1.00  0.00    -0.080 C 
ATOM      9  C   UNL     1       6.638 -32.788  16.710  1.00  0.00     0.039 C 
ENDBRANCH   5   6
ENDBRANCH   4   5
ENDBRANCH   1   4
BRANCH   2  10
ATOM     10  C   UNL     1       9.247 -35.844  12.936  1.00  0.00     0.035 C 
BRANCH  10  11
ATOM     11  C   UNL     1      10.326 -35.081  13.710  1.00  0.00     0.079 C 
BRANCH  11  12
ATOM     12  C   UNL     1      10.207 -33.600  13.476  1.00  0.00     0.130 C 
ATOM     13  O   UNL     1      11.188 -32.959  13.130  1.00  0.00    -0.300 OA
ATOM     14  C   UNL     1       8.897 -32.901  13.684  1.00  0.00     0.087 C 
ENDBRANCH  11  12
ENDBRANCH  10  11
ENDBRANCH   2  10
TORSDOF 6
ENDMDL
MODEL 6
REMARK VINA RESULT:    -3.803     14.752     17.478
REMARK INTER + INTRA:          -5.534
REMARK INTER:                  -4.563
REMARK INTRA:                  -0.971
REMARK UNBOUND:                -0.397
REMARK SMILES CC(=O)CCC=C(C)CCC=C(C)C
REMARK SMILES IDX 7 1 6 2 8 3 9 4 10 5 11 6 13 7 12 8 14 9 5 10 4 11 2 12 3 13
REMARK SMILES IDX 1 14
REMARK H PARENT
REMARK Flexibility Score: inf
ROOT
ATOM      1  C   UNL     1       7.206 -34.938  17.263  1.00  0.00    -0.077 C 
ATOM      2  C   UNL     1       6.371 -35.292  16.261  1.00  0.00    -0.028 C 
ATOM      3  C   UNL     1       7.711 -35.952  18.262  1.00  0.00     0.039 C 
ENDROOT
BRANCH   1   4
ATOM      4  C   UNL     1       7.645 -33.493  17.387  1.00  0.00     0.034 C 
BRANCH   4   5
ATOM      5  C   UNL     1       7.557 -32.750  16.046  1.00  0.00     0.032 C 
BRANCH   5   6
ATOM      6  C   UNL     1       8.880 -32.753  15.316  1.00  0.00    -0.028 C 
ATOM      7  C   UNL     1       7.823 -32.853  13.047  1.00  0.00     0.039 C 
ATOM      8  C   UNL     1       9.014 -32.839  13.973  1.00  0.00    -0.080 C 
ATOM      9  C   UNL     1      10.389 -32.864  13.359  1.00  0.00     0.039 C 
ENDBRANCH   5   6
ENDBRANCH   4   5
ENDBRANCH   1   4
BRANCH   2  10
ATOM     10  C   UNL     1       5.875 -36.703  16.063  1.00  0.00     0.035 C 
BRANCH  10  11
ATOM     11  C   UNL     1       6.794 -37.487  15.120  1.00  0.00     0.079 C 
BRANCH  11  12
ATOM     12  C   UNL     1       7.154 -36.663  13.916  1.00  0.00     0.130 C 
ATOM     13  O   UNL     1       6.271 -36.229  13.190  1.00  0.00    -0.300 OA
ATOM     14  C   UNL     1       8.590 -36.388  13.585  1.00  0.00     0.087 C 
ENDBRANCH  11  12
ENDBRANCH  10  11
ENDBRANCH   2  10
TORSDOF 6
ENDMDL
MODEL 7
REMARK VINA RESULT:    -3.800     13.989     16.357
REMARK INTER + INTRA:          -5.530
REMARK INTER:                  -4.671
REMARK INTRA:                  -0.859
REMARK UNBOUND:                -0.397
REMARK SMILES CC(=O)CCC=C(C)CCC=C(C)C
REMARK SMILES IDX 7 1 6 2 8 3 9 4 10 5 11 6 13 7 12 8 14 9 5 10 4 11 2 12 3 13
REMARK SMILES IDX 1 14
REMARK H PARENT
REMARK Flexibility Score: inf
ROOT
ATOM      1  C   UNL     1       7.345 -35.735  15.888  1.00  0.00    -0.077 C 
ATOM      2  C   UNL     1       8.449 -35.327  15.224  1.00  0.00    -0.028 C 
ATOM      3  C   UNL     1       6.443 -36.811  15.328  1.00  0.00     0.039 C 
ENDROOT
BRANCH   1   4
ATOM      4  C   UNL     1       7.004 -35.103  17.222  1.00  0.00     0.034 C 
BRANCH   4   5
ATOM      5  C   UNL     1       6.782 -33.588  17.096  1.00  0.00     0.032 C 
BRANCH   5   6
ATOM      6  C   UNL     1       7.604 -32.816  18.102  1.00  0.00    -0.028 C 
ATOM      7  C   UNL     1       9.313 -32.105  16.413  1.00  0.00     0.039 C 
ATOM      8  C   UNL     1       8.763 -32.179  17.816  1.00  0.00    -0.080 C 
ATOM      9  C   UNL     1       9.513 -31.467  18.910  1.00  0.00     0.039 C 
ENDBRANCH   5   6
ENDBRANCH   4   5
ENDBRANCH   1   4
BRANCH   2  10
ATOM     10  C   UNL     1       8.863 -35.893  13.888  1.00  0.00     0.035 C 
BRANCH  10  11
ATOM     11  C   UNL     1       9.210 -34.778  12.896  1.00  0.00     0.079 C 
BRANCH  11  12
ATOM     12  C   UNL     1      10.645 -34.356  13.045  1.00  0.00     0.130 C 
ATOM     13  O   UNL     1      11.529 -35.200  13.059  1.00  0.00    -0.300 OA
ATOM     14  C   UNL     1      10.999 -32.908  13.200  1.00  0.00     0.087 C 
ENDBRANCH  11  12
ENDBRANCH  10  11
ENDBRANCH   2  10
TORSDOF 6
ENDMDL
MODEL 8
REMARK VINA RESULT:    -3.766     14.598     16.833
REMARK INTER + INTRA:          -5.484
REMARK INTER:                  -4.400
REMARK INTRA:                  -1.083
REMARK UNBOUND:                -0.397
REMARK SMILES CC(=O)CCC=C(C)CCC=C(C)C
REMARK SMILES IDX 7 1 6 2 8 3 9 4 10 5 11 6 13 7 12 8 14 9 5 10 4 11 2 12 3 13
REMARK SMILES IDX 1 14
REMARK H PARENT
REMARK Flexibility Score: inf
ROOT
ATOM      1  C   UNL     1       8.845 -32.504  15.726  1.00  0.00    -0.077 C 
ATOM      2  C   UNL     1       7.666 -32.977  15.265  1.00  0.00    -0.028 C 
ATOM      3  C   UNL     1       9.078 -32.273  17.201  1.00  0.00     0.039 C 
ENDROOT
BRANCH   1   4
ATOM      4  C   UNL     1       9.958 -32.197  14.744  1.00  0.00     0.034 C 
BRANCH   4   5
ATOM      5  C   UNL     1       9.718 -32.864  13.382  1.00  0.00     0.032 C 
BRANCH   5   6
ATOM      6  C   UNL     1      10.808 -33.854  13.043  1.00  0.00    -0.028 C 
ATOM      7  C   UNL     1       9.488 -35.834  13.823  1.00  0.00     0.039 C 
ATOM      8  C   UNL     1      10.733 -35.185  13.272  1.00  0.00    -0.080 C 
ATOM      9  C   UNL     1      11.899 -36.071  12.920  1.00  0.00     0.039 C 
ENDBRANCH   5   6
ENDBRANCH   4   5
ENDBRANCH   1   4
BRANCH   2  10
ATOM     10  C   UNL     1       6.501 -33.303  16.166  1.00  0.00     0.035 C 
BRANCH  10  11
ATOM     11  C   UNL     1       5.883 -34.658  15.807  1.00  0.00     0.079 C 
BRANCH  11  12
ATOM     12  C   UNL     1       6.642 -35.781  16.457  1.00  0.00     0.130 C 
ATOM     13  O   UNL     1       6.613 -36.899  15.964  1.00  0.00    -0.300 OA
ATOM     14  C   UNL     1       7.417 -35.545  17.718  1.00  0.00     0.087 C 
ENDBRANCH  11  12
ENDBRANCH  10  11
ENDBRANCH   2  10
TORSDOF 6
ENDMDL
MODEL 9
REMARK VINA RESULT:    -3.745     13.475     16.649
REMARK INTER + INTRA:          -5.456
REMARK INTER:                  -4.421
REMARK INTRA:                  -1.035
REMARK UNBOUND:                -0.397
REMARK SMILES CC(=O)CCC=C(C)CCC=C(C)C
REMARK SMILES IDX 7 1 6 2 8 3 9 4 10 5 11 6 13 7 12 8 14 9 5 10 4 11 2 12 3 13
REMARK SMILES IDX 1 14
REMARK H PARENT
REMARK Flexibility Score: inf
ROOT
ATOM      1  C   UNL     1       6.442 -34.000  15.585  1.00  0.00    -0.077 C 
ATOM      2  C   UNL     1       6.810 -32.819  16.128  1.00  0.00    -0.028 C 
ATOM      3  C   UNL     1       6.573 -35.295  16.352  1.00  0.00     0.039 C 
ENDROOT
BRANCH   1   4
ATOM      4  C   UNL     1       5.885 -34.027  14.175  1.00  0.00     0.034 C 
BRANCH   4   5
ATOM      5  C   UNL     1       6.935 -34.492  13.155  1.00  0.00     0.032 C 
BRANCH   5   6
ATOM      6  C   UNL     1       8.033 -33.470  12.975  1.00  0.00    -0.028 C 
ATOM      7  C   UNL     1       9.747 -34.850  14.171  1.00  0.00     0.039 C 
ATOM      8  C   UNL     1       9.289 -33.601  13.461  1.00  0.00    -0.080 C 
ATOM      9  C   UNL     1      10.292 -32.499  13.245  1.00  0.00     0.039 C 
ENDBRANCH   5   6
ENDBRANCH   4   5
ENDBRANCH   1   4
BRANCH   2  10
ATOM     10  C   UNL     1       7.380 -32.695  17.520  1.00  0.00     0.035 C 
BRANCH  10  11
ATOM     11  C   UNL     1       8.908 -32.808  17.505  1.00  0.00     0.079 C 
BRANCH  11  12
ATOM     12  C   UNL     1       9.539 -31.615  18.167  1.00  0.00     0.130 C 
ATOM     13  O   UNL     1       9.291 -31.368  19.338  1.00  0.00    -0.300 OA
ATOM     14  C   UNL     1      10.453 -30.713  17.395  1.00  0.00     0.087 C 
ENDBRANCH  11  12
ENDBRANCH  10  11
ENDBRANCH   2  10
TORSDOF 6
ENDMDL
