MODEL 1
REMARK VINA RESULT:    -3.053      0.000      0.000
REMARK INTER + INTRA:          -3.678
REMARK INTER:                  -3.589
REMARK INTRA:                  -0.089
REMARK UNBOUND:                -0.089
REMARK SMILES O=C([O-])CCC(=O)[O-]
REMARK SMILES IDX 4 1 2 2 1 3 3 4 5 5 6 6 7 7 8 8
REMARK H PARENT
REMARK Flexibility Score: inf
ROOT
ATOM      1  C   UNL     1      89.410  98.463  92.173  1.00  0.00     0.059 C 
ENDROOT
BRANCH   1   2
ATOM      2  C   UNL     1      89.955  99.779  92.637  1.00  0.00     0.042 C 
ATOM      3  O   UNL     1      91.192  99.924  92.826  1.00  0.00    -0.550 OA
ATOM      4  O   UNL     1      89.101 100.859  92.822  1.00  0.00    -0.550 OA
ENDBRANCH   1   2
BRANCH   1   5
ATOM      5  C   UNL     1      88.881  98.547  90.738  1.00  0.00     0.059 C 
BRANCH   5   6
ATOM      6  C   UNL     1      89.650  97.655  89.812  1.00  0.00     0.042 C 
ATOM      7  O   UNL     1      90.906  97.727  89.760  1.00  0.00    -0.550 OA
ATOM      8  O   UNL     1      88.977  96.771  88.978  1.00  0.00    -0.550 OA
ENDBRANCH   5   6
ENDBRANCH   1   5
TORSDOF 3
ENDMDL
MODEL 2
REMARK VINA RESULT:    -3.050      0.201      3.989
REMARK INTER + INTRA:          -3.675
REMARK INTER:                  -3.601
REMARK INTRA:                  -0.074
REMARK UNBOUND:                -0.089
REMARK SMILES O=C([O-])CCC(=O)[O-]
REMARK SMILES IDX 4 1 2 2 1 3 3 4 5 5 6 6 7 7 8 8
REMARK H PARENT
REMARK Flexibility Score: inf
ROOT
ATOM      1  C   UNL     1      88.877  98.597  90.699  1.00  0.00     0.059 C 
ENDROOT
BRANCH   1   2
ATOM      2  C   UNL     1      89.605  97.678  89.767  1.00  0.00     0.042 C 
ATOM      3  O   UNL     1      90.860  97.736  89.669  1.00  0.00    -0.550 OA
ATOM      4  O   UNL     1      88.902  96.729  89.036  1.00  0.00    -0.550 OA
ENDBRANCH   1   2
BRANCH   1   5
ATOM      5  C   UNL     1      89.396  98.469  92.135  1.00  0.00     0.059 C 
BRANCH   5   6
ATOM      6  C   UNL     1      90.009  99.748  92.618  1.00  0.00     0.042 C 
ATOM      7  O   UNL     1      89.369 100.829  92.532  1.00  0.00    -0.550 OA
ATOM      8  O   UNL     1      91.302  99.753  93.125  1.00  0.00    -0.550 OA
ENDBRANCH   5   6
ENDBRANCH   1   5
TORSDOF 3
ENDMDL
MODEL 3
REMARK VINA RESULT:    -3.016     17.963     18.789
REMARK INTER + INTRA:          -3.634
REMARK INTER:                  -3.560
REMARK INTRA:                  -0.074
REMARK UNBOUND:                -0.089
REMARK SMILES O=C([O-])CCC(=O)[O-]
REMARK SMILES IDX 4 1 2 2 1 3 3 4 5 5 6 6 7 7 8 8
REMARK H PARENT
REMARK Flexibility Score: inf
ROOT
ATOM      1  C   UNL     1     109.094  99.505  90.838  1.00  0.00     0.059 C 
ENDROOT
BRANCH   1   2
ATOM      2  C   UNL     1     108.386 100.353  89.826  1.00  0.00     0.042 C 
ATOM      3  O   UNL     1     107.141 100.245  89.668  1.00  0.00    -0.550 OA
ATOM      4  O   UNL     1     109.094 101.290  89.086  1.00  0.00    -0.550 OA
ENDBRANCH   1   2
BRANCH   1   5
ATOM      5  C   UNL     1     108.236  99.287  92.089  1.00  0.00     0.059 C 
BRANCH   5   6
ATOM      6  C   UNL     1     108.063  97.831  92.393  1.00  0.00     0.042 C 
ATOM      7  O   UNL     1     106.945  97.276  92.223  1.00  0.00    -0.550 OA
ATOM      8  O   UNL     1     109.125  97.095  92.903  1.00  0.00    -0.550 OA
ENDBRANCH   5   6
ENDBRANCH   1   5
TORSDOF 3
ENDMDL
MODEL 4
REMARK VINA RESULT:    -2.992     17.988     18.764
REMARK INTER + INTRA:          -3.606
REMARK INTER:                  -3.523
REMARK INTRA:                  -0.083
REMARK UNBOUND:                -0.089
REMARK SMILES O=C([O-])CCC(=O)[O-]
REMARK SMILES IDX 4 1 2 2 1 3 3 4 5 5 6 6 7 7 8 8
REMARK H PARENT
REMARK Flexibility Score: inf
ROOT
ATOM      1  C   UNL     1     108.090  99.238  91.933  1.00  0.00     0.059 C 
ENDROOT
BRANCH   1   2
ATOM      2  C   UNL     1     108.114  97.744  92.042  1.00  0.00     0.042 C 
ATOM      3  O   UNL     1     109.124  97.158  92.516  1.00  0.00    -0.550 OA
ATOM      4  O   UNL     1     107.006  97.000  91.659  1.00  0.00    -0.550 OA
ENDBRANCH   1   2
BRANCH   1   5
ATOM      5  C   UNL     1     109.094  99.743  90.892  1.00  0.00     0.059 C 
BRANCH   5   6
ATOM      6  C   UNL     1     108.408 100.407  89.738  1.00  0.00     0.042 C 
ATOM      7  O   UNL     1     107.189 100.185  89.513  1.00  0.00    -0.550 OA
ATOM      8  O   UNL     1     109.124 101.240  88.888  1.00  0.00    -0.550 OA
ENDBRANCH   5   6
ENDBRANCH   1   5
TORSDOF 3
ENDMDL
MODEL 5
REMARK VINA RESULT:    -2.956     16.844     17.750
REMARK INTER + INTRA:          -3.564
REMARK INTER:                  -3.441
REMARK INTRA:                  -0.123
REMARK UNBOUND:                -0.089
REMARK SMILES O=C([O-])CCC(=O)[O-]
REMARK SMILES IDX 4 1 2 2 1 3 3 4 5 5 6 6 7 7 8 8
REMARK H PARENT
REMARK Flexibility Score: inf
ROOT
ATOM      1  C   UNL     1     108.088  98.135  91.642  1.00  0.00     0.059 C 
ENDROOT
BRANCH   1   2
ATOM      2  C   UNL     1     108.546  99.547  91.445  1.00  0.00     0.042 C 
ATOM      3  O   UNL     1     109.125 100.163  92.379  1.00  0.00    -0.550 OA
ATOM      4  O   UNL     1     108.371 100.171  90.216  1.00  0.00    -0.550 OA
ENDBRANCH   1   2
BRANCH   1   5
ATOM      5  C   UNL     1     107.325  97.968  92.959  1.00  0.00     0.059 C 
BRANCH   5   6
ATOM      6  C   UNL     1     105.937  98.523  92.868  1.00  0.00     0.042 C 
ATOM      7  O   UNL     1     105.373  98.992  93.892  1.00  0.00    -0.550 OA
ATOM      8  O   UNL     1     105.250  98.486  91.661  1.00  0.00    -0.550 OA
ENDBRANCH   5   6
ENDBRANCH   1   5
TORSDOF 3
ENDMDL
MODEL 6
REMARK VINA RESULT:    -2.915      1.558      1.904
REMARK INTER + INTRA:          -3.516
REMARK INTER:                  -3.451
REMARK INTRA:                  -0.065
REMARK UNBOUND:                -0.089
REMARK SMILES O=C([O-])CCC(=O)[O-]
REMARK SMILES IDX 4 1 2 2 1 3 3 4 5 5 6 6 7 7 8 8
REMARK H PARENT
REMARK Flexibility Score: inf
ROOT
ATOM      1  C   UNL     1      90.248  99.238  90.988  1.00  0.00     0.059 C 
ENDROOT
BRANCH   1   2
ATOM      2  C   UNL     1      89.512  98.962  92.263  1.00  0.00     0.042 C 
ATOM      3  O   UNL     1      88.904  97.870  92.422  1.00  0.00    -0.550 OA
ATOM      4  O   UNL     1      89.531  99.893  93.293  1.00  0.00    -0.550 OA
ENDBRANCH   1   2
BRANCH   1   5
ATOM      5  C   UNL     1      90.524  97.949  90.207  1.00  0.00     0.059 C 
BRANCH   5   6
ATOM      6  C   UNL     1      89.535  97.752  89.099  1.00  0.00     0.042 C 
ATOM      7  O   UNL     1      88.875  96.681  89.022  1.00  0.00    -0.550 OA
ATOM      8  O   UNL     1      89.371  98.732  88.129  1.00  0.00    -0.550 OA
ENDBRANCH   5   6
ENDBRANCH   1   5
TORSDOF 3
ENDMDL
