MODEL 1
REMARK VINA RESULT:    -4.074      0.000      0.000
REMARK INTER + INTRA:          -6.674
REMARK INTER:                  -6.218
REMARK INTRA:                  -0.456
REMARK UNBOUND:                -0.456
REMARK SMILES CC1=CCC[C@H](C)C(=O)C[C@H](C(C)C)C(=O)C1
REMARK SMILES IDX 8 1 9 2 6 3 7 4 5 5 4 6 3 7 2 8 1 9 10 11 11 12 15 13 16 14
REMARK SMILES IDX 17 15 12 17 13 18 14 19
REMARK H PARENT
REMARK Flexibility Score: 70.00
ROOT
ATOM      1  C   UNL     1       7.106 -17.039  24.601  1.00  0.00     0.136 C 
ATOM      2  O   UNL     1       5.913 -16.960  24.343  1.00  0.00    -0.299 OA
ENDROOT
BRANCH   1   3
ATOM      3  C   UNL     1       8.130 -16.482  23.618  1.00  0.00     0.053 C 
ATOM      4  C   UNL     1       7.703 -16.674  22.154  1.00  0.00     0.016 C 
BRANCH   3   5
ATOM      5  C   UNL     1       8.417 -14.980  23.900  1.00  0.00     0.015 C 
BRANCH   5   6
ATOM      6  C   UNL     1       9.878 -14.609  24.234  1.00  0.00     0.028 C 
BRANCH   6   7
ATOM      7  C   UNL     1      10.936 -15.690  24.158  1.00  0.00    -0.028 C 
ATOM      8  C   UNL     1      11.345 -16.515  25.152  1.00  0.00    -0.070 CG0
ATOM      9  C   UNL     1      12.573 -17.354  24.894  1.00  0.00     0.039 C 
ATOM     10  G   UNL     1      10.614 -16.707  26.474  1.00  0.00     0.000 G0
ENDBRANCH   6   7
ENDBRANCH   5   6
ENDBRANCH   3   5
ENDBRANCH   1   3
BRANCH   1  11
ATOM     11  C   UNL     1       7.519 -17.729  25.893  1.00  0.00     0.087 C 
BRANCH  11  12
ATOM     12  C   UNL     1       8.807 -18.577  25.767  1.00  0.00     0.066 C 
BRANCH  12  13
ATOM     13  C   UNL     1       9.988 -18.096  26.608  1.00  0.00     0.140 C 
ATOM     14  O   UNL     1      10.404 -18.857  27.471  1.00  0.00    -0.299 OA
BRANCH  13  15
ATOM     15  C   UNL     1      10.612 -16.709  26.506  1.00  0.00     0.106 CG0
ATOM     16  G   UNL     1      11.314 -16.520  25.169  1.00  0.00     0.000 G0
ENDBRANCH  13  15
ENDBRANCH  12  13
BRANCH  12  17
ATOM     17  C   UNL     1       8.519 -20.099  25.964  1.00  0.00    -0.006 C 
ATOM     18  C   UNL     1       8.915 -20.968  24.759  1.00  0.00     0.008 C 
ATOM     19  C   UNL     1       7.050 -20.357  26.336  1.00  0.00     0.008 C 
ENDBRANCH  12  17
ENDBRANCH  11  12
ENDBRANCH   1  11
TORSDOF 1
ENDMDL
MODEL 2
REMARK VINA RESULT:    -3.790      2.601      4.093
REMARK INTER + INTRA:          -6.240
REMARK INTER:                  -5.666
REMARK INTRA:                  -0.575
REMARK UNBOUND:                -0.456
REMARK SMILES CC1=CCC[C@H](C)C(=O)C[C@H](C(C)C)C(=O)C1
REMARK SMILES IDX 8 1 9 2 6 3 7 4 5 5 4 6 3 7 2 8 1 9 10 11 11 12 15 13 16 14
REMARK SMILES IDX 17 15 12 17 13 18 14 19
REMARK H PARENT
REMARK Flexibility Score: 70.00
ROOT
ATOM      1  C   UNL     1       7.904 -17.783  21.422  1.00  0.00     0.136 C 
ATOM      2  O   UNL     1       7.593 -18.044  20.268  1.00  0.00    -0.299 OA
ENDROOT
BRANCH   1   3
ATOM      3  C   UNL     1       8.018 -18.906  22.447  1.00  0.00     0.053 C 
ATOM      4  C   UNL     1       6.776 -19.811  22.465  1.00  0.00     0.016 C 
BRANCH   3   5
ATOM      5  C   UNL     1       9.298 -19.755  22.205  1.00  0.00     0.015 C 
BRANCH   5   6
ATOM      6  C   UNL     1      10.649 -19.027  22.372  1.00  0.00     0.028 C 
BRANCH   6   7
ATOM      7  C   UNL     1      11.055 -18.561  23.755  1.00  0.00    -0.028 C 
ATOM      8  C   UNL     1      11.345 -17.296  24.147  1.00  0.00    -0.070 CG0
ATOM      9  C   UNL     1      11.946 -17.118  25.520  1.00  0.00     0.039 C 
ATOM     10  G   UNL     1      11.039 -16.046  23.333  1.00  0.00     0.000 G0
ENDBRANCH   6   7
ENDBRANCH   5   6
ENDBRANCH   3   5
ENDBRANCH   1   3
BRANCH   1  11
ATOM     11  C   UNL     1       8.134 -16.325  21.792  1.00  0.00     0.087 C 
BRANCH  11  12
ATOM     12  C   UNL     1       8.348 -16.088  23.306  1.00  0.00     0.066 C 
BRANCH  12  13
ATOM     13  C   UNL     1       9.685 -15.453  23.683  1.00  0.00     0.140 C 
ATOM     14  O   UNL     1       9.648 -14.362  24.234  1.00  0.00    -0.299 OA
BRANCH  13  15
ATOM     15  C   UNL     1      11.048 -16.040  23.336  1.00  0.00     0.106 CG0
ATOM     16  G   UNL     1      11.322 -17.305  24.138  1.00  0.00     0.000 G0
ENDBRANCH  13  15
ENDBRANCH  12  13
BRANCH  12  17
ATOM     17  C   UNL     1       7.135 -15.346  23.952  1.00  0.00    -0.006 C 
ATOM     18  C   UNL     1       6.074 -16.288  24.544  1.00  0.00     0.008 C 
ATOM     19  C   UNL     1       6.476 -14.368  22.967  1.00  0.00     0.008 C 
ENDBRANCH  12  17
ENDBRANCH  11  12
ENDBRANCH   1  11
TORSDOF 1
ENDMDL
MODEL 3
REMARK VINA RESULT:    -3.724      2.192      4.149
REMARK INTER + INTRA:          -6.139
REMARK INTER:                  -6.092
REMARK INTRA:                  -0.047
REMARK UNBOUND:                -0.456
REMARK SMILES CC1=CCC[C@H](C)C(=O)C[C@H](C(C)C)C(=O)C1
REMARK SMILES IDX 8 1 9 2 6 3 7 4 5 5 4 6 3 7 2 8 1 9 10 11 11 12 15 13 16 14
REMARK SMILES IDX 17 15 12 17 13 18 14 19
REMARK H PARENT
REMARK Flexibility Score: 70.00
ROOT
ATOM      1  C   UNL     1      10.777 -14.898  23.498  1.00  0.00     0.136 C 
ATOM      2  O   UNL     1      11.637 -14.066  23.243  1.00  0.00    -0.299 OA
ENDROOT
BRANCH   1   3
ATOM      3  C   UNL     1      11.037 -16.370  23.196  1.00  0.00     0.053 C 
ATOM      4  C   UNL     1      11.617 -16.587  21.789  1.00  0.00     0.016 C 
BRANCH   3   5
ATOM      5  C   UNL     1      11.972 -17.003  24.264  1.00  0.00     0.015 C 
BRANCH   5   6
ATOM      6  C   UNL     1      11.709 -18.483  24.620  1.00  0.00     0.028 C 
BRANCH   6   7
ATOM      7  C   UNL     1      10.294 -18.905  24.960  1.00  0.00    -0.028 C 
ATOM      8  C   UNL     1       9.463 -18.345  25.873  1.00  0.00    -0.070 CG0
ATOM      9  C   UNL     1       8.187 -19.085  26.194  1.00  0.00     0.039 C 
ATOM     10  G   UNL     1       9.692 -16.994  26.538  1.00  0.00     0.000 G0
ENDBRANCH   6   7
ENDBRANCH   5   6
ENDBRANCH   3   5
ENDBRANCH   1   3
BRANCH   1  11
ATOM     11  C   UNL     1       9.459 -14.414  24.082  1.00  0.00     0.087 C 
BRANCH  11  12
ATOM     12  C   UNL     1       8.535 -15.554  24.574  1.00  0.00     0.066 C 
BRANCH  12  13
ATOM     13  C   UNL     1       8.704 -15.942  26.042  1.00  0.00     0.140 C 
ATOM     14  O   UNL     1       8.056 -15.310  26.864  1.00  0.00    -0.299 OA
BRANCH  13  15
ATOM     15  C   UNL     1       9.687 -16.990  26.550  1.00  0.00     0.106 CG0
ATOM     16  G   UNL     1       9.453 -18.335  25.877  1.00  0.00     0.000 G0
ENDBRANCH  13  15
ENDBRANCH  12  13
BRANCH  12  17
ATOM     17  C   UNL     1       7.042 -15.291  24.199  1.00  0.00    -0.006 C 
ATOM     18  C   UNL     1       6.132 -16.518  24.373  1.00  0.00     0.008 C 
ATOM     19  C   UNL     1       6.904 -14.734  22.773  1.00  0.00     0.008 C 
ENDBRANCH  12  17
ENDBRANCH  11  12
ENDBRANCH   1  11
TORSDOF 1
ENDMDL
MODEL 4
REMARK VINA RESULT:    -3.711      2.919      4.194
REMARK INTER + INTRA:          -6.120
REMARK INTER:                  -5.931
REMARK INTRA:                  -0.189
REMARK UNBOUND:                -0.456
REMARK SMILES CC1=CCC[C@H](C)C(=O)C[C@H](C(C)C)C(=O)C1
REMARK SMILES IDX 8 1 9 2 6 3 7 4 5 5 4 6 3 7 2 8 1 9 10 11 11 12 15 13 16 14
REMARK SMILES IDX 17 15 12 17 13 18 14 19
REMARK H PARENT
REMARK Flexibility Score: 70.00
ROOT
ATOM      1  C   UNL     1       7.268 -17.094  24.256  1.00  0.00     0.136 C 
ATOM      2  O   UNL     1       6.371 -16.956  25.077  1.00  0.00    -0.299 OA
ENDROOT
BRANCH   1   3
ATOM      3  C   UNL     1       7.535 -15.992  23.237  1.00  0.00     0.053 C 
ATOM      4  C   UNL     1       6.795 -14.688  23.575  1.00  0.00     0.016 C 
BRANCH   3   5
ATOM      5  C   UNL     1       9.059 -15.721  23.093  1.00  0.00     0.015 C 
BRANCH   5   6
ATOM      6  C   UNL     1       9.748 -16.307  21.841  1.00  0.00     0.028 C 
BRANCH   6   7
ATOM      7  C   UNL     1       8.881 -16.873  20.736  1.00  0.00    -0.028 C 
ATOM      8  C   UNL     1       8.608 -18.178  20.488  1.00  0.00    -0.070 CG0
ATOM      9  C   UNL     1       7.905 -18.503  19.192  1.00  0.00     0.039 C 
ATOM     10  G   UNL     1       8.892 -19.320  21.453  1.00  0.00     0.000 G0
ENDBRANCH   6   7
ENDBRANCH   5   6
ENDBRANCH   3   5
ENDBRANCH   1   3
BRANCH   1  11
ATOM     11  C   UNL     1       8.062 -18.392  24.270  1.00  0.00     0.087 C 
BRANCH  11  12
ATOM     12  C   UNL     1       7.322 -19.587  23.623  1.00  0.00     0.066 C 
BRANCH  12  13
ATOM     13  C   UNL     1       7.625 -19.816  22.144  1.00  0.00     0.140 C 
ATOM     14  O   UNL     1       6.824 -20.486  21.508  1.00  0.00    -0.299 OA
BRANCH  13  15
ATOM     15  C   UNL     1       8.893 -19.347  21.440  1.00  0.00     0.106 CG0
ATOM     16  G   UNL     1       8.602 -18.186  20.498  1.00  0.00     0.000 G0
ENDBRANCH  13  15
ENDBRANCH  12  13
BRANCH  12  17
ATOM     17  C   UNL     1       7.478 -20.890  24.469  1.00  0.00    -0.006 C 
ATOM     18  C   UNL     1       7.119 -20.713  25.954  1.00  0.00     0.008 C 
ATOM     19  C   UNL     1       8.887 -21.488  24.338  1.00  0.00     0.008 C 
ENDBRANCH  12  17
ENDBRANCH  11  12
ENDBRANCH   1  11
TORSDOF 1
ENDMDL
MODEL 5
REMARK VINA RESULT:    -3.703      3.315      4.681
REMARK INTER + INTRA:          -6.108
REMARK INTER:                  -5.521
REMARK INTRA:                  -0.587
REMARK UNBOUND:                -0.456
REMARK SMILES CC1=CCC[C@H](C)C(=O)C[C@H](C(C)C)C(=O)C1
REMARK SMILES IDX 8 1 9 2 6 3 7 4 5 5 4 6 3 7 2 8 1 9 10 11 11 12 15 13 16 14
REMARK SMILES IDX 17 15 12 17 13 18 14 19
REMARK H PARENT
REMARK Flexibility Score: 70.00
ROOT
ATOM      1  C   UNL     1       9.245 -18.187  23.810  1.00  0.00     0.136 C 
ATOM      2  O   UNL     1       9.965 -17.225  23.581  1.00  0.00    -0.299 OA
ENDROOT
BRANCH   1   3
ATOM      3  C   UNL     1       7.775 -18.143  23.406  1.00  0.00     0.053 C 
ATOM      4  C   UNL     1       7.042 -16.926  23.992  1.00  0.00     0.016 C 
BRANCH   3   5
ATOM      5  C   UNL     1       7.620 -18.169  21.859  1.00  0.00     0.015 C 
BRANCH   5   6
ATOM      6  C   UNL     1       7.497 -19.562  21.203  1.00  0.00     0.028 C 
BRANCH   6   7
ATOM      7  C   UNL     1       8.761 -20.264  20.753  1.00  0.00    -0.028 C 
ATOM      8  C   UNL     1       9.381 -21.310  21.352  1.00  0.00    -0.070 CG0
ATOM      9  C   UNL     1      10.751 -21.687  20.841  1.00  0.00     0.039 C 
ATOM     10  G   UNL     1       8.764 -22.171  22.446  1.00  0.00     0.000 G0
ENDBRANCH   6   7
ENDBRANCH   5   6
ENDBRANCH   3   5
ENDBRANCH   1   3
BRANCH   1  11
ATOM     11  C   UNL     1       9.851 -19.384  24.527  1.00  0.00     0.087 C 
BRANCH  11  12
ATOM     12  C   UNL     1       8.898 -20.599  24.633  1.00  0.00     0.066 C 
BRANCH  12  13
ATOM     13  C   UNL     1       9.316 -21.826  23.825  1.00  0.00     0.140 C 
ATOM     14  O   UNL     1      10.201 -22.527  24.294  1.00  0.00    -0.299 OA
BRANCH  13  15
ATOM     15  C   UNL     1       8.773 -22.177  22.445  1.00  0.00     0.106 CG0
ATOM     16  G   UNL     1       9.386 -21.290  21.371  1.00  0.00     0.000 G0
ENDBRANCH  13  15
ENDBRANCH  12  13
BRANCH  12  17
ATOM     17  C   UNL     1       8.572 -20.950  26.119  1.00  0.00    -0.006 C 
ATOM     18  C   UNL     1       7.081 -20.826  26.474  1.00  0.00     0.008 C 
ATOM     19  C   UNL     1       9.415 -20.118  27.098  1.00  0.00     0.008 C 
ENDBRANCH  12  17
ENDBRANCH  11  12
ENDBRANCH   1  11
TORSDOF 1
ENDMDL
MODEL 6
REMARK VINA RESULT:    -3.657      2.189      2.683
REMARK INTER + INTRA:          -6.037
REMARK INTER:                  -5.711
REMARK INTRA:                  -0.326
REMARK UNBOUND:                -0.456
REMARK SMILES CC1=CCC[C@H](C)C(=O)C[C@H](C(C)C)C(=O)C1
REMARK SMILES IDX 8 1 9 2 6 3 7 4 5 5 4 6 3 7 2 8 1 9 10 11 11 12 15 13 16 14
REMARK SMILES IDX 17 15 12 17 13 18 14 19
REMARK H PARENT
REMARK Flexibility Score: 70.00
ROOT
ATOM      1  C   UNL     1       7.091 -16.957  24.616  1.00  0.00     0.136 C 
ATOM      2  O   UNL     1       6.179 -16.980  25.431  1.00  0.00    -0.299 OA
ENDROOT
BRANCH   1   3
ATOM      3  C   UNL     1       7.352 -15.691  23.807  1.00  0.00     0.053 C 
ATOM      4  C   UNL     1       6.052 -14.997  23.371  1.00  0.00     0.016 C 
BRANCH   3   5
ATOM      5  C   UNL     1       8.251 -14.699  24.596  1.00  0.00     0.015 C 
BRANCH   5   6
ATOM      6  C   UNL     1       9.703 -14.539  24.096  1.00  0.00     0.028 C 
BRANCH   6   7
ATOM      7  C   UNL     1      10.756 -15.500  24.607  1.00  0.00    -0.028 C 
ATOM      8  C   UNL     1      11.110 -16.695  24.074  1.00  0.00    -0.070 CG0
ATOM      9  C   UNL     1      12.023 -17.575  24.893  1.00  0.00     0.039 C 
ATOM     10  G   UNL     1      10.714 -17.174  22.684  1.00  0.00     0.000 G0
ENDBRANCH   6   7
ENDBRANCH   5   6
ENDBRANCH   3   5
ENDBRANCH   1   3
BRANCH   1  11
ATOM     11  C   UNL     1       7.913 -18.223  24.423  1.00  0.00     0.087 C 
BRANCH  11  12
ATOM     12  C   UNL     1       8.366 -18.460  22.962  1.00  0.00     0.066 C 
BRANCH  12  13
ATOM     13  C   UNL     1       9.877 -18.444  22.738  1.00  0.00     0.140 C 
ATOM     14  O   UNL     1      10.442 -19.526  22.672  1.00  0.00    -0.299 OA
BRANCH  13  15
ATOM     15  C   UNL     1      10.729 -17.180  22.687  1.00  0.00     0.106 CG0
ATOM     16  G   UNL     1      11.110 -16.718  24.087  1.00  0.00     0.000 G0
ENDBRANCH  13  15
ENDBRANCH  12  13
BRANCH  12  17
ATOM     17  C   UNL     1       7.688 -19.723  22.344  1.00  0.00    -0.006 C 
ATOM     18  C   UNL     1       7.516 -19.653  20.817  1.00  0.00     0.008 C 
ATOM     19  C   UNL     1       6.337 -20.027  23.010  1.00  0.00     0.008 C 
ENDBRANCH  12  17
ENDBRANCH  11  12
ENDBRANCH   1  11
TORSDOF 1
ENDMDL
MODEL 7
REMARK VINA RESULT:    -3.637      2.348      4.276
REMARK INTER + INTRA:          -6.007
REMARK INTER:                  -5.466
REMARK INTRA:                  -0.541
REMARK UNBOUND:                -0.456
REMARK SMILES CC1=CCC[C@H](C)C(=O)C[C@H](C(C)C)C(=O)C1
REMARK SMILES IDX 8 1 9 2 6 3 7 4 5 5 4 6 3 7 2 8 1 9 10 11 11 12 15 13 16 14
REMARK SMILES IDX 17 15 12 17 13 18 14 19
REMARK H PARENT
REMARK Flexibility Score: 70.00
ROOT
ATOM      1  C   UNL     1       9.223 -19.166  22.421  1.00  0.00     0.136 C 
ATOM      2  O   UNL     1      10.206 -19.674  21.899  1.00  0.00    -0.299 OA
ENDROOT
BRANCH   1   3
ATOM      3  C   UNL     1       7.978 -20.011  22.669  1.00  0.00     0.053 C 
ATOM      4  C   UNL     1       7.287 -20.435  21.363  1.00  0.00     0.016 C 
BRANCH   3   5
ATOM      5  C   UNL     1       8.313 -21.261  23.529  1.00  0.00     0.015 C 
BRANCH   5   6
ATOM      6  C   UNL     1       8.426 -21.039  25.053  1.00  0.00     0.028 C 
BRANCH   6   7
ATOM      7  C   UNL     1       9.765 -20.625  25.627  1.00  0.00    -0.028 C 
ATOM      8  C   UNL     1      10.122 -19.401  26.088  1.00  0.00    -0.070 CG0
ATOM      9  C   UNL     1      11.583 -19.177  26.397  1.00  0.00     0.039 C 
ATOM     10  G   UNL     1       9.148 -18.269  26.382  1.00  0.00     0.000 G0
ENDBRANCH   6   7
ENDBRANCH   5   6
ENDBRANCH   3   5
ENDBRANCH   1   3
BRANCH   1  11
ATOM     11  C   UNL     1       9.279 -17.687  22.772  1.00  0.00     0.087 C 
BRANCH  11  12
ATOM     12  C   UNL     1       8.411 -17.299  23.994  1.00  0.00     0.066 C 
BRANCH  12  13
ATOM     13  C   UNL     1       9.164 -17.188  25.318  1.00  0.00     0.140 C 
ATOM     14  O   UNL     1       9.880 -16.209  25.471  1.00  0.00    -0.299 OA
BRANCH  13  15
ATOM     15  C   UNL     1       9.153 -18.252  26.409  1.00  0.00     0.106 CG0
ATOM     16  G   UNL     1      10.112 -19.387  26.080  1.00  0.00     0.000 G0
ENDBRANCH  13  15
ENDBRANCH  12  13
BRANCH  12  17
ATOM     17  C   UNL     1       7.534 -16.041  23.703  1.00  0.00    -0.006 C 
ATOM     18  C   UNL     1       6.111 -16.129  24.279  1.00  0.00     0.008 C 
ATOM     19  C   UNL     1       7.472 -15.725  22.200  1.00  0.00     0.008 C 
ENDBRANCH  12  17
ENDBRANCH  11  12
ENDBRANCH   1  11
TORSDOF 1
ENDMDL
MODEL 8
REMARK VINA RESULT:    -3.597      2.847      5.413
REMARK INTER + INTRA:          -5.945
REMARK INTER:                  -5.406
REMARK INTRA:                  -0.539
REMARK UNBOUND:                -0.456
REMARK SMILES CC1=CCC[C@H](C)C(=O)C[C@H](C(C)C)C(=O)C1
REMARK SMILES IDX 8 1 9 2 6 3 7 4 5 5 4 6 3 7 2 8 1 9 10 11 11 12 15 13 16 14
REMARK SMILES IDX 17 15 12 17 13 18 14 19
REMARK H PARENT
REMARK Flexibility Score: 70.00
ROOT
ATOM      1  C   UNL     1       7.923 -18.452  25.633  1.00  0.00     0.136 C 
ATOM      2  O   UNL     1       7.298 -18.813  26.620  1.00  0.00    -0.299 OA
ENDROOT
BRANCH   1   3
ATOM      3  C   UNL     1       9.438 -18.627  25.593  1.00  0.00     0.053 C 
ATOM      4  C   UNL     1      10.128 -18.050  26.839  1.00  0.00     0.016 C 
BRANCH   3   5
ATOM      5  C   UNL     1       9.823 -20.122  25.410  1.00  0.00     0.015 C 
BRANCH   5   6
ATOM      6  C   UNL     1       8.811 -21.005  24.648  1.00  0.00     0.028 C 
BRANCH   6   7
ATOM      7  C   UNL     1       9.065 -21.299  23.184  1.00  0.00    -0.028 C 
ATOM      8  C   UNL     1       8.278 -20.973  22.129  1.00  0.00    -0.070 CG0
ATOM      9  C   UNL     1       8.631 -21.575  20.790  1.00  0.00     0.039 C 
ATOM     10  G   UNL     1       7.116 -19.991  22.187  1.00  0.00     0.000 G0
ENDBRANCH   6   7
ENDBRANCH   5   6
ENDBRANCH   3   5
ENDBRANCH   1   3
BRANCH   1  11
ATOM     11  C   UNL     1       7.154 -17.807  24.490  1.00  0.00     0.087 C 
BRANCH  11  12
ATOM     12  C   UNL     1       7.979 -17.645  23.191  1.00  0.00     0.066 C 
BRANCH  12  13
ATOM     13  C   UNL     1       7.553 -18.544  22.033  1.00  0.00     0.140 C 
ATOM     14  O   UNL     1       7.513 -18.039  20.920  1.00  0.00    -0.299 OA
BRANCH  13  15
ATOM     15  C   UNL     1       7.091 -19.989  22.187  1.00  0.00     0.106 CG0
ATOM     16  G   UNL     1       8.268 -20.953  22.115  1.00  0.00     0.000 G0
ENDBRANCH  13  15
ENDBRANCH  12  13
BRANCH  12  17
ATOM     17  C   UNL     1       8.100 -16.147  22.766  1.00  0.00    -0.006 C 
ATOM     18  C   UNL     1       9.340 -15.438  23.334  1.00  0.00     0.008 C 
ATOM     19  C   UNL     1       6.833 -15.352  23.120  1.00  0.00     0.008 C 
ENDBRANCH  12  17
ENDBRANCH  11  12
ENDBRANCH   1  11
TORSDOF 1
ENDMDL
MODEL 9
REMARK VINA RESULT:    -3.489      2.282      3.942
REMARK INTER + INTRA:          -5.781
REMARK INTER:                  -5.398
REMARK INTRA:                  -0.384
REMARK UNBOUND:                -0.456
REMARK SMILES CC1=CCC[C@H](C)C(=O)C[C@H](C(C)C)C(=O)C1
REMARK SMILES IDX 8 1 9 2 6 3 7 4 5 5 4 6 3 7 2 8 1 9 10 11 11 12 15 13 16 14
REMARK SMILES IDX 17 15 12 17 13 18 14 19
REMARK H PARENT
REMARK Flexibility Score: 70.00
ROOT
ATOM      1  C   UNL     1       8.059 -15.463  23.668  1.00  0.00     0.136 C 
ATOM      2  O   UNL     1       7.630 -14.321  23.752  1.00  0.00    -0.299 OA
ENDROOT
BRANCH   1   3
ATOM      3  C   UNL     1       9.422 -15.804  24.260  1.00  0.00     0.053 C 
ATOM      4  C   UNL     1      10.531 -14.864  23.760  1.00  0.00     0.016 C 
BRANCH   3   5
ATOM      5  C   UNL     1       9.374 -15.798  25.814  1.00  0.00     0.015 C 
BRANCH   5   6
ATOM      6  C   UNL     1       9.671 -17.140  26.518  1.00  0.00     0.028 C 
BRANCH   6   7
ATOM      7  C   UNL     1      10.160 -18.304  25.681  1.00  0.00    -0.028 C 
ATOM      8  C   UNL     1       9.413 -19.289  25.122  1.00  0.00    -0.070 CG0
ATOM      9  C   UNL     1      10.152 -20.463  24.527  1.00  0.00     0.039 C 
ATOM     10  G   UNL     1       7.897 -19.256  24.989  1.00  0.00     0.000 G0
ENDBRANCH   6   7
ENDBRANCH   5   6
ENDBRANCH   3   5
ENDBRANCH   1   3
BRANCH   1  11
ATOM     11  C   UNL     1       7.214 -16.496  22.937  1.00  0.00     0.087 C 
BRANCH  11  12
ATOM     12  C   UNL     1       7.937 -17.844  22.701  1.00  0.00     0.066 C 
BRANCH  12  13
ATOM     13  C   UNL     1       7.446 -19.006  23.563  1.00  0.00     0.140 C 
ATOM     14  O   UNL     1       6.588 -19.733  23.081  1.00  0.00    -0.299 OA
BRANCH  13  15
ATOM     15  C   UNL     1       7.882 -19.259  25.001  1.00  0.00     0.106 CG0
ATOM     16  G   UNL     1       9.399 -19.279  25.120  1.00  0.00     0.000 G0
ENDBRANCH  13  15
ENDBRANCH  12  13
BRANCH  12  17
ATOM     17  C   UNL     1       7.993 -18.212  21.185  1.00  0.00    -0.006 C 
ATOM     18  C   UNL     1       9.191 -19.097  20.804  1.00  0.00     0.008 C 
ATOM     19  C   UNL     1       7.962 -16.961  20.294  1.00  0.00     0.008 C 
ENDBRANCH  12  17
ENDBRANCH  11  12
ENDBRANCH   1  11
TORSDOF 1
ENDMDL
