MODEL 1
REMARK VINA RESULT:    -5.935      0.000      0.000
REMARK INTER + INTRA:          -7.198
REMARK INTER:                  -6.976
REMARK INTRA:                  -0.221
REMARK UNBOUND:                -0.221
REMARK SMILES O=c1c(O)c(-c2ccc(O)c(O)c2)oc2cc(O)ccc12
REMARK SMILES IDX 5 1 3 2 2 3 1 4 21 5 15 6 14 7 16 8 17 9 19 10 20 11 6 12
REMARK SMILES IDX 7 13 8 14 9 15 13 16 11 17 10 18 12 20 4 22 18 24
REMARK H PARENT 10 19 12 21 4 23 18 25
REMARK Flexibility Score: inf
ROOT
ATOM      1  C   UNL     1      -7.870   3.571   6.659  1.00  0.00     0.180 A 
ATOM      2  C   UNL     1      -8.059   3.803   5.281  1.00  0.00     0.208 A 
ATOM      3  C   UNL     1      -7.777   5.078   4.765  1.00  0.00     0.235 A 
ATOM      4  O   UNL     1      -7.947   5.314   3.537  1.00  0.00    -0.285 OA
ATOM      5  C   UNL     1      -7.299   6.080   5.624  1.00  0.00     0.069 A 
ATOM      6  C   UNL     1      -7.115   5.760   6.987  1.00  0.00     0.142 A 
ATOM      7  O   UNL     1      -7.402   4.544   7.437  1.00  0.00    -0.452 OA
ATOM      8  C   UNL     1      -6.631   6.729   7.874  1.00  0.00     0.094 A 
ATOM      9  C   UNL     1      -6.329   8.016   7.417  1.00  0.00     0.119 A 
ATOM     10  C   UNL     1      -6.512   8.337   6.065  1.00  0.00     0.047 A 
ATOM     11  C   UNL     1      -6.993   7.376   5.171  1.00  0.00     0.020 A 
ENDROOT
BRANCH   1  12
ATOM     12  C   UNL     1      -8.162   2.259   7.281  1.00  0.00     0.025 A 
ATOM     13  C   UNL     1      -9.252   2.088   8.152  1.00  0.00     0.016 A 
ATOM     14  C   UNL     1      -9.493   0.846   8.746  1.00  0.00     0.051 A 
ATOM     15  C   UNL     1      -8.643  -0.237   8.491  1.00  0.00     0.157 A 
ATOM     16  C   UNL     1      -7.301   1.176   7.045  1.00  0.00     0.062 A 
ATOM     17  C   UNL     1      -7.539  -0.069   7.638  1.00  0.00     0.158 A 
BRANCH  15  18
ATOM     18  O   UNL     1      -8.887  -1.475   9.084  1.00  0.00    -0.504 OA
ATOM     19  H   UNL     1      -9.728  -2.004   8.881  1.00  0.00     0.293 HD
ENDBRANCH  15  18
BRANCH  17  20
ATOM     20  O   UNL     1      -6.669  -1.126   7.369  1.00  0.00    -0.504 OA
ATOM     21  H   UNL     1      -6.240  -1.671   8.107  1.00  0.00     0.293 HD
ENDBRANCH  17  20
ENDBRANCH   1  12
BRANCH   2  22
ATOM     22  O   UNL     1      -8.488   2.773   4.441  1.00  0.00    -0.502 OA
ATOM     23  H   UNL     1      -8.540   2.881   3.434  1.00  0.00     0.293 HD
ENDBRANCH   2  22
BRANCH   9  24
ATOM     24  O   UNL     1      -5.848   8.968   8.313  1.00  0.00    -0.508 OA
ATOM     25  H   UNL     1      -6.438   9.713   8.662  1.00  0.00     0.293 HD
ENDBRANCH   9  24
TORSDOF 5
ENDMDL
MODEL 2
REMARK VINA RESULT:    -5.847      2.034      6.855
REMARK INTER + INTRA:          -7.093
REMARK INTER:                  -6.834
REMARK INTRA:                  -0.259
REMARK UNBOUND:                -0.221
REMARK SMILES O=c1c(O)c(-c2ccc(O)c(O)c2)oc2cc(O)ccc12
REMARK SMILES IDX 5 1 3 2 2 3 1 4 21 5 15 6 14 7 16 8 17 9 19 10 20 11 6 12
REMARK SMILES IDX 7 13 8 14 9 15 13 16 11 17 10 18 12 20 4 22 18 24
REMARK H PARENT 10 19 12 21 4 23 18 25
REMARK Flexibility Score: inf
ROOT
ATOM      1  C   UNL     1      -7.500   4.343   6.579  1.00  0.00     0.180 A 
ATOM      2  C   UNL     1      -7.469   4.694   7.944  1.00  0.00     0.208 A 
ATOM      3  C   UNL     1      -7.236   3.689   8.897  1.00  0.00     0.235 A 
ATOM      4  O   UNL     1      -7.214   3.977  10.125  1.00  0.00    -0.285 OA
ATOM      5  C   UNL     1      -7.021   2.370   8.468  1.00  0.00     0.069 A 
ATOM      6  C   UNL     1      -7.044   2.105   7.082  1.00  0.00     0.142 A 
ATOM      7  O   UNL     1      -7.277   3.082   6.214  1.00  0.00    -0.452 OA
ATOM      8  C   UNL     1      -6.824   0.803   6.615  1.00  0.00     0.094 A 
ATOM      9  C   UNL     1      -6.583  -0.238   7.516  1.00  0.00     0.119 A 
ATOM     10  C   UNL     1      -6.561   0.021   8.893  1.00  0.00     0.047 A 
ATOM     11  C   UNL     1      -6.778   1.318   9.369  1.00  0.00     0.020 A 
ENDROOT
BRANCH   1  12
ATOM     12  C   UNL     1      -7.757   5.342   5.516  1.00  0.00     0.025 A 
ATOM     13  C   UNL     1      -8.989   5.391   4.840  1.00  0.00     0.016 A 
ATOM     14  C   UNL     1      -9.200   6.327   3.824  1.00  0.00     0.051 A 
ATOM     15  C   UNL     1      -8.182   7.217   3.459  1.00  0.00     0.157 A 
ATOM     16  C   UNL     1      -6.733   6.222   5.132  1.00  0.00     0.062 A 
ATOM     17  C   UNL     1      -6.941   7.161   4.116  1.00  0.00     0.158 A 
BRANCH  15  18
ATOM     18  O   UNL     1      -8.395   8.151   2.447  1.00  0.00    -0.504 OA
ATOM     19  H   UNL     1      -9.306   8.268   2.017  1.00  0.00     0.293 HD
ENDBRANCH  15  18
BRANCH  17  20
ATOM     20  O   UNL     1      -5.903   8.028   3.771  1.00  0.00    -0.504 OA
ATOM     21  H   UNL     1      -5.028   8.050   4.281  1.00  0.00     0.293 HD
ENDBRANCH  17  20
ENDBRANCH   1  12
BRANCH   2  22
ATOM     22  O   UNL     1      -7.637   6.024   8.337  1.00  0.00    -0.502 OA
ATOM     23  H   UNL     1      -8.553   6.439   8.466  1.00  0.00     0.293 HD
ENDBRANCH   2  22
BRANCH   9  24
ATOM     24  O   UNL     1      -6.366  -1.527   7.034  1.00  0.00    -0.508 OA
ATOM     25  H   UNL     1      -5.840  -1.694   6.186  1.00  0.00     0.293 HD
ENDBRANCH   9  24
TORSDOF 5
ENDMDL
MODEL 3
REMARK VINA RESULT:    -5.649      1.658      6.915
REMARK INTER + INTRA:          -6.861
REMARK INTER:                  -6.579
REMARK INTRA:                  -0.282
REMARK UNBOUND:                -0.221
REMARK SMILES O=c1c(O)c(-c2ccc(O)c(O)c2)oc2cc(O)ccc12
REMARK SMILES IDX 5 1 3 2 2 3 1 4 21 5 15 6 14 7 16 8 17 9 19 10 20 11 6 12
REMARK SMILES IDX 7 13 8 14 9 15 13 16 11 17 10 18 12 20 4 22 18 24
REMARK H PARENT 10 19 12 21 4 23 18 25
REMARK Flexibility Score: inf
ROOT
ATOM      1  C   UNL     1      -7.895   4.294   6.746  1.00  0.00     0.180 A 
ATOM      2  C   UNL     1      -8.897   4.342   7.736  1.00  0.00     0.208 A 
ATOM      3  C   UNL     1      -9.225   3.163   8.425  1.00  0.00     0.235 A 
ATOM      4  O   UNL     1     -10.125   3.177   9.308  1.00  0.00    -0.285 OA
ATOM      5  C   UNL     1      -8.538   1.976   8.126  1.00  0.00     0.069 A 
ATOM      6  C   UNL     1      -7.531   2.017   7.137  1.00  0.00     0.142 A 
ATOM      7  O   UNL     1      -7.257   3.151   6.503  1.00  0.00    -0.452 OA
ATOM      8  C   UNL     1      -6.816   0.856   6.817  1.00  0.00     0.094 A 
ATOM      9  C   UNL     1      -7.096  -0.347   7.473  1.00  0.00     0.119 A 
ATOM     10  C   UNL     1      -8.095  -0.392   8.454  1.00  0.00     0.047 A 
ATOM     11  C   UNL     1      -8.813   0.762   8.781  1.00  0.00     0.020 A 
ENDROOT
BRANCH   1  12
ATOM     12  C   UNL     1      -7.506   5.491   5.964  1.00  0.00     0.025 A 
ATOM     13  C   UNL     1      -6.658   6.474   6.503  1.00  0.00     0.016 A 
ATOM     14  C   UNL     1      -6.324   7.606   5.755  1.00  0.00     0.051 A 
ATOM     15  C   UNL     1      -6.843   7.780   4.466  1.00  0.00     0.157 A 
ATOM     16  C   UNL     1      -8.039   5.680   4.679  1.00  0.00     0.062 A 
ATOM     17  C   UNL     1      -7.707   6.812   3.927  1.00  0.00     0.158 A 
BRANCH  15  18
ATOM     18  O   UNL     1      -6.507   8.909   3.721  1.00  0.00    -0.504 OA
ATOM     19  H   UNL     1      -5.973   8.838   2.862  1.00  0.00     0.293 HD
ENDBRANCH  15  18
BRANCH  17  20
ATOM     20  O   UNL     1      -8.246   6.959   2.648  1.00  0.00    -0.504 OA
ATOM     21  H   UNL     1      -7.835   7.577   1.959  1.00  0.00     0.293 HD
ENDBRANCH  17  20
ENDBRANCH   1  12
BRANCH   2  22
ATOM     22  O   UNL     1      -9.529   5.548   8.047  1.00  0.00    -0.502 OA
ATOM     23  H   UNL     1      -9.329   6.408   7.550  1.00  0.00     0.293 HD
ENDBRANCH   2  22
BRANCH   9  24
ATOM     24  O   UNL     1      -6.375  -1.493   7.142  1.00  0.00    -0.508 OA
ATOM     25  H   UNL     1      -6.684  -2.120   6.410  1.00  0.00     0.293 HD
ENDBRANCH   9  24
TORSDOF 5
ENDMDL
MODEL 4
REMARK VINA RESULT:    -5.579      1.167      2.829
REMARK INTER + INTRA:          -6.779
REMARK INTER:                  -6.510
REMARK INTRA:                  -0.269
REMARK UNBOUND:                -0.221
REMARK SMILES O=c1c(O)c(-c2ccc(O)c(O)c2)oc2cc(O)ccc12
REMARK SMILES IDX 5 1 3 2 2 3 1 4 21 5 15 6 14 7 16 8 17 9 19 10 20 11 6 12
REMARK SMILES IDX 7 13 8 14 9 15 13 16 11 17 10 18 12 20 4 22 18 24
REMARK H PARENT 10 19 12 21 4 23 18 25
REMARK Flexibility Score: inf
ROOT
ATOM      1  C   UNL     1      -7.851   3.731   7.355  1.00  0.00     0.180 A 
ATOM      2  C   UNL     1      -7.275   4.652   8.254  1.00  0.00     0.208 A 
ATOM      3  C   UNL     1      -6.987   5.950   7.802  1.00  0.00     0.235 A 
ATOM      4  O   UNL     1      -6.462   6.789   8.584  1.00  0.00    -0.285 OA
ATOM      5  C   UNL     1      -7.297   6.304   6.479  1.00  0.00     0.069 A 
ATOM      6  C   UNL     1      -7.895   5.331   5.649  1.00  0.00     0.142 A 
ATOM      7  O   UNL     1      -8.142   4.112   6.113  1.00  0.00    -0.452 OA
ATOM      8  C   UNL     1      -8.227   5.649   4.326  1.00  0.00     0.094 A 
ATOM      9  C   UNL     1      -7.968   6.927   3.822  1.00  0.00     0.119 A 
ATOM     10  C   UNL     1      -7.374   7.895   4.643  1.00  0.00     0.047 A 
ATOM     11  C   UNL     1      -7.039   7.587   5.965  1.00  0.00     0.020 A 
ENDROOT
BRANCH   1  12
ATOM     12  C   UNL     1      -8.167   2.339   7.750  1.00  0.00     0.025 A 
ATOM     13  C   UNL     1      -9.289   2.039   8.542  1.00  0.00     0.016 A 
ATOM     14  C   UNL     1      -9.553   0.721   8.923  1.00  0.00     0.051 A 
ATOM     15  C   UNL     1      -8.693  -0.314   8.533  1.00  0.00     0.157 A 
ATOM     16  C   UNL     1      -7.297   1.301   7.379  1.00  0.00     0.062 A 
ATOM     17  C   UNL     1      -7.557  -0.020   7.759  1.00  0.00     0.158 A 
BRANCH  15  18
ATOM     18  O   UNL     1      -8.959  -1.628   8.912  1.00  0.00    -0.504 OA
ATOM     19  H   UNL     1      -9.433  -2.274   8.291  1.00  0.00     0.293 HD
ENDBRANCH  15  18
BRANCH  17  20
ATOM     20  O   UNL     1      -6.677  -1.027   7.359  1.00  0.00    -0.504 OA
ATOM     21  H   UNL     1      -5.761  -0.821   6.982  1.00  0.00     0.293 HD
ENDBRANCH  17  20
ENDBRANCH   1  12
BRANCH   2  22
ATOM     22  O   UNL     1      -7.023   4.286   9.578  1.00  0.00    -0.502 OA
ATOM     23  H   UNL     1      -6.694   4.949  10.270  1.00  0.00     0.293 HD
ENDBRANCH   2  22
BRANCH   9  24
ATOM     24  O   UNL     1      -8.306   7.226   2.504  1.00  0.00    -0.508 OA
ATOM     25  H   UNL     1      -7.825   6.796   1.723  1.00  0.00     0.293 HD
ENDBRANCH   9  24
TORSDOF 5
ENDMDL
MODEL 5
REMARK VINA RESULT:    -5.519      1.783      2.061
REMARK INTER + INTRA:          -6.708
REMARK INTER:                  -7.261
REMARK INTRA:                   0.553
REMARK UNBOUND:                -0.221
REMARK SMILES O=c1c(O)c(-c2ccc(O)c(O)c2)oc2cc(O)ccc12
REMARK SMILES IDX 5 1 3 2 2 3 1 4 21 5 15 6 14 7 16 8 17 9 19 10 20 11 6 12
REMARK SMILES IDX 7 13 8 14 9 15 13 16 11 17 10 18 12 20 4 22 18 24
REMARK H PARENT 10 19 12 21 4 23 18 25
REMARK Flexibility Score: inf
ROOT
ATOM      1  C   UNL     1      -7.444   3.466   6.595  1.00  0.00     0.180 A 
ATOM      2  C   UNL     1      -7.908   3.162   5.299  1.00  0.00     0.208 A 
ATOM      3  C   UNL     1      -8.411   4.202   4.499  1.00  0.00     0.235 A 
ATOM      4  O   UNL     1      -8.841   3.954   3.339  1.00  0.00    -0.285 OA
ATOM      5  C   UNL     1      -8.421   5.513   4.999  1.00  0.00     0.069 A 
ATOM      6  C   UNL     1      -7.917   5.737   6.299  1.00  0.00     0.142 A 
ATOM      7  O   UNL     1      -7.459   4.725   7.026  1.00  0.00    -0.452 OA
ATOM      8  C   UNL     1      -7.901   7.033   6.829  1.00  0.00     0.094 A 
ATOM      9  C   UNL     1      -8.385   8.108   6.078  1.00  0.00     0.119 A 
ATOM     10  C   UNL     1      -8.887   7.889   4.788  1.00  0.00     0.047 A 
ATOM     11  C   UNL     1      -8.906   6.600   4.249  1.00  0.00     0.020 A 
ENDROOT
BRANCH   1  12
ATOM     12  C   UNL     1      -6.917   2.422   7.505  1.00  0.00     0.025 A 
ATOM     13  C   UNL     1      -6.477   2.736   8.803  1.00  0.00     0.016 A 
ATOM     14  C   UNL     1      -5.961   1.739   9.634  1.00  0.00     0.051 A 
ATOM     15  C   UNL     1      -5.863   0.418   9.177  1.00  0.00     0.157 A 
ATOM     16  C   UNL     1      -6.797   1.101   7.045  1.00  0.00     0.062 A 
ATOM     17  C   UNL     1      -6.281   0.100   7.874  1.00  0.00     0.158 A 
BRANCH  15  18
ATOM     18  O   UNL     1      -5.349  -0.576  10.009  1.00  0.00    -0.504 OA
ATOM     19  H   UNL     1      -5.560  -1.556   9.857  1.00  0.00     0.293 HD
ENDBRANCH  15  18
BRANCH  17  20
ATOM     20  O   UNL     1      -6.190  -1.205   7.387  1.00  0.00    -0.504 OA
ATOM     21  H   UNL     1      -6.434  -2.009   7.952  1.00  0.00     0.293 HD
ENDBRANCH  17  20
ENDBRANCH   1  12
BRANCH   2  22
ATOM     22  O   UNL     1      -7.840   1.855   4.809  1.00  0.00    -0.502 OA
ATOM     23  H   UNL     1      -7.533   1.078   5.383  1.00  0.00     0.293 HD
ENDBRANCH   2  22
BRANCH   9  24
ATOM     24  O   UNL     1      -8.362   9.391   6.622  1.00  0.00    -0.508 OA
ATOM     25  H   UNL     1      -8.478   9.547   7.615  1.00  0.00     0.293 HD
ENDBRANCH   9  24
TORSDOF 5
ENDMDL
MODEL 6
REMARK VINA RESULT:    -5.435      2.177      2.711
REMARK INTER + INTRA:          -6.610
REMARK INTER:                  -6.286
REMARK INTRA:                  -0.324
REMARK UNBOUND:                -0.221
REMARK SMILES O=c1c(O)c(-c2ccc(O)c(O)c2)oc2cc(O)ccc12
REMARK SMILES IDX 5 1 3 2 2 3 1 4 21 5 15 6 14 7 16 8 17 9 19 10 20 11 6 12
REMARK SMILES IDX 7 13 8 14 9 15 13 16 11 17 10 18 12 20 4 22 18 24
REMARK H PARENT 10 19 12 21 4 23 18 25
REMARK Flexibility Score: inf
ROOT
ATOM      1  C   UNL     1      -7.574   4.503   7.020  1.00  0.00     0.180 A 
ATOM      2  C   UNL     1      -8.771   5.114   7.445  1.00  0.00     0.208 A 
ATOM      3  C   UNL     1      -9.065   6.412   6.997  1.00  0.00     0.235 A 
ATOM      4  O   UNL     1     -10.125   6.984   7.372  1.00  0.00    -0.285 OA
ATOM      5  C   UNL     1      -8.174   7.059   6.127  1.00  0.00     0.069 A 
ATOM      6  C   UNL     1      -7.008   6.369   5.729  1.00  0.00     0.142 A 
ATOM      7  O   UNL     1      -6.763   5.145   6.183  1.00  0.00    -0.452 OA
ATOM      8  C   UNL     1      -6.100   6.977   4.854  1.00  0.00     0.094 A 
ATOM      9  C   UNL     1      -6.341   8.267   4.372  1.00  0.00     0.119 A 
ATOM     10  C   UNL     1      -7.497   8.955   4.765  1.00  0.00     0.047 A 
ATOM     11  C   UNL     1      -8.410   8.356   5.637  1.00  0.00     0.020 A 
ENDROOT
BRANCH   1  12
ATOM     12  C   UNL     1      -7.185   3.144   7.463  1.00  0.00     0.025 A 
ATOM     13  C   UNL     1      -6.446   2.941   8.642  1.00  0.00     0.016 A 
ATOM     14  C   UNL     1      -6.070   1.651   9.026  1.00  0.00     0.051 A 
ATOM     15  C   UNL     1      -6.414   0.548   8.235  1.00  0.00     0.157 A 
ATOM     16  C   UNL     1      -7.509   2.037   6.662  1.00  0.00     0.062 A 
ATOM     17  C   UNL     1      -7.135   0.744   7.045  1.00  0.00     0.158 A 
BRANCH  15  18
ATOM     18  O   UNL     1      -6.040  -0.737   8.621  1.00  0.00    -0.504 OA
ATOM     19  H   UNL     1      -6.131  -1.050   9.582  1.00  0.00     0.293 HD
ENDBRANCH  15  18
BRANCH  17  20
ATOM     20  O   UNL     1      -7.487  -0.333   6.230  1.00  0.00    -0.504 OA
ATOM     21  H   UNL     1      -6.839  -1.081   6.018  1.00  0.00     0.293 HD
ENDBRANCH  17  20
ENDBRANCH   1  12
BRANCH   2  22
ATOM     22  O   UNL     1      -9.663   4.426   8.273  1.00  0.00    -0.502 OA
ATOM     23  H   UNL     1     -10.287   4.905   8.913  1.00  0.00     0.293 HD
ENDBRANCH   2  22
BRANCH   9  24
ATOM     24  O   UNL     1      -5.426   8.857   3.501  1.00  0.00    -0.508 OA
ATOM     25  H   UNL     1      -4.446   8.604   3.512  1.00  0.00     0.293 HD
ENDBRANCH   9  24
TORSDOF 5
ENDMDL
MODEL 7
REMARK VINA RESULT:    -4.730      1.866      6.485
REMARK INTER + INTRA:          -5.781
REMARK INTER:                  -5.464
REMARK INTRA:                  -0.317
REMARK UNBOUND:                -0.221
REMARK SMILES O=c1c(O)c(-c2ccc(O)c(O)c2)oc2cc(O)ccc12
REMARK SMILES IDX 5 1 3 2 2 3 1 4 21 5 15 6 14 7 16 8 17 9 19 10 20 11 6 12
REMARK SMILES IDX 7 13 8 14 9 15 13 16 11 17 10 18 12 20 4 22 18 24
REMARK H PARENT 10 19 12 21 4 23 18 25
REMARK Flexibility Score: inf
ROOT
ATOM      1  C   UNL     1      -7.408   4.812   7.667  1.00  0.00     0.180 A 
ATOM      2  C   UNL     1      -7.883   4.511   6.374  1.00  0.00     0.208 A 
ATOM      3  C   UNL     1      -7.789   3.189   5.909  1.00  0.00     0.235 A 
ATOM      4  O   UNL     1      -8.198   2.897   4.752  1.00  0.00    -0.285 OA
ATOM      5  C   UNL     1      -7.246   2.201   6.745  1.00  0.00     0.069 A 
ATOM      6  C   UNL     1      -6.815   2.579   8.035  1.00  0.00     0.142 A 
ATOM      7  O   UNL     1      -6.913   3.842   8.433  1.00  0.00    -0.452 OA
ATOM      8  C   UNL     1      -6.277   1.620   8.902  1.00  0.00     0.094 A 
ATOM      9  C   UNL     1      -6.163   0.288   8.495  1.00  0.00     0.119 A 
ATOM     10  C   UNL     1      -6.589  -0.091   7.215  1.00  0.00     0.047 A 
ATOM     11  C   UNL     1      -7.128   0.858   6.343  1.00  0.00     0.020 A 
ENDROOT
BRANCH   1  12
ATOM     12  C   UNL     1      -7.455   6.184   8.221  1.00  0.00     0.025 A 
ATOM     13  C   UNL     1      -8.571   6.645   8.941  1.00  0.00     0.016 A 
ATOM     14  C   UNL     1      -8.603   7.953   9.433  1.00  0.00     0.051 A 
ATOM     15  C   UNL     1      -7.529   8.822   9.202  1.00  0.00     0.157 A 
ATOM     16  C   UNL     1      -6.391   7.066   7.974  1.00  0.00     0.062 A 
ATOM     17  C   UNL     1      -6.419   8.376   8.466  1.00  0.00     0.158 A 
BRANCH  15  18
ATOM     18  O   UNL     1      -7.562  10.125   9.696  1.00  0.00    -0.504 OA
ATOM     19  H   UNL     1      -8.438  10.598   9.886  1.00  0.00     0.293 HD
ENDBRANCH  15  18
BRANCH  17  20
ATOM     20  O   UNL     1      -5.336   9.219   8.212  1.00  0.00    -0.504 OA
ATOM     21  H   UNL     1      -4.403   8.861   8.048  1.00  0.00     0.293 HD
ENDBRANCH  17  20
ENDBRANCH   1  12
BRANCH   2  22
ATOM     22  O   UNL     1      -8.464   5.506   5.583  1.00  0.00    -0.502 OA
ATOM     23  H   UNL     1      -9.123   6.178   5.957  1.00  0.00     0.293 HD
ENDBRANCH   2  22
BRANCH   9  24
ATOM     24  O   UNL     1      -5.625  -0.654   9.371  1.00  0.00    -0.508 OA
ATOM     25  H   UNL     1      -6.163  -1.028  10.142  1.00  0.00     0.293 HD
ENDBRANCH   9  24
TORSDOF 5
ENDMDL
MODEL 8
REMARK VINA RESULT:    -4.437      2.402      3.649
REMARK INTER + INTRA:          -5.436
REMARK INTER:                  -5.606
REMARK INTRA:                   0.169
REMARK UNBOUND:                -0.221
REMARK SMILES O=c1c(O)c(-c2ccc(O)c(O)c2)oc2cc(O)ccc12
REMARK SMILES IDX 5 1 3 2 2 3 1 4 21 5 15 6 14 7 16 8 17 9 19 10 20 11 6 12
REMARK SMILES IDX 7 13 8 14 9 15 13 16 11 17 10 18 12 20 4 22 18 24
REMARK H PARENT 10 19 12 21 4 23 18 25
REMARK Flexibility Score: inf
ROOT
ATOM      1  C   UNL     1      -8.193   4.468   6.267  1.00  0.00     0.180 A 
ATOM      2  C   UNL     1      -8.922   5.227   7.206  1.00  0.00     0.208 A 
ATOM      3  C   UNL     1      -9.476   6.453   6.801  1.00  0.00     0.235 A 
ATOM      4  O   UNL     1     -10.124   7.155   7.624  1.00  0.00    -0.285 OA
ATOM      5  C   UNL     1      -9.307   6.882   5.475  1.00  0.00     0.069 A 
ATOM      6  C   UNL     1      -8.583   6.052   4.591  1.00  0.00     0.142 A 
ATOM      7  O   UNL     1      -8.068   4.904   5.016  1.00  0.00    -0.452 OA
ATOM      8  C   UNL     1      -8.402   6.440   3.258  1.00  0.00     0.094 A 
ATOM      9  C   UNL     1      -8.934   7.648   2.797  1.00  0.00     0.119 A 
ATOM     10  C   UNL     1      -9.652   8.475   3.672  1.00  0.00     0.047 A 
ATOM     11  C   UNL     1      -9.840   8.095   5.004  1.00  0.00     0.020 A 
ENDROOT
BRANCH   1  12
ATOM     12  C   UNL     1      -7.563   3.175   6.622  1.00  0.00     0.025 A 
ATOM     13  C   UNL     1      -7.633   2.067   5.761  1.00  0.00     0.016 A 
ATOM     14  C   UNL     1      -7.052   0.850   6.129  1.00  0.00     0.051 A 
ATOM     15  C   UNL     1      -6.408   0.718   7.365  1.00  0.00     0.157 A 
ATOM     16  C   UNL     1      -6.935   3.033   7.870  1.00  0.00     0.062 A 
ATOM     17  C   UNL     1      -6.352   1.816   8.241  1.00  0.00     0.158 A 
BRANCH  15  18
ATOM     18  O   UNL     1      -5.828  -0.496   7.729  1.00  0.00    -0.504 OA
ATOM     19  H   UNL     1      -5.821  -0.813   8.692  1.00  0.00     0.293 HD
ENDBRANCH  15  18
BRANCH  17  20
ATOM     20  O   UNL     1      -5.724   1.716   9.483  1.00  0.00    -0.504 OA
ATOM     21  H   UNL     1      -5.005   1.027   9.669  1.00  0.00     0.293 HD
ENDBRANCH  17  20
ENDBRANCH   1  12
BRANCH   2  22
ATOM     22  O   UNL     1      -9.115   4.752   8.505  1.00  0.00    -0.502 OA
ATOM     23  H   UNL     1      -8.367   4.721   9.187  1.00  0.00     0.293 HD
ENDBRANCH   2  22
BRANCH   9  24
ATOM     24  O   UNL     1      -8.744   8.019   1.467  1.00  0.00    -0.508 OA
ATOM     25  H   UNL     1      -7.824   8.021   1.044  1.00  0.00     0.293 HD
ENDBRANCH   9  24
TORSDOF 5
ENDMDL
MODEL 9
REMARK VINA RESULT:    -4.164      2.533      4.299
REMARK INTER + INTRA:          -5.116
REMARK INTER:                  -4.850
REMARK INTRA:                  -0.266
REMARK UNBOUND:                -0.221
REMARK SMILES O=c1c(O)c(-c2ccc(O)c(O)c2)oc2cc(O)ccc12
REMARK SMILES IDX 5 1 3 2 2 3 1 4 21 5 15 6 14 7 16 8 17 9 19 10 20 11 6 12
REMARK SMILES IDX 7 13 8 14 9 15 13 16 11 17 10 18 12 20 4 22 18 24
REMARK H PARENT 10 19 12 21 4 23 18 25
REMARK Flexibility Score: inf
ROOT
ATOM      1  C   UNL     1      -7.917   6.313   5.415  1.00  0.00     0.180 A 
ATOM      2  C   UNL     1      -7.017   7.251   5.961  1.00  0.00     0.208 A 
ATOM      3  C   UNL     1      -6.809   8.463   5.282  1.00  0.00     0.235 A 
ATOM      4  O   UNL     1      -6.001   9.314   5.745  1.00  0.00    -0.285 OA
ATOM      5  C   UNL     1      -7.511   8.717   4.093  1.00  0.00     0.069 A 
ATOM      6  C   UNL     1      -8.411   7.736   3.626  1.00  0.00     0.142 A 
ATOM      7  O   UNL     1      -8.573   6.599   4.293  1.00  0.00    -0.452 OA
ATOM      8  C   UNL     1      -9.138   7.957   2.449  1.00  0.00     0.094 A 
ATOM      9  C   UNL     1      -8.974   9.146   1.732  1.00  0.00     0.119 A 
ATOM     10  C   UNL     1      -8.080  10.122   2.193  1.00  0.00     0.047 A 
ATOM     11  C   UNL     1      -7.352   9.912   3.368  1.00  0.00     0.020 A 
ENDROOT
BRANCH   1  12
ATOM     12  C   UNL     1      -8.177   5.006   6.061  1.00  0.00     0.025 A 
ATOM     13  C   UNL     1      -8.991   4.903   7.203  1.00  0.00     0.016 A 
ATOM     14  C   UNL     1      -9.202   3.662   7.810  1.00  0.00     0.051 A 
ATOM     15  C   UNL     1      -8.593   2.510   7.296  1.00  0.00     0.157 A 
ATOM     16  C   UNL     1      -7.552   3.852   5.562  1.00  0.00     0.062 A 
ATOM     17  C   UNL     1      -7.761   2.607   6.167  1.00  0.00     0.158 A 
BRANCH  15  18
ATOM     18  O   UNL     1      -8.806   1.273   7.902  1.00  0.00    -0.504 OA
ATOM     19  H   UNL     1      -9.515   1.148   8.616  1.00  0.00     0.293 HD
ENDBRANCH  15  18
BRANCH  17  20
ATOM     20  O   UNL     1      -7.134   1.481   5.635  1.00  0.00    -0.504 OA
ATOM     21  H   UNL     1      -7.589   0.576   5.602  1.00  0.00     0.293 HD
ENDBRANCH  17  20
ENDBRANCH   1  12
BRANCH   2  22
ATOM     22  O   UNL     1      -6.370   6.991   7.171  1.00  0.00    -0.502 OA
ATOM     23  H   UNL     1      -5.429   7.316   7.363  1.00  0.00     0.293 HD
ENDBRANCH   2  22
BRANCH   9  24
ATOM     24  O   UNL     1      -9.705   9.350   0.564  1.00  0.00    -0.508 OA
ATOM     25  H   UNL     1      -9.786   8.629  -0.142  1.00  0.00     0.293 HD
ENDBRANCH   9  24
TORSDOF 5
ENDMDL
