MODEL 1
REMARK VINA RESULT:    -3.447      0.000      0.000
REMARK INTER + INTRA:          -5.657
REMARK INTER:                  -5.261
REMARK INTRA:                  -0.395
REMARK UNBOUND:                -0.395
REMARK SMILES CC1=CCC[C@H](C)C(=O)C[C@H](C(C)C)C(=O)C1
REMARK SMILES IDX 8 1 9 2 6 3 7 4 5 5 4 6 3 7 2 8 1 9 10 11 11 12 15 13 16 14
REMARK SMILES IDX 17 15 12 17 13 18 14 19
REMARK H PARENT
REMARK Flexibility Score: 70.00
ROOT
ATOM      1  C   UNL     1      13.215  63.498  23.522  1.00  0.00     0.136 C 
ATOM      2  O   UNL     1      12.180  64.120  23.332  1.00  0.00    -0.299 OA
ENDROOT
BRANCH   1   3
ATOM      3  C   UNL     1      14.174  63.837  24.679  1.00  0.00     0.053 C 
ATOM      4  C   UNL     1      13.513  64.848  25.628  1.00  0.00     0.016 C 
BRANCH   3   5
ATOM      5  C   UNL     1      14.663  62.581  25.506  1.00  0.00     0.015 C 
BRANCH   5   6
ATOM      6  C   UNL     1      16.156  62.108  25.328  1.00  0.00     0.028 C 
BRANCH   6   7
ATOM      7  C   UNL     1      16.267  60.801  24.533  1.00  0.00    -0.028 C 
ATOM      8  C   UNL     1      16.407  60.601  23.179  1.00  0.00    -0.070 CG0
ATOM      9  C   UNL     1      16.376  59.174  22.691  1.00  0.00     0.039 C 
ATOM     10  G   UNL     1      16.571  61.685  22.108  1.00  0.00     0.000 G0
ENDBRANCH   6   7
ENDBRANCH   5   6
ENDBRANCH   3   5
ENDBRANCH   1   3
BRANCH   1  11
ATOM     11  C   UNL     1      13.638  62.424  22.596  1.00  0.00     0.087 C 
BRANCH  11  12
ATOM     12  C   UNL     1      14.170  62.614  21.178  1.00  0.00     0.066 C 
BRANCH  12  13
ATOM     13  C   UNL     1      15.459  61.760  21.022  1.00  0.00     0.140 C 
ATOM     14  O   UNL     1      15.654  61.183  19.963  1.00  0.00    -0.299 OA
BRANCH  13  15
ATOM     15  C   UNL     1      16.578  61.691  22.088  1.00  0.00     0.106 CG0
ATOM     16  G   UNL     1      16.361  60.608  23.151  1.00  0.00     0.000 G0
ENDBRANCH  13  15
ENDBRANCH  12  13
BRANCH  12  17
ATOM     17  C   UNL     1      13.061  62.298  20.126  1.00  0.00    -0.006 C 
ATOM     18  C   UNL     1      12.241  63.530  19.700  1.00  0.00     0.008 C 
ATOM     19  C   UNL     1      12.125  61.176  20.604  1.00  0.00     0.008 C 
ENDBRANCH  12  17
ENDBRANCH  11  12
ENDBRANCH   1  11
TORSDOF 1
ENDMDL
MODEL 2
REMARK VINA RESULT:    -3.129     12.730     14.368
REMARK INTER + INTRA:          -5.171
REMARK INTER:                  -4.632
REMARK INTRA:                  -0.540
REMARK UNBOUND:                -0.395
REMARK SMILES CC1=CCC[C@H](C)C(=O)C[C@H](C(C)C)C(=O)C1
REMARK SMILES IDX 8 1 9 2 6 3 7 4 5 5 4 6 3 7 2 8 1 9 10 11 11 12 15 13 16 14
REMARK SMILES IDX 17 15 12 17 13 18 14 19
REMARK H PARENT
REMARK Flexibility Score: 70.00
ROOT
ATOM      1  C   UNL     1      15.025  53.767  34.869  1.00  0.00     0.136 C 
ATOM      2  O   UNL     1      13.872  53.370  34.789  1.00  0.00    -0.299 OA
ENDROOT
BRANCH   1   3
ATOM      3  C   UNL     1      15.987  53.272  35.965  1.00  0.00     0.053 C 
ATOM      4  C   UNL     1      15.225  52.405  36.979  1.00  0.00     0.016 C 
BRANCH   3   5
ATOM      5  C   UNL     1      17.235  52.467  35.419  1.00  0.00     0.015 C 
BRANCH   5   6
ATOM      6  C   UNL     1      18.673  53.058  35.680  1.00  0.00     0.028 C 
BRANCH   6   7
ATOM      7  C   UNL     1      19.541  53.072  34.415  1.00  0.00    -0.028 C 
ATOM      8  C   UNL     1      19.765  54.085  33.511  1.00  0.00    -0.070 CG0
ATOM      9  C   UNL     1      20.591  53.747  32.296  1.00  0.00     0.039 C 
ATOM     10  G   UNL     1      19.242  55.523  33.603  1.00  0.00     0.000 G0
ENDBRANCH   6   7
ENDBRANCH   5   6
ENDBRANCH   3   5
ENDBRANCH   1   3
BRANCH   1  11
ATOM     11  C   UNL     1      15.537  54.808  33.951  1.00  0.00     0.087 C 
BRANCH  11  12
ATOM     12  C   UNL     1      16.617  55.839  34.270  1.00  0.00     0.066 C 
BRANCH  12  13
ATOM     13  C   UNL     1      17.752  55.699  33.218  1.00  0.00     0.140 C 
ATOM     14  O   UNL     1      17.470  55.810  32.035  1.00  0.00    -0.299 OA
BRANCH  13  15
ATOM     15  C   UNL     1      19.248  55.546  33.583  1.00  0.00     0.106 CG0
ATOM     16  G   UNL     1      19.760  54.103  33.526  1.00  0.00     0.000 G0
ENDBRANCH  13  15
ENDBRANCH  12  13
BRANCH  12  17
ATOM     17  C   UNL     1      16.002  57.271  34.362  1.00  0.00    -0.006 C 
ATOM     18  C   UNL     1      17.051  58.398  34.359  1.00  0.00     0.008 C 
ATOM     19  C   UNL     1      15.071  57.414  35.576  1.00  0.00     0.008 C 
ENDBRANCH  12  17
ENDBRANCH  11  12
ENDBRANCH   1  11
TORSDOF 1
ENDMDL
MODEL 3
REMARK VINA RESULT:    -3.116     13.533     15.168
REMARK INTER + INTRA:          -5.151
REMARK INTER:                  -4.521
REMARK INTRA:                  -0.630
REMARK UNBOUND:                -0.395
REMARK SMILES CC1=CCC[C@H](C)C(=O)C[C@H](C(C)C)C(=O)C1
REMARK SMILES IDX 8 1 9 2 6 3 7 4 5 5 4 6 3 7 2 8 1 9 10 11 11 12 15 13 16 14
REMARK SMILES IDX 17 15 12 17 13 18 14 19
REMARK H PARENT
REMARK Flexibility Score: 70.00
ROOT
ATOM      1  C   UNL     1      15.805  53.256  32.476  1.00  0.00     0.136 C 
ATOM      2  O   UNL     1      15.646  53.973  31.500  1.00  0.00    -0.299 OA
ENDROOT
BRANCH   1   3
ATOM      3  C   UNL     1      16.003  51.733  32.351  1.00  0.00     0.053 C 
ATOM      4  C   UNL     1      14.921  51.137  31.437  1.00  0.00     0.016 C 
BRANCH   3   5
ATOM      5  C   UNL     1      17.430  51.305  31.822  1.00  0.00     0.015 C 
BRANCH   5   6
ATOM      6  C   UNL     1      18.647  51.377  32.822  1.00  0.00     0.028 C 
BRANCH   6   7
ATOM      7  C   UNL     1      19.476  52.657  32.647  1.00  0.00    -0.028 C 
ATOM      8  C   UNL     1      19.719  53.678  33.535  1.00  0.00    -0.070 CG0
ATOM      9  C   UNL     1      20.492  54.865  33.018  1.00  0.00     0.039 C 
ATOM     10  G   UNL     1      19.267  53.744  34.998  1.00  0.00     0.000 G0
ENDBRANCH   6   7
ENDBRANCH   5   6
ENDBRANCH   3   5
ENDBRANCH   1   3
BRANCH   1  11
ATOM     11  C   UNL     1      15.744  53.810  33.847  1.00  0.00     0.087 C 
BRANCH  11  12
ATOM     12  C   UNL     1      16.545  53.324  35.052  1.00  0.00     0.066 C 
BRANCH  12  13
ATOM     13  C   UNL     1      17.792  54.237  35.209  1.00  0.00     0.140 C 
ATOM     14  O   UNL     1      17.633  55.384  35.601  1.00  0.00    -0.299 OA
BRANCH  13  15
ATOM     15  C   UNL     1      19.247  53.746  35.017  1.00  0.00     0.106 CG0
ATOM     16  G   UNL     1      19.690  53.670  33.551  1.00  0.00     0.000 G0
ENDBRANCH  13  15
ENDBRANCH  12  13
BRANCH  12  17
ATOM     17  C   UNL     1      15.640  53.250  36.322  1.00  0.00    -0.006 C 
ATOM     18  C   UNL     1      15.307  51.814  36.764  1.00  0.00     0.008 C 
ATOM     19  C   UNL     1      14.349  54.067  36.150  1.00  0.00     0.008 C 
ENDBRANCH  12  17
ENDBRANCH  11  12
ENDBRANCH   1  11
TORSDOF 1
ENDMDL
MODEL 4
REMARK VINA RESULT:    -3.041      2.226      3.930
REMARK INTER + INTRA:          -5.036
REMARK INTER:                  -4.416
REMARK INTRA:                  -0.620
REMARK UNBOUND:                -0.395
REMARK SMILES CC1=CCC[C@H](C)C(=O)C[C@H](C(C)C)C(=O)C1
REMARK SMILES IDX 8 1 9 2 6 3 7 4 5 5 4 6 3 7 2 8 1 9 10 11 11 12 15 13 16 14
REMARK SMILES IDX 17 15 12 17 13 18 14 19
REMARK H PARENT
REMARK Flexibility Score: 70.00
ROOT
ATOM      1  C   UNL     1      15.486  62.865  25.362  1.00  0.00     0.136 C 
ATOM      2  O   UNL     1      16.003  62.077  26.140  1.00  0.00    -0.299 OA
ENDROOT
BRANCH   1   3
ATOM      3  C   UNL     1      16.321  63.804  24.471  1.00  0.00     0.053 C 
ATOM      4  C   UNL     1      17.449  64.442  25.296  1.00  0.00     0.016 C 
BRANCH   3   5
ATOM      5  C   UNL     1      16.935  63.110  23.190  1.00  0.00     0.015 C 
BRANCH   5   6
ATOM      6  C   UNL     1      15.997  62.884  21.944  1.00  0.00     0.028 C 
BRANCH   6   7
ATOM      7  C   UNL     1      15.408  61.468  21.901  1.00  0.00    -0.028 C 
ATOM      8  C   UNL     1      14.096  61.057  21.948  1.00  0.00    -0.070 CG0
ATOM      9  C   UNL     1      13.846  59.570  21.997  1.00  0.00     0.039 C 
ATOM     10  G   UNL     1      12.857  61.958  21.975  1.00  0.00     0.000 G0
ENDBRANCH   6   7
ENDBRANCH   5   6
ENDBRANCH   3   5
ENDBRANCH   1   3
BRANCH   1  11
ATOM     11  C   UNL     1      14.015  63.007  25.287  1.00  0.00     0.087 C 
BRANCH  11  12
ATOM     12  C   UNL     1      13.225  63.604  24.125  1.00  0.00     0.066 C 
BRANCH  12  13
ATOM     13  C   UNL     1      12.483  62.451  23.396  1.00  0.00     0.140 C 
ATOM     14  O   UNL     1      11.494  61.965  23.924  1.00  0.00    -0.299 OA
BRANCH  13  15
ATOM     15  C   UNL     1      12.848  61.955  21.976  1.00  0.00     0.106 CG0
ATOM     16  G   UNL     1      14.088  61.056  21.930  1.00  0.00     0.000 G0
ENDBRANCH  13  15
ENDBRANCH  12  13
BRANCH  12  17
ATOM     17  C   UNL     1      12.292  64.751  24.625  1.00  0.00    -0.006 C 
ATOM     18  C   UNL     1      11.386  65.338  23.527  1.00  0.00     0.008 C 
ATOM     19  C   UNL     1      13.086  65.872  25.315  1.00  0.00     0.008 C 
ENDBRANCH  12  17
ENDBRANCH  11  12
ENDBRANCH   1  11
TORSDOF 1
ENDMDL
MODEL 5
REMARK VINA RESULT:    -2.917      2.849      5.287
REMARK INTER + INTRA:          -4.847
REMARK INTER:                  -4.473
REMARK INTRA:                  -0.374
REMARK UNBOUND:                -0.395
REMARK SMILES CC1=CCC[C@H](C)C(=O)C[C@H](C(C)C)C(=O)C1
REMARK SMILES IDX 8 1 9 2 6 3 7 4 5 5 4 6 3 7 2 8 1 9 10 11 11 12 15 13 16 14
REMARK SMILES IDX 17 15 12 17 13 18 14 19
REMARK H PARENT
REMARK Flexibility Score: 70.00
ROOT
ATOM      1  C   UNL     1      17.112  60.897  22.091  1.00  0.00     0.136 C 
ATOM      2  O   UNL     1      17.699  61.237  23.107  1.00  0.00    -0.299 OA
ENDROOT
BRANCH   1   3
ATOM      3  C   UNL     1      16.657  61.914  21.028  1.00  0.00     0.053 C 
ATOM      4  C   UNL     1      16.143  61.176  19.782  1.00  0.00     0.016 C 
BRANCH   3   5
ATOM      5  C   UNL     1      15.554  62.929  21.529  1.00  0.00     0.015 C 
BRANCH   5   6
ATOM      6  C   UNL     1      14.040  62.520  21.373  1.00  0.00     0.028 C 
BRANCH   6   7
ATOM      7  C   UNL     1      13.473  61.871  22.643  1.00  0.00    -0.028 C 
ATOM      8  C   UNL     1      13.358  60.542  22.978  1.00  0.00    -0.070 CG0
ATOM      9  C   UNL     1      12.646  60.221  24.268  1.00  0.00     0.039 C 
ATOM     10  G   UNL     1      13.863  59.348  22.161  1.00  0.00     0.000 G0
ENDBRANCH   6   7
ENDBRANCH   5   6
ENDBRANCH   3   5
ENDBRANCH   1   3
BRANCH   1  11
ATOM     11  C   UNL     1      16.741  59.482  21.864  1.00  0.00     0.087 C 
BRANCH  11  12
ATOM     12  C   UNL     1      16.325  58.476  22.934  1.00  0.00     0.066 C 
BRANCH  12  13
ATOM     13  C   UNL     1      14.776  58.367  22.926  1.00  0.00     0.140 C 
ATOM     14  O   UNL     1      14.244  57.525  23.634  1.00  0.00    -0.299 OA
BRANCH  13  15
ATOM     15  C   UNL     1      13.850  59.344  22.163  1.00  0.00     0.106 CG0
ATOM     16  G   UNL     1      13.376  60.536  23.002  1.00  0.00     0.000 G0
ENDBRANCH  13  15
ENDBRANCH  12  13
BRANCH  12  17
ATOM     17  C   UNL     1      17.065  57.117  22.730  1.00  0.00    -0.006 C 
ATOM     18  C   UNL     1      18.361  56.985  23.549  1.00  0.00     0.008 C 
ATOM     19  C   UNL     1      17.345  56.838  21.244  1.00  0.00     0.008 C 
ENDBRANCH  12  17
ENDBRANCH  11  12
ENDBRANCH   1  11
TORSDOF 1
ENDMDL
MODEL 6
REMARK VINA RESULT:    -2.880      2.723      5.182
REMARK INTER + INTRA:          -4.791
REMARK INTER:                  -4.188
REMARK INTRA:                  -0.603
REMARK UNBOUND:                -0.395
REMARK SMILES CC1=CCC[C@H](C)C(=O)C[C@H](C(C)C)C(=O)C1
REMARK SMILES IDX 8 1 9 2 6 3 7 4 5 5 4 6 3 7 2 8 1 9 10 11 11 12 15 13 16 14
REMARK SMILES IDX 17 15 12 17 13 18 14 19
REMARK H PARENT
REMARK Flexibility Score: 70.00
ROOT
ATOM      1  C   UNL     1      15.801  59.087  21.341  1.00  0.00     0.136 C 
ATOM      2  O   UNL     1      16.430  58.040  21.358  1.00  0.00    -0.299 OA
ENDROOT
BRANCH   1   3
ATOM      3  C   UNL     1      16.486  60.452  21.140  1.00  0.00     0.053 C 
ATOM      4  C   UNL     1      16.007  61.091  19.828  1.00  0.00     0.016 C 
BRANCH   3   5
ATOM      5  C   UNL     1      16.268  61.470  22.330  1.00  0.00     0.015 C 
BRANCH   5   6
ATOM      6  C   UNL     1      15.388  62.750  22.063  1.00  0.00     0.028 C 
BRANCH   6   7
ATOM      7  C   UNL     1      14.320  62.966  23.143  1.00  0.00    -0.028 C 
ATOM      8  C   UNL     1      13.057  62.434  23.252  1.00  0.00    -0.070 CG0
ATOM      9  C   UNL     1      12.199  62.934  24.388  1.00  0.00     0.039 C 
ATOM     10  G   UNL     1      12.420  61.394  22.323  1.00  0.00     0.000 G0
ENDBRANCH   6   7
ENDBRANCH   5   6
ENDBRANCH   3   5
ENDBRANCH   1   3
BRANCH   1  11
ATOM     11  C   UNL     1      14.342  59.102  21.586  1.00  0.00     0.087 C 
BRANCH  11  12
ATOM     12  C   UNL     1      13.656  59.045  22.949  1.00  0.00     0.066 C 
BRANCH  12  13
ATOM     13  C   UNL     1      12.399  59.957  22.901  1.00  0.00     0.140 C 
ATOM     14  O   UNL     1      11.371  59.565  23.431  1.00  0.00    -0.299 OA
BRANCH  13  15
ATOM     15  C   UNL     1      12.402  61.394  22.328  1.00  0.00     0.106 CG0
ATOM     16  G   UNL     1      13.058  62.431  23.246  1.00  0.00     0.000 G0
ENDBRANCH  13  15
ENDBRANCH  12  13
BRANCH  12  17
ATOM     17  C   UNL     1      13.360  57.567  23.355  1.00  0.00    -0.006 C 
ATOM     18  C   UNL     1      14.482  56.914  24.182  1.00  0.00     0.008 C 
ATOM     19  C   UNL     1      13.024  56.696  22.134  1.00  0.00     0.008 C 
ENDBRANCH  12  17
ENDBRANCH  11  12
ENDBRANCH   1  11
TORSDOF 1
ENDMDL
MODEL 7
REMARK VINA RESULT:    -2.829     13.741     15.220
REMARK INTER + INTRA:          -4.713
REMARK INTER:                  -4.401
REMARK INTRA:                  -0.312
REMARK UNBOUND:                -0.395
REMARK SMILES CC1=CCC[C@H](C)C(=O)C[C@H](C(C)C)C(=O)C1
REMARK SMILES IDX 8 1 9 2 6 3 7 4 5 5 4 6 3 7 2 8 1 9 10 11 11 12 15 13 16 14
REMARK SMILES IDX 17 15 12 17 13 18 14 19
REMARK H PARENT
REMARK Flexibility Score: 70.00
ROOT
ATOM      1  C   UNL     1      17.318  53.071  32.452  1.00  0.00     0.136 C 
ATOM      2  O   UNL     1      17.771  53.949  31.733  1.00  0.00    -0.299 OA
ENDROOT
BRANCH   1   3
ATOM      3  C   UNL     1      18.199  52.285  33.440  1.00  0.00     0.053 C 
ATOM      4  C   UNL     1      19.224  51.438  32.669  1.00  0.00     0.016 C 
BRANCH   3   5
ATOM      5  C   UNL     1      18.953  53.186  34.498  1.00  0.00     0.015 C 
BRANCH   5   6
ATOM      6  C   UNL     1      18.089  54.095  35.452  1.00  0.00     0.028 C 
BRANCH   6   7
ATOM      7  C   UNL     1      17.146  53.279  36.347  1.00  0.00    -0.028 C 
ATOM      8  C   UNL     1      15.781  53.354  36.489  1.00  0.00    -0.070 CG0
ATOM      9  C   UNL     1      15.153  52.478  37.545  1.00  0.00     0.039 C 
ATOM     10  G   UNL     1      14.828  54.254  35.694  1.00  0.00     0.000 G0
ENDBRANCH   6   7
ENDBRANCH   5   6
ENDBRANCH   3   5
ENDBRANCH   1   3
BRANCH   1  11
ATOM     11  C   UNL     1      15.898  52.667  32.356  1.00  0.00     0.087 C 
BRANCH  11  12
ATOM     12  C   UNL     1      14.894  52.620  33.506  1.00  0.00     0.066 C 
BRANCH  12  13
ATOM     13  C   UNL     1      14.838  54.028  34.161  1.00  0.00     0.140 C 
ATOM     14  O   UNL     1      14.707  55.005  33.439  1.00  0.00    -0.299 OA
BRANCH  13  15
ATOM     15  C   UNL     1      14.815  54.265  35.690  1.00  0.00     0.106 CG0
ATOM     16  G   UNL     1      15.760  53.350  36.477  1.00  0.00     0.000 G0
ENDBRANCH  13  15
ENDBRANCH  12  13
BRANCH  12  17
ATOM     17  C   UNL     1      13.513  52.088  33.011  1.00  0.00    -0.006 C 
ATOM     18  C   UNL     1      13.123  50.724  33.610  1.00  0.00     0.008 C 
ATOM     19  C   UNL     1      13.438  52.036  31.477  1.00  0.00     0.008 C 
ENDBRANCH  12  17
ENDBRANCH  11  12
ENDBRANCH   1  11
TORSDOF 1
ENDMDL
MODEL 8
REMARK VINA RESULT:    -2.784     12.664     14.917
REMARK INTER + INTRA:          -4.645
REMARK INTER:                  -4.240
REMARK INTRA:                  -0.405
REMARK UNBOUND:                -0.395
REMARK SMILES CC1=CCC[C@H](C)C(=O)C[C@H](C(C)C)C(=O)C1
REMARK SMILES IDX 8 1 9 2 6 3 7 4 5 5 4 6 3 7 2 8 1 9 10 11 11 12 15 13 16 14
REMARK SMILES IDX 17 15 12 17 13 18 14 19
REMARK H PARENT
REMARK Flexibility Score: 70.00
ROOT
ATOM      1  C   UNL     1      15.226  52.486  35.272  1.00  0.00     0.136 C 
ATOM      2  O   UNL     1      14.939  51.797  36.240  1.00  0.00    -0.299 OA
ENDROOT
BRANCH   1   3
ATOM      3  C   UNL     1      14.287  52.629  34.060  1.00  0.00     0.053 C 
ATOM      4  C   UNL     1      13.761  51.248  33.639  1.00  0.00     0.016 C 
BRANCH   3   5
ATOM      5  C   UNL     1      13.067  53.606  34.295  1.00  0.00     0.015 C 
BRANCH   5   6
ATOM      6  C   UNL     1      13.242  54.779  35.334  1.00  0.00     0.028 C 
BRANCH   6   7
ATOM      7  C   UNL     1      13.662  56.096  34.667  1.00  0.00    -0.028 C 
ATOM      8  C   UNL     1      14.910  56.658  34.535  1.00  0.00    -0.070 CG0
ATOM      9  C   UNL     1      14.980  58.032  33.918  1.00  0.00     0.039 C 
ATOM     10  G   UNL     1      16.242  56.036  34.968  1.00  0.00     0.000 G0
ENDBRANCH   6   7
ENDBRANCH   5   6
ENDBRANCH   3   5
ENDBRANCH   1   3
BRANCH   1  11
ATOM     11  C   UNL     1      16.537  53.168  35.186  1.00  0.00     0.087 C 
BRANCH  11  12
ATOM     12  C   UNL     1      17.195  53.697  33.914  1.00  0.00     0.066 C 
BRANCH  12  13
ATOM     13  C   UNL     1      16.953  55.229  33.840  1.00  0.00     0.140 C 
ATOM     14  O   UNL     1      17.244  55.819  32.810  1.00  0.00    -0.299 OA
BRANCH  13  15
ATOM     15  C   UNL     1      16.249  56.043  34.952  1.00  0.00     0.106 CG0
ATOM     16  G   UNL     1      14.919  56.669  34.520  1.00  0.00     0.000 G0
ENDBRANCH  13  15
ENDBRANCH  12  13
BRANCH  12  17
ATOM     17  C   UNL     1      18.699  53.282  33.859  1.00  0.00    -0.006 C 
ATOM     18  C   UNL     1      18.931  51.857  33.325  1.00  0.00     0.008 C 
ATOM     19  C   UNL     1      19.390  53.459  35.220  1.00  0.00     0.008 C 
ENDBRANCH  12  17
ENDBRANCH  11  12
ENDBRANCH   1  11
TORSDOF 1
ENDMDL
MODEL 9
REMARK VINA RESULT:    -2.724      2.125      4.340
REMARK INTER + INTRA:          -4.553
REMARK INTER:                  -4.012
REMARK INTRA:                  -0.541
REMARK UNBOUND:                -0.395
REMARK SMILES CC1=CCC[C@H](C)C(=O)C[C@H](C(C)C)C(=O)C1
REMARK SMILES IDX 8 1 9 2 6 3 7 4 5 5 4 6 3 7 2 8 1 9 10 11 11 12 15 13 16 14
REMARK SMILES IDX 17 15 12 17 13 18 14 19
REMARK H PARENT
REMARK Flexibility Score: 70.00
ROOT
ATOM      1  C   UNL     1      16.709  59.052  22.387  1.00  0.00     0.136 C 
ATOM      2  O   UNL     1      17.444  58.428  21.638  1.00  0.00    -0.299 OA
ENDROOT
BRANCH   1   3
ATOM      3  C   UNL     1      17.170  59.533  23.776  1.00  0.00     0.053 C 
ATOM      4  C   UNL     1      18.701  59.459  23.874  1.00  0.00     0.016 C 
BRANCH   3   5
ATOM      5  C   UNL     1      16.689  60.991  24.152  1.00  0.00     0.015 C 
BRANCH   5   6
ATOM      6  C   UNL     1      15.636  61.152  25.314  1.00  0.00     0.028 C 
BRANCH   6   7
ATOM      7  C   UNL     1      14.547  62.180  24.981  1.00  0.00    -0.028 C 
ATOM      8  C   UNL     1      13.497  62.098  24.096  1.00  0.00    -0.070 CG0
ATOM      9  C   UNL     1      12.656  63.337  23.916  1.00  0.00     0.039 C 
ATOM     10  G   UNL     1      13.104  60.878  23.256  1.00  0.00     0.000 G0
ENDBRANCH   6   7
ENDBRANCH   5   6
ENDBRANCH   3   5
ENDBRANCH   1   3
BRANCH   1  11
ATOM     11  C   UNL     1      15.300  59.320  22.022  1.00  0.00     0.087 C 
BRANCH  11  12
ATOM     12  C   UNL     1      14.799  60.459  21.137  1.00  0.00     0.066 C 
BRANCH  12  13
ATOM     13  C   UNL     1      13.481  61.009  21.750  1.00  0.00     0.140 C 
ATOM     14  O   UNL     1      12.641  61.485  21.001  1.00  0.00    -0.299 OA
BRANCH  13  15
ATOM     15  C   UNL     1      13.110  60.881  23.247  1.00  0.00     0.106 CG0
ATOM     16  G   UNL     1      13.507  62.096  24.093  1.00  0.00     0.000 G0
ENDBRANCH  13  15
ENDBRANCH  12  13
BRANCH  12  17
ATOM     17  C   UNL     1      15.912  61.535  20.940  1.00  0.00    -0.006 C 
ATOM     18  C   UNL     1      15.461  62.965  21.286  1.00  0.00     0.008 C 
ATOM     19  C   UNL     1      16.503  61.491  19.522  1.00  0.00     0.008 C 
ENDBRANCH  12  17
ENDBRANCH  11  12
ENDBRANCH   1  11
TORSDOF 1
ENDMDL
