MODEL 1
REMARK VINA RESULT:    -6.917      0.000      0.000
REMARK INTER + INTRA:          -8.793
REMARK INTER:                  -8.534
REMARK INTRA:                  -0.259
REMARK UNBOUND:                -0.259
REMARK SMILES COc1cc(-c2oc3cc(O)cc(O)c3c(=O)c2O)ccc1O
REMARK SMILES IDX 6 1 18 2 16 3 17 4 15 5 13 6 12 7 10 8 9 9 8 10 7 11 5 12
REMARK SMILES IDX 3 13 22 14 4 15 21 16 20 17 2 18 1 19 23 20 19 22 14 24
REMARK SMILES IDX 11 26
REMARK H PARENT 23 21 19 23 14 25 11 27
REMARK Flexibility Score: inf
ROOT
ATOM      1  C   UNL     1     -18.740  -4.129  16.835  1.00  0.00     0.180 A 
ATOM      2  C   UNL     1     -18.053  -3.345  15.891  1.00  0.00     0.208 A 
ATOM      3  C   UNL     1     -17.296  -3.985  14.898  1.00  0.00     0.238 A 
ATOM      4  O   UNL     1     -16.726  -3.281  14.024  1.00  0.00    -0.285 OA
ATOM      5  C   UNL     1     -17.221  -5.399  14.869  1.00  0.00     0.111 A 
ATOM      6  C   UNL     1     -16.451  -6.151  13.932  1.00  0.00     0.134 A 
ATOM      7  C   UNL     1     -16.555  -7.548  13.917  1.00  0.00     0.093 A 
ATOM      8  C   UNL     1     -17.350  -8.221  14.843  1.00  0.00     0.123 A 
ATOM      9  C   UNL     1     -18.061  -7.498  15.802  1.00  0.00     0.094 A 
ATOM     10  C   UNL     1     -18.005  -6.103  15.821  1.00  0.00     0.146 A 
ATOM     11  O   UNL     1     -18.704  -5.452  16.742  1.00  0.00    -0.452 OA
ENDROOT
BRANCH   1  12
ATOM     12  C   UNL     1     -19.539  -3.525  17.926  1.00  0.00     0.025 A 
ATOM     13  C   UNL     1     -21.471  -2.242  18.708  1.00  0.00     0.161 A 
ATOM     14  C   UNL     1     -20.993  -2.347  20.027  1.00  0.00     0.157 A 
ATOM     15  C   UNL     1     -20.732  -2.830  17.660  1.00  0.00     0.062 A 
ATOM     16  C   UNL     1     -19.797  -3.019  20.287  1.00  0.00     0.051 A 
ATOM     17  C   UNL     1     -19.069  -3.598  19.245  1.00  0.00     0.016 A 
BRANCH  13  18
ATOM     18  O   UNL     1     -22.671  -1.552  18.475  1.00  0.00    -0.493 OA
ATOM     19  C   UNL     1     -23.271  -1.383  17.195  1.00  0.00     0.278 C 
ENDBRANCH  13  18
BRANCH  14  20
ATOM     20  O   UNL     1     -21.695  -1.785  21.094  1.00  0.00    -0.504 OA
ATOM     21  H   UNL     1     -22.479  -2.253  21.531  1.00  0.00     0.293 HD
ENDBRANCH  14  20
ENDBRANCH   1  12
BRANCH   2  22
ATOM     22  O   UNL     1     -18.157  -1.952  15.924  1.00  0.00    -0.502 OA
ATOM     23  H   UNL     1     -17.984  -1.373  15.111  1.00  0.00     0.293 HD
ENDBRANCH   2  22
BRANCH   6  24
ATOM     24  O   UNL     1     -15.555  -5.583  13.023  1.00  0.00    -0.507 OA
ATOM     25  H   UNL     1     -15.339  -5.965  12.114  1.00  0.00     0.293 HD
ENDBRANCH   6  24
BRANCH   8  26
ATOM     26  O   UNL     1     -17.417  -9.613  14.809  1.00  0.00    -0.508 OA
ATOM     27  H   UNL     1     -17.829 -10.104  14.024  1.00  0.00     0.293 HD
ENDBRANCH   8  26
TORSDOF 6
ENDMDL
MODEL 2
REMARK VINA RESULT:    -6.528      1.132      2.775
REMARK INTER + INTRA:          -8.314
REMARK INTER:                  -8.079
REMARK INTRA:                  -0.235
REMARK UNBOUND:                -0.259
REMARK SMILES COc1cc(-c2oc3cc(O)cc(O)c3c(=O)c2O)ccc1O
REMARK SMILES IDX 6 1 18 2 16 3 17 4 15 5 13 6 12 7 10 8 9 9 8 10 7 11 5 12
REMARK SMILES IDX 3 13 22 14 4 15 21 16 20 17 2 18 1 19 23 20 19 22 14 24
REMARK SMILES IDX 11 26
REMARK H PARENT 23 21 19 23 14 25 11 27
REMARK Flexibility Score: inf
ROOT
ATOM      1  C   UNL     1     -18.873  -4.751  17.325  1.00  0.00     0.180 A 
ATOM      2  C   UNL     1     -18.799  -6.147  17.484  1.00  0.00     0.208 A 
ATOM      3  C   UNL     1     -18.121  -6.906  16.518  1.00  0.00     0.238 A 
ATOM      4  O   UNL     1     -18.012  -8.148  16.693  1.00  0.00    -0.285 OA
ATOM      5  C   UNL     1     -17.540  -6.265  15.397  1.00  0.00     0.111 A 
ATOM      6  C   UNL     1     -16.866  -6.942  14.337  1.00  0.00     0.134 A 
ATOM      7  C   UNL     1     -16.217  -6.195  13.344  1.00  0.00     0.093 A 
ATOM      8  C   UNL     1     -16.274  -4.802  13.339  1.00  0.00     0.123 A 
ATOM      9  C   UNL     1     -16.982  -4.133  14.338  1.00  0.00     0.094 A 
ATOM     10  C   UNL     1     -17.608  -4.848  15.361  1.00  0.00     0.146 A 
ATOM     11  O   UNL     1     -18.262  -4.173  16.298  1.00  0.00    -0.452 OA
ENDROOT
BRANCH   1  12
ATOM     12  C   UNL     1     -19.592  -3.887  18.289  1.00  0.00     0.025 A 
ATOM     13  C   UNL     1     -21.407  -2.340  18.837  1.00  0.00     0.161 A 
ATOM     14  C   UNL     1     -20.890  -2.212  20.139  1.00  0.00     0.157 A 
ATOM     15  C   UNL     1     -20.746  -3.176  17.914  1.00  0.00     0.062 A 
ATOM     16  C   UNL     1     -19.731  -2.901  20.503  1.00  0.00     0.051 A 
ATOM     17  C   UNL     1     -19.081  -3.727  19.585  1.00  0.00     0.016 A 
BRANCH  13  18
ATOM     18  O   UNL     1     -22.568  -1.627  18.496  1.00  0.00    -0.493 OA
ATOM     19  C   UNL     1     -23.116  -1.555  17.184  1.00  0.00     0.278 C 
ENDBRANCH  13  18
BRANCH  14  20
ATOM     20  O   UNL     1     -21.515  -1.399  21.085  1.00  0.00    -0.504 OA
ATOM     21  H   UNL     1     -22.237  -0.735  20.834  1.00  0.00     0.293 HD
ENDBRANCH  14  20
ENDBRANCH   1  12
BRANCH   2  22
ATOM     22  O   UNL     1     -19.360  -6.757  18.610  1.00  0.00    -0.502 OA
ATOM     23  H   UNL     1     -19.299  -6.352  19.536  1.00  0.00     0.293 HD
ENDBRANCH   2  22
BRANCH   6  24
ATOM     24  O   UNL     1     -16.827  -8.332  14.197  1.00  0.00    -0.507 OA
ATOM     25  H   UNL     1     -17.640  -8.925  14.121  1.00  0.00     0.293 HD
ENDBRANCH   6  24
BRANCH   8  26
ATOM     26  O   UNL     1     -15.630  -4.092  12.327  1.00  0.00    -0.508 OA
ATOM     27  H   UNL     1     -16.126  -3.780  11.501  1.00  0.00     0.293 HD
ENDBRANCH   8  26
TORSDOF 6
ENDMDL
MODEL 3
REMARK VINA RESULT:    -6.479      8.766     13.553
REMARK INTER + INTRA:          -8.253
REMARK INTER:                  -7.924
REMARK INTRA:                  -0.329
REMARK UNBOUND:                -0.259
REMARK SMILES COc1cc(-c2oc3cc(O)cc(O)c3c(=O)c2O)ccc1O
REMARK SMILES IDX 6 1 18 2 16 3 17 4 15 5 13 6 12 7 10 8 9 9 8 10 7 11 5 12
REMARK SMILES IDX 3 13 22 14 4 15 21 16 20 17 2 18 1 19 23 20 19 22 14 24
REMARK SMILES IDX 11 26
REMARK H PARENT 23 21 19 23 14 25 11 27
REMARK Flexibility Score: inf
ROOT
ATOM      1  C   UNL     1      -9.886  -5.657   8.544  1.00  0.00     0.180 A 
ATOM      2  C   UNL     1      -9.740  -7.051   8.662  1.00  0.00     0.208 A 
ATOM      3  C   UNL     1     -10.601  -7.755   9.517  1.00  0.00     0.238 A 
ATOM      4  O   UNL     1     -10.501  -9.009   9.578  1.00  0.00    -0.285 OA
ATOM      5  C   UNL     1     -11.587  -7.058  10.257  1.00  0.00     0.111 A 
ATOM      6  C   UNL     1     -12.486  -7.666  11.183  1.00  0.00     0.134 A 
ATOM      7  C   UNL     1     -13.505  -6.898  11.761  1.00  0.00     0.093 A 
ATOM      8  C   UNL     1     -13.618  -5.534  11.495  1.00  0.00     0.123 A 
ATOM      9  C   UNL     1     -12.707  -4.917  10.636  1.00  0.00     0.094 A 
ATOM     10  C   UNL     1     -11.702  -5.663  10.018  1.00  0.00     0.146 A 
ATOM     11  O   UNL     1     -10.862  -5.041   9.200  1.00  0.00    -0.452 OA
ENDROOT
BRANCH   1  12
ATOM     12  C   UNL     1      -9.000  -4.844   7.681  1.00  0.00     0.025 A 
ATOM     13  C   UNL     1      -8.272  -4.084   5.471  1.00  0.00     0.161 A 
ATOM     14  C   UNL     1      -7.256  -3.324   6.079  1.00  0.00     0.157 A 
ATOM     15  C   UNL     1      -9.138  -4.848   6.281  1.00  0.00     0.062 A 
ATOM     16  C   UNL     1      -7.107  -3.338   7.468  1.00  0.00     0.051 A 
ATOM     17  C   UNL     1      -7.967  -4.097   8.264  1.00  0.00     0.016 A 
BRANCH  13  18
ATOM     18  O   UNL     1      -8.392  -4.060   4.072  1.00  0.00    -0.493 OA
ATOM     19  C   UNL     1      -8.187  -5.185   3.224  1.00  0.00     0.278 C 
ENDBRANCH  13  18
BRANCH  14  20
ATOM     20  O   UNL     1      -6.382  -2.551   5.316  1.00  0.00    -0.504 OA
ATOM     21  H   UNL     1      -5.940  -2.905   4.475  1.00  0.00     0.293 HD
ENDBRANCH  14  20
ENDBRANCH   1  12
BRANCH   2  22
ATOM     22  O   UNL     1      -8.775  -7.723   7.907  1.00  0.00    -0.502 OA
ATOM     23  H   UNL     1      -8.208  -7.257   7.209  1.00  0.00     0.293 HD
ENDBRANCH   2  22
BRANCH   6  24
ATOM     24  O   UNL     1     -12.405  -9.000  11.590  1.00  0.00    -0.507 OA
ATOM     25  H   UNL     1     -12.863  -9.771  11.127  1.00  0.00     0.293 HD
ENDBRANCH   6  24
BRANCH   8  26
ATOM     26  O   UNL     1     -14.635  -4.798  12.100  1.00  0.00    -0.508 OA
ATOM     27  H   UNL     1     -15.480  -5.241  12.439  1.00  0.00     0.293 HD
ENDBRANCH   8  26
TORSDOF 6
ENDMDL
MODEL 4
REMARK VINA RESULT:    -6.391      3.630      5.109
REMARK INTER + INTRA:          -8.145
REMARK INTER:                  -7.894
REMARK INTRA:                  -0.251
REMARK UNBOUND:                -0.259
REMARK SMILES COc1cc(-c2oc3cc(O)cc(O)c3c(=O)c2O)ccc1O
REMARK SMILES IDX 6 1 18 2 16 3 17 4 15 5 13 6 12 7 10 8 9 9 8 10 7 11 5 12
REMARK SMILES IDX 3 13 22 14 4 15 21 16 20 17 2 18 1 19 23 20 19 22 14 24
REMARK SMILES IDX 11 26
REMARK H PARENT 23 21 19 23 14 25 11 27
REMARK Flexibility Score: inf
ROOT
ATOM      1  C   UNL     1     -21.214  -2.160  17.641  1.00  0.00     0.180 A 
ATOM      2  C   UNL     1     -22.371  -1.782  16.936  1.00  0.00     0.208 A 
ATOM      3  C   UNL     1     -22.253  -1.393  15.593  1.00  0.00     0.238 A 
ATOM      4  O   UNL     1     -23.298  -1.107  14.952  1.00  0.00    -0.285 OA
ATOM      5  C   UNL     1     -20.979  -1.372  14.974  1.00  0.00     0.111 A 
ATOM      6  C   UNL     1     -20.738  -0.956  13.631  1.00  0.00     0.134 A 
ATOM      7  C   UNL     1     -19.456  -1.099  13.083  1.00  0.00     0.093 A 
ATOM      8  C   UNL     1     -18.396  -1.582  13.849  1.00  0.00     0.123 A 
ATOM      9  C   UNL     1     -18.608  -1.935  15.183  1.00  0.00     0.094 A 
ATOM     10  C   UNL     1     -19.882  -1.837  15.746  1.00  0.00     0.146 A 
ATOM     11  O   UNL     1     -20.044  -2.193  17.014  1.00  0.00    -0.452 OA
ENDROOT
BRANCH   1  12
ATOM     12  C   UNL     1     -21.256  -2.558  19.066  1.00  0.00     0.025 A 
ATOM     13  C   UNL     1     -21.641  -2.033  21.426  1.00  0.00     0.161 A 
ATOM     14  C   UNL     1     -21.267  -3.345  21.768  1.00  0.00     0.157 A 
ATOM     15  C   UNL     1     -21.626  -1.645  20.070  1.00  0.00     0.062 A 
ATOM     16  C   UNL     1     -20.878  -4.245  20.772  1.00  0.00     0.051 A 
ATOM     17  C   UNL     1     -20.865  -3.854  19.431  1.00  0.00     0.016 A 
BRANCH  13  18
ATOM     18  O   UNL     1     -22.016  -1.148  22.448  1.00  0.00    -0.493 OA
ATOM     19  C   UNL     1     -22.073   0.269  22.311  1.00  0.00     0.278 C 
ENDBRANCH  13  18
BRANCH  14  20
ATOM     20  O   UNL     1     -21.271  -3.773  23.095  1.00  0.00    -0.504 OA
ATOM     21  H   UNL     1     -21.718  -3.240  23.832  1.00  0.00     0.293 HD
ENDBRANCH  14  20
ENDBRANCH   1  12
BRANCH   2  22
ATOM     22  O   UNL     1     -23.621  -1.831  17.559  1.00  0.00    -0.502 OA
ATOM     23  H   UNL     1     -24.489  -1.726  17.047  1.00  0.00     0.293 HD
ENDBRANCH   2  22
BRANCH   6  24
ATOM     24  O   UNL     1     -21.706  -0.375  12.807  1.00  0.00    -0.507 OA
ATOM     25  H   UNL     1     -21.891  -0.652  11.854  1.00  0.00     0.293 HD
ENDBRANCH   6  24
BRANCH   8  26
ATOM     26  O   UNL     1     -17.131  -1.696  13.277  1.00  0.00    -0.508 OA
ATOM     27  H   UNL     1     -16.383  -1.055  13.512  1.00  0.00     0.293 HD
ENDBRANCH   8  26
TORSDOF 6
ENDMDL
MODEL 5
REMARK VINA RESULT:    -6.353     13.199     15.319
REMARK INTER + INTRA:          -8.098
REMARK INTER:                  -8.032
REMARK INTRA:                  -0.066
REMARK UNBOUND:                -0.259
REMARK SMILES COc1cc(-c2oc3cc(O)cc(O)c3c(=O)c2O)ccc1O
REMARK SMILES IDX 6 1 18 2 16 3 17 4 15 5 13 6 12 7 10 8 9 9 8 10 7 11 5 12
REMARK SMILES IDX 3 13 22 14 4 15 21 16 20 17 2 18 1 19 23 20 19 22 14 24
REMARK SMILES IDX 11 26
REMARK H PARENT 23 21 19 23 14 25 11 27
REMARK Flexibility Score: inf
ROOT
ATOM      1  C   UNL     1      -7.254  -7.289   9.273  1.00  0.00     0.180 A 
ATOM      2  C   UNL     1      -7.743  -8.443   9.912  1.00  0.00     0.208 A 
ATOM      3  C   UNL     1      -7.651  -8.537  11.309  1.00  0.00     0.238 A 
ATOM      4  O   UNL     1      -8.138  -9.548  11.880  1.00  0.00    -0.285 OA
ATOM      5  C   UNL     1      -7.057  -7.486  12.050  1.00  0.00     0.111 A 
ATOM      6  C   UNL     1      -6.875  -7.495  13.465  1.00  0.00     0.134 A 
ATOM      7  C   UNL     1      -6.394  -6.346  14.106  1.00  0.00     0.093 A 
ATOM      8  C   UNL     1      -6.029  -5.215  13.378  1.00  0.00     0.123 A 
ATOM      9  C   UNL     1      -6.147  -5.217  11.987  1.00  0.00     0.094 A 
ATOM     10  C   UNL     1      -6.657  -6.334  11.323  1.00  0.00     0.146 A 
ATOM     11  O   UNL     1      -6.763  -6.293  10.000  1.00  0.00    -0.452 OA
ENDROOT
BRANCH   1  12
ATOM     12  C   UNL     1      -7.294  -7.128   7.802  1.00  0.00     0.025 A 
ATOM     13  C   UNL     1      -7.921  -5.861   5.803  1.00  0.00     0.161 A 
ATOM     14  C   UNL     1      -7.398  -6.891   5.000  1.00  0.00     0.157 A 
ATOM     15  C   UNL     1      -7.871  -5.991   7.207  1.00  0.00     0.062 A 
ATOM     16  C   UNL     1      -6.844  -8.028   5.593  1.00  0.00     0.051 A 
ATOM     17  C   UNL     1      -6.798  -8.151   6.983  1.00  0.00     0.016 A 
BRANCH  13  18
ATOM     18  O   UNL     1      -8.481  -4.735   5.181  1.00  0.00    -0.493 OA
ATOM     19  C   UNL     1      -7.925  -3.424   5.230  1.00  0.00     0.278 C 
ENDBRANCH  13  18
BRANCH  14  20
ATOM     20  O   UNL     1      -7.422  -6.802   3.608  1.00  0.00    -0.504 OA
ATOM     21  H   UNL     1      -6.740  -6.261   3.090  1.00  0.00     0.293 HD
ENDBRANCH  14  20
ENDBRANCH   1  12
BRANCH   2  22
ATOM     22  O   UNL     1      -8.345  -9.459   9.164  1.00  0.00    -0.502 OA
ATOM     23  H   UNL     1      -9.274  -9.368   8.772  1.00  0.00     0.293 HD
ENDBRANCH   2  22
BRANCH   6  24
ATOM     24  O   UNL     1      -7.121  -8.605  14.278  1.00  0.00    -0.507 OA
ATOM     25  H   UNL     1      -7.326  -9.532  13.937  1.00  0.00     0.293 HD
ENDBRANCH   6  24
BRANCH   8  26
ATOM     26  O   UNL     1      -5.539  -4.095  14.047  1.00  0.00    -0.508 OA
ATOM     27  H   UNL     1      -4.629  -4.099  14.492  1.00  0.00     0.293 HD
ENDBRANCH   8  26
TORSDOF 6
ENDMDL
MODEL 6
REMARK VINA RESULT:    -6.316      7.696     11.052
REMARK INTER + INTRA:          -8.053
REMARK INTER:                  -7.653
REMARK INTRA:                  -0.400
REMARK UNBOUND:                -0.259
REMARK SMILES COc1cc(-c2oc3cc(O)cc(O)c3c(=O)c2O)ccc1O
REMARK SMILES IDX 6 1 18 2 16 3 17 4 15 5 13 6 12 7 10 8 9 9 8 10 7 11 5 12
REMARK SMILES IDX 3 13 22 14 4 15 21 16 20 17 2 18 1 19 23 20 19 22 14 24
REMARK SMILES IDX 11 26
REMARK H PARENT 23 21 19 23 14 25 11 27
REMARK Flexibility Score: inf
ROOT
ATOM      1  C   UNL     1     -11.075  -5.599   9.757  1.00  0.00     0.180 A 
ATOM      2  C   UNL     1     -10.799  -6.955  10.008  1.00  0.00     0.208 A 
ATOM      3  C   UNL     1      -9.948  -7.649   9.134  1.00  0.00     0.238 A 
ATOM      4  O   UNL     1      -9.661  -8.847   9.393  1.00  0.00    -0.285 OA
ATOM      5  C   UNL     1      -9.397  -6.985   8.011  1.00  0.00     0.111 A 
ATOM      6  C   UNL     1      -8.556  -7.602   7.037  1.00  0.00     0.134 A 
ATOM      7  C   UNL     1      -7.963  -6.817   6.040  1.00  0.00     0.093 A 
ATOM      8  C   UNL     1      -8.232  -5.453   5.943  1.00  0.00     0.123 A 
ATOM      9  C   UNL     1      -9.101  -4.851   6.854  1.00  0.00     0.094 A 
ATOM     10  C   UNL     1      -9.679  -5.600   7.881  1.00  0.00     0.146 A 
ATOM     11  O   UNL     1     -10.491  -4.987   8.734  1.00  0.00    -0.452 OA
ENDROOT
BRANCH   1  12
ATOM     12  C   UNL     1     -11.982  -4.808  10.620  1.00  0.00     0.025 A 
ATOM     13  C   UNL     1     -14.225  -4.058  11.250  1.00  0.00     0.161 A 
ATOM     14  C   UNL     1     -13.661  -3.244  12.248  1.00  0.00     0.157 A 
ATOM     15  C   UNL     1     -13.376  -4.834  10.433  1.00  0.00     0.062 A 
ATOM     16  C   UNL     1     -12.275  -3.203  12.418  1.00  0.00     0.051 A 
ATOM     17  C   UNL     1     -11.439  -3.973  11.606  1.00  0.00     0.016 A 
BRANCH  13  18
ATOM     18  O   UNL     1     -15.620  -4.072  11.095  1.00  0.00    -0.493 OA
ATOM     19  C   UNL     1     -16.327  -3.376  10.073  1.00  0.00     0.278 C 
ENDBRANCH  13  18
BRANCH  14  20
ATOM     20  O   UNL     1     -14.464  -2.465  13.081  1.00  0.00    -0.504 OA
ATOM     21  H   UNL     1     -14.085  -1.717  13.651  1.00  0.00     0.293 HD
ENDBRANCH  14  20
ENDBRANCH   1  12
BRANCH   2  22
ATOM     22  O   UNL     1     -11.336  -7.585  11.134  1.00  0.00    -0.502 OA
ATOM     23  H   UNL     1     -11.933  -8.400  11.069  1.00  0.00     0.293 HD
ENDBRANCH   2  22
BRANCH   6  24
ATOM     24  O   UNL     1      -8.294  -8.974   6.988  1.00  0.00    -0.507 OA
ATOM     25  H   UNL     1      -8.892  -9.658   6.548  1.00  0.00     0.293 HD
ENDBRANCH   6  24
BRANCH   8  26
ATOM     26  O   UNL     1      -7.637  -4.705   4.929  1.00  0.00    -0.508 OA
ATOM     27  H   UNL     1      -7.533  -5.072   3.990  1.00  0.00     0.293 HD
ENDBRANCH   8  26
TORSDOF 6
ENDMDL
MODEL 7
REMARK VINA RESULT:    -6.196      7.762     12.660
REMARK INTER + INTRA:          -7.904
REMARK INTER:                  -7.553
REMARK INTRA:                  -0.351
REMARK UNBOUND:                -0.259
REMARK SMILES COc1cc(-c2oc3cc(O)cc(O)c3c(=O)c2O)ccc1O
REMARK SMILES IDX 6 1 18 2 16 3 17 4 15 5 13 6 12 7 10 8 9 9 8 10 7 11 5 12
REMARK SMILES IDX 3 13 22 14 4 15 21 16 20 17 2 18 1 19 23 20 19 22 14 24
REMARK SMILES IDX 11 26
REMARK H PARENT 23 21 19 23 14 25 11 27
REMARK Flexibility Score: inf
ROOT
ATOM      1  C   UNL     1     -10.336  -5.081  10.064  1.00  0.00     0.180 A 
ATOM      2  C   UNL     1      -9.698  -4.754  11.274  1.00  0.00     0.208 A 
ATOM      3  C   UNL     1     -10.473  -4.290  12.348  1.00  0.00     0.238 A 
ATOM      4  O   UNL     1      -9.904  -4.050  13.445  1.00  0.00    -0.285 OA
ATOM      5  C   UNL     1     -11.873  -4.141  12.195  1.00  0.00     0.111 A 
ATOM      6  C   UNL     1     -12.750  -3.640  13.204  1.00  0.00     0.134 A 
ATOM      7  C   UNL     1     -14.134  -3.659  12.987  1.00  0.00     0.093 A 
ATOM      8  C   UNL     1     -14.667  -4.099  11.777  1.00  0.00     0.123 A 
ATOM      9  C   UNL     1     -13.815  -4.535  10.761  1.00  0.00     0.094 A 
ATOM     10  C   UNL     1     -12.433  -4.562  10.960  1.00  0.00     0.146 A 
ATOM     11  O   UNL     1     -11.658  -4.993   9.973  1.00  0.00    -0.452 OA
ENDROOT
BRANCH   1  12
ATOM     12  C   UNL     1      -9.583  -5.554   8.880  1.00  0.00     0.025 A 
ATOM     13  C   UNL     1      -8.160  -5.123   6.935  1.00  0.00     0.161 A 
ATOM     14  C   UNL     1      -8.214  -6.490   6.607  1.00  0.00     0.157 A 
ATOM     15  C   UNL     1      -8.856  -4.661   8.072  1.00  0.00     0.062 A 
ATOM     16  C   UNL     1      -8.955  -7.372   7.398  1.00  0.00     0.051 A 
ATOM     17  C   UNL     1      -9.641  -6.908   8.522  1.00  0.00     0.016 A 
BRANCH  13  18
ATOM     18  O   UNL     1      -7.416  -4.259   6.117  1.00  0.00    -0.493 OA
ATOM     19  C   UNL     1      -6.977  -2.960   6.501  1.00  0.00     0.278 C 
ENDBRANCH  13  18
BRANCH  14  20
ATOM     20  O   UNL     1      -7.538  -6.991   5.495  1.00  0.00    -0.504 OA
ATOM     21  H   UNL     1      -7.631  -7.954   5.195  1.00  0.00     0.293 HD
ENDBRANCH  14  20
ENDBRANCH   1  12
BRANCH   2  22
ATOM     22  O   UNL     1      -8.318  -4.929  11.411  1.00  0.00    -0.502 OA
ATOM     23  H   UNL     1      -7.729  -4.256  11.886  1.00  0.00     0.293 HD
ENDBRANCH   2  22
BRANCH   6  24
ATOM     24  O   UNL     1     -12.316  -3.092  14.414  1.00  0.00    -0.507 OA
ATOM     25  H   UNL     1     -11.670  -3.538  15.048  1.00  0.00     0.293 HD
ENDBRANCH   6  24
BRANCH   8  26
ATOM     26  O   UNL     1     -16.048  -4.089  11.590  1.00  0.00    -0.508 OA
ATOM     27  H   UNL     1     -16.594  -3.246  11.716  1.00  0.00     0.293 HD
ENDBRANCH   8  26
TORSDOF 6
ENDMDL
MODEL 8
REMARK VINA RESULT:    -6.106      1.994      7.079
REMARK INTER + INTRA:          -7.793
REMARK INTER:                  -7.427
REMARK INTRA:                  -0.366
REMARK UNBOUND:                -0.259
REMARK SMILES COc1cc(-c2oc3cc(O)cc(O)c3c(=O)c2O)ccc1O
REMARK SMILES IDX 6 1 18 2 16 3 17 4 15 5 13 6 12 7 10 8 9 9 8 10 7 11 5 12
REMARK SMILES IDX 3 13 22 14 4 15 21 16 20 17 2 18 1 19 23 20 19 22 14 24
REMARK SMILES IDX 11 26
REMARK H PARENT 23 21 19 23 14 25 11 27
REMARK Flexibility Score: inf
ROOT
ATOM      1  C   UNL     1     -18.554  -3.208  15.828  1.00  0.00     0.180 A 
ATOM      2  C   UNL     1     -19.550  -2.372  15.295  1.00  0.00     0.208 A 
ATOM      3  C   UNL     1     -20.603  -1.954  16.123  1.00  0.00     0.238 A 
ATOM      4  O   UNL     1     -21.464  -1.162  15.655  1.00  0.00    -0.285 OA
ATOM      5  C   UNL     1     -20.657  -2.390  17.470  1.00  0.00     0.111 A 
ATOM      6  C   UNL     1     -21.700  -2.061  18.386  1.00  0.00     0.134 A 
ATOM      7  C   UNL     1     -21.583  -2.441  19.730  1.00  0.00     0.093 A 
ATOM      8  C   UNL     1     -20.495  -3.191  20.174  1.00  0.00     0.123 A 
ATOM      9  C   UNL     1     -19.499  -3.569  19.272  1.00  0.00     0.094 A 
ATOM     10  C   UNL     1     -19.569  -3.175  17.935  1.00  0.00     0.146 A 
ATOM     11  O   UNL     1     -18.596  -3.546  17.112  1.00  0.00    -0.452 OA
ENDROOT
BRANCH   1  12
ATOM     12  C   UNL     1     -17.426  -3.709  15.010  1.00  0.00     0.025 A 
ATOM     13  C   UNL     1     -15.253  -3.383  13.931  1.00  0.00     0.161 A 
ATOM     14  C   UNL     1     -15.332  -4.684  13.404  1.00  0.00     0.157 A 
ATOM     15  C   UNL     1     -16.310  -2.899  14.730  1.00  0.00     0.062 A 
ATOM     16  C   UNL     1     -16.451  -5.479  13.665  1.00  0.00     0.051 A 
ATOM     17  C   UNL     1     -17.494  -4.995  14.456  1.00  0.00     0.016 A 
BRANCH  13  18
ATOM     18  O   UNL     1     -14.122  -2.602  13.643  1.00  0.00    -0.493 OA
ATOM     19  C   UNL     1     -13.152  -2.199  14.604  1.00  0.00     0.278 C 
ENDBRANCH  13  18
BRANCH  14  20
ATOM     20  O   UNL     1     -14.307  -5.204  12.613  1.00  0.00    -0.504 OA
ATOM     21  H   UNL     1     -14.180  -4.931  11.646  1.00  0.00     0.293 HD
ENDBRANCH  14  20
ENDBRANCH   1  12
BRANCH   2  22
ATOM     22  O   UNL     1     -19.467  -1.935  13.969  1.00  0.00    -0.502 OA
ATOM     23  H   UNL     1     -18.594  -1.917  13.456  1.00  0.00     0.293 HD
ENDBRANCH   2  22
BRANCH   6  24
ATOM     24  O   UNL     1     -22.874  -1.395  18.027  1.00  0.00    -0.507 OA
ATOM     25  H   UNL     1     -23.545  -1.734  17.354  1.00  0.00     0.293 HD
ENDBRANCH   6  24
BRANCH   8  26
ATOM     26  O   UNL     1     -20.419  -3.565  21.514  1.00  0.00    -0.508 OA
ATOM     27  H   UNL     1     -20.999  -3.129  22.220  1.00  0.00     0.293 HD
ENDBRANCH   8  26
TORSDOF 6
ENDMDL
MODEL 9
REMARK VINA RESULT:    -6.072      7.240     10.634
REMARK INTER + INTRA:          -7.752
REMARK INTER:                  -7.358
REMARK INTRA:                  -0.394
REMARK UNBOUND:                -0.259
REMARK SMILES COc1cc(-c2oc3cc(O)cc(O)c3c(=O)c2O)ccc1O
REMARK SMILES IDX 6 1 18 2 16 3 17 4 15 5 13 6 12 7 10 8 9 9 8 10 7 11 5 12
REMARK SMILES IDX 3 13 22 14 4 15 21 16 20 17 2 18 1 19 23 20 19 22 14 24
REMARK SMILES IDX 11 26
REMARK H PARENT 23 21 19 23 14 25 11 27
REMARK Flexibility Score: inf
ROOT
ATOM      1  C   UNL     1     -11.587  -5.506  10.120  1.00  0.00     0.180 A 
ATOM      2  C   UNL     1     -11.431  -6.875  10.399  1.00  0.00     0.208 A 
ATOM      3  C   UNL     1     -10.558  -7.635   9.605  1.00  0.00     0.238 A 
ATOM      4  O   UNL     1     -10.380  -8.848   9.892  1.00  0.00    -0.285 OA
ATOM      5  C   UNL     1      -9.865  -7.022   8.532  1.00  0.00     0.111 A 
ATOM      6  C   UNL     1      -8.987  -7.706   7.639  1.00  0.00     0.134 A 
ATOM      7  C   UNL     1      -8.256  -6.973   6.695  1.00  0.00     0.093 A 
ATOM      8  C   UNL     1      -8.418  -5.595   6.571  1.00  0.00     0.123 A 
ATOM      9  C   UNL     1      -9.318  -4.925   7.400  1.00  0.00     0.094 A 
ATOM     10  C   UNL     1     -10.036  -5.622   8.374  1.00  0.00     0.146 A 
ATOM     11  O   UNL     1     -10.874  -4.946   9.150  1.00  0.00    -0.452 OA
ENDROOT
BRANCH   1  12
ATOM     12  C   UNL     1     -12.508  -4.645  10.897  1.00  0.00     0.025 A 
ATOM     13  C   UNL     1     -12.951  -3.113  12.755  1.00  0.00     0.161 A 
ATOM     14  C   UNL     1     -14.306  -3.067  12.379  1.00  0.00     0.157 A 
ATOM     15  C   UNL     1     -12.058  -3.913  12.011  1.00  0.00     0.062 A 
ATOM     16  C   UNL     1     -14.755  -3.812  11.286  1.00  0.00     0.051 A 
ATOM     17  C   UNL     1     -13.866  -4.602  10.554  1.00  0.00     0.016 A 
BRANCH  13  18
ATOM     18  O   UNL     1     -12.529  -2.363  13.863  1.00  0.00    -0.493 OA
ATOM     19  C   UNL     1     -11.950  -1.064  13.787  1.00  0.00     0.278 C 
ENDBRANCH  13  18
BRANCH  14  20
ATOM     20  O   UNL     1     -15.222  -2.287  13.083  1.00  0.00    -0.504 OA
ATOM     21  H   UNL     1     -16.223  -2.423  13.001  1.00  0.00     0.293 HD
ENDBRANCH  14  20
ENDBRANCH   1  12
BRANCH   2  22
ATOM     22  O   UNL     1     -12.107  -7.456  11.475  1.00  0.00    -0.502 OA
ATOM     23  H   UNL     1     -12.708  -6.923  12.092  1.00  0.00     0.293 HD
ENDBRANCH   2  22
BRANCH   6  24
ATOM     24  O   UNL     1      -8.820  -9.093   7.616  1.00  0.00    -0.507 OA
ATOM     25  H   UNL     1      -8.832  -9.660   6.782  1.00  0.00     0.293 HD
ENDBRANCH   6  24
BRANCH   8  26
ATOM     26  O   UNL     1      -7.685  -4.900   5.610  1.00  0.00    -0.508 OA
ATOM     27  H   UNL     1      -8.097  -4.623   4.727  1.00  0.00     0.293 HD
ENDBRANCH   8  26
TORSDOF 6
ENDMDL
