MODEL 1
REMARK VINA RESULT:    -7.292      0.000      0.000
REMARK INTER + INTRA:          -8.223
REMARK INTER:                  -8.144
REMARK INTRA:                  -0.079
REMARK UNBOUND:                -0.079
REMARK SMILES C=C(C)[C@@H]1CC[C@@]2(C(=O)[O-])CC[C@]3(C)[C@@H](CC[C@@H]4[C@@]5(C)CCC(=O)C(C)(C)[C@H]5CC[C@]43C)[C@H]12
REMARK SMILES IDX 7 1 6 2 33 3 11 4 5 5 15 6 4 7 12 8 16 9 13 10 17 11 31 12
REMARK SMILES IDX 14 13 18 14 30 15 32 16 19 17 29 18 21 19 20 20 28 21 22 22
REMARK SMILES IDX 25 23 23 24 26 25 27 26 24 27 8 28 9 29 10 30 2 31 3 32 1 33
REMARK H PARENT
REMARK Flexibility Score: inf
ROOT
ATOM      1  C   UNL     1      51.430  30.150  21.549  1.00  0.00     0.014 C 
ATOM      2  C   UNL     1      50.597  31.374  21.988  1.00  0.00     0.014 C 
ATOM      3  C   UNL     1      50.504  29.582  20.459  1.00  0.00     0.012 C 
ATOM      4  C   UNL     1      51.649  29.102  22.681  1.00  0.00     0.014 C 
ATOM      5  C   UNL     1      50.066  31.977  20.677  1.00  0.00     0.009 C 
ATOM      6  C   UNL     1      51.024  28.282  19.774  1.00  0.00     0.000 C 
ATOM      7  C   UNL     1      49.902  30.794  19.697  1.00  0.00     0.018 C 
ATOM      8  C   UNL     1      51.124  27.674  22.360  1.00  0.00     0.008 C 
ATOM      9  C   UNL     1      50.021  27.853  18.669  1.00  0.00     0.005 C 
ATOM     10  C   UNL     1      51.362  27.154  20.878  1.00  0.00    -0.024 C 
ATOM     11  C   UNL     1      50.114  26.408  18.146  1.00  0.00     0.005 C 
ATOM     12  C   UNL     1      50.490  25.810  20.617  1.00  0.00    -0.024 C 
ATOM     13  C   UNL     1      52.904  26.868  20.799  1.00  0.00     0.012 C 
ATOM     14  C   UNL     1      50.695  25.347  19.128  1.00  0.00     0.002 C 
ATOM     15  C   UNL     1      50.947  24.638  21.525  1.00  0.00     0.008 C 
ATOM     16  C   UNL     1      48.966  26.075  20.919  1.00  0.00     0.012 C 
ATOM     17  C   UNL     1      50.380  23.788  18.787  1.00  0.00    -0.025 C 
ATOM     18  C   UNL     1      50.147  23.342  21.337  1.00  0.00     0.006 C 
ATOM     19  C   UNL     1      51.729  23.001  18.655  1.00  0.00     0.015 C 
ATOM     20  C   UNL     1      49.664  23.693  17.404  1.00  0.00     0.012 C 
ATOM     21  C   UNL     1      49.528  23.084  19.924  1.00  0.00     0.008 C 
ATOM     22  C   UNL     1      51.582  21.481  18.445  1.00  0.00     0.077 C 
ATOM     23  C   UNL     1      49.270  21.524  19.723  1.00  0.00     0.027 C 
ATOM     24  C   UNL     1      50.586  20.838  19.375  1.00  0.00     0.138 C 
ATOM     25  C   UNL     1      48.673  20.893  21.022  1.00  0.00     0.020 C 
ATOM     26  C   UNL     1      48.227  21.226  18.603  1.00  0.00     0.020 C 
ATOM     27  O   UNL     1      50.791  19.689  19.737  1.00  0.00    -0.299 OA
ENDROOT
BRANCH   1  28
ATOM     28  C   UNL     1      52.789  30.645  21.038  1.00  0.00     0.048 C 
ATOM     29  O   UNL     1      53.372  30.079  20.076  1.00  0.00    -0.550 OA
ATOM     30  O   UNL     1      53.437  31.714  21.658  1.00  0.00    -0.550 OA
ENDBRANCH   1  28
BRANCH   7  31
ATOM     31  C   UNL     1      50.407  31.091  18.279  1.00  0.00    -0.077 C 
ATOM     32  C   UNL     1      49.526  30.759  17.094  1.00  0.00     0.039 C 
ATOM     33  C   UNL     1      51.556  31.737  18.030  1.00  0.00     0.008 C 
ENDBRANCH   7  31
TORSDOF 2
ENDMDL
MODEL 2
REMARK VINA RESULT:    -6.675      3.344      7.423
REMARK INTER + INTRA:          -7.534
REMARK INTER:                  -7.427
REMARK INTRA:                  -0.107
REMARK UNBOUND:                -0.079
REMARK SMILES C=C(C)[C@@H]1CC[C@@]2(C(=O)[O-])CC[C@]3(C)[C@@H](CC[C@@H]4[C@@]5(C)CCC(=O)C(C)(C)[C@H]5CC[C@]43C)[C@H]12
REMARK SMILES IDX 7 1 6 2 33 3 11 4 5 5 15 6 4 7 12 8 16 9 13 10 17 11 31 12
REMARK SMILES IDX 14 13 18 14 30 15 32 16 19 17 29 18 21 19 20 20 28 21 22 22
REMARK SMILES IDX 25 23 23 24 26 25 27 26 24 27 8 28 9 29 10 30 2 31 3 32 1 33
REMARK H PARENT
REMARK Flexibility Score: inf
ROOT
ATOM      1  C   UNL     1      51.101  26.742  17.323  1.00  0.00     0.014 C 
ATOM      2  C   UNL     1      50.812  25.989  16.007  1.00  0.00     0.014 C 
ATOM      3  C   UNL     1      50.117  26.020  18.260  1.00  0.00     0.012 C 
ATOM      4  C   UNL     1      50.776  28.265  17.259  1.00  0.00     0.014 C 
ATOM      5  C   UNL     1      50.686  24.513  16.420  1.00  0.00     0.009 C 
ATOM      6  C   UNL     1      50.111  26.541  19.728  1.00  0.00     0.000 C 
ATOM      7  C   UNL     1      50.132  24.518  17.862  1.00  0.00     0.018 C 
ATOM      8  C   UNL     1      49.739  28.757  18.308  1.00  0.00     0.008 C 
ATOM      9  C   UNL     1      49.115  25.693  20.566  1.00  0.00     0.005 C 
ATOM     10  C   UNL     1      49.863  28.135  19.765  1.00  0.00    -0.024 C 
ATOM     11  C   UNL     1      48.649  26.270  21.914  1.00  0.00     0.005 C 
ATOM     12  C   UNL     1      48.540  28.496  20.634  1.00  0.00    -0.024 C 
ATOM     13  C   UNL     1      51.152  28.797  20.371  1.00  0.00     0.012 C 
ATOM     14  C   UNL     1      48.659  27.822  22.050  1.00  0.00     0.002 C 
ATOM     15  C   UNL     1      48.400  30.023  20.867  1.00  0.00     0.008 C 
ATOM     16  C   UNL     1      47.241  28.009  19.886  1.00  0.00     0.012 C 
ATOM     17  C   UNL     1      47.761  28.455  23.250  1.00  0.00    -0.025 C 
ATOM     18  C   UNL     1      47.156  30.428  21.670  1.00  0.00     0.006 C 
ATOM     19  C   UNL     1      48.673  29.328  24.178  1.00  0.00     0.015 C 
ATOM     20  C   UNL     1      47.186  27.304  24.132  1.00  0.00     0.012 C 
ATOM     21  C   UNL     1      46.604  29.392  22.703  1.00  0.00     0.008 C 
ATOM     22  C   UNL     1      47.932  30.086  25.298  1.00  0.00     0.077 C 
ATOM     23  C   UNL     1      45.745  30.144  23.816  1.00  0.00     0.027 C 
ATOM     24  C   UNL     1      46.687  30.791  24.826  1.00  0.00     0.138 C 
ATOM     25  C   UNL     1      44.837  31.237  23.166  1.00  0.00     0.020 C 
ATOM     26  C   UNL     1      44.768  29.189  24.568  1.00  0.00     0.020 C 
ATOM     27  O   UNL     1      46.371  31.836  25.374  1.00  0.00    -0.299 OA
ENDROOT
BRANCH   1  28
ATOM     28  C   UNL     1      52.581  26.549  17.679  1.00  0.00     0.048 C 
ATOM     29  O   UNL     1      53.024  26.851  18.819  1.00  0.00    -0.550 OA
ATOM     30  O   UNL     1      53.486  26.071  16.731  1.00  0.00    -0.550 OA
ENDBRANCH   1  28
BRANCH   7  31
ATOM     31  C   UNL     1      50.829  23.521  18.796  1.00  0.00    -0.077 C 
ATOM     32  C   UNL     1      50.041  22.357  19.359  1.00  0.00     0.039 C 
ATOM     33  C   UNL     1      52.144  23.559  19.060  1.00  0.00     0.008 C 
ENDBRANCH   7  31
TORSDOF 2
ENDMDL
MODEL 3
REMARK VINA RESULT:    -6.385      3.709      7.759
REMARK INTER + INTRA:          -7.211
REMARK INTER:                  -7.310
REMARK INTRA:                   0.100
REMARK UNBOUND:                -0.079
REMARK SMILES C=C(C)[C@@H]1CC[C@@]2(C(=O)[O-])CC[C@]3(C)[C@@H](CC[C@@H]4[C@@]5(C)CCC(=O)C(C)(C)[C@H]5CC[C@]43C)[C@H]12
REMARK SMILES IDX 7 1 6 2 33 3 11 4 5 5 15 6 4 7 12 8 16 9 13 10 17 11 31 12
REMARK SMILES IDX 14 13 18 14 30 15 32 16 19 17 29 18 21 19 20 20 28 21 22 22
REMARK SMILES IDX 25 23 23 24 26 25 27 26 24 27 8 28 9 29 10 30 2 31 3 32 1 33
REMARK H PARENT
REMARK Flexibility Score: inf
ROOT
ATOM      1  C   UNL     1      50.083  26.228  20.913  1.00  0.00     0.014 C 
ATOM      2  C   UNL     1      50.465  25.458  22.195  1.00  0.00     0.014 C 
ATOM      3  C   UNL     1      51.069  25.587  19.920  1.00  0.00     0.012 C 
ATOM      4  C   UNL     1      50.324  27.765  21.008  1.00  0.00     0.014 C 
ATOM      5  C   UNL     1      50.658  24.003  21.737  1.00  0.00     0.009 C 
ATOM      6  C   UNL     1      50.988  26.146  18.467  1.00  0.00     0.000 C 
ATOM      7  C   UNL     1      51.154  24.077  20.276  1.00  0.00     0.018 C 
ATOM      8  C   UNL     1      51.290  28.341  19.934  1.00  0.00     0.008 C 
ATOM      9  C   UNL     1      51.997  25.378  17.570  1.00  0.00     0.005 C 
ATOM     10  C   UNL     1      51.145  27.751  18.467  1.00  0.00    -0.024 C 
ATOM     11  C   UNL     1      52.377  26.015  16.222  1.00  0.00     0.005 C 
ATOM     12  C   UNL     1      52.410  28.209  17.559  1.00  0.00    -0.024 C 
ATOM     13  C   UNL     1      49.798  28.353  17.928  1.00  0.00     0.012 C 
ATOM     14  C   UNL     1      52.274  27.567  16.130  1.00  0.00     0.002 C 
ATOM     15  C   UNL     1      52.456  29.748  17.363  1.00  0.00     0.008 C 
ATOM     16  C   UNL     1      53.763  27.779  18.243  1.00  0.00     0.012 C 
ATOM     17  C   UNL     1      53.088  28.281  14.915  1.00  0.00    -0.025 C 
ATOM     18  C   UNL     1      53.643  30.244  16.526  1.00  0.00     0.006 C 
ATOM     19  C   UNL     1      52.093  29.123  14.046  1.00  0.00     0.015 C 
ATOM     20  C   UNL     1      53.692  27.187  13.981  1.00  0.00     0.012 C 
ATOM     21  C   UNL     1      54.211  29.268  15.444  1.00  0.00     0.008 C 
ATOM     22  C   UNL     1      52.746  29.951  12.922  1.00  0.00     0.077 C 
ATOM     23  C   UNL     1      54.982  30.096  14.321  1.00  0.00     0.027 C 
ATOM     24  C   UNL     1      53.967  30.714  13.366  1.00  0.00     0.138 C 
ATOM     25  C   UNL     1      55.853  31.222  14.968  1.00  0.00     0.020 C 
ATOM     26  C   UNL     1      55.981  29.218  13.507  1.00  0.00     0.020 C 
ATOM     27  O   UNL     1      54.202  31.789  12.836  1.00  0.00    -0.299 OA
ENDROOT
BRANCH   1  28
ATOM     28  C   UNL     1      48.604  25.959  20.607  1.00  0.00     0.048 C 
ATOM     29  O   UNL     1      48.020  26.529  19.647  1.00  0.00    -0.550 OA
ATOM     30  O   UNL     1      47.852  25.105  21.415  1.00  0.00    -0.550 OA
ENDBRANCH   1  28
BRANCH   7  31
ATOM     31  C   UNL     1      50.478  23.066  19.341  1.00  0.00    -0.077 C 
ATOM     32  C   UNL     1      51.330  22.244  18.398  1.00  0.00     0.039 C 
ATOM     33  C   UNL     1      49.167  22.786  19.389  1.00  0.00     0.008 C 
ENDBRANCH   7  31
TORSDOF 2
ENDMDL
MODEL 4
REMARK VINA RESULT:    -6.298      8.187     12.238
REMARK INTER + INTRA:          -7.114
REMARK INTER:                  -6.982
REMARK INTRA:                  -0.132
REMARK UNBOUND:                -0.079
REMARK SMILES C=C(C)[C@@H]1CC[C@@]2(C(=O)[O-])CC[C@]3(C)[C@@H](CC[C@@H]4[C@@]5(C)CCC(=O)C(C)(C)[C@H]5CC[C@]43C)[C@H]12
REMARK SMILES IDX 7 1 6 2 33 3 11 4 5 5 15 6 4 7 12 8 16 9 13 10 17 11 31 12
REMARK SMILES IDX 14 13 18 14 30 15 32 16 19 17 29 18 21 19 20 20 28 21 22 22
REMARK SMILES IDX 25 23 23 24 26 25 27 26 24 27 8 28 9 29 10 30 2 31 3 32 1 33
REMARK H PARENT
REMARK Flexibility Score: inf
ROOT
ATOM      1  C   UNL     1      40.129  23.130  24.488  1.00  0.00     0.014 C 
ATOM      2  C   UNL     1      40.505  21.995  25.465  1.00  0.00     0.014 C 
ATOM      3  C   UNL     1      41.518  23.444  23.906  1.00  0.00     0.012 C 
ATOM      4  C   UNL     1      39.532  24.388  25.187  1.00  0.00     0.014 C 
ATOM      5  C   UNL     1      41.512  21.128  24.691  1.00  0.00     0.009 C 
ATOM      6  C   UNL     1      41.541  24.596  22.856  1.00  0.00     0.000 C 
ATOM      7  C   UNL     1      42.257  22.088  23.737  1.00  0.00     0.018 C 
ATOM      8  C   UNL     1      40.313  25.708  24.934  1.00  0.00     0.008 C 
ATOM      9  C   UNL     1      42.988  24.768  22.321  1.00  0.00     0.005 C 
ATOM     10  C   UNL     1      40.863  25.929  23.460  1.00  0.00    -0.024 C 
ATOM     11  C   UNL     1      43.325  26.082  21.593  1.00  0.00     0.005 C 
ATOM     12  C   UNL     1      41.909  27.170  23.441  1.00  0.00    -0.024 C 
ATOM     13  C   UNL     1      39.585  26.236  22.601  1.00  0.00     0.012 C 
ATOM     14  C   UNL     1      42.484  27.333  21.986  1.00  0.00     0.002 C 
ATOM     15  C   UNL     1      41.223  28.512  23.811  1.00  0.00     0.008 C 
ATOM     16  C   UNL     1      43.069  26.928  24.480  1.00  0.00     0.012 C 
ATOM     17  C   UNL     1      43.106  28.783  21.593  1.00  0.00    -0.025 C 
ATOM     18  C   UNL     1      42.167  29.722  23.828  1.00  0.00     0.006 C 
ATOM     19  C   UNL     1      42.082  29.565  20.701  1.00  0.00     0.015 C 
ATOM     20  C   UNL     1      44.393  28.581  20.734  1.00  0.00     0.012 C 
ATOM     21  C   UNL     1      43.403  29.676  22.870  1.00  0.00     0.008 C 
ATOM     22  C   UNL     1      42.491  31.008  20.346  1.00  0.00     0.077 C 
ATOM     23  C   UNL     1      43.909  31.157  22.570  1.00  0.00     0.027 C 
ATOM     24  C   UNL     1      43.004  31.796  21.524  1.00  0.00     0.138 C 
ATOM     25  C   UNL     1      43.898  32.017  23.875  1.00  0.00     0.020 C 
ATOM     26  C   UNL     1      45.383  31.197  22.063  1.00  0.00     0.020 C 
ATOM     27  O   UNL     1      42.792  32.999  21.551  1.00  0.00    -0.299 OA
ENDROOT
BRANCH   1  28
ATOM     28  C   UNL     1      39.120  22.580  23.472  1.00  0.00     0.048 C 
ATOM     29  O   UNL     1      38.956  23.131  22.350  1.00  0.00    -0.550 OA
ATOM     30  O   UNL     1      38.324  21.477  23.781  1.00  0.00    -0.550 OA
ENDBRANCH   1  28
BRANCH   7  31
ATOM     31  C   UNL     1      42.445  21.529  22.321  1.00  0.00    -0.077 C 
ATOM     32  C   UNL     1      43.843  21.396  21.756  1.00  0.00     0.039 C 
ATOM     33  C   UNL     1      41.435  21.042  21.585  1.00  0.00     0.008 C 
ENDBRANCH   7  31
TORSDOF 2
ENDMDL
MODEL 5
REMARK VINA RESULT:    -6.223      2.429      4.476
REMARK INTER + INTRA:          -7.029
REMARK INTER:                  -6.915
REMARK INTRA:                  -0.115
REMARK UNBOUND:                -0.079
REMARK SMILES C=C(C)[C@@H]1CC[C@@]2(C(=O)[O-])CC[C@]3(C)[C@@H](CC[C@@H]4[C@@]5(C)CCC(=O)C(C)(C)[C@H]5CC[C@]43C)[C@H]12
REMARK SMILES IDX 7 1 6 2 33 3 11 4 5 5 15 6 4 7 12 8 16 9 13 10 17 11 31 12
REMARK SMILES IDX 14 13 18 14 30 15 32 16 19 17 29 18 21 19 20 20 28 21 22 22
REMARK SMILES IDX 25 23 23 24 26 25 27 26 24 27 8 28 9 29 10 30 2 31 3 32 1 33
REMARK H PARENT
REMARK Flexibility Score: inf
ROOT
ATOM      1  C   UNL     1      49.439  31.800  23.326  1.00  0.00     0.014 C 
ATOM      2  C   UNL     1      49.862  33.265  23.082  1.00  0.00     0.014 C 
ATOM      3  C   UNL     1      50.742  31.083  22.929  1.00  0.00     0.012 C 
ATOM      4  C   UNL     1      48.259  31.329  22.424  1.00  0.00     0.014 C 
ATOM      5  C   UNL     1      51.294  33.358  23.636  1.00  0.00     0.009 C 
ATOM      6  C   UNL     1      50.689  29.529  23.033  1.00  0.00     0.000 C 
ATOM      7  C   UNL     1      51.917  31.957  23.446  1.00  0.00     0.018 C 
ATOM      8  C   UNL     1      48.573  30.098  21.527  1.00  0.00     0.008 C 
ATOM      9  C   UNL     1      52.077  28.946  22.653  1.00  0.00     0.005 C 
ATOM     10  C   UNL     1      49.441  28.945  22.193  1.00  0.00    -0.024 C 
ATOM     11  C   UNL     1      52.147  27.450  22.298  1.00  0.00     0.005 C 
ATOM     12  C   UNL     1      49.945  27.905  21.054  1.00  0.00    -0.024 C 
ATOM     13  C   UNL     1      48.468  28.257  23.217  1.00  0.00     0.012 C 
ATOM     14  C   UNL     1      50.848  26.807  21.727  1.00  0.00     0.002 C 
ATOM     15  C   UNL     1      48.759  27.166  20.379  1.00  0.00     0.008 C 
ATOM     16  C   UNL     1      50.734  28.667  19.923  1.00  0.00     0.012 C 
ATOM     17  C   UNL     1      51.020  25.399  20.931  1.00  0.00    -0.025 C 
ATOM     18  C   UNL     1      49.172  26.180  19.278  1.00  0.00     0.006 C 
ATOM     19  C   UNL     1      50.119  24.307  21.603  1.00  0.00     0.015 C 
ATOM     20  C   UNL     1      52.496  24.908  21.056  1.00  0.00     0.012 C 
ATOM     21  C   UNL     1      50.579  25.510  19.412  1.00  0.00     0.008 C 
ATOM     22  C   UNL     1      50.092  22.945  20.882  1.00  0.00     0.077 C 
ATOM     23  C   UNL     1      50.609  24.147  18.586  1.00  0.00     0.027 C 
ATOM     24  C   UNL     1      49.910  23.057  19.390  1.00  0.00     0.138 C 
ATOM     25  C   UNL     1      49.898  24.323  17.205  1.00  0.00     0.020 C 
ATOM     26  C   UNL     1      52.058  23.681  18.247  1.00  0.00     0.020 C 
ATOM     27  O   UNL     1      49.298  22.169  18.814  1.00  0.00    -0.299 OA
ENDROOT
BRANCH   1  28
ATOM     28  C   UNL     1      49.050  31.646  24.802  1.00  0.00     0.048 C 
ATOM     29  O   UNL     1      49.188  30.548  25.404  1.00  0.00    -0.550 OA
ATOM     30  O   UNL     1      48.491  32.712  25.507  1.00  0.00    -0.550 OA
ENDBRANCH   1  28
BRANCH   7  31
ATOM     31  C   UNL     1      52.715  31.466  24.661  1.00  0.00    -0.077 C 
ATOM     32  C   UNL     1      54.094  30.877  24.453  1.00  0.00     0.039 C 
ATOM     33  C   UNL     1      52.300  31.630  25.926  1.00  0.00     0.008 C 
ENDBRANCH   7  31
TORSDOF 2
ENDMDL
MODEL 6
REMARK VINA RESULT:    -6.219      4.577      6.996
REMARK INTER + INTRA:          -7.025
REMARK INTER:                  -6.954
REMARK INTRA:                  -0.071
REMARK UNBOUND:                -0.079
REMARK SMILES C=C(C)[C@@H]1CC[C@@]2(C(=O)[O-])CC[C@]3(C)[C@@H](CC[C@@H]4[C@@]5(C)CCC(=O)C(C)(C)[C@H]5CC[C@]43C)[C@H]12
REMARK SMILES IDX 7 1 6 2 33 3 11 4 5 5 15 6 4 7 12 8 16 9 13 10 17 11 31 12
REMARK SMILES IDX 14 13 18 14 30 15 32 16 19 17 29 18 21 19 20 20 28 21 22 22
REMARK SMILES IDX 25 23 23 24 26 25 27 26 24 27 8 28 9 29 10 30 2 31 3 32 1 33
REMARK H PARENT
REMARK Flexibility Score: inf
ROOT
ATOM      1  C   UNL     1      51.157  25.685  20.658  1.00  0.00     0.014 C 
ATOM      2  C   UNL     1      52.592  26.253  20.684  1.00  0.00     0.014 C 
ATOM      3  C   UNL     1      50.412  26.886  20.048  1.00  0.00     0.012 C 
ATOM      4  C   UNL     1      50.590  25.349  22.070  1.00  0.00     0.014 C 
ATOM      5  C   UNL     1      52.749  26.983  19.339  1.00  0.00     0.009 C 
ATOM      6  C   UNL     1      48.875  26.683  19.880  1.00  0.00     0.000 C 
ATOM      7  C   UNL     1      51.341  27.493  18.962  1.00  0.00     0.018 C 
ATOM      8  C   UNL     1      49.277  26.095  22.441  1.00  0.00     0.008 C 
ATOM      9  C   UNL     1      48.266  27.946  19.212  1.00  0.00     0.005 C 
ATOM     10  C   UNL     1      48.203  26.248  21.280  1.00  0.00    -0.024 C 
ATOM     11  C   UNL     1      46.742  28.138  19.314  1.00  0.00     0.005 C 
ATOM     12  C   UNL     1      47.055  27.307  21.725  1.00  0.00    -0.024 C 
ATOM     13  C   UNL     1      47.615  24.804  21.089  1.00  0.00     0.012 C 
ATOM     14  C   UNL     1      46.037  27.486  20.540  1.00  0.00     0.002 C 
ATOM     15  C   UNL     1      46.245  26.803  22.949  1.00  0.00     0.008 C 
ATOM     16  C   UNL     1      47.705  28.686  22.123  1.00  0.00     0.012 C 
ATOM     17  C   UNL     1      44.556  28.047  20.914  1.00  0.00    -0.025 C 
ATOM     18  C   UNL     1      45.155  27.771  23.428  1.00  0.00     0.006 C 
ATOM     19  C   UNL     1      43.533  26.861  20.909  1.00  0.00     0.015 C 
ATOM     20  C   UNL     1      44.090  29.053  19.816  1.00  0.00     0.012 C 
ATOM     21  C   UNL     1      44.511  28.708  22.355  1.00  0.00     0.008 C 
ATOM     22  C   UNL     1      42.105  27.227  21.359  1.00  0.00     0.077 C 
ATOM     23  C   UNL     1      43.072  29.184  22.847  1.00  0.00     0.027 C 
ATOM     24  C   UNL     1      42.064  28.065  22.611  1.00  0.00     0.138 C 
ATOM     25  C   UNL     1      43.103  29.555  24.366  1.00  0.00     0.020 C 
ATOM     26  C   UNL     1      42.583  30.474  22.119  1.00  0.00     0.020 C 
ATOM     27  O   UNL     1      41.119  27.922  23.372  1.00  0.00    -0.299 OA
ENDROOT
BRANCH   1  28
ATOM     28  C   UNL     1      51.151  24.422  19.789  1.00  0.00     0.048 C 
ATOM     29  O   UNL     1      50.076  23.946  19.333  1.00  0.00    -0.550 OA
ATOM     30  O   UNL     1      52.335  23.738  19.514  1.00  0.00    -0.550 OA
ENDBRANCH   1  28
BRANCH   7  31
ATOM     31  C   UNL     1      50.980  27.278  17.486  1.00  0.00    -0.077 C 
ATOM     32  C   UNL     1      50.857  28.477  16.571  1.00  0.00     0.039 C 
ATOM     33  C   UNL     1      50.871  26.063  16.928  1.00  0.00     0.008 C 
ENDBRANCH   7  31
TORSDOF 2
ENDMDL
MODEL 7
REMARK VINA RESULT:    -6.216      2.735      8.086
REMARK INTER + INTRA:          -7.022
REMARK INTER:                  -7.662
REMARK INTRA:                   0.641
REMARK UNBOUND:                -0.079
REMARK SMILES C=C(C)[C@@H]1CC[C@@]2(C(=O)[O-])CC[C@]3(C)[C@@H](CC[C@@H]4[C@@]5(C)CCC(=O)C(C)(C)[C@H]5CC[C@]43C)[C@H]12
REMARK SMILES IDX 7 1 6 2 33 3 11 4 5 5 15 6 4 7 12 8 16 9 13 10 17 11 31 12
REMARK SMILES IDX 14 13 18 14 30 15 32 16 19 17 29 18 21 19 20 20 28 21 22 22
REMARK SMILES IDX 25 23 23 24 26 25 27 26 24 27 8 28 9 29 10 30 2 31 3 32 1 33
REMARK H PARENT
REMARK Flexibility Score: inf
ROOT
ATOM      1  C   UNL     1      49.621  25.974  21.100  1.00  0.00     0.014 C 
ATOM      2  C   UNL     1      50.289  24.944  22.037  1.00  0.00     0.014 C 
ATOM      3  C   UNL     1      50.561  25.871  19.886  1.00  0.00     0.012 C 
ATOM      4  C   UNL     1      49.616  27.426  21.667  1.00  0.00     0.014 C 
ATOM      5  C   UNL     1      50.658  23.763  21.122  1.00  0.00     0.009 C 
ATOM      6  C   UNL     1      50.200  26.815  18.700  1.00  0.00     0.000 C 
ATOM      7  C   UNL     1      50.940  24.372  19.731  1.00  0.00     0.018 C 
ATOM      8  C   UNL     1      50.325  28.479  20.769  1.00  0.00     0.008 C 
ATOM      9  C   UNL     1      51.196  26.570  17.533  1.00  0.00     0.005 C 
ATOM     10  C   UNL     1      50.088  28.344  19.204  1.00  0.00    -0.024 C 
ATOM     11  C   UNL     1      51.286  27.647  16.438  1.00  0.00     0.005 C 
ATOM     12  C   UNL     1      51.131  29.295  18.403  1.00  0.00    -0.024 C 
ATOM     13  C   UNL     1      48.602  28.802  18.986  1.00  0.00     0.012 C 
ATOM     14  C   UNL     1      50.918  29.101  16.857  1.00  0.00     0.002 C 
ATOM     15  C   UNL     1      50.897  30.798  18.709  1.00  0.00     0.008 C 
ATOM     16  C   UNL     1      52.614  28.954  18.814  1.00  0.00     0.012 C 
ATOM     17  C   UNL     1      51.437  30.295  15.881  1.00  0.00    -0.025 C 
ATOM     18  C   UNL     1      51.866  31.749  17.993  1.00  0.00     0.006 C 
ATOM     19  C   UNL     1      50.212  31.147  15.403  1.00  0.00     0.015 C 
ATOM     20  C   UNL     1      52.085  29.678  14.604  1.00  0.00     0.012 C 
ATOM     21  C   UNL     1      52.441  31.278  16.617  1.00  0.00     0.008 C 
ATOM     22  C   UNL     1      50.566  32.388  14.560  1.00  0.00     0.077 C 
ATOM     23  C   UNL     1      52.911  32.542  15.767  1.00  0.00     0.027 C 
ATOM     24  C   UNL     1      51.692  33.206  15.137  1.00  0.00     0.138 C 
ATOM     25  C   UNL     1      53.661  33.569  16.677  1.00  0.00     0.020 C 
ATOM     26  C   UNL     1      53.926  32.167  14.645  1.00  0.00     0.020 C 
ATOM     27  O   UNL     1      51.675  34.416  14.965  1.00  0.00    -0.299 OA
ENDROOT
BRANCH   1  28
ATOM     28  C   UNL     1      48.180  25.523  20.832  1.00  0.00     0.048 C 
ATOM     29  O   UNL     1      47.317  26.323  20.382  1.00  0.00    -0.550 OA
ATOM     30  O   UNL     1      47.774  24.220  21.121  1.00  0.00    -0.550 OA
ENDBRANCH   1  28
BRANCH   7  31
ATOM     31  C   UNL     1      50.324  23.578  18.572  1.00  0.00    -0.077 C 
ATOM     32  C   UNL     1      50.917  23.710  17.186  1.00  0.00     0.039 C 
ATOM     33  C   UNL     1      49.344  22.678  18.740  1.00  0.00     0.008 C 
ENDBRANCH   7  31
TORSDOF 2
ENDMDL
MODEL 8
REMARK VINA RESULT:    -6.213      9.346     10.837
REMARK INTER + INTRA:          -7.018
REMARK INTER:                  -6.937
REMARK INTRA:                  -0.082
REMARK UNBOUND:                -0.079
REMARK SMILES C=C(C)[C@@H]1CC[C@@]2(C(=O)[O-])CC[C@]3(C)[C@@H](CC[C@@H]4[C@@]5(C)CCC(=O)C(C)(C)[C@H]5CC[C@]43C)[C@H]12
REMARK SMILES IDX 7 1 6 2 33 3 11 4 5 5 15 6 4 7 12 8 16 9 13 10 17 11 31 12
REMARK SMILES IDX 14 13 18 14 30 15 32 16 19 17 29 18 21 19 20 20 28 21 22 22
REMARK SMILES IDX 25 23 23 24 26 25 27 26 24 27 8 28 9 29 10 30 2 31 3 32 1 33
REMARK H PARENT
REMARK Flexibility Score: inf
ROOT
ATOM      1  C   UNL     1      40.606  30.837  22.507  1.00  0.00     0.014 C 
ATOM      2  C   UNL     1      40.535  31.476  21.103  1.00  0.00     0.014 C 
ATOM      3  C   UNL     1      41.547  29.656  22.209  1.00  0.00     0.012 C 
ATOM      4  C   UNL     1      39.232  30.322  23.033  1.00  0.00     0.014 C 
ATOM      5  C   UNL     1      41.978  31.423  20.574  1.00  0.00     0.009 C 
ATOM      6  C   UNL     1      41.848  28.737  23.431  1.00  0.00     0.000 C 
ATOM      7  C   UNL     1      42.621  30.172  21.212  1.00  0.00     0.018 C 
ATOM      8  C   UNL     1      39.192  28.807  23.379  1.00  0.00     0.008 C 
ATOM      9  C   UNL     1      42.843  27.625  22.998  1.00  0.00     0.005 C 
ATOM     10  C   UNL     1      40.477  28.216  24.102  1.00  0.00    -0.024 C 
ATOM     11  C   UNL     1      42.967  26.390  23.908  1.00  0.00     0.005 C 
ATOM     12  C   UNL     1      40.413  26.594  24.103  1.00  0.00    -0.024 C 
ATOM     13  C   UNL     1      40.417  28.798  25.559  1.00  0.00     0.012 C 
ATOM     14  C   UNL     1      41.721  26.030  24.770  1.00  0.00     0.002 C 
ATOM     15  C   UNL     1      39.215  26.062  24.932  1.00  0.00     0.008 C 
ATOM     16  C   UNL     1      40.251  26.049  22.633  1.00  0.00     0.012 C 
ATOM     17  C   UNL     1      41.657  24.517  25.364  1.00  0.00    -0.025 C 
ATOM     18  C   UNL     1      39.091  24.532  24.956  1.00  0.00     0.006 C 
ATOM     19  C   UNL     1      41.526  24.575  26.924  1.00  0.00     0.015 C 
ATOM     20  C   UNL     1      42.995  23.778  25.050  1.00  0.00     0.012 C 
ATOM     21  C   UNL     1      40.411  23.707  24.812  1.00  0.00     0.008 C 
ATOM     22  C   UNL     1      41.339  23.211  27.617  1.00  0.00     0.077 C 
ATOM     23  C   UNL     1      40.209  22.252  25.430  1.00  0.00     0.027 C 
ATOM     24  C   UNL     1      40.314  22.331  26.948  1.00  0.00     0.138 C 
ATOM     25  C   UNL     1      38.815  21.671  25.026  1.00  0.00     0.020 C 
ATOM     26  C   UNL     1      41.254  21.223  24.899  1.00  0.00     0.020 C 
ATOM     27  O   UNL     1      39.657  21.574  27.647  1.00  0.00    -0.299 OA
ENDROOT
BRANCH   1  28
ATOM     28  C   UNL     1      41.174  31.874  23.484  1.00  0.00     0.048 C 
ATOM     29  O   UNL     1      41.857  31.526  24.484  1.00  0.00    -0.550 OA
ATOM     30  O   UNL     1      40.910  33.233  23.314  1.00  0.00    -0.550 OA
ENDBRANCH   1  28
BRANCH   7  31
ATOM     31  C   UNL     1      44.046  30.406  21.730  1.00  0.00    -0.077 C 
ATOM     32  C   UNL     1      45.106  29.353  21.485  1.00  0.00     0.039 C 
ATOM     33  C   UNL     1      44.440  31.555  22.300  1.00  0.00     0.008 C 
ENDBRANCH   7  31
TORSDOF 2
ENDMDL
MODEL 9
REMARK VINA RESULT:    -6.069      9.167     10.407
REMARK INTER + INTRA:          -6.857
REMARK INTER:                  -6.723
REMARK INTRA:                  -0.134
REMARK UNBOUND:                -0.079
REMARK SMILES C=C(C)[C@@H]1CC[C@@]2(C(=O)[O-])CC[C@]3(C)[C@@H](CC[C@@H]4[C@@]5(C)CCC(=O)C(C)(C)[C@H]5CC[C@]43C)[C@H]12
REMARK SMILES IDX 7 1 6 2 33 3 11 4 5 5 15 6 4 7 12 8 16 9 13 10 17 11 31 12
REMARK SMILES IDX 14 13 18 14 30 15 32 16 19 17 29 18 21 19 20 20 28 21 22 22
REMARK SMILES IDX 25 23 23 24 26 25 27 26 24 27 8 28 9 29 10 30 2 31 3 32 1 33
REMARK H PARENT
REMARK Flexibility Score: inf
ROOT
ATOM      1  C   UNL     1      41.641  32.700  24.642  1.00  0.00     0.014 C 
ATOM      2  C   UNL     1      40.873  34.002  24.333  1.00  0.00     0.014 C 
ATOM      3  C   UNL     1      41.313  31.894  23.373  1.00  0.00     0.012 C 
ATOM      4  C   UNL     1      41.127  31.955  25.911  1.00  0.00     0.014 C 
ATOM      5  C   UNL     1      41.148  34.276  22.844  1.00  0.00     0.009 C 
ATOM      6  C   UNL     1      41.924  30.462  23.332  1.00  0.00     0.000 C 
ATOM      7  C   UNL     1      41.336  32.893  22.183  1.00  0.00     0.018 C 
ATOM      8  C   UNL     1      40.646  30.498  25.662  1.00  0.00     0.008 C 
ATOM      9  C   UNL     1      41.555  29.789  21.982  1.00  0.00     0.005 C 
ATOM     10  C   UNL     1      41.516  29.631  24.654  1.00  0.00    -0.024 C 
ATOM     11  C   UNL     1      41.701  28.260  21.887  1.00  0.00     0.005 C 
ATOM     12  C   UNL     1      40.717  28.274  24.261  1.00  0.00    -0.024 C 
ATOM     13  C   UNL     1      42.840  29.317  25.438  1.00  0.00     0.012 C 
ATOM     14  C   UNL     1      41.570  27.462  23.218  1.00  0.00     0.002 C 
ATOM     15  C   UNL     1      40.503  27.351  25.490  1.00  0.00     0.008 C 
ATOM     16  C   UNL     1      39.296  28.621  23.676  1.00  0.00     0.012 C 
ATOM     17  C   UNL     1      41.262  25.870  23.087  1.00  0.00    -0.025 C 
ATOM     18  C   UNL     1      39.737  26.057  25.184  1.00  0.00     0.006 C 
ATOM     19  C   UNL     1      42.378  25.060  23.830  1.00  0.00     0.015 C 
ATOM     20  C   UNL     1      41.321  25.451  21.586  1.00  0.00     0.012 C 
ATOM     21  C   UNL     1      39.872  25.472  23.740  1.00  0.00     0.008 C 
ATOM     22  C   UNL     1      42.154  23.536  23.887  1.00  0.00     0.077 C 
ATOM     23  C   UNL     1      39.542  23.913  23.756  1.00  0.00     0.027 C 
ATOM     24  C   UNL     1      40.752  23.148  24.281  1.00  0.00     0.138 C 
ATOM     25  C   UNL     1      38.300  23.622  24.660  1.00  0.00     0.020 C 
ATOM     26  C   UNL     1      39.163  23.364  22.346  1.00  0.00     0.020 C 
ATOM     27  O   UNL     1      40.595  22.119  24.921  1.00  0.00    -0.299 OA
ENDROOT
BRANCH   1  28
ATOM     28  C   UNL     1      43.127  33.041  24.815  1.00  0.00     0.048 C 
ATOM     29  O   UNL     1      44.020  32.163  24.678  1.00  0.00    -0.550 OA
ATOM     30  O   UNL     1      43.526  34.330  25.171  1.00  0.00    -0.550 OA
ENDBRANCH   1  28
BRANCH   7  31
ATOM     31  C   UNL     1      42.512  32.832  21.200  1.00  0.00    -0.077 C 
ATOM     32  C   UNL     1      42.261  32.408  19.769  1.00  0.00     0.039 C 
ATOM     33  C   UNL     1      43.751  33.243  21.512  1.00  0.00     0.008 C 
ENDBRANCH   7  31
TORSDOF 2
ENDMDL
