MODEL 1
REMARK VINA RESULT:    -0.508      0.000      0.000
REMARK INTER + INTRA:          -1.657
REMARK INTER:                  -1.162
REMARK INTRA:                  -0.495
REMARK UNBOUND:                -0.495
REMARK SMILES CCCCCCCCCCCCCCCCCCCCCCCC(=O)[O-]
REMARK SMILES IDX 13 1 14 2 15 3 16 4 17 5 18 6 19 7 20 8 21 9 22 10 23 11
REMARK SMILES IDX 24 12 25 13 26 14 12 15 11 16 10 17 9 18 8 19 7 20 6 21 5 22
REMARK SMILES IDX 4 23 3 24 2 25 1 26
REMARK H PARENT
REMARK Flexibility Score: inf
ROOT
ATOM      1  C   UNL     1     -11.180 -17.433  13.264  1.00  0.00     0.000 C 
ENDROOT
BRANCH   1   2
ATOM      2  C   UNL     1     -10.820 -16.201  14.110  1.00  0.00     0.000 C 
BRANCH   2   3
ATOM      3  C   UNL     1      -9.365 -16.224  14.608  1.00  0.00     0.000 C 
BRANCH   3   4
ATOM      4  C   UNL     1      -9.244 -16.767  16.040  1.00  0.00     0.000 C 
BRANCH   4   5
ATOM      5  C   UNL     1      -9.458 -18.289  16.120  1.00  0.00     0.000 C 
BRANCH   5   6
ATOM      6  C   UNL     1     -10.946 -18.675  16.112  1.00  0.00     0.000 C 
BRANCH   6   7
ATOM      7  C   UNL     1     -11.185 -20.084  15.542  1.00  0.00     0.000 C 
BRANCH   7   8
ATOM      8  C   UNL     1      -9.881 -20.876  15.345  1.00  0.00     0.000 C 
BRANCH   8   9
ATOM      9  C   UNL     1     -10.048 -22.409  15.313  1.00  0.00     0.000 C 
BRANCH   9  10
ATOM     10  C   UNL     1     -11.460 -22.908  14.961  1.00  0.00     0.006 C 
BRANCH  10  11
ATOM     11  C   UNL     1     -11.661 -23.121  13.455  1.00  0.00     0.053 C 
BRANCH  11  12
ATOM     12  C   UNL     1     -12.991 -22.590  13.024  1.00  0.00     0.041 C 
ATOM     13  O   UNL     1     -13.401 -22.784  11.848  1.00  0.00    -0.550 OA
ATOM     14  O   UNL     1     -13.790 -21.899  13.927  1.00  0.00    -0.550 OA
ENDBRANCH  11  12
ENDBRANCH  10  11
ENDBRANCH   9  10
ENDBRANCH   8   9
ENDBRANCH   7   8
ENDBRANCH   6   7
ENDBRANCH   5   6
ENDBRANCH   4   5
ENDBRANCH   3   4
ENDBRANCH   2   3
ENDBRANCH   1   2
BRANCH   1  15
ATOM     15  C   UNL     1     -10.112 -17.754  12.204  1.00  0.00     0.000 C 
BRANCH  15  16
ATOM     16  C   UNL     1      -9.684 -19.231  12.228  1.00  0.00     0.000 C 
BRANCH  16  17
ATOM     17  C   UNL     1      -8.246 -19.420  12.735  1.00  0.00     0.000 C 
BRANCH  17  18
ATOM     18  C   UNL     1      -7.875 -20.909  12.794  1.00  0.00    -0.000 C 
BRANCH  18  19
ATOM     19  C   UNL     1      -8.621 -21.757  11.747  1.00  0.00    -0.000 C 
BRANCH  19  20
ATOM     20  C   UNL     1      -8.159 -21.552  10.292  1.00  0.00    -0.000 C 
BRANCH  20  21
ATOM     21  C   UNL     1      -7.886 -20.080   9.950  1.00  0.00    -0.000 C 
BRANCH  21  22
ATOM     22  C   UNL     1      -8.461 -19.718   8.575  1.00  0.00    -0.000 C 
BRANCH  22  23
ATOM     23  C   UNL     1      -9.328 -18.453   8.657  1.00  0.00    -0.000 C 
BRANCH  23  24
ATOM     24  C   UNL     1      -8.626 -17.305   9.400  1.00  0.00    -0.000 C 
BRANCH  24  25
ATOM     25  C   UNL     1      -9.613 -16.264   9.944  1.00  0.00    -0.003 C 
ATOM     26  C   UNL     1     -10.065 -15.310   8.844  1.00  0.00     0.004 C 
ENDBRANCH  24  25
ENDBRANCH  23  24
ENDBRANCH  22  23
ENDBRANCH  21  22
ENDBRANCH  20  21
ENDBRANCH  19  20
ENDBRANCH  18  19
ENDBRANCH  17  18
ENDBRANCH  16  17
ENDBRANCH  15  16
ENDBRANCH   1  15
TORSDOF 22
ENDMDL
MODEL 2
REMARK VINA RESULT:     0.669      4.804      6.391
REMARK INTER + INTRA:           1.034
REMARK INTER:                  -0.285
REMARK INTRA:                   1.318
REMARK UNBOUND:                -0.495
REMARK SMILES CCCCCCCCCCCCCCCCCCCCCCCC(=O)[O-]
REMARK SMILES IDX 13 1 14 2 15 3 16 4 17 5 18 6 19 7 20 8 21 9 22 10 23 11
REMARK SMILES IDX 24 12 25 13 26 14 12 15 11 16 10 17 9 18 8 19 7 20 6 21 5 22
REMARK SMILES IDX 4 23 3 24 2 25 1 26
REMARK H PARENT
REMARK Flexibility Score: inf
ROOT
ATOM      1  C   UNL     1      -9.280 -18.530  10.038  1.00  0.00     0.000 C 
ENDROOT
BRANCH   1   2
ATOM      2  C   UNL     1      -9.206 -17.451   8.944  1.00  0.00     0.000 C 
BRANCH   2   3
ATOM      3  C   UNL     1      -9.763 -16.095   9.406  1.00  0.00     0.000 C 
BRANCH   3   4
ATOM      4  C   UNL     1     -10.246 -16.126  10.865  1.00  0.00     0.000 C 
BRANCH   4   5
ATOM      5  C   UNL     1      -9.526 -17.192  11.708  1.00  0.00     0.000 C 
BRANCH   5   6
ATOM      6  C   UNL     1      -8.948 -16.621  13.012  1.00  0.00     0.000 C 
BRANCH   6   7
ATOM      7  C   UNL     1      -9.838 -16.922  14.231  1.00  0.00     0.000 C 
BRANCH   7   8
ATOM      8  C   UNL     1     -10.304 -18.387  14.282  1.00  0.00     0.000 C 
BRANCH   8   9
ATOM      9  C   UNL     1      -9.368 -19.394  13.582  1.00  0.00     0.000 C 
BRANCH   9  10
ATOM     10  C   UNL     1      -9.672 -20.876  13.862  1.00  0.00     0.006 C 
BRANCH  10  11
ATOM     11  C   UNL     1     -10.067 -21.654  12.600  1.00  0.00     0.053 C 
BRANCH  11  12
ATOM     12  C   UNL     1     -11.427 -22.255  12.762  1.00  0.00     0.041 C 
ATOM     13  O   UNL     1     -11.909 -22.986  11.854  1.00  0.00    -0.550 OA
ATOM     14  O   UNL     1     -12.154 -22.029  13.923  1.00  0.00    -0.550 OA
ENDBRANCH  11  12
ENDBRANCH  10  11
ENDBRANCH   9  10
ENDBRANCH   8   9
ENDBRANCH   7   8
ENDBRANCH   6   7
ENDBRANCH   5   6
ENDBRANCH   4   5
ENDBRANCH   3   4
ENDBRANCH   2   3
ENDBRANCH   1   2
BRANCH   1  15
ATOM     15  C   UNL     1      -8.757 -19.895   9.557  1.00  0.00     0.000 C 
BRANCH  15  16
ATOM     16  C   UNL     1      -7.956 -19.790   8.249  1.00  0.00     0.000 C 
BRANCH  16  17
ATOM     17  C   UNL     1      -8.108 -21.036   7.363  1.00  0.00     0.000 C 
BRANCH  17  18
ATOM     18  C   UNL     1      -7.965 -20.675   5.876  1.00  0.00    -0.000 C 
BRANCH  18  19
ATOM     19  C   UNL     1      -7.879 -21.912   4.963  1.00  0.00    -0.000 C 
BRANCH  19  20
ATOM     20  C   UNL     1      -8.145 -21.641   3.470  1.00  0.00    -0.000 C 
BRANCH  20  21
ATOM     21  C   UNL     1      -7.875 -22.863   2.580  1.00  0.00    -0.000 C 
BRANCH  21  22
ATOM     22  C   UNL     1      -8.992 -23.047   1.545  1.00  0.00    -0.000 C 
BRANCH  22  23
ATOM     23  C   UNL     1      -8.545 -22.553   0.161  1.00  0.00    -0.000 C 
BRANCH  23  24
ATOM     24  C   UNL     1      -9.691 -22.551  -0.863  1.00  0.00    -0.000 C 
BRANCH  24  25
ATOM     25  C   UNL     1      -9.354 -21.743  -2.123  1.00  0.00    -0.003 C 
ATOM     26  C   UNL     1      -9.493 -20.245  -1.867  1.00  0.00     0.004 C 
ENDBRANCH  24  25
ENDBRANCH  23  24
ENDBRANCH  22  23
ENDBRANCH  21  22
ENDBRANCH  20  21
ENDBRANCH  19  20
ENDBRANCH  18  19
ENDBRANCH  17  18
ENDBRANCH  16  17
ENDBRANCH  15  16
ENDBRANCH   1  15
TORSDOF 22
ENDMDL
MODEL 3
REMARK VINA RESULT:     2.168      1.219      2.014
REMARK INTER + INTRA:           4.462
REMARK INTER:                   3.448
REMARK INTRA:                   1.014
REMARK UNBOUND:                -0.495
REMARK SMILES CCCCCCCCCCCCCCCCCCCCCCCC(=O)[O-]
REMARK SMILES IDX 13 1 14 2 15 3 16 4 17 5 18 6 19 7 20 8 21 9 22 10 23 11
REMARK SMILES IDX 24 12 25 13 26 14 12 15 11 16 10 17 9 18 8 19 7 20 6 21 5 22
REMARK SMILES IDX 4 23 3 24 2 25 1 26
REMARK H PARENT
REMARK Flexibility Score: inf
ROOT
ATOM      1  C   UNL     1     -11.129 -17.227  13.385  1.00  0.00     0.000 C 
ENDROOT
BRANCH   1   2
ATOM      2  C   UNL     1     -10.994 -16.281  14.590  1.00  0.00     0.000 C 
BRANCH   2   3
ATOM      3  C   UNL     1     -11.777 -16.768  15.821  1.00  0.00     0.000 C 
BRANCH   3   4
ATOM      4  C   UNL     1     -11.543 -18.259  16.111  1.00  0.00     0.000 C 
BRANCH   4   5
ATOM      5  C   UNL     1     -10.054 -18.643  16.094  1.00  0.00     0.000 C 
BRANCH   5   6
ATOM      6  C   UNL     1      -9.837 -20.164  16.121  1.00  0.00     0.000 C 
BRANCH   6   7
ATOM      7  C   UNL     1      -8.430 -20.567  15.646  1.00  0.00     0.000 C 
BRANCH   7   8
ATOM      8  C   UNL     1      -8.032 -21.984  16.094  1.00  0.00     0.000 C 
BRANCH   8   9
ATOM      9  C   UNL     1      -8.897 -23.119  15.509  1.00  0.00     0.000 C 
BRANCH   9  10
ATOM     10  C   UNL     1     -10.079 -22.660  14.637  1.00  0.00     0.006 C 
BRANCH  10  11
ATOM     11  C   UNL     1     -11.346 -22.368  15.453  1.00  0.00     0.053 C 
BRANCH  11  12
ATOM     12  C   UNL     1     -12.476 -21.994  14.547  1.00  0.00     0.041 C 
ATOM     13  O   UNL     1     -13.467 -21.359  14.999  1.00  0.00    -0.550 OA
ATOM     14  O   UNL     1     -12.426 -22.326  13.199  1.00  0.00    -0.550 OA
ENDBRANCH  11  12
ENDBRANCH  10  11
ENDBRANCH   9  10
ENDBRANCH   8   9
ENDBRANCH   7   8
ENDBRANCH   6   7
ENDBRANCH   5   6
ENDBRANCH   4   5
ENDBRANCH   3   4
ENDBRANCH   2   3
ENDBRANCH   1   2
BRANCH   1  15
ATOM     15  C   UNL     1      -9.880 -18.102  13.179  1.00  0.00     0.000 C 
BRANCH  15  16
ATOM     16  C   UNL     1     -10.231 -19.576  12.916  1.00  0.00     0.000 C 
BRANCH  16  17
ATOM     17  C   UNL     1      -9.004 -20.413  12.526  1.00  0.00     0.000 C 
BRANCH  17  18
ATOM     18  C   UNL     1      -7.879 -19.521  11.980  1.00  0.00    -0.000 C 
BRANCH  18  19
ATOM     19  C   UNL     1      -7.879 -19.426  10.443  1.00  0.00    -0.000 C 
BRANCH  19  20
ATOM     20  C   UNL     1      -9.263 -19.562   9.780  1.00  0.00    -0.000 C 
BRANCH  20  21
ATOM     21  C   UNL     1      -9.566 -18.433   8.784  1.00  0.00    -0.000 C 
BRANCH  21  22
ATOM     22  C   UNL     1      -8.375 -17.475   8.658  1.00  0.00    -0.000 C 
BRANCH  22  23
ATOM     23  C   UNL     1      -8.397 -16.421   9.776  1.00  0.00    -0.000 C 
BRANCH  23  24
ATOM     24  C   UNL     1      -9.824 -16.006  10.166  1.00  0.00    -0.000 C 
BRANCH  24  25
ATOM     25  C   UNL     1     -10.620 -15.446   8.980  1.00  0.00    -0.003 C 
ATOM     26  C   UNL     1     -11.293 -14.127   9.345  1.00  0.00     0.004 C 
ENDBRANCH  24  25
ENDBRANCH  23  24
ENDBRANCH  22  23
ENDBRANCH  21  22
ENDBRANCH  20  21
ENDBRANCH  19  20
ENDBRANCH  18  19
ENDBRANCH  17  18
ENDBRANCH  16  17
ENDBRANCH  15  16
ENDBRANCH   1  15
TORSDOF 22
ENDMDL
