MODEL 1
REMARK VINA RESULT:    -2.090      0.000      0.000
REMARK INTER + INTRA:          -4.256
REMARK INTER:                  -3.434
REMARK INTRA:                  -0.823
REMARK UNBOUND:                -0.823
REMARK SMILES C[C@@H]1O[C@H](OC[C@@H]2O[C@@H](Oc3c(-c4ccc(O)c(O)c4)oc4cc(O)cc(O)c4c3=O)[C@H](O)[C@H](O)[C@H]2O)[C@H](O)[C@H](O)[C@@H]1O
REMARK SMILES IDX 7 1 36 2 34 3 32 4 9 5 8 6 6 7 5 8 4 9 1 10 2 11 42 12 3 13
REMARK SMILES IDX 40 14 38 15 43 16 41 18 39 20 37 22 35 24 10 26 11 27 12 28
REMARK SMILES IDX 30 29 21 30 29 31 31 32 22 33 27 34 23 35 26 36 24 37 13 38
REMARK SMILES IDX 20 39 14 40 18 41 15 42 16 43 19 44 17 46 28 48 25 50 33 52
REMARK H PARENT 43 17 41 19 39 21 37 23 35 25 19 45 17 47 28 49 25 51 33 53
REMARK Flexibility Score: inf
ROOT
ATOM      1  C   UNL     1      22.494  19.563   6.589  1.00  0.00     0.180 C 
ATOM      2  C   UNL     1      23.705  20.530   6.521  1.00  0.00     0.177 C 
ATOM      3  C   UNL     1      24.943  19.822   5.922  1.00  0.00     0.180 C 
ATOM      4  C   UNL     1      24.487  18.794   4.864  1.00  0.00     0.214 C 
ATOM      5  C   UNL     1      23.532  17.759   5.517  1.00  0.00     0.339 C 
ATOM      6  O   UNL     1      22.939  18.231   6.721  1.00  0.00    -0.332 OA
ENDROOT
BRANCH   1   7
ATOM      7  C   UNL     1      21.579  19.907   7.777  1.00  0.00     0.198 C 
BRANCH   7   8
ATOM      8  O   UNL     1      22.279  20.756   8.695  1.00  0.00    -0.347 OA
BRANCH   8   9
ATOM      9  C   UNL     1      21.867  20.544  10.029  1.00  0.00     0.281 C 
ATOM     10  C   UNL     1      19.251  18.443  11.068  1.00  0.00     0.041 C 
ATOM     11  C   UNL     1      19.938  19.804  11.248  1.00  0.00     0.150 C 
ATOM     12  C   UNL     1      20.920  19.836  12.455  1.00  0.00     0.174 C 
ATOM     13  O   UNL     1      20.497  20.187   9.988  1.00  0.00    -0.344 OA
ATOM     14  C   UNL     1      22.266  19.155  12.126  1.00  0.00     0.179 C 
ATOM     15  C   UNL     1      22.686  19.400  10.659  1.00  0.00     0.202 C 
BRANCH  12  16
ATOM     16  O   UNL     1      20.350  19.244  13.599  1.00  0.00    -0.388 OA
ATOM     17  H   UNL     1      19.371  19.269  13.464  1.00  0.00     0.211 HD
ENDBRANCH  12  16
BRANCH  14  18
ATOM     18  O   UNL     1      22.201  17.779  12.399  1.00  0.00    -0.387 OA
ATOM     19  H   UNL     1      22.013  17.660  13.364  1.00  0.00     0.211 HD
ENDBRANCH  14  18
BRANCH  15  20
ATOM     20  O   UNL     1      22.532  18.232   9.911  1.00  0.00    -0.385 OA
ATOM     21  H   UNL     1      22.410  17.474  10.557  1.00  0.00     0.211 HD
ENDBRANCH  15  20
ENDBRANCH   8   9
ENDBRANCH   7   8
ENDBRANCH   1   7
BRANCH   2  22
ATOM     22  O   UNL     1      23.337  21.640   5.713  1.00  0.00    -0.387 OA
ATOM     23  H   UNL     1      22.899  21.238   4.902  1.00  0.00     0.211 HD
ENDBRANCH   2  22
BRANCH   3  24
ATOM     24  O   UNL     1      25.669  19.178   6.936  1.00  0.00    -0.387 OA
ATOM     25  H   UNL     1      25.234  18.308   7.100  1.00  0.00     0.211 HD
ENDBRANCH   3  24
BRANCH   5  26
ATOM     26  O   UNL     1      22.498  17.396   4.597  1.00  0.00    -0.454 OA
BRANCH  26  27
ATOM     27  C   UNL     1      22.283  16.074   4.146  1.00  0.00     0.214 A 
ATOM     28  C   UNL     1      21.013  15.459   4.186  1.00  0.00     0.180 A 
ATOM     29  C   UNL     1      23.353  15.379   3.587  1.00  0.00     0.239 A 
ATOM     30  O   UNL     1      20.887  14.183   3.822  1.00  0.00    -0.452 OA
ATOM     31  C   UNL     1      23.172  14.059   3.140  1.00  0.00     0.111 A 
ATOM     32  O   UNL     1      24.464  15.968   3.452  1.00  0.00    -0.285 OA
ATOM     33  C   UNL     1      21.889  13.474   3.313  1.00  0.00     0.146 A 
ATOM     34  C   UNL     1      24.186  13.312   2.501  1.00  0.00     0.134 A 
ATOM     35  C   UNL     1      21.665  12.147   2.910  1.00  0.00     0.094 A 
ATOM     36  C   UNL     1      23.924  11.984   2.083  1.00  0.00     0.093 A 
ATOM     37  C   UNL     1      22.675  11.410   2.295  1.00  0.00     0.123 A 
BRANCH  28  38
ATOM     38  C   UNL     1      19.770  16.215   4.426  1.00  0.00     0.025 A 
ATOM     39  C   UNL     1      18.716  15.619   5.110  1.00  0.00     0.062 A 
ATOM     40  C   UNL     1      19.724  17.587   4.124  1.00  0.00     0.016 A 
ATOM     41  C   UNL     1      17.660  16.391   5.578  1.00  0.00     0.158 A 
ATOM     42  C   UNL     1      18.658  18.361   4.583  1.00  0.00     0.051 A 
ATOM     43  C   UNL     1      17.626  17.773   5.335  1.00  0.00     0.157 A 
BRANCH  41  44
ATOM     44  O   UNL     1      16.649  15.813   6.363  1.00  0.00    -0.504 OA
ATOM     45  H   UNL     1      16.754  15.717   7.380  1.00  0.00     0.293 HD
ENDBRANCH  41  44
BRANCH  43  46
ATOM     46  O   UNL     1      16.644  18.594   5.915  1.00  0.00    -0.504 OA
ATOM     47  H   UNL     1      16.217  18.366   6.796  1.00  0.00     0.293 HD
ENDBRANCH  43  46
ENDBRANCH  28  38
BRANCH  34  48
ATOM     48  O   UNL     1      25.431  13.893   2.235  1.00  0.00    -0.507 OA
ATOM     49  H   UNL     1      26.188  13.814   2.927  1.00  0.00     0.293 HD
ENDBRANCH  34  48
BRANCH  37  50
ATOM     50  O   UNL     1      22.400  10.114   1.875  1.00  0.00    -0.508 OA
ATOM     51  H   UNL     1      21.625   9.917   1.257  1.00  0.00     0.293 HD
ENDBRANCH  37  50
ENDBRANCH  26  27
ENDBRANCH   5  26
BRANCH   4  52
ATOM     52  O   UNL     1      25.586  18.122   4.318  1.00  0.00    -0.384 OA
ATOM     53  H   UNL     1      26.133  18.823   3.875  1.00  0.00     0.211 HD
ENDBRANCH   4  52
TORSDOF 16
ENDMDL
MODEL 2
REMARK VINA RESULT:    -0.963      1.696      5.311
REMARK INTER + INTRA:          -2.405
REMARK INTER:                  -2.506
REMARK INTRA:                   0.101
REMARK UNBOUND:                -0.823
REMARK SMILES C[C@@H]1O[C@H](OC[C@@H]2O[C@@H](Oc3c(-c4ccc(O)c(O)c4)oc4cc(O)cc(O)c4c3=O)[C@H](O)[C@H](O)[C@H]2O)[C@H](O)[C@H](O)[C@@H]1O
REMARK SMILES IDX 7 1 36 2 34 3 32 4 9 5 8 6 6 7 5 8 4 9 1 10 2 11 42 12 3 13
REMARK SMILES IDX 40 14 38 15 43 16 41 18 39 20 37 22 35 24 10 26 11 27 12 28
REMARK SMILES IDX 30 29 21 30 29 31 31 32 22 33 27 34 23 35 26 36 24 37 13 38
REMARK SMILES IDX 20 39 14 40 18 41 15 42 16 43 19 44 17 46 28 48 25 50 33 52
REMARK H PARENT 43 17 41 19 39 21 37 23 35 25 19 45 17 47 28 49 25 51 33 53
REMARK Flexibility Score: inf
ROOT
ATOM      1  C   UNL     1      22.936  19.319   4.880  1.00  0.00     0.180 C 
ATOM      2  C   UNL     1      24.329  19.580   4.248  1.00  0.00     0.177 C 
ATOM      3  C   UNL     1      24.757  18.395   3.351  1.00  0.00     0.180 C 
ATOM      4  C   UNL     1      23.511  17.777   2.681  1.00  0.00     0.214 C 
ATOM      5  C   UNL     1      22.513  17.301   3.771  1.00  0.00     0.339 C 
ATOM      6  O   UNL     1      22.718  17.933   5.028  1.00  0.00    -0.332 OA
ENDROOT
BRANCH   1   7
ATOM      7  C   UNL     1      22.819  19.996   6.256  1.00  0.00     0.198 C 
BRANCH   7   8
ATOM      8  O   UNL     1      22.895  19.005   7.289  1.00  0.00    -0.347 OA
BRANCH   8   9
ATOM      9  C   UNL     1      22.554  19.533   8.553  1.00  0.00     0.281 C 
ATOM     10  C   UNL     1      22.393  17.730  11.564  1.00  0.00     0.041 C 
ATOM     11  C   UNL     1      21.723  18.790  10.678  1.00  0.00     0.150 C 
ATOM     12  C   UNL     1      22.062  20.246  11.109  1.00  0.00     0.174 C 
ATOM     13  O   UNL     1      22.008  18.469   9.313  1.00  0.00    -0.344 OA
ATOM     14  C   UNL     1      23.466  20.681  10.636  1.00  0.00     0.179 C 
ATOM     15  C   UNL     1      23.812  20.082   9.254  1.00  0.00     0.202 C 
BRANCH  12  16
ATOM     16  O   UNL     1      21.954  20.409  12.504  1.00  0.00    -0.388 OA
ATOM     17  H   UNL     1      21.975  21.383  12.671  1.00  0.00     0.211 HD
ENDBRANCH  12  16
BRANCH  14  18
ATOM     18  O   UNL     1      24.437  20.325  11.587  1.00  0.00    -0.387 OA
ATOM     19  H   UNL     1      24.068  19.604  12.157  1.00  0.00     0.211 HD
ENDBRANCH  14  18
BRANCH  15  20
ATOM     20  O   UNL     1      24.765  19.071   9.390  1.00  0.00    -0.385 OA
ATOM     21  H   UNL     1      24.693  18.479   8.583  1.00  0.00     0.211 HD
ENDBRANCH  15  20
ENDBRANCH   8   9
ENDBRANCH   7   8
ENDBRANCH   1   7
BRANCH   2  22
ATOM     22  O   UNL     1      24.247  20.772   3.479  1.00  0.00    -0.387 OA
ATOM     23  H   UNL     1      23.710  20.522   2.667  1.00  0.00     0.211 HD
ENDBRANCH   2  22
BRANCH   3  24
ATOM     24  O   UNL     1      25.421  17.424   4.117  1.00  0.00    -0.387 OA
ATOM     25  H   UNL     1      25.235  17.622   5.065  1.00  0.00     0.211 HD
ENDBRANCH   3  24
BRANCH   5  26
ATOM     26  O   UNL     1      21.168  17.537   3.343  1.00  0.00    -0.454 OA
BRANCH  26  27
ATOM     27  C   UNL     1      20.032  17.153   4.091  1.00  0.00     0.214 A 
ATOM     28  C   UNL     1      19.533  15.832   4.082  1.00  0.00     0.180 A 
ATOM     29  C   UNL     1      19.425  18.099   4.912  1.00  0.00     0.239 A 
ATOM     30  O   UNL     1      18.412  15.547   4.743  1.00  0.00    -0.452 OA
ATOM     31  C   UNL     1      18.287  17.748   5.659  1.00  0.00     0.111 A 
ATOM     32  O   UNL     1      19.936  19.252   5.003  1.00  0.00    -0.285 OA
ATOM     33  C   UNL     1      17.782  16.428   5.513  1.00  0.00     0.146 A 
ATOM     34  C   UNL     1      17.653  18.628   6.564  1.00  0.00     0.134 A 
ATOM     35  C   UNL     1      16.630  16.038   6.214  1.00  0.00     0.094 A 
ATOM     36  C   UNL     1      16.508  18.198   7.277  1.00  0.00     0.093 A 
ATOM     37  C   UNL     1      16.001  16.916   7.094  1.00  0.00     0.123 A 
BRANCH  28  38
ATOM     38  C   UNL     1      20.299  14.696   3.535  1.00  0.00     0.025 A 
ATOM     39  C   UNL     1      21.671  14.815   3.340  1.00  0.00     0.062 A 
ATOM     40  C   UNL     1      19.674  13.446   3.384  1.00  0.00     0.016 A 
ATOM     41  C   UNL     1      22.442  13.687   3.088  1.00  0.00     0.158 A 
ATOM     42  C   UNL     1      20.447  12.315   3.119  1.00  0.00     0.051 A 
ATOM     43  C   UNL     1      21.842  12.422   2.992  1.00  0.00     0.157 A 
BRANCH  41  44
ATOM     44  O   UNL     1      23.841  13.786   3.000  1.00  0.00    -0.504 OA
ATOM     45  H   UNL     1      24.431  13.748   3.839  1.00  0.00     0.293 HD
ENDBRANCH  41  44
BRANCH  43  46
ATOM     46  O   UNL     1      22.614  11.253   2.876  1.00  0.00    -0.504 OA
ATOM     47  H   UNL     1      23.306  11.146   2.154  1.00  0.00     0.293 HD
ENDBRANCH  43  46
ENDBRANCH  28  38
BRANCH  34  48
ATOM     48  O   UNL     1      18.181  19.903   6.797  1.00  0.00    -0.507 OA
ATOM     49  H   UNL     1      18.184  20.599   6.040  1.00  0.00     0.293 HD
ENDBRANCH  34  48
BRANCH  37  50
ATOM     50  O   UNL     1      14.886  16.476   7.800  1.00  0.00    -0.508 OA
ATOM     51  H   UNL     1      14.936  15.671   8.407  1.00  0.00     0.293 HD
ENDBRANCH  37  50
ENDBRANCH  26  27
ENDBRANCH   5  26
BRANCH   4  52
ATOM     52  O   UNL     1      23.866  16.689   1.877  1.00  0.00    -0.384 OA
ATOM     53  H   UNL     1      23.115  16.575   1.237  1.00  0.00     0.211 HD
ENDBRANCH   4  52
TORSDOF 16
ENDMDL
