MODEL 1
REMARK VINA RESULT:    -2.435      0.000      0.000
REMARK INTER + INTRA:          -2.435
REMARK INTER:                  -2.435
REMARK INTRA:                   0.000
REMARK UNBOUND:                 0.000
REMARK SMILES CC(=O)[O-]
REMARK SMILES IDX 1 1 2 2 3 3 4 4
REMARK H PARENT
REMARK Flexibility Score: inf
ROOT
ATOM      1  C   UNL     1      30.166  42.450  27.225  1.00  0.00     0.063 C 
ATOM      2  C   UNL     1      29.728  43.372  26.138  1.00  0.00     0.038 C 
ATOM      3  O   UNL     1      28.562  43.290  25.672  1.00  0.00    -0.550 OA
ATOM      4  O   UNL     1      30.587  44.359  25.674  1.00  0.00    -0.550 OA
ENDROOT
TORSDOF 0
ENDMDL
MODEL 2
REMARK VINA RESULT:    -2.328      1.522      2.145
REMARK INTER + INTRA:          -2.328
REMARK INTER:                  -2.328
REMARK INTRA:                   0.000
REMARK UNBOUND:                 0.000
REMARK SMILES CC(=O)[O-]
REMARK SMILES IDX 1 1 2 2 3 3 4 4
REMARK H PARENT
REMARK Flexibility Score: inf
ROOT
ATOM      1  C   UNL     1      30.607  44.202  25.950  1.00  0.00     0.063 C 
ATOM      2  C   UNL     1      29.673  43.303  26.686  1.00  0.00     0.038 C 
ATOM      3  O   UNL     1      30.124  42.421  27.461  1.00  0.00    -0.550 OA
ATOM      4  O   UNL     1      28.300  43.473  26.560  1.00  0.00    -0.550 OA
ENDROOT
TORSDOF 0
ENDMDL
MODEL 3
REMARK VINA RESULT:    -2.305      1.384      1.989
REMARK INTER + INTRA:          -2.305
REMARK INTER:                  -2.305
REMARK INTRA:                   0.000
REMARK UNBOUND:                 0.000
REMARK SMILES CC(=O)[O-]
REMARK SMILES IDX 1 1 2 2 3 3 4 4
REMARK H PARENT
REMARK Flexibility Score: inf
ROOT
ATOM      1  C   UNL     1      28.396  43.210  25.992  1.00  0.00     0.063 C 
ATOM      2  C   UNL     1      29.870  43.290  26.201  1.00  0.00     0.038 C 
ATOM      3  O   UNL     1      30.527  44.245  25.710  1.00  0.00    -0.550 OA
ATOM      4  O   UNL     1      30.515  42.341  26.984  1.00  0.00    -0.550 OA
ENDROOT
TORSDOF 0
ENDMDL
MODEL 4
REMARK VINA RESULT:    -2.203      1.463      2.178
REMARK INTER + INTRA:          -2.203
REMARK INTER:                  -2.203
REMARK INTRA:                   0.000
REMARK UNBOUND:                 0.000
REMARK SMILES CC(=O)[O-]
REMARK SMILES IDX 1 1 2 2 3 3 4 4
REMARK H PARENT
REMARK Flexibility Score: inf
ROOT
ATOM      1  C   UNL     1      30.090  42.487  27.140  1.00  0.00     0.063 C 
ATOM      2  C   UNL     1      28.649  42.728  26.846  1.00  0.00     0.038 C 
ATOM      3  O   UNL     1      28.303  43.208  25.735  1.00  0.00    -0.550 OA
ATOM      4  O   UNL     1      27.680  42.374  27.775  1.00  0.00    -0.550 OA
ENDROOT
TORSDOF 0
ENDMDL
MODEL 5
REMARK VINA RESULT:    -2.177      2.130      2.432
REMARK INTER + INTRA:          -2.177
REMARK INTER:                  -2.177
REMARK INTRA:                   0.000
REMARK UNBOUND:                 0.000
REMARK SMILES CC(=O)[O-]
REMARK SMILES IDX 1 1 2 2 3 3 4 4
REMARK H PARENT
REMARK Flexibility Score: inf
ROOT
ATOM      1  C   UNL     1      29.449  43.725  26.336  1.00  0.00     0.063 C 
ATOM      2  C   UNL     1      28.155  43.000  26.489  1.00  0.00     0.038 C 
ATOM      3  O   UNL     1      27.831  42.514  27.603  1.00  0.00    -0.550 OA
ATOM      4  O   UNL     1      27.279  42.906  25.415  1.00  0.00    -0.550 OA
ENDROOT
TORSDOF 0
ENDMDL
MODEL 6
REMARK VINA RESULT:    -2.069      2.130      2.913
REMARK INTER + INTRA:          -2.069
REMARK INTER:                  -2.069
REMARK INTRA:                   0.000
REMARK UNBOUND:                 0.000
REMARK SMILES CC(=O)[O-]
REMARK SMILES IDX 1 1 2 2 3 3 4 4
REMARK H PARENT
REMARK Flexibility Score: inf
ROOT
ATOM      1  C   UNL     1      26.722  42.888  25.251  1.00  0.00     0.063 C 
ATOM      2  C   UNL     1      27.902  42.973  26.159  1.00  0.00     0.038 C 
ATOM      3  O   UNL     1      28.988  43.452  25.740  1.00  0.00    -0.550 OA
ATOM      4  O   UNL     1      27.790  42.575  27.485  1.00  0.00    -0.550 OA
ENDROOT
TORSDOF 0
ENDMDL
MODEL 7
REMARK VINA RESULT:    -2.008      1.714      1.848
REMARK INTER + INTRA:          -2.008
REMARK INTER:                  -2.008
REMARK INTRA:                   0.000
REMARK UNBOUND:                 0.000
REMARK SMILES CC(=O)[O-]
REMARK SMILES IDX 1 1 2 2 3 3 4 4
REMARK H PARENT
REMARK Flexibility Score: inf
ROOT
ATOM      1  C   UNL     1      27.795  42.440  27.476  1.00  0.00     0.063 C 
ATOM      2  C   UNL     1      28.037  42.935  26.091  1.00  0.00     0.038 C 
ATOM      3  O   UNL     1      27.144  42.813  25.212  1.00  0.00    -0.550 OA
ATOM      4  O   UNL     1      29.226  43.581  25.780  1.00  0.00    -0.550 OA
ENDROOT
TORSDOF 0
ENDMDL
MODEL 8
REMARK VINA RESULT:    -2.007      2.564      3.292
REMARK INTER + INTRA:          -2.007
REMARK INTER:                  -2.007
REMARK INTRA:                   0.000
REMARK UNBOUND:                 0.000
REMARK SMILES CC(=O)[O-]
REMARK SMILES IDX 1 1 2 2 3 3 4 4
REMARK H PARENT
REMARK Flexibility Score: inf
ROOT
ATOM      1  C   UNL     1      26.457  42.527  27.049  1.00  0.00     0.063 C 
ATOM      2  C   UNL     1      27.077  42.850  25.732  1.00  0.00     0.038 C 
ATOM      3  O   UNL     1      28.277  43.227  25.675  1.00  0.00    -0.550 OA
ATOM      4  O   UNL     1      26.351  42.683  24.561  1.00  0.00    -0.550 OA
ENDROOT
TORSDOF 0
ENDMDL
MODEL 9
REMARK VINA RESULT:    -1.787     15.368     15.597
REMARK INTER + INTRA:          -1.787
REMARK INTER:                  -1.787
REMARK INTRA:                   0.000
REMARK UNBOUND:                 0.000
REMARK SMILES CC(=O)[O-]
REMARK SMILES IDX 1 1 2 2 3 3 4 4
REMARK H PARENT
REMARK Flexibility Score: inf
ROOT
ATOM      1  C   UNL     1      28.576  52.696  38.016  1.00  0.00     0.063 C 
ATOM      2  C   UNL     1      29.640  52.191  38.929  1.00  0.00     0.038 C 
ATOM      3  O   UNL     1      29.667  52.558  40.132  1.00  0.00    -0.550 OA
ATOM      4  O   UNL     1      30.573  51.271  38.469  1.00  0.00    -0.550 OA
ENDROOT
TORSDOF 0
ENDMDL
