MODEL 1
REMARK VINA RESULT:    -3.384      0.000      0.000
REMARK INTER + INTRA:          -4.051
REMARK INTER:                  -3.977
REMARK INTRA:                  -0.074
REMARK UNBOUND:                -0.074
REMARK SMILES CCCCC(=O)[O-]
REMARK SMILES IDX 4 1 5 2 6 3 7 4 3 5 2 6 1 7
REMARK H PARENT
REMARK Flexibility Score: inf
ROOT
ATOM      1  C   UNL     1       3.414  29.951  34.455  1.00  0.00     0.053 C 
ENDROOT
BRANCH   1   2
ATOM      2  C   UNL     1       4.810  30.405  34.745  1.00  0.00     0.041 C 
ATOM      3  O   UNL     1       5.444  31.087  33.898  1.00  0.00    -0.550 OA
ATOM      4  O   UNL     1       5.394  30.117  35.973  1.00  0.00    -0.550 OA
ENDBRANCH   1   2
BRANCH   1   5
ATOM      5  C   UNL     1       2.931  30.529  33.119  1.00  0.00     0.006 C 
BRANCH   5   6
ATOM      6  C   UNL     1       2.970  29.497  31.982  1.00  0.00    -0.003 C 
ATOM      7  C   UNL     1       4.161  29.694  31.046  1.00  0.00     0.004 C 
ENDBRANCH   5   6
ENDBRANCH   1   5
TORSDOF 3
ENDMDL
MODEL 2
REMARK VINA RESULT:    -3.254      1.937      2.247
REMARK INTER + INTRA:          -3.899
REMARK INTER:                  -3.852
REMARK INTRA:                  -0.047
REMARK UNBOUND:                -0.074
REMARK SMILES CCCCC(=O)[O-]
REMARK SMILES IDX 4 1 5 2 6 3 7 4 3 5 2 6 1 7
REMARK H PARENT
REMARK Flexibility Score: inf
ROOT
ATOM      1  C   UNL     1       2.246  31.021  32.910  1.00  0.00     0.053 C 
ENDROOT
BRANCH   1   2
ATOM      2  C   UNL     1       2.482  30.943  34.386  1.00  0.00     0.041 C 
ATOM      3  O   UNL     1       2.260  31.944  35.117  1.00  0.00    -0.550 OA
ATOM      4  O   UNL     1       2.901  29.750  34.961  1.00  0.00    -0.550 OA
ENDBRANCH   1   2
BRANCH   1   5
ATOM      5  C   UNL     1       2.982  29.884  32.190  1.00  0.00     0.006 C 
BRANCH   5   6
ATOM      6  C   UNL     1       4.427  30.256  31.824  1.00  0.00    -0.003 C 
ATOM      7  C   UNL     1       4.786  29.886  30.387  1.00  0.00     0.004 C 
ENDBRANCH   5   6
ENDBRANCH   1   5
TORSDOF 3
ENDMDL
MODEL 3
REMARK VINA RESULT:    -3.223     19.485     20.230
REMARK INTER + INTRA:          -3.862
REMARK INTER:                  -3.831
REMARK INTRA:                  -0.031
REMARK UNBOUND:                -0.074
REMARK SMILES CCCCC(=O)[O-]
REMARK SMILES IDX 4 1 5 2 6 3 7 4 3 5 2 6 1 7
REMARK H PARENT
REMARK Flexibility Score: inf
ROOT
ATOM      1  C   UNL     1      -3.390  45.362  22.224  1.00  0.00     0.053 C 
ENDROOT
BRANCH   1   2
ATOM      2  C   UNL     1      -3.916  46.155  23.379  1.00  0.00     0.041 C 
ATOM      3  O   UNL     1      -4.338  47.328  23.202  1.00  0.00    -0.550 OA
ATOM      4  O   UNL     1      -3.985  45.582  24.643  1.00  0.00    -0.550 OA
ENDBRANCH   1   2
BRANCH   1   5
ATOM      5  C   UNL     1      -2.081  44.662  22.609  1.00  0.00     0.006 C 
BRANCH   5   6
ATOM      6  C   UNL     1      -1.369  44.037  21.398  1.00  0.00    -0.003 C 
ATOM      7  C   UNL     1      -2.143  44.228  20.095  1.00  0.00     0.004 C 
ENDBRANCH   5   6
ENDBRANCH   1   5
TORSDOF 3
ENDMDL
MODEL 4
REMARK VINA RESULT:    -3.197      2.406      3.575
REMARK INTER + INTRA:          -3.832
REMARK INTER:                  -3.713
REMARK INTRA:                  -0.120
REMARK UNBOUND:                -0.074
REMARK SMILES CCCCC(=O)[O-]
REMARK SMILES IDX 4 1 5 2 6 3 7 4 3 5 2 6 1 7
REMARK H PARENT
REMARK Flexibility Score: inf
ROOT
ATOM      1  C   UNL     1       4.107  31.243  32.571  1.00  0.00     0.053 C 
ENDROOT
BRANCH   1   2
ATOM      2  C   UNL     1       3.835  29.994  31.794  1.00  0.00     0.041 C 
ATOM      3  O   UNL     1       4.635  29.619  30.896  1.00  0.00    -0.550 OA
ATOM      4  O   UNL     1       2.723  29.217  32.093  1.00  0.00    -0.550 OA
ENDBRANCH   1   2
BRANCH   1   5
ATOM      5  C   UNL     1       5.322  31.049  33.487  1.00  0.00     0.006 C 
BRANCH   5   6
ATOM      6  C   UNL     1       4.970  30.300  34.782  1.00  0.00    -0.003 C 
ATOM      7  C   UNL     1       3.668  30.791  35.412  1.00  0.00     0.004 C 
ENDBRANCH   5   6
ENDBRANCH   1   5
TORSDOF 3
ENDMDL
MODEL 5
REMARK VINA RESULT:    -3.184      2.034      3.176
REMARK INTER + INTRA:          -3.817
REMARK INTER:                  -3.766
REMARK INTRA:                  -0.050
REMARK UNBOUND:                -0.074
REMARK SMILES CCCCC(=O)[O-]
REMARK SMILES IDX 4 1 5 2 6 3 7 4 3 5 2 6 1 7
REMARK H PARENT
REMARK Flexibility Score: inf
ROOT
ATOM      1  C   UNL     1       2.761  29.966  32.265  1.00  0.00     0.053 C 
ENDROOT
BRANCH   1   2
ATOM      2  C   UNL     1       4.190  30.129  31.850  1.00  0.00     0.041 C 
ATOM      3  O   UNL     1       4.541  29.862  30.671  1.00  0.00    -0.550 OA
ATOM      4  O   UNL     1       5.124  30.621  32.753  1.00  0.00    -0.550 OA
ENDBRANCH   1   2
BRANCH   1   5
ATOM      5  C   UNL     1       2.456  30.844  33.486  1.00  0.00     0.006 C 
BRANCH   5   6
ATOM      6  C   UNL     1       2.075  32.281  33.097  1.00  0.00    -0.003 C 
ATOM      7  C   UNL     1       0.603  32.419  32.715  1.00  0.00     0.004 C 
ENDBRANCH   5   6
ENDBRANCH   1   5
TORSDOF 3
ENDMDL
MODEL 6
REMARK VINA RESULT:    -3.178     20.075     20.849
REMARK INTER + INTRA:          -3.809
REMARK INTER:                  -3.773
REMARK INTRA:                  -0.037
REMARK UNBOUND:                -0.074
REMARK SMILES CCCCC(=O)[O-]
REMARK SMILES IDX 4 1 5 2 6 3 7 4 3 5 2 6 1 7
REMARK H PARENT
REMARK Flexibility Score: inf
ROOT
ATOM      1  C   UNL     1      -3.985  45.252  21.869  1.00  0.00     0.053 C 
ENDROOT
BRANCH   1   2
ATOM      2  C   UNL     1      -3.854  46.007  23.154  1.00  0.00     0.041 C 
ATOM      3  O   UNL     1      -3.261  45.489  24.137  1.00  0.00    -0.550 OA
ATOM      4  O   UNL     1      -4.345  47.303  23.252  1.00  0.00    -0.550 OA
ENDBRANCH   1   2
BRANCH   1   5
ATOM      5  C   UNL     1      -2.615  44.740  21.408  1.00  0.00     0.006 C 
BRANCH   5   6
ATOM      6  C   UNL     1      -2.557  44.495  19.892  1.00  0.00    -0.003 C 
ATOM      7  C   UNL     1      -3.765  45.068  19.155  1.00  0.00     0.004 C 
ENDBRANCH   5   6
ENDBRANCH   1   5
TORSDOF 3
ENDMDL
MODEL 7
REMARK VINA RESULT:    -3.155     19.329     20.129
REMARK INTER + INTRA:          -3.783
REMARK INTER:                  -3.686
REMARK INTRA:                  -0.097
REMARK UNBOUND:                -0.074
REMARK SMILES CCCCC(=O)[O-]
REMARK SMILES IDX 4 1 5 2 6 3 7 4 3 5 2 6 1 7
REMARK H PARENT
REMARK Flexibility Score: inf
ROOT
ATOM      1  C   UNL     1      -3.606  45.430  21.737  1.00  0.00     0.053 C 
ENDROOT
BRANCH   1   2
ATOM      2  C   UNL     1      -4.316  45.931  22.955  1.00  0.00     0.041 C 
ATOM      3  O   UNL     1      -4.877  45.121  23.740  1.00  0.00    -0.550 OA
ATOM      4  O   UNL     1      -4.317  47.288  23.251  1.00  0.00    -0.550 OA
ENDBRANCH   1   2
BRANCH   1   5
ATOM      5  C   UNL     1      -2.902  44.101  22.037  1.00  0.00     0.006 C 
BRANCH   5   6
ATOM      6  C   UNL     1      -1.402  44.279  22.318  1.00  0.00    -0.003 C 
ATOM      7  C   UNL     1      -1.077  44.281  23.811  1.00  0.00     0.004 C 
ENDBRANCH   5   6
ENDBRANCH   1   5
TORSDOF 3
ENDMDL
MODEL 8
REMARK VINA RESULT:    -3.121     18.512     19.254
REMARK INTER + INTRA:          -3.743
REMARK INTER:                  -3.625
REMARK INTRA:                  -0.118
REMARK UNBOUND:                -0.074
REMARK SMILES CCCCC(=O)[O-]
REMARK SMILES IDX 4 1 5 2 6 3 7 4 3 5 2 6 1 7
REMARK H PARENT
REMARK Flexibility Score: inf
ROOT
ATOM      1  C   UNL     1      -2.099  44.795  23.625  1.00  0.00     0.053 C 
ENDROOT
BRANCH   1   2
ATOM      2  C   UNL     1      -2.858  43.844  24.497  1.00  0.00     0.041 C 
ATOM      3  O   UNL     1      -3.362  44.242  25.580  1.00  0.00    -0.550 OA
ATOM      4  O   UNL     1      -3.051  42.530  24.089  1.00  0.00    -0.550 OA
ENDBRANCH   1   2
BRANCH   1   5
ATOM      5  C   UNL     1      -2.849  45.027  22.307  1.00  0.00     0.006 C 
BRANCH   5   6
ATOM      6  C   UNL     1      -4.196  45.737  22.513  1.00  0.00    -0.003 C 
ATOM      7  C   UNL     1      -4.053  47.079  23.228  1.00  0.00     0.004 C 
ENDBRANCH   5   6
ENDBRANCH   1   5
TORSDOF 3
ENDMDL
MODEL 9
REMARK VINA RESULT:    -3.093     19.151     19.905
REMARK INTER + INTRA:          -3.710
REMARK INTER:                  -3.688
REMARK INTRA:                  -0.022
REMARK UNBOUND:                -0.074
REMARK SMILES CCCCC(=O)[O-]
REMARK SMILES IDX 4 1 5 2 6 3 7 4 3 5 2 6 1 7
REMARK H PARENT
REMARK Flexibility Score: inf
ROOT
ATOM      1  C   UNL     1      -1.795  44.301  21.853  1.00  0.00     0.053 C 
ENDROOT
BRANCH   1   2
ATOM      2  C   UNL     1      -1.818  44.673  23.303  1.00  0.00     0.041 C 
ATOM      3  O   UNL     1      -2.813  45.275  23.787  1.00  0.00    -0.550 OA
ATOM      4  O   UNL     1      -0.762  44.312  24.130  1.00  0.00    -0.550 OA
ENDBRANCH   1   2
BRANCH   1   5
ATOM      5  C   UNL     1      -2.975  44.948  21.117  1.00  0.00     0.006 C 
BRANCH   5   6
ATOM      6  C   UNL     1      -2.937  44.690  19.602  1.00  0.00    -0.003 C 
ATOM      7  C   UNL     1      -4.316  44.791  18.952  1.00  0.00     0.004 C 
ENDBRANCH   5   6
ENDBRANCH   1   5
TORSDOF 3
ENDMDL
