MODEL 1
REMARK VINA RESULT:    -3.918      0.000      0.000
REMARK INTER + INTRA:          -9.888
REMARK INTER:                  -7.125
REMARK INTRA:                  -2.763
REMARK UNBOUND:                -2.763
REMARK SMILES CCCCCCCCCCCCCC[C@@H](C)C(=O)[O-]
REMARK SMILES IDX 9 1 10 2 11 3 12 4 13 5 14 6 15 7 16 8 17 9 18 10 19 11 8 12
REMARK SMILES IDX 7 13 6 14 5 15 4 16 3 17 2 18 1 19
REMARK H PARENT
REMARK Flexibility Score: inf
ROOT
ATOM      1  C   UNL     1      36.368  32.591  21.623  1.00  0.00     0.000 C 
ENDROOT
BRANCH   1   2
ATOM      2  C   UNL     1      37.262  32.386  22.859  1.00  0.00     0.000 C 
BRANCH   2   3
ATOM      3  C   UNL     1      36.672  31.386  23.867  1.00  0.00     0.000 C 
BRANCH   3   4
ATOM      4  C   UNL     1      36.101  32.069  25.123  1.00  0.00     0.000 C 
BRANCH   4   5
ATOM      5  C   UNL     1      34.563  32.053  25.239  1.00  0.00     0.001 C 
BRANCH   5   6
ATOM      6  C   UNL     1      33.872  33.420  25.047  1.00  0.00     0.009 C 
BRANCH   6   7
ATOM      7  C   UNL     1      34.807  34.563  24.592  1.00  0.00     0.032 C 
ATOM      8  C   UNL     1      34.284  35.283  23.341  1.00  0.00     0.014 C 
BRANCH   7   9
ATOM      9  C   UNL     1      34.970  35.553  25.714  1.00  0.00     0.044 C 
ATOM     10  O   UNL     1      35.025  35.153  26.907  1.00  0.00    -0.550 OA
ATOM     11  O   UNL     1      35.044  36.915  25.444  1.00  0.00    -0.550 OA
ENDBRANCH   7   9
ENDBRANCH   6   7
ENDBRANCH   5   6
ENDBRANCH   4   5
ENDBRANCH   3   4
ENDBRANCH   2   3
ENDBRANCH   1   2
BRANCH   1  12
ATOM     12  C   UNL     1      35.230  31.566  21.455  1.00  0.00     0.000 C 
BRANCH  12  13
ATOM     13  C   UNL     1      33.835  32.214  21.453  1.00  0.00    -0.000 C 
BRANCH  13  14
ATOM     14  C   UNL     1      32.752  31.279  22.019  1.00  0.00    -0.000 C 
BRANCH  14  15
ATOM     15  C   UNL     1      33.188  29.803  22.017  1.00  0.00    -0.000 C 
BRANCH  15  16
ATOM     16  C   UNL     1      32.439  28.967  20.966  1.00  0.00    -0.000 C 
BRANCH  16  17
ATOM     17  C   UNL     1      33.222  28.834  19.648  1.00  0.00    -0.000 C 
BRANCH  17  18
ATOM     18  C   UNL     1      32.827  29.904  18.618  1.00  0.00    -0.003 C 
ATOM     19  C   UNL     1      34.034  30.616  18.009  1.00  0.00     0.004 C 
ENDBRANCH  17  18
ENDBRANCH  16  17
ENDBRANCH  15  16
ENDBRANCH  14  15
ENDBRANCH  13  14
ENDBRANCH  12  13
ENDBRANCH   1  12
TORSDOF 14
ENDMDL
MODEL 2
REMARK VINA RESULT:    -3.896      4.110      8.552
REMARK INTER + INTRA:          -9.847
REMARK INTER:                  -8.735
REMARK INTRA:                  -1.111
REMARK UNBOUND:                -2.763
REMARK SMILES CCCCCCCCCCCCCC[C@@H](C)C(=O)[O-]
REMARK SMILES IDX 9 1 10 2 11 3 12 4 13 5 14 6 15 7 16 8 17 9 18 10 19 11 8 12
REMARK SMILES IDX 7 13 6 14 5 15 4 16 3 17 2 18 1 19
REMARK H PARENT
REMARK Flexibility Score: inf
ROOT
ATOM      1  C   UNL     1      34.891  33.892  26.004  1.00  0.00     0.000 C 
ENDROOT
BRANCH   1   2
ATOM      2  C   UNL     1      33.832  32.867  25.559  1.00  0.00     0.000 C 
BRANCH   2   3
ATOM      3  C   UNL     1      34.445  31.537  25.087  1.00  0.00     0.000 C 
BRANCH   3   4
ATOM      4  C   UNL     1      34.422  31.379  23.556  1.00  0.00     0.000 C 
BRANCH   4   5
ATOM      5  C   UNL     1      33.296  32.146  22.832  1.00  0.00     0.001 C 
BRANCH   5   6
ATOM      6  C   UNL     1      32.522  31.337  21.770  1.00  0.00     0.009 C 
BRANCH   6   7
ATOM      7  C   UNL     1      33.169  29.989  21.381  1.00  0.00     0.032 C 
ATOM      8  C   UNL     1      32.142  28.853  21.290  1.00  0.00     0.014 C 
BRANCH   7   9
ATOM      9  C   UNL     1      33.877  30.137  20.061  1.00  0.00     0.044 C 
ATOM     10  O   UNL     1      33.676  31.154  19.345  1.00  0.00    -0.550 OA
ATOM     11  O   UNL     1      34.745  29.147  19.614  1.00  0.00    -0.550 OA
ENDBRANCH   7   9
ENDBRANCH   6   7
ENDBRANCH   5   6
ENDBRANCH   4   5
ENDBRANCH   3   4
ENDBRANCH   2   3
ENDBRANCH   1   2
BRANCH   1  12
ATOM     12  C   UNL     1      36.240  33.295  26.449  1.00  0.00     0.000 C 
BRANCH  12  13
ATOM     13  C   UNL     1      36.738  33.869  27.786  1.00  0.00    -0.000 C 
BRANCH  13  14
ATOM     14  C   UNL     1      36.387  35.358  27.955  1.00  0.00    -0.000 C 
BRANCH  14  15
ATOM     15  C   UNL     1      36.127  35.739  29.423  1.00  0.00    -0.000 C 
BRANCH  15  16
ATOM     16  C   UNL     1      36.407  37.224  29.707  1.00  0.00    -0.000 C 
BRANCH  16  17
ATOM     17  C   UNL     1      37.558  37.784  28.853  1.00  0.00    -0.000 C 
BRANCH  17  18
ATOM     18  C   UNL     1      38.918  37.685  29.562  1.00  0.00    -0.003 C 
ATOM     19  C   UNL     1      39.805  36.578  28.993  1.00  0.00     0.004 C 
ENDBRANCH  17  18
ENDBRANCH  16  17
ENDBRANCH  15  16
ENDBRANCH  14  15
ENDBRANCH  13  14
ENDBRANCH  12  13
ENDBRANCH   1  12
TORSDOF 14
ENDMDL
MODEL 3
REMARK VINA RESULT:    -3.860      3.788      8.241
REMARK INTER + INTRA:          -9.783
REMARK INTER:                  -7.221
REMARK INTRA:                  -2.562
REMARK UNBOUND:                -2.763
REMARK SMILES CCCCCCCCCCCCCC[C@@H](C)C(=O)[O-]
REMARK SMILES IDX 9 1 10 2 11 3 12 4 13 5 14 6 15 7 16 8 17 9 18 10 19 11 8 12
REMARK SMILES IDX 7 13 6 14 5 15 4 16 3 17 2 18 1 19
REMARK H PARENT
REMARK Flexibility Score: inf
ROOT
ATOM      1  C   UNL     1      37.300  35.880  26.156  1.00  0.00     0.000 C 
ENDROOT
BRANCH   1   2
ATOM      2  C   UNL     1      36.689  35.566  24.779  1.00  0.00     0.000 C 
BRANCH   2   3
ATOM      3  C   UNL     1      35.155  35.677  24.763  1.00  0.00     0.000 C 
BRANCH   3   4
ATOM      4  C   UNL     1      34.462  34.339  24.450  1.00  0.00     0.000 C 
BRANCH   4   5
ATOM      5  C   UNL     1      34.276  33.396  25.656  1.00  0.00     0.001 C 
BRANCH   5   6
ATOM      6  C   UNL     1      34.896  31.992  25.499  1.00  0.00     0.009 C 
BRANCH   6   7
ATOM      7  C   UNL     1      35.987  31.881  24.409  1.00  0.00     0.032 C 
ATOM      8  C   UNL     1      37.378  31.616  25.000  1.00  0.00     0.014 C 
BRANCH   7   9
ATOM      9  C   UNL     1      35.626  30.778  23.451  1.00  0.00     0.044 C 
ATOM     10  O   UNL     1      36.527  30.186  22.799  1.00  0.00    -0.550 OA
ATOM     11  O   UNL     1      34.297  30.414  23.266  1.00  0.00    -0.550 OA
ENDBRANCH   7   9
ENDBRANCH   6   7
ENDBRANCH   5   6
ENDBRANCH   4   5
ENDBRANCH   3   4
ENDBRANCH   2   3
ENDBRANCH   1   2
BRANCH   1  12
ATOM     12  C   UNL     1      37.575  34.656  27.050  1.00  0.00     0.000 C 
BRANCH  12  13
ATOM     13  C   UNL     1      36.627  34.572  28.259  1.00  0.00    -0.000 C 
BRANCH  13  14
ATOM     14  C   UNL     1      35.785  35.846  28.436  1.00  0.00    -0.000 C 
BRANCH  14  15
ATOM     15  C   UNL     1      36.219  36.674  29.659  1.00  0.00    -0.000 C 
BRANCH  15  16
ATOM     16  C   UNL     1      37.286  37.726  29.313  1.00  0.00    -0.000 C 
BRANCH  16  17
ATOM     17  C   UNL     1      38.701  37.296  29.737  1.00  0.00    -0.000 C 
BRANCH  17  18
ATOM     18  C   UNL     1      39.737  37.497  28.620  1.00  0.00    -0.003 C 
ATOM     19  C   UNL     1      40.633  36.276  28.415  1.00  0.00     0.004 C 
ENDBRANCH  17  18
ENDBRANCH  16  17
ENDBRANCH  15  16
ENDBRANCH  14  15
ENDBRANCH  13  14
ENDBRANCH  12  13
ENDBRANCH   1  12
TORSDOF 14
ENDMDL
MODEL 4
REMARK VINA RESULT:    -3.805      2.990      4.490
REMARK INTER + INTRA:          -9.683
REMARK INTER:                  -8.653
REMARK INTRA:                  -1.030
REMARK UNBOUND:                -2.763
REMARK SMILES CCCCCCCCCCCCCC[C@@H](C)C(=O)[O-]
REMARK SMILES IDX 9 1 10 2 11 3 12 4 13 5 14 6 15 7 16 8 17 9 18 10 19 11 8 12
REMARK SMILES IDX 7 13 6 14 5 15 4 16 3 17 2 18 1 19
REMARK H PARENT
REMARK Flexibility Score: inf
ROOT
ATOM      1  C   UNL     1      36.078  32.720  25.954  1.00  0.00     0.000 C 
ENDROOT
BRANCH   1   2
ATOM      2  C   UNL     1      36.396  33.716  27.084  1.00  0.00     0.000 C 
BRANCH   2   3
ATOM      3  C   UNL     1      36.006  35.163  26.737  1.00  0.00     0.000 C 
BRANCH   3   4
ATOM      4  C   UNL     1      35.205  35.852  27.857  1.00  0.00     0.000 C 
BRANCH   4   5
ATOM      5  C   UNL     1      35.883  35.858  29.242  1.00  0.00     0.001 C 
BRANCH   5   6
ATOM      6  C   UNL     1      36.338  37.242  29.749  1.00  0.00     0.009 C 
BRANCH   6   7
ATOM      7  C   UNL     1      37.809  37.599  29.432  1.00  0.00     0.032 C 
ATOM      8  C   UNL     1      38.655  36.359  29.113  1.00  0.00     0.014 C 
BRANCH   7   9
ATOM      9  C   UNL     1      37.852  38.554  28.270  1.00  0.00     0.044 C 
ATOM     10  O   UNL     1      38.190  38.145  27.128  1.00  0.00    -0.550 OA
ATOM     11  O   UNL     1      37.535  39.895  28.451  1.00  0.00    -0.550 OA
ENDBRANCH   7   9
ENDBRANCH   6   7
ENDBRANCH   5   6
ENDBRANCH   4   5
ENDBRANCH   3   4
ENDBRANCH   2   3
ENDBRANCH   1   2
BRANCH   1  12
ATOM     12  C   UNL     1      34.580  32.485  25.685  1.00  0.00     0.000 C 
BRANCH  12  13
ATOM     13  C   UNL     1      34.317  31.733  24.369  1.00  0.00    -0.000 C 
BRANCH  13  14
ATOM     14  C   UNL     1      33.434  32.537  23.399  1.00  0.00    -0.000 C 
BRANCH  14  15
ATOM     15  C   UNL     1      32.954  31.695  22.204  1.00  0.00    -0.000 C 
BRANCH  15  16
ATOM     16  C   UNL     1      33.824  30.449  21.971  1.00  0.00    -0.000 C 
BRANCH  16  17
ATOM     17  C   UNL     1      33.039  29.137  22.139  1.00  0.00    -0.000 C 
BRANCH  17  18
ATOM     18  C   UNL     1      32.270  28.744  20.868  1.00  0.00    -0.003 C 
ATOM     19  C   UNL     1      33.159  28.704  19.625  1.00  0.00     0.004 C 
ENDBRANCH  17  18
ENDBRANCH  16  17
ENDBRANCH  15  16
ENDBRANCH  14  15
ENDBRANCH  13  14
ENDBRANCH  12  13
ENDBRANCH   1  12
TORSDOF 14
ENDMDL
MODEL 5
REMARK VINA RESULT:    -3.795      2.047      2.864
REMARK INTER + INTRA:          -9.664
REMARK INTER:                  -8.253
REMARK INTRA:                  -1.411
REMARK UNBOUND:                -2.763
REMARK SMILES CCCCCCCCCCCCCC[C@@H](C)C(=O)[O-]
REMARK SMILES IDX 9 1 10 2 11 3 12 4 13 5 14 6 15 7 16 8 17 9 18 10 19 11 8 12
REMARK SMILES IDX 7 13 6 14 5 15 4 16 3 17 2 18 1 19
REMARK H PARENT
REMARK Flexibility Score: inf
ROOT
ATOM      1  C   UNL     1      34.175  33.874  22.925  1.00  0.00     0.000 C 
ENDROOT
BRANCH   1   2
ATOM      2  C   UNL     1      34.738  34.203  24.319  1.00  0.00     0.000 C 
BRANCH   2   3
ATOM      3  C   UNL     1      34.231  33.248  25.412  1.00  0.00     0.000 C 
BRANCH   3   4
ATOM      4  C   UNL     1      35.355  32.395  26.029  1.00  0.00     0.000 C 
BRANCH   4   5
ATOM      5  C   UNL     1      36.653  33.159  26.363  1.00  0.00     0.001 C 
BRANCH   5   6
ATOM      6  C   UNL     1      36.633  33.946  27.690  1.00  0.00     0.009 C 
BRANCH   6   7
ATOM      7  C   UNL     1      36.497  35.478  27.536  1.00  0.00     0.032 C 
ATOM      8  C   UNL     1      35.139  35.995  28.032  1.00  0.00     0.014 C 
BRANCH   7   9
ATOM      9  C   UNL     1      37.604  36.157  28.295  1.00  0.00     0.044 C 
ATOM     10  O   UNL     1      37.338  37.066  29.126  1.00  0.00    -0.550 OA
ATOM     11  O   UNL     1      38.929  35.799  28.075  1.00  0.00    -0.550 OA
ENDBRANCH   7   9
ENDBRANCH   6   7
ENDBRANCH   5   6
ENDBRANCH   4   5
ENDBRANCH   3   4
ENDBRANCH   2   3
ENDBRANCH   1   2
BRANCH   1  12
ATOM     12  C   UNL     1      33.131  32.742  22.886  1.00  0.00     0.000 C 
BRANCH  12  13
ATOM     13  C   UNL     1      33.482  31.637  21.875  1.00  0.00    -0.000 C 
BRANCH  13  14
ATOM     14  C   UNL     1      33.921  30.331  22.560  1.00  0.00    -0.000 C 
BRANCH  14  15
ATOM     15  C   UNL     1      33.112  29.113  22.080  1.00  0.00    -0.000 C 
BRANCH  15  16
ATOM     16  C   UNL     1      32.577  29.286  20.649  1.00  0.00    -0.000 C 
BRANCH  16  17
ATOM     17  C   UNL     1      33.407  28.515  19.608  1.00  0.00    -0.000 C 
BRANCH  17  18
ATOM     18  C   UNL     1      33.406  29.197  18.231  1.00  0.00    -0.003 C 
ATOM     19  C   UNL     1      32.959  30.658  18.293  1.00  0.00     0.004 C 
ENDBRANCH  17  18
ENDBRANCH  16  17
ENDBRANCH  15  16
ENDBRANCH  14  15
ENDBRANCH  13  14
ENDBRANCH  12  13
ENDBRANCH   1  12
TORSDOF 14
ENDMDL
MODEL 6
REMARK VINA RESULT:    -3.786      1.630      2.618
REMARK INTER + INTRA:          -9.648
REMARK INTER:                  -7.293
REMARK INTRA:                  -2.354
REMARK UNBOUND:                -2.763
REMARK SMILES CCCCCCCCCCCCCC[C@@H](C)C(=O)[O-]
REMARK SMILES IDX 9 1 10 2 11 3 12 4 13 5 14 6 15 7 16 8 17 9 18 10 19 11 8 12
REMARK SMILES IDX 7 13 6 14 5 15 4 16 3 17 2 18 1 19
REMARK H PARENT
REMARK Flexibility Score: inf
ROOT
ATOM      1  C   UNL     1      34.830  33.305  20.546  1.00  0.00     0.000 C 
ENDROOT
BRANCH   1   2
ATOM      2  C   UNL     1      33.703  33.829  21.454  1.00  0.00     0.000 C 
BRANCH   2   3
ATOM      3  C   UNL     1      34.141  33.999  22.919  1.00  0.00     0.000 C 
BRANCH   3   4
ATOM      4  C   UNL     1      33.283  33.178  23.898  1.00  0.00     0.000 C 
BRANCH   4   5
ATOM      5  C   UNL     1      33.962  32.839  25.241  1.00  0.00     0.001 C 
BRANCH   5   6
ATOM      6  C   UNL     1      35.499  32.966  25.256  1.00  0.00     0.009 C 
BRANCH   6   7
ATOM      7  C   UNL     1      36.043  34.200  26.011  1.00  0.00     0.032 C 
ATOM      8  C   UNL     1      34.919  35.081  26.575  1.00  0.00     0.014 C 
BRANCH   7   9
ATOM      9  C   UNL     1      36.940  33.746  27.131  1.00  0.00     0.044 C 
ATOM     10  O   UNL     1      37.906  32.974  26.893  1.00  0.00    -0.550 OA
ATOM     11  O   UNL     1      36.700  34.162  28.435  1.00  0.00    -0.550 OA
ENDBRANCH   7   9
ENDBRANCH   6   7
ENDBRANCH   5   6
ENDBRANCH   4   5
ENDBRANCH   3   4
ENDBRANCH   2   3
ENDBRANCH   1   2
BRANCH   1  12
ATOM     12  C   UNL     1      35.906  32.459  21.253  1.00  0.00     0.000 C 
BRANCH  12  13
ATOM     13  C   UNL     1      35.603  30.951  21.215  1.00  0.00    -0.000 C 
BRANCH  13  14
ATOM     14  C   UNL     1      35.282  30.380  22.607  1.00  0.00    -0.000 C 
BRANCH  14  15
ATOM     15  C   UNL     1      33.944  29.621  22.637  1.00  0.00    -0.000 C 
BRANCH  15  16
ATOM     16  C   UNL     1      32.860  30.298  21.782  1.00  0.00    -0.000 C 
BRANCH  16  17
ATOM     17  C   UNL     1      32.090  29.299  20.900  1.00  0.00    -0.000 C 
BRANCH  17  18
ATOM     18  C   UNL     1      32.936  28.773  19.731  1.00  0.00    -0.003 C 
ATOM     19  C   UNL     1      33.115  29.804  18.617  1.00  0.00     0.004 C 
ENDBRANCH  17  18
ENDBRANCH  16  17
ENDBRANCH  15  16
ENDBRANCH  14  15
ENDBRANCH  13  14
ENDBRANCH  12  13
ENDBRANCH   1  12
TORSDOF 14
ENDMDL
MODEL 7
REMARK VINA RESULT:    -3.756      3.259      6.884
REMARK INTER + INTRA:          -9.592
REMARK INTER:                  -7.149
REMARK INTRA:                  -2.443
REMARK UNBOUND:                -2.763
REMARK SMILES CCCCCCCCCCCCCC[C@@H](C)C(=O)[O-]
REMARK SMILES IDX 9 1 10 2 11 3 12 4 13 5 14 6 15 7 16 8 17 9 18 10 19 11 8 12
REMARK SMILES IDX 7 13 6 14 5 15 4 16 3 17 2 18 1 19
REMARK H PARENT
REMARK Flexibility Score: inf
ROOT
ATOM      1  C   UNL     1      35.331  32.238  25.832  1.00  0.00     0.000 C 
ENDROOT
BRANCH   1   2
ATOM      2  C   UNL     1      36.622  32.310  24.997  1.00  0.00     0.000 C 
BRANCH   2   3
ATOM      3  C   UNL     1      36.891  31.025  24.196  1.00  0.00     0.000 C 
BRANCH   3   4
ATOM      4  C   UNL     1      36.552  31.170  22.702  1.00  0.00     0.000 C 
BRANCH   4   5
ATOM      5  C   UNL     1      35.452  30.223  22.182  1.00  0.00     0.001 C 
BRANCH   5   6
ATOM      6  C   UNL     1      34.087  30.342  22.893  1.00  0.00     0.009 C 
BRANCH   6   7
ATOM      7  C   UNL     1      32.940  30.886  22.011  1.00  0.00     0.032 C 
ATOM      8  C   UNL     1      33.274  32.251  21.394  1.00  0.00     0.014 C 
BRANCH   7   9
ATOM      9  C   UNL     1      32.639  29.897  20.917  1.00  0.00     0.044 C 
ATOM     10  O   UNL     1      32.164  28.766  21.201  1.00  0.00    -0.550 OA
ATOM     11  O   UNL     1      32.896  30.219  19.590  1.00  0.00    -0.550 OA
ENDBRANCH   7   9
ENDBRANCH   6   7
ENDBRANCH   5   6
ENDBRANCH   4   5
ENDBRANCH   3   4
ENDBRANCH   2   3
ENDBRANCH   1   2
BRANCH   1  12
ATOM     12  C   UNL     1      34.241  33.258  25.450  1.00  0.00     0.000 C 
BRANCH  12  13
ATOM     13  C   UNL     1      34.547  33.999  24.136  1.00  0.00    -0.000 C 
BRANCH  13  14
ATOM     14  C   UNL     1      34.737  35.511  24.344  1.00  0.00    -0.000 C 
BRANCH  14  15
ATOM     15  C   UNL     1      36.221  35.916  24.395  1.00  0.00    -0.000 C 
BRANCH  15  16
ATOM     16  C   UNL     1      36.796  35.878  25.820  1.00  0.00    -0.000 C 
BRANCH  16  17
ATOM     17  C   UNL     1      35.838  36.480  26.863  1.00  0.00    -0.000 C 
BRANCH  17  18
ATOM     18  C   UNL     1      35.732  35.619  28.131  1.00  0.00    -0.003 C 
ATOM     19  C   UNL     1      36.865  34.601  28.253  1.00  0.00     0.004 C 
ENDBRANCH  17  18
ENDBRANCH  16  17
ENDBRANCH  15  16
ENDBRANCH  14  15
ENDBRANCH  13  14
ENDBRANCH  12  13
ENDBRANCH   1  12
TORSDOF 14
ENDMDL
MODEL 8
REMARK VINA RESULT:    -3.733      1.277      2.065
REMARK INTER + INTRA:          -9.551
REMARK INTER:                  -7.380
REMARK INTRA:                  -2.171
REMARK UNBOUND:                -2.763
REMARK SMILES CCCCCCCCCCCCCC[C@@H](C)C(=O)[O-]
REMARK SMILES IDX 9 1 10 2 11 3 12 4 13 5 14 6 15 7 16 8 17 9 18 10 19 11 8 12
REMARK SMILES IDX 7 13 6 14 5 15 4 16 3 17 2 18 1 19
REMARK H PARENT
REMARK Flexibility Score: inf
ROOT
ATOM      1  C   UNL     1      34.558  32.698  22.149  1.00  0.00     0.000 C 
ENDROOT
BRANCH   1   2
ATOM      2  C   UNL     1      34.621  33.575  23.412  1.00  0.00     0.000 C 
BRANCH   2   3
ATOM      3  C   UNL     1      33.629  33.133  24.501  1.00  0.00     0.000 C 
BRANCH   3   4
ATOM      4  C   UNL     1      34.307  32.371  25.654  1.00  0.00     0.000 C 
BRANCH   4   5
ATOM      5  C   UNL     1      35.834  32.562  25.761  1.00  0.00     0.001 C 
BRANCH   5   6
ATOM      6  C   UNL     1      36.316  33.350  26.997  1.00  0.00     0.009 C 
BRANCH   6   7
ATOM      7  C   UNL     1      36.732  34.812  26.715  1.00  0.00     0.032 C 
ATOM      8  C   UNL     1      37.395  34.975  25.340  1.00  0.00     0.014 C 
BRANCH   7   9
ATOM      9  C   UNL     1      35.522  35.702  26.802  1.00  0.00     0.044 C 
ATOM     10  O   UNL     1      34.953  35.890  27.910  1.00  0.00    -0.550 OA
ATOM     11  O   UNL     1      35.014  36.311  25.661  1.00  0.00    -0.550 OA
ENDBRANCH   7   9
ENDBRANCH   6   7
ENDBRANCH   5   6
ENDBRANCH   4   5
ENDBRANCH   3   4
ENDBRANCH   2   3
ENDBRANCH   1   2
BRANCH   1  12
ATOM     12  C   UNL     1      35.357  31.382  22.221  1.00  0.00     0.000 C 
BRANCH  12  13
ATOM     13  C   UNL     1      34.480  30.166  22.563  1.00  0.00    -0.000 C 
BRANCH  13  14
ATOM     14  C   UNL     1      33.035  30.322  22.060  1.00  0.00    -0.000 C 
BRANCH  14  15
ATOM     15  C   UNL     1      32.443  28.997  21.547  1.00  0.00    -0.000 C 
BRANCH  15  16
ATOM     16  C   UNL     1      32.860  28.684  20.101  1.00  0.00    -0.000 C 
BRANCH  16  17
ATOM     17  C   UNL     1      32.842  29.928  19.195  1.00  0.00    -0.000 C 
BRANCH  17  18
ATOM     18  C   UNL     1      34.173  30.139  18.458  1.00  0.00    -0.003 C 
ATOM     19  C   UNL     1      34.684  31.577  18.555  1.00  0.00     0.004 C 
ENDBRANCH  17  18
ENDBRANCH  16  17
ENDBRANCH  15  16
ENDBRANCH  14  15
ENDBRANCH  13  14
ENDBRANCH  12  13
ENDBRANCH   1  12
TORSDOF 14
ENDMDL
MODEL 9
REMARK VINA RESULT:    -3.710      3.363      5.175
REMARK INTER + INTRA:          -9.509
REMARK INTER:                  -6.841
REMARK INTRA:                  -2.668
REMARK UNBOUND:                -2.763
REMARK SMILES CCCCCCCCCCCCCC[C@@H](C)C(=O)[O-]
REMARK SMILES IDX 9 1 10 2 11 3 12 4 13 5 14 6 15 7 16 8 17 9 18 10 19 11 8 12
REMARK SMILES IDX 7 13 6 14 5 15 4 16 3 17 2 18 1 19
REMARK H PARENT
REMARK Flexibility Score: inf
ROOT
ATOM      1  C   UNL     1      35.570  35.202  23.327  1.00  0.00     0.000 C 
ENDROOT
BRANCH   1   2
ATOM      2  C   UNL     1      36.187  35.772  24.617  1.00  0.00     0.000 C 
BRANCH   2   3
ATOM      3  C   UNL     1      35.147  36.429  25.541  1.00  0.00     0.000 C 
BRANCH   3   4
ATOM      4  C   UNL     1      35.007  35.707  26.893  1.00  0.00     0.000 C 
BRANCH   4   5
ATOM      5  C   UNL     1      36.124  34.694  27.217  1.00  0.00     0.001 C 
BRANCH   5   6
ATOM      6  C   UNL     1      36.756  34.833  28.618  1.00  0.00     0.009 C 
BRANCH   6   7
ATOM      7  C   UNL     1      37.964  35.794  28.694  1.00  0.00     0.032 C 
ATOM      8  C   UNL     1      38.743  35.858  27.373  1.00  0.00     0.014 C 
BRANCH   7   9
ATOM      9  C   UNL     1      37.485  37.171  29.065  1.00  0.00     0.044 C 
ATOM     10  O   UNL     1      36.435  37.313  29.747  1.00  0.00    -0.550 OA
ATOM     11  O   UNL     1      38.186  38.296  28.646  1.00  0.00    -0.550 OA
ENDBRANCH   7   9
ENDBRANCH   6   7
ENDBRANCH   5   6
ENDBRANCH   4   5
ENDBRANCH   3   4
ENDBRANCH   2   3
ENDBRANCH   1   2
BRANCH   1  12
ATOM     12  C   UNL     1      34.049  34.959  23.376  1.00  0.00     0.000 C 
BRANCH  12  13
ATOM     13  C   UNL     1      33.683  33.467  23.472  1.00  0.00    -0.000 C 
BRANCH  13  14
ATOM     14  C   UNL     1      33.639  32.965  24.925  1.00  0.00    -0.000 C 
BRANCH  14  15
ATOM     15  C   UNL     1      34.750  31.944  25.228  1.00  0.00    -0.000 C 
BRANCH  15  16
ATOM     16  C   UNL     1      35.526  31.523  23.969  1.00  0.00    -0.000 C 
BRANCH  16  17
ATOM     17  C   UNL     1      37.025  31.304  24.242  1.00  0.00    -0.000 C 
BRANCH  17  18
ATOM     18  C   UNL     1      37.674  32.500  24.957  1.00  0.00    -0.003 C 
ATOM     19  C   UNL     1      38.735  32.079  25.973  1.00  0.00     0.004 C 
ENDBRANCH  17  18
ENDBRANCH  16  17
ENDBRANCH  15  16
ENDBRANCH  14  15
ENDBRANCH  13  14
ENDBRANCH  12  13
ENDBRANCH   1  12
TORSDOF 14
ENDMDL
