MODEL 1
REMARK VINA RESULT:    -3.764      0.000      0.000
REMARK INTER + INTRA:          -4.520
REMARK INTER:                  -4.424
REMARK INTRA:                  -0.097
REMARK UNBOUND:                -0.097
REMARK SMILES O=C([O-])CCC(=O)[O-]
REMARK SMILES IDX 4 1 2 2 1 3 3 4 5 5 6 6 7 7 8 8
REMARK H PARENT
REMARK Flexibility Score: inf
ROOT
ATOM      1  C   UNL     1      -3.681  37.877  18.747  1.00  0.00     0.059 C 
ENDROOT
BRANCH   1   2
ATOM      2  C   UNL     1      -3.958  36.574  19.434  1.00  0.00     0.042 C 
ATOM      3  O   UNL     1      -3.575  36.389  20.619  1.00  0.00    -0.550 OA
ATOM      4  O   UNL     1      -4.675  35.581  18.779  1.00  0.00    -0.550 OA
ENDBRANCH   1   2
BRANCH   1   5
ATOM      5  C   UNL     1      -2.306  37.877  18.069  1.00  0.00     0.059 C 
BRANCH   5   6
ATOM      6  C   UNL     1      -2.402  37.485  16.626  1.00  0.00     0.042 C 
ATOM      7  O   UNL     1      -3.153  38.125  15.845  1.00  0.00    -0.550 OA
ATOM      8  O   UNL     1      -1.631  36.438  16.137  1.00  0.00    -0.550 OA
ENDBRANCH   5   6
ENDBRANCH   1   5
TORSDOF 3
ENDMDL
MODEL 2
REMARK VINA RESULT:    -3.761      0.041      3.754
REMARK INTER + INTRA:          -4.518
REMARK INTER:                  -4.420
REMARK INTRA:                  -0.098
REMARK UNBOUND:                -0.097
REMARK SMILES O=C([O-])CCC(=O)[O-]
REMARK SMILES IDX 4 1 2 2 1 3 3 4 5 5 6 6 7 7 8 8
REMARK H PARENT
REMARK Flexibility Score: inf
ROOT
ATOM      1  C   UNL     1      -2.308  37.872  18.056  1.00  0.00     0.059 C 
ENDROOT
BRANCH   1   2
ATOM      2  C   UNL     1      -2.427  37.482  16.614  1.00  0.00     0.042 C 
ATOM      3  O   UNL     1      -3.150  38.156  15.833  1.00  0.00    -0.550 OA
ATOM      4  O   UNL     1      -1.708  36.399  16.124  1.00  0.00    -0.550 OA
ENDBRANCH   1   2
BRANCH   1   5
ATOM      5  C   UNL     1      -3.672  37.870  18.756  1.00  0.00     0.059 C 
BRANCH   5   6
ATOM      6  C   UNL     1      -3.940  36.564  19.439  1.00  0.00     0.042 C 
ATOM      7  O   UNL     1      -3.527  36.366  20.611  1.00  0.00    -0.550 OA
ATOM      8  O   UNL     1      -4.680  35.581  18.794  1.00  0.00    -0.550 OA
ENDBRANCH   5   6
ENDBRANCH   1   5
TORSDOF 3
ENDMDL
MODEL 3
REMARK VINA RESULT:    -3.748      0.095      1.148
REMARK INTER + INTRA:          -4.502
REMARK INTER:                  -4.407
REMARK INTRA:                  -0.095
REMARK UNBOUND:                -0.097
REMARK SMILES O=C([O-])CCC(=O)[O-]
REMARK SMILES IDX 4 1 2 2 1 3 3 4 5 5 6 6 7 7 8 8
REMARK H PARENT
REMARK Flexibility Score: inf
ROOT
ATOM      1  C   UNL     1      -3.593  37.891  18.681  1.00  0.00     0.059 C 
ENDROOT
BRANCH   1   2
ATOM      2  C   UNL     1      -3.904  36.613  19.398  1.00  0.00     0.042 C 
ATOM      3  O   UNL     1      -3.517  36.442  20.584  1.00  0.00    -0.550 OA
ATOM      4  O   UNL     1      -4.657  35.628  18.771  1.00  0.00    -0.550 OA
ENDBRANCH   1   2
BRANCH   1   5
ATOM      5  C   UNL     1      -2.209  37.848  18.024  1.00  0.00     0.059 C 
BRANCH   5   6
ATOM      6  C   UNL     1      -2.295  37.459  16.580  1.00  0.00     0.042 C 
ATOM      7  O   UNL     1      -1.624  36.486  16.145  1.00  0.00    -0.550 OA
ATOM      8  O   UNL     1      -3.147  38.145  15.724  1.00  0.00    -0.550 OA
ENDBRANCH   5   6
ENDBRANCH   1   5
TORSDOF 3
ENDMDL
MODEL 4
REMARK VINA RESULT:    -3.746      2.242      4.061
REMARK INTER + INTRA:          -4.500
REMARK INTER:                  -4.469
REMARK INTRA:                  -0.032
REMARK UNBOUND:                -0.097
REMARK SMILES O=C([O-])CCC(=O)[O-]
REMARK SMILES IDX 4 1 2 2 1 3 3 4 5 5 6 6 7 7 8 8
REMARK H PARENT
REMARK Flexibility Score: inf
ROOT
ATOM      1  C   UNL     1      -3.081  37.824  16.518  1.00  0.00     0.059 C 
ENDROOT
BRANCH   1   2
ATOM      2  C   UNL     1      -3.183  37.706  15.028  1.00  0.00     0.042 C 
ATOM      3  O   UNL     1      -2.590  36.773  14.424  1.00  0.00    -0.550 OA
ATOM      4  O   UNL     1      -3.967  38.601  14.310  1.00  0.00    -0.550 OA
ENDBRANCH   1   2
BRANCH   1   5
ATOM      5  C   UNL     1      -1.695  37.409  17.024  1.00  0.00     0.059 C 
BRANCH   5   6
ATOM      6  C   UNL     1      -1.434  37.924  18.406  1.00  0.00     0.042 C 
ATOM      7  O   UNL     1      -0.268  38.247  18.752  1.00  0.00    -0.550 OA
ATOM      8  O   UNL     1      -2.487  38.086  19.298  1.00  0.00    -0.550 OA
ENDBRANCH   5   6
ENDBRANCH   1   5
TORSDOF 3
ENDMDL
MODEL 5
REMARK VINA RESULT:    -3.692      1.790      4.055
REMARK INTER + INTRA:          -4.436
REMARK INTER:                  -4.391
REMARK INTRA:                  -0.045
REMARK UNBOUND:                -0.097
REMARK SMILES O=C([O-])CCC(=O)[O-]
REMARK SMILES IDX 4 1 2 2 1 3 3 4 5 5 6 6 7 7 8 8
REMARK H PARENT
REMARK Flexibility Score: inf
ROOT
ATOM      1  C   UNL     1      -2.567  37.891  19.856  1.00  0.00     0.059 C 
ENDROOT
BRANCH   1   2
ATOM      2  C   UNL     1      -1.709  38.110  18.648  1.00  0.00     0.042 C 
ATOM      3  O   UNL     1      -0.479  38.347  18.779  1.00  0.00    -0.550 OA
ATOM      4  O   UNL     1      -2.259  38.011  17.376  1.00  0.00    -0.550 OA
ENDBRANCH   1   2
BRANCH   1   5
ATOM      5  C   UNL     1      -3.906  37.242  19.487  1.00  0.00     0.059 C 
BRANCH   5   6
ATOM      6  C   UNL     1      -4.376  36.301  20.554  1.00  0.00     0.042 C 
ATOM      7  O   UNL     1      -5.607  36.130  20.750  1.00  0.00    -0.550 OA
ATOM      8  O   UNL     1      -3.452  35.583  21.303  1.00  0.00    -0.550 OA
ENDBRANCH   5   6
ENDBRANCH   1   5
TORSDOF 3
ENDMDL
MODEL 6
REMARK VINA RESULT:    -3.692      1.801      2.195
REMARK INTER + INTRA:          -4.436
REMARK INTER:                  -4.388
REMARK INTRA:                  -0.048
REMARK UNBOUND:                -0.097
REMARK SMILES O=C([O-])CCC(=O)[O-]
REMARK SMILES IDX 4 1 2 2 1 3 3 4 5 5 6 6 7 7 8 8
REMARK H PARENT
REMARK Flexibility Score: inf
ROOT
ATOM      1  C   UNL     1      -3.977  37.292  19.526  1.00  0.00     0.059 C 
ENDROOT
BRANCH   1   2
ATOM      2  C   UNL     1      -4.425  36.359  20.609  1.00  0.00     0.042 C 
ATOM      3  O   UNL     1      -5.653  36.171  20.815  1.00  0.00    -0.550 OA
ATOM      4  O   UNL     1      -3.487  35.664  21.363  1.00  0.00    -0.550 OA
ENDBRANCH   1   2
BRANCH   1   5
ATOM      5  C   UNL     1      -2.623  37.931  19.857  1.00  0.00     0.059 C 
BRANCH   5   6
ATOM      6  C   UNL     1      -1.782  38.108  18.630  1.00  0.00     0.042 C 
ATOM      7  O   UNL     1      -2.315  38.094  17.489  1.00  0.00    -0.550 OA
ATOM      8  O   UNL     1      -0.416  38.329  18.748  1.00  0.00    -0.550 OA
ENDBRANCH   5   6
ENDBRANCH   1   5
TORSDOF 3
ENDMDL
MODEL 7
REMARK VINA RESULT:    -3.672      2.005      2.745
REMARK INTER + INTRA:          -4.413
REMARK INTER:                  -4.367
REMARK INTRA:                  -0.047
REMARK UNBOUND:                -0.097
REMARK SMILES O=C([O-])CCC(=O)[O-]
REMARK SMILES IDX 4 1 2 2 1 3 3 4 5 5 6 6 7 7 8 8
REMARK H PARENT
REMARK Flexibility Score: inf
ROOT
ATOM      1  C   UNL     1      -1.840  37.238  17.017  1.00  0.00     0.059 C 
ENDROOT
BRANCH   1   2
ATOM      2  C   UNL     1      -2.207  37.995  18.256  1.00  0.00     0.042 C 
ATOM      3  O   UNL     1      -1.330  38.642  18.887  1.00  0.00    -0.550 OA
ATOM      4  O   UNL     1      -3.526  38.019  18.693  1.00  0.00    -0.550 OA
ENDBRANCH   1   2
BRANCH   1   5
ATOM      5  C   UNL     1      -3.082  36.836  16.212  1.00  0.00     0.059 C 
BRANCH   5   6
ATOM      6  C   UNL     1      -3.005  37.323  14.798  1.00  0.00     0.042 C 
ATOM      7  O   UNL     1      -2.077  36.932  14.043  1.00  0.00    -0.550 OA
ATOM      8  O   UNL     1      -3.982  38.178  14.302  1.00  0.00    -0.550 OA
ENDBRANCH   5   6
ENDBRANCH   1   5
TORSDOF 3
ENDMDL
MODEL 8
REMARK VINA RESULT:    -3.468      3.304      4.645
REMARK INTER + INTRA:          -4.173
REMARK INTER:                  -4.145
REMARK INTRA:                  -0.028
REMARK UNBOUND:                -0.097
REMARK SMILES O=C([O-])CCC(=O)[O-]
REMARK SMILES IDX 4 1 2 2 1 3 3 4 5 5 6 6 7 7 8 8
REMARK H PARENT
REMARK Flexibility Score: inf
ROOT
ATOM      1  C   UNL     1      -5.763  36.401  22.475  1.00  0.00     0.059 C 
ENDROOT
BRANCH   1   2
ATOM      2  C   UNL     1      -5.613  35.724  23.803  1.00  0.00     0.042 C 
ATOM      3  O   UNL     1      -5.253  36.384  24.813  1.00  0.00    -0.550 OA
ATOM      4  O   UNL     1      -5.911  34.374  23.933  1.00  0.00    -0.550 OA
ENDBRANCH   1   2
BRANCH   1   5
ATOM      5  C   UNL     1      -4.622  36.031  21.520  1.00  0.00     0.059 C 
BRANCH   5   6
ATOM      6  C   UNL     1      -4.873  36.544  20.135  1.00  0.00     0.042 C 
ATOM      7  O   UNL     1      -5.163  37.755  19.951  1.00  0.00    -0.550 OA
ATOM      8  O   UNL     1      -4.746  35.692  19.045  1.00  0.00    -0.550 OA
ENDBRANCH   5   6
ENDBRANCH   1   5
TORSDOF 3
ENDMDL
MODEL 9
REMARK VINA RESULT:    -3.386      2.841      5.466
REMARK INTER + INTRA:          -4.077
REMARK INTER:                  -3.976
REMARK INTRA:                  -0.101
REMARK UNBOUND:                -0.097
REMARK SMILES O=C([O-])CCC(=O)[O-]
REMARK SMILES IDX 4 1 2 2 1 3 3 4 5 5 6 6 7 7 8 8
REMARK H PARENT
REMARK Flexibility Score: inf
ROOT
ATOM      1  C   UNL     1      -4.391  36.149  20.686  1.00  0.00     0.059 C 
ENDROOT
BRANCH   1   2
ATOM      2  C   UNL     1      -4.340  37.414  19.884  1.00  0.00     0.042 C 
ATOM      3  O   UNL     1      -3.499  37.543  18.956  1.00  0.00    -0.550 OA
ATOM      4  O   UNL     1      -5.250  38.434  20.135  1.00  0.00    -0.550 OA
ENDBRANCH   1   2
BRANCH   1   5
ATOM      5  C   UNL     1      -5.756  35.959  21.357  1.00  0.00     0.059 C 
BRANCH   5   6
ATOM      6  C   UNL     1      -5.642  35.957  22.850  1.00  0.00     0.042 C 
ATOM      7  O   UNL     1      -5.823  37.020  23.501  1.00  0.00    -0.550 OA
ATOM      8  O   UNL     1      -5.375  34.773  23.526  1.00  0.00    -0.550 OA
ENDBRANCH   5   6
ENDBRANCH   1   5
TORSDOF 3
ENDMDL
