MODEL 1
REMARK VINA RESULT:    -4.507      0.000      0.000
REMARK INTER + INTRA:          -6.352
REMARK INTER:                  -6.351
REMARK INTRA:                  -0.000
REMARK UNBOUND:                -0.000
REMARK SMILES CC1=CCC(=C(C)C)C(=O)CC(C)=CCC1
REMARK SMILES IDX 12 1 14 2 13 3 15 4 16 5 2 6 1 7 3 8 11 10 9 11 10 12 5 13
REMARK SMILES IDX 6 14 7 15 8 16 4 17
REMARK H PARENT
REMARK Flexibility Score: 60.00
ROOT
ATOM      1  C   UNL     1      26.780  54.489  18.006  1.00  0.00    -0.070 C 
ATOM      2  C   UNL     1      26.498  54.796  19.293  1.00  0.00    -0.027 C 
ATOM      3  C   UNL     1      28.173  54.019  17.674  1.00  0.00     0.039 C 
ENDROOT
BRANCH   2   4
ATOM      4  C   UNL     1      25.133  55.159  19.830  1.00  0.00     0.032 C 
BRANCH   4   5
ATOM      5  C   UNL     1      24.304  53.980  20.363  1.00  0.00     0.034 C 
BRANCH   5   6
ATOM      6  C   UNL     1      25.112  52.720  20.612  1.00  0.00    -0.077 C 
ATOM      7  C   UNL     1      25.816  52.588  21.939  1.00  0.00     0.039 C 
ATOM      8  C   UNL     1      25.306  51.735  19.700  1.00  0.00    -0.023 CG0
ATOM      9  G   UNL     1      24.622  51.539  18.359  1.00  0.00     0.000 G0
ENDBRANCH   5   6
ENDBRANCH   4   5
ENDBRANCH   2   4
BRANCH   1  10
ATOM     10  C   UNL     1      25.797  54.674  16.870  1.00  0.00     0.111 C 
BRANCH  10  11
ATOM     11  C   UNL     1      24.874  53.489  16.752  1.00  0.00     0.163 C 
ATOM     12  O   UNL     1      23.704  53.668  16.316  1.00  0.00    -0.294 OA
BRANCH  11  13
ATOM     13  C   UNL     1      25.292  52.116  17.143  1.00  0.00    -0.002 C 
ATOM     14  C   UNL     1      26.114  51.392  16.335  1.00  0.00    -0.069 C 
ATOM     15  C   UNL     1      26.451  49.951  16.638  1.00  0.00     0.039 C 
ATOM     16  C   UNL     1      26.742  52.021  15.113  1.00  0.00     0.039 C 
BRANCH  13  17
ATOM     17  C   UNL     1      24.624  51.518  18.367  1.00  0.00     0.066 CG0
ATOM     18  G   UNL     1      25.312  51.729  19.703  1.00  0.00     0.000 G0
ENDBRANCH  13  17
ENDBRANCH  11  13
ENDBRANCH  10  11
ENDBRANCH   1  10
TORSDOF 0
ENDMDL
MODEL 2
REMARK VINA RESULT:    -4.504      6.922      8.386
REMARK INTER + INTRA:          -6.347
REMARK INTER:                  -6.227
REMARK INTRA:                  -0.120
REMARK UNBOUND:                -0.000
REMARK SMILES CC1=CCC(=C(C)C)C(=O)CC(C)=CCC1
REMARK SMILES IDX 12 1 14 2 13 3 15 4 16 5 2 6 1 7 3 8 11 10 9 11 10 12 5 13
REMARK SMILES IDX 6 14 7 15 8 16 4 17
REMARK H PARENT
REMARK Flexibility Score: 60.00
ROOT
ATOM      1  C   UNL     1      29.593  57.952  11.527  1.00  0.00    -0.070 C 
ATOM      2  C   UNL     1      30.591  57.053  11.684  1.00  0.00    -0.027 C 
ATOM      3  C   UNL     1      29.760  59.319  12.140  1.00  0.00     0.039 C 
ENDROOT
BRANCH   2   4
ATOM      4  C   UNL     1      30.654  55.689  11.039  1.00  0.00     0.032 C 
BRANCH   4   5
ATOM      5  C   UNL     1      30.383  54.506  11.982  1.00  0.00     0.034 C 
BRANCH   5   6
ATOM      6  C   UNL     1      29.427  53.472  11.416  1.00  0.00    -0.077 C 
ATOM      7  C   UNL     1      30.017  52.315  10.648  1.00  0.00     0.039 C 
ATOM      8  C   UNL     1      28.075  53.551  11.488  1.00  0.00    -0.023 CG0
ATOM      9  G   UNL     1      27.226  54.511  12.302  1.00  0.00     0.000 G0
ENDBRANCH   5   6
ENDBRANCH   4   5
ENDBRANCH   2   4
BRANCH   1  10
ATOM     10  C   UNL     1      28.281  57.630  10.843  1.00  0.00     0.111 C 
BRANCH  10  11
ATOM     11  C   UNL     1      27.299  57.021  11.810  1.00  0.00     0.163 C 
ATOM     12  O   UNL     1      27.029  57.641  12.875  1.00  0.00    -0.294 OA
BRANCH  11  13
ATOM     13  C   UNL     1      26.645  55.711  11.557  1.00  0.00    -0.002 C 
ATOM     14  C   UNL     1      25.502  55.644  10.819  1.00  0.00    -0.069 C 
ATOM     15  C   UNL     1      24.743  54.349  10.654  1.00  0.00     0.039 C 
ATOM     16  C   UNL     1      24.968  56.870  10.115  1.00  0.00     0.039 C 
BRANCH  13  17
ATOM     17  C   UNL     1      27.204  54.510  12.296  1.00  0.00     0.066 CG0
ATOM     18  G   UNL     1      28.072  53.551  11.503  1.00  0.00     0.000 G0
ENDBRANCH  13  17
ENDBRANCH  11  13
ENDBRANCH  10  11
ENDBRANCH   1  10
TORSDOF 0
ENDMDL
MODEL 3
REMARK VINA RESULT:    -4.502      7.350      8.821
REMARK INTER + INTRA:          -6.345
REMARK INTER:                  -6.408
REMARK INTRA:                   0.063
REMARK UNBOUND:                -0.000
REMARK SMILES CC1=CCC(=C(C)C)C(=O)CC(C)=CCC1
REMARK SMILES IDX 12 1 14 2 13 3 15 4 16 5 2 6 1 7 3 8 11 10 9 11 10 12 5 13
REMARK SMILES IDX 6 14 7 15 8 16 4 17
REMARK H PARENT
REMARK Flexibility Score: 60.00
ROOT
ATOM      1  C   UNL     1      24.778  56.120   9.323  1.00  0.00    -0.070 C 
ATOM      2  C   UNL     1      25.507  56.828  10.216  1.00  0.00    -0.027 C 
ATOM      3  C   UNL     1      25.001  56.381   7.854  1.00  0.00     0.039 C 
ENDROOT
BRANCH   2   4
ATOM      4  C   UNL     1      25.510  56.615  11.711  1.00  0.00     0.032 C 
BRANCH   4   5
ATOM      5  C   UNL     1      26.840  56.116  12.298  1.00  0.00     0.034 C 
BRANCH   5   6
ATOM      6  C   UNL     1      27.847  55.672  11.255  1.00  0.00    -0.077 C 
ATOM      7  C   UNL     1      29.014  56.585  10.972  1.00  0.00     0.039 C 
ATOM      8  C   UNL     1      27.737  54.547  10.505  1.00  0.00    -0.023 CG0
ATOM      9  G   UNL     1      26.761  53.396  10.665  1.00  0.00     0.000 G0
ENDBRANCH   5   6
ENDBRANCH   4   5
ENDBRANCH   2   4
BRANCH   1  10
ATOM     10  C   UNL     1      23.693  55.143   9.719  1.00  0.00     0.111 C 
BRANCH  10  11
ATOM     11  C   UNL     1      24.282  53.829  10.165  1.00  0.00     0.163 C 
ATOM     12  O   UNL     1      23.643  53.124  10.992  1.00  0.00    -0.294 OA
BRANCH  11  13
ATOM     13  C   UNL     1      25.596  53.340   9.669  1.00  0.00    -0.002 C 
ATOM     14  C   UNL     1      25.691  52.733   8.455  1.00  0.00    -0.069 C 
ATOM     15  C   UNL     1      26.982  52.110   7.981  1.00  0.00     0.039 C 
ATOM     16  C   UNL     1      24.501  52.686   7.523  1.00  0.00     0.039 C 
BRANCH  13  17
ATOM     17  C   UNL     1      26.758  53.392  10.643  1.00  0.00     0.066 CG0
ATOM     18  G   UNL     1      27.730  54.549  10.500  1.00  0.00     0.000 G0
ENDBRANCH  13  17
ENDBRANCH  11  13
ENDBRANCH  10  11
ENDBRANCH   1  10
TORSDOF 0
ENDMDL
MODEL 4
REMARK VINA RESULT:    -4.451      7.892      9.192
REMARK INTER + INTRA:          -6.272
REMARK INTER:                  -6.217
REMARK INTRA:                  -0.056
REMARK UNBOUND:                -0.000
REMARK SMILES CC1=CCC(=C(C)C)C(=O)CC(C)=CCC1
REMARK SMILES IDX 12 1 14 2 13 3 15 4 16 5 2 6 1 7 3 8 11 10 9 11 10 12 5 13
REMARK SMILES IDX 6 14 7 15 8 16 4 17
REMARK H PARENT
REMARK Flexibility Score: 60.00
ROOT
ATOM      1  C   UNL     1      27.734  53.189  10.281  1.00  0.00    -0.070 C 
ATOM      2  C   UNL     1      28.309  54.248  10.895  1.00  0.00    -0.027 C 
ATOM      3  C   UNL     1      28.620  52.245   9.507  1.00  0.00     0.039 C 
ENDROOT
BRANCH   2   4
ATOM      4  C   UNL     1      27.604  55.220  11.812  1.00  0.00     0.032 C 
BRANCH   4   5
ATOM      5  C   UNL     1      27.488  56.656  11.279  1.00  0.00     0.034 C 
BRANCH   5   6
ATOM      6  C   UNL     1      26.081  57.221  11.332  1.00  0.00    -0.077 C 
ATOM      7  C   UNL     1      25.740  58.152  12.470  1.00  0.00     0.039 C 
ATOM      8  C   UNL     1      25.085  56.895  10.470  1.00  0.00    -0.023 CG0
ATOM      9  G   UNL     1      25.175  56.108   9.176  1.00  0.00     0.000 G0
ENDBRANCH   5   6
ENDBRANCH   4   5
ENDBRANCH   2   4
BRANCH   1  10
ATOM     10  C   UNL     1      26.240  52.947  10.258  1.00  0.00     0.111 C 
BRANCH  10  11
ATOM     11  C   UNL     1      25.605  53.590   9.052  1.00  0.00     0.163 C 
ATOM     12  O   UNL     1      25.930  53.185   7.903  1.00  0.00    -0.294 OA
BRANCH  11  13
ATOM     13  C   UNL     1      24.614  54.693   9.170  1.00  0.00    -0.002 C 
ATOM     14  C   UNL     1      23.280  54.428   9.117  1.00  0.00    -0.069 C 
ATOM     15  C   UNL     1      22.254  55.535   9.102  1.00  0.00     0.039 C 
ATOM     16  C   UNL     1      22.779  53.001   9.098  1.00  0.00     0.039 C 
BRANCH  13  17
ATOM     17  C   UNL     1      25.161  56.108   9.169  1.00  0.00     0.066 CG0
ATOM     18  G   UNL     1      25.086  56.879  10.474  1.00  0.00     0.000 G0
ENDBRANCH  13  17
ENDBRANCH  11  13
ENDBRANCH  10  11
ENDBRANCH   1  10
TORSDOF 0
ENDMDL
MODEL 5
REMARK VINA RESULT:    -4.447      1.915      4.641
REMARK INTER + INTRA:          -6.266
REMARK INTER:                  -6.212
REMARK INTRA:                  -0.054
REMARK UNBOUND:                -0.000
REMARK SMILES CC1=CCC(=C(C)C)C(=O)CC(C)=CCC1
REMARK SMILES IDX 12 1 14 2 13 3 15 4 16 5 2 6 1 7 3 8 11 10 9 11 10 12 5 13
REMARK SMILES IDX 6 14 7 15 8 16 4 17
REMARK H PARENT
REMARK Flexibility Score: 60.00
ROOT
ATOM      1  C   UNL     1      24.047  51.484  18.833  1.00  0.00    -0.070 C 
ATOM      2  C   UNL     1      24.540  50.406  18.180  1.00  0.00    -0.027 C 
ATOM      3  C   UNL     1      22.552  51.672  18.874  1.00  0.00     0.039 C 
ENDROOT
BRANCH   2   4
ATOM      4  C   UNL     1      25.991  49.990  18.143  1.00  0.00     0.032 C 
BRANCH   4   5
ATOM      5  C   UNL     1      26.658  50.063  16.761  1.00  0.00     0.034 C 
BRANCH   5   6
ATOM      6  C   UNL     1      28.018  50.736  16.767  1.00  0.00    -0.077 C 
ATOM      7  C   UNL     1      29.240  49.852  16.752  1.00  0.00     0.039 C 
ATOM      8  C   UNL     1      28.216  52.076  16.857  1.00  0.00    -0.023 CG0
ATOM      9  G   UNL     1      27.193  53.191  16.750  1.00  0.00     0.000 G0
ENDBRANCH   5   6
ENDBRANCH   4   5
ENDBRANCH   2   4
BRANCH   1  10
ATOM     10  C   UNL     1      24.920  52.555  19.452  1.00  0.00     0.111 C 
BRANCH  10  11
ATOM     11  C   UNL     1      25.302  53.599  18.433  1.00  0.00     0.163 C 
ATOM     12  O   UNL     1      24.391  54.282  17.891  1.00  0.00    -0.294 OA
BRANCH  11  13
ATOM     13  C   UNL     1      26.714  53.844  18.040  1.00  0.00    -0.002 C 
ATOM     14  C   UNL     1      27.476  54.736  18.730  1.00  0.00    -0.069 C 
ATOM     15  C   UNL     1      28.869  55.103  18.278  1.00  0.00     0.039 C 
ATOM     16  C   UNL     1      26.956  55.373  19.999  1.00  0.00     0.039 C 
BRANCH  13  17
ATOM     17  C   UNL     1      27.189  53.198  16.752  1.00  0.00     0.066 CG0
ATOM     18  G   UNL     1      28.204  52.076  16.873  1.00  0.00     0.000 G0
ENDBRANCH  13  17
ENDBRANCH  11  13
ENDBRANCH  10  11
ENDBRANCH   1  10
TORSDOF 0
ENDMDL
MODEL 6
REMARK VINA RESULT:    -4.440      2.719      5.064
REMARK INTER + INTRA:          -6.258
REMARK INTER:                  -6.175
REMARK INTRA:                  -0.083
REMARK UNBOUND:                -0.000
REMARK SMILES CC1=CCC(=C(C)C)C(=O)CC(C)=CCC1
REMARK SMILES IDX 12 1 14 2 13 3 15 4 16 5 2 6 1 7 3 8 11 10 9 11 10 12 5 13
REMARK SMILES IDX 6 14 7 15 8 16 4 17
REMARK H PARENT
REMARK Flexibility Score: 60.00
ROOT
ATOM      1  C   UNL     1      29.502  49.613  16.397  1.00  0.00    -0.070 C 
ATOM      2  C   UNL     1      30.465  50.539  16.186  1.00  0.00    -0.027 C 
ATOM      3  C   UNL     1      29.680  48.246  15.785  1.00  0.00     0.039 C 
ENDROOT
BRANCH   2   4
ATOM      4  C   UNL     1      30.519  51.909  16.819  1.00  0.00     0.032 C 
BRANCH   4   5
ATOM      5  C   UNL     1      30.010  53.059  15.937  1.00  0.00     0.034 C 
BRANCH   5   6
ATOM      6  C   UNL     1      29.188  54.093  16.684  1.00  0.00    -0.077 C 
ATOM      7  C   UNL     1      29.928  55.197  17.398  1.00  0.00     0.039 C 
ATOM      8  C   UNL     1      27.838  54.056  16.817  1.00  0.00    -0.023 CG0
ATOM      9  G   UNL     1      26.842  53.158  16.106  1.00  0.00     0.000 G0
ENDBRANCH   5   6
ENDBRANCH   4   5
ENDBRANCH   2   4
BRANCH   1  10
ATOM     10  C   UNL     1      28.217  49.901  17.144  1.00  0.00     0.111 C 
BRANCH  10  11
ATOM     11  C   UNL     1      27.239  50.646  16.272  1.00  0.00     0.163 C 
ATOM     12  O   UNL     1      27.058  50.256  15.087  1.00  0.00    -0.294 OA
BRANCH  11  13
ATOM     13  C   UNL     1      26.486  51.832  16.759  1.00  0.00    -0.002 C 
ATOM     14  C   UNL     1      25.447  51.680  17.625  1.00  0.00    -0.069 C 
ATOM     15  C   UNL     1      24.582  52.847  18.035  1.00  0.00     0.039 C 
ATOM     16  C   UNL     1      25.140  50.328  18.228  1.00  0.00     0.039 C 
BRANCH  13  17
ATOM     17  C   UNL     1      26.816  53.166  16.115  1.00  0.00     0.066 CG0
ATOM     18  G   UNL     1      27.836  54.041  16.819  1.00  0.00     0.000 G0
ENDBRANCH  13  17
ENDBRANCH  11  13
ENDBRANCH  10  11
ENDBRANCH   1  10
TORSDOF 0
ENDMDL
MODEL 7
REMARK VINA RESULT:    -4.357      8.479      9.982
REMARK INTER + INTRA:          -6.140
REMARK INTER:                  -6.302
REMARK INTRA:                   0.162
REMARK UNBOUND:                -0.000
REMARK SMILES CC1=CCC(=C(C)C)C(=O)CC(C)=CCC1
REMARK SMILES IDX 12 1 14 2 13 3 15 4 16 5 2 6 1 7 3 8 11 10 9 11 10 12 5 13
REMARK SMILES IDX 6 14 7 15 8 16 4 17
REMARK H PARENT
REMARK Flexibility Score: 60.00
ROOT
ATOM      1  C   UNL     1      24.967  55.980   9.602  1.00  0.00    -0.070 C 
ATOM      2  C   UNL     1      25.622  55.712   8.449  1.00  0.00    -0.027 C 
ATOM      3  C   UNL     1      25.736  56.629  10.725  1.00  0.00     0.039 C 
ENDROOT
BRANCH   2   4
ATOM      4  C   UNL     1      24.989  55.185   7.183  1.00  0.00     0.032 C 
BRANCH   4   5
ATOM      5  C   UNL     1      25.527  53.830   6.696  1.00  0.00     0.034 C 
BRANCH   5   6
ATOM      6  C   UNL     1      25.721  52.810   7.802  1.00  0.00    -0.077 C 
ATOM      7  C   UNL     1      27.132  52.387   8.128  1.00  0.00     0.039 C 
ATOM      8  C   UNL     1      24.713  52.195   8.471  1.00  0.00    -0.023 CG0
ATOM      9  G   UNL     1      23.231  52.517   8.449  1.00  0.00     0.000 G0
ENDBRANCH   5   6
ENDBRANCH   4   5
ENDBRANCH   2   4
BRANCH   1  10
ATOM     10  C   UNL     1      23.528  55.586   9.855  1.00  0.00     0.111 C 
BRANCH  10  11
ATOM     11  C   UNL     1      23.436  54.178  10.385  1.00  0.00     0.163 C 
ATOM     12  O   UNL     1      24.071  53.878  11.432  1.00  0.00    -0.294 OA
BRANCH  11  13
ATOM     13  C   UNL     1      22.629  53.128   9.710  1.00  0.00    -0.002 C 
ATOM     14  C   UNL     1      21.491  52.655  10.290  1.00  0.00    -0.069 C 
ATOM     15  C   UNL     1      20.722  51.499   9.695  1.00  0.00     0.039 C 
ATOM     16  C   UNL     1      20.945  53.295  11.546  1.00  0.00     0.039 C 
BRANCH  13  17
ATOM     17  C   UNL     1      23.223  52.502   8.462  1.00  0.00     0.066 CG0
ATOM     18  G   UNL     1      24.711  52.205   8.478  1.00  0.00     0.000 G0
ENDBRANCH  13  17
ENDBRANCH  11  13
ENDBRANCH  10  11
ENDBRANCH   1  10
TORSDOF 0
ENDMDL
MODEL 8
REMARK VINA RESULT:    -4.305      1.905      3.847
REMARK INTER + INTRA:          -6.067
REMARK INTER:                  -6.320
REMARK INTRA:                   0.253
REMARK UNBOUND:                -0.000
REMARK SMILES CC1=CCC(=C(C)C)C(=O)CC(C)=CCC1
REMARK SMILES IDX 12 1 14 2 13 3 15 4 16 5 2 6 1 7 3 8 11 10 9 11 10 12 5 13
REMARK SMILES IDX 6 14 7 15 8 16 4 17
REMARK H PARENT
REMARK Flexibility Score: 60.00
ROOT
ATOM      1  C   UNL     1      26.174  50.135  16.745  1.00  0.00    -0.070 C 
ATOM      2  C   UNL     1      25.271  50.109  17.752  1.00  0.00    -0.027 C 
ATOM      3  C   UNL     1      25.897  49.307  15.517  1.00  0.00     0.039 C 
ENDROOT
BRANCH   2   4
ATOM      4  C   UNL     1      25.318  50.966  18.995  1.00  0.00     0.032 C 
BRANCH   4   5
ATOM      5  C   UNL     1      24.704  52.366  18.849  1.00  0.00     0.034 C 
BRANCH   5   6
ATOM      6  C   UNL     1      25.579  53.483  19.387  1.00  0.00    -0.077 C 
ATOM      7  C   UNL     1      25.613  53.691  20.881  1.00  0.00     0.039 C 
ATOM      8  C   UNL     1      26.278  54.355  18.617  1.00  0.00    -0.023 CG0
ATOM      9  G   UNL     1      26.534  54.301  17.123  1.00  0.00     0.000 G0
ENDBRANCH   5   6
ENDBRANCH   4   5
ENDBRANCH   2   4
BRANCH   1  10
ATOM     10  C   UNL     1      27.487  50.885  16.821  1.00  0.00     0.111 C 
BRANCH  10  11
ATOM     11  C   UNL     1      27.426  52.167  16.029  1.00  0.00     0.163 C 
ATOM     12  O   UNL     1      27.127  52.113  14.805  1.00  0.00    -0.294 OA
BRANCH  11  13
ATOM     13  C   UNL     1      27.717  53.490  16.640  1.00  0.00    -0.002 C 
ATOM     14  C   UNL     1      29.000  53.863  16.898  1.00  0.00    -0.069 C 
ATOM     15  C   UNL     1      29.320  55.141  17.635  1.00  0.00     0.039 C 
ATOM     16  C   UNL     1      30.158  53.012  16.427  1.00  0.00     0.039 C 
BRANCH  13  17
ATOM     17  C   UNL     1      26.526  54.304  17.112  1.00  0.00     0.066 CG0
ATOM     18  G   UNL     1      26.281  54.368  18.608  1.00  0.00     0.000 G0
ENDBRANCH  13  17
ENDBRANCH  11  13
ENDBRANCH  10  11
ENDBRANCH   1  10
TORSDOF 0
ENDMDL
MODEL 9
REMARK VINA RESULT:    -4.253      6.136      7.870
REMARK INTER + INTRA:          -5.993
REMARK INTER:                  -6.304
REMARK INTRA:                   0.311
REMARK UNBOUND:                -0.000
REMARK SMILES CC1=CCC(=C(C)C)C(=O)CC(C)=CCC1
REMARK SMILES IDX 12 1 14 2 13 3 15 4 16 5 2 6 1 7 3 8 11 10 9 11 10 12 5 13
REMARK SMILES IDX 6 14 7 15 8 16 4 17
REMARK H PARENT
REMARK Flexibility Score: 60.00
ROOT
ATOM      1  C   UNL     1      30.446  56.908  11.148  1.00  0.00    -0.070 C 
ATOM      2  C   UNL     1      29.428  57.751  10.862  1.00  0.00    -0.027 C 
ATOM      3  C   UNL     1      31.794  57.500  11.474  1.00  0.00     0.039 C 
ENDROOT
BRANCH   2   4
ATOM      4  C   UNL     1      27.990  57.347  10.638  1.00  0.00     0.032 C 
BRANCH   4   5
ATOM      5  C   UNL     1      27.058  57.547  11.843  1.00  0.00     0.034 C 
BRANCH   5   6
ATOM      6  C   UNL     1      27.786  57.758  13.157  1.00  0.00    -0.077 C 
ATOM      7  C   UNL     1      28.116  59.174  13.558  1.00  0.00     0.039 C 
ATOM      8  C   UNL     1      28.227  56.760  13.965  1.00  0.00    -0.023 CG0
ATOM      9  G   UNL     1      27.923  55.276  13.885  1.00  0.00     0.000 G0
ENDBRANCH   5   6
ENDBRANCH   4   5
ENDBRANCH   2   4
BRANCH   1  10
ATOM     10  C   UNL     1      30.326  55.400  11.077  1.00  0.00     0.111 C 
BRANCH  10  11
ATOM     11  C   UNL     1      29.965  54.821  12.421  1.00  0.00     0.163 C 
ATOM     12  O   UNL     1      30.881  54.622  13.265  1.00  0.00    -0.294 OA
BRANCH  11  13
ATOM     13  C   UNL     1      28.567  54.466  12.782  1.00  0.00    -0.002 C 
ATOM     14  C   UNL     1      27.868  53.572  12.030  1.00  0.00    -0.069 C 
ATOM     15  C   UNL     1      26.408  53.290  12.292  1.00  0.00     0.039 C 
ATOM     16  C   UNL     1      28.545  52.809  10.915  1.00  0.00     0.039 C 
BRANCH  13  17
ATOM     17  C   UNL     1      27.922  55.269  13.896  1.00  0.00     0.066 CG0
ATOM     18  G   UNL     1      28.233  56.753  13.950  1.00  0.00     0.000 G0
ENDBRANCH  13  17
ENDBRANCH  11  13
ENDBRANCH  10  11
ENDBRANCH   1  10
TORSDOF 0
ENDMDL
