MODEL 1
REMARK VINA RESULT:    -4.939      0.000      0.000
REMARK INTER + INTRA:          -6.939
REMARK INTER:                  -7.537
REMARK INTRA:                   0.598
REMARK UNBOUND:                 0.598
REMARK SMILES CC1=CCC[C@H](C)C(=O)C[C@@H](C(C)C)C(=O)C1
REMARK SMILES IDX 8 1 9 2 6 3 7 4 5 5 4 6 3 7 2 8 1 9 10 11 11 12 15 13 16 14
REMARK SMILES IDX 17 15 12 17 13 18 14 19
REMARK H PARENT
REMARK Flexibility Score: 70.00
ROOT
ATOM      1  C   UNL     1       3.175  10.743  30.317  1.00  0.00     0.136 C 
ATOM      2  O   UNL     1       2.415   9.913  29.837  1.00  0.00    -0.299 OA
ENDROOT
BRANCH   1   3
ATOM      3  C   UNL     1       3.029  11.141  31.767  1.00  0.00     0.053 C 
ATOM      4  C   UNL     1       4.121  12.146  32.151  1.00  0.00     0.016 C 
BRANCH   3   5
ATOM      5  C   UNL     1       1.630  11.718  32.056  1.00  0.00     0.015 C 
BRANCH   5   6
ATOM      6  C   UNL     1       1.492  13.198  31.637  1.00  0.00     0.028 C 
BRANCH   6   7
ATOM      7  C   UNL     1       0.375  13.389  30.637  1.00  0.00    -0.028 C 
ATOM      8  C   UNL     1       0.474  13.866  29.372  1.00  0.00    -0.070 CG0
ATOM      9  C   UNL     1      -0.787  13.899  28.544  1.00  0.00     0.039 C 
ATOM     10  G   UNL     1       1.757  14.375  28.736  1.00  0.00     0.000 G0
ENDBRANCH   6   7
ENDBRANCH   5   6
ENDBRANCH   3   5
ENDBRANCH   1   3
BRANCH   1  11
ATOM     11  C   UNL     1       4.202  11.432  29.448  1.00  0.00     0.087 C 
BRANCH  11  12
ATOM     12  C   UNL     1       3.932  12.945  29.248  1.00  0.00     0.066 C 
BRANCH  12  13
ATOM     13  C   UNL     1       2.687  13.242  28.424  1.00  0.00     0.140 C 
ATOM     14  O   UNL     1       2.406  12.476  27.513  1.00  0.00    -0.299 OA
BRANCH  13  15
ATOM     15  C   UNL     1       1.736  14.379  28.727  1.00  0.00     0.106 CG0
ATOM     16  G   UNL     1       0.456  13.869  29.368  1.00  0.00     0.000 G0
ENDBRANCH  13  15
ENDBRANCH  12  13
BRANCH  12  17
ATOM     17  C   UNL     1       5.159  13.746  28.714  1.00  0.00    -0.006 C 
ATOM     18  C   UNL     1       4.874  14.396  27.351  1.00  0.00     0.008 C 
ATOM     19  C   UNL     1       5.694  14.800  29.697  1.00  0.00     0.008 C 
ENDBRANCH  12  17
ENDBRANCH  11  12
ENDBRANCH   1  11
TORSDOF 1
ENDMDL
MODEL 2
REMARK VINA RESULT:    -4.875      1.966      3.901
REMARK INTER + INTRA:          -6.841
REMARK INTER:                  -7.447
REMARK INTRA:                   0.605
REMARK UNBOUND:                 0.598
REMARK SMILES CC1=CCC[C@H](C)C(=O)C[C@@H](C(C)C)C(=O)C1
REMARK SMILES IDX 8 1 9 2 6 3 7 4 5 5 4 6 3 7 2 8 1 9 10 11 11 12 15 13 16 14
REMARK SMILES IDX 17 15 12 17 13 18 14 19
REMARK H PARENT
REMARK Flexibility Score: 70.00
ROOT
ATOM      1  C   UNL     1       4.891  14.392  30.651  1.00  0.00     0.136 C 
ATOM      2  O   UNL     1       5.823  15.026  31.127  1.00  0.00    -0.299 OA
ENDROOT
BRANCH   1   3
ATOM      3  C   UNL     1       4.797  14.209  29.154  1.00  0.00     0.053 C 
ATOM      4  C   UNL     1       6.031  14.809  28.470  1.00  0.00     0.016 C 
BRANCH   3   5
ATOM      5  C   UNL     1       4.633  12.724  28.776  1.00  0.00     0.015 C 
BRANCH   5   6
ATOM      6  C   UNL     1       3.550  12.493  27.701  1.00  0.00     0.028 C 
BRANCH   6   7
ATOM      7  C   UNL     1       2.367  13.414  27.898  1.00  0.00    -0.028 C 
ATOM      8  C   UNL     1       1.342  13.263  28.772  1.00  0.00    -0.070 CG0
ATOM      9  C   UNL     1       0.309  14.362  28.823  1.00  0.00     0.039 C 
ATOM     10  G   UNL     1       1.157  12.068  29.693  1.00  0.00     0.000 G0
ENDBRANCH   6   7
ENDBRANCH   5   6
ENDBRANCH   3   5
ENDBRANCH   1   3
BRANCH   1  11
ATOM     11  C   UNL     1       3.793  13.861  31.544  1.00  0.00     0.087 C 
BRANCH  11  12
ATOM     12  C   UNL     1       3.338  12.425  31.181  1.00  0.00     0.066 C 
BRANCH  12  13
ATOM     13  C   UNL     1       1.830  12.278  31.030  1.00  0.00     0.140 C 
ATOM     14  O   UNL     1       1.139  12.405  32.031  1.00  0.00    -0.299 OA
BRANCH  13  15
ATOM     15  C   UNL     1       1.139  12.072  29.699  1.00  0.00     0.106 CG0
ATOM     16  G   UNL     1       1.349  13.265  28.781  1.00  0.00     0.000 G0
ENDBRANCH  13  15
ENDBRANCH  12  13
BRANCH  12  17
ATOM     17  C   UNL     1       3.916  11.318  32.117  1.00  0.00    -0.006 C 
ATOM     18  C   UNL     1       4.621  10.205  31.327  1.00  0.00     0.008 C 
ATOM     19  C   UNL     1       4.846  11.853  33.218  1.00  0.00     0.008 C 
ENDBRANCH  12  17
ENDBRANCH  11  12
ENDBRANCH   1  11
TORSDOF 1
ENDMDL
MODEL 3
REMARK VINA RESULT:    -4.857      1.519      3.209
REMARK INTER + INTRA:          -6.814
REMARK INTER:                  -6.984
REMARK INTRA:                   0.170
REMARK UNBOUND:                 0.598
REMARK SMILES CC1=CCC[C@H](C)C(=O)C[C@@H](C(C)C)C(=O)C1
REMARK SMILES IDX 8 1 9 2 6 3 7 4 5 5 4 6 3 7 2 8 1 9 10 11 11 12 15 13 16 14
REMARK SMILES IDX 17 15 12 17 13 18 14 19
REMARK H PARENT
REMARK Flexibility Score: 70.00
ROOT
ATOM      1  C   UNL     1       3.489  12.126  28.544  1.00  0.00     0.136 C 
ATOM      2  O   UNL     1       2.979  11.092  28.135  1.00  0.00    -0.299 OA
ENDROOT
BRANCH   1   3
ATOM      3  C   UNL     1       3.090  13.449  27.933  1.00  0.00     0.053 C 
ATOM      4  C   UNL     1       3.750  13.618  26.560  1.00  0.00     0.016 C 
BRANCH   3   5
ATOM      5  C   UNL     1       1.559  13.580  27.822  1.00  0.00     0.015 C 
BRANCH   5   6
ATOM      6  C   UNL     1       0.956  14.518  28.889  1.00  0.00     0.028 C 
BRANCH   6   7
ATOM      7  C   UNL     1       0.085  13.759  29.865  1.00  0.00    -0.028 C 
ATOM      8  C   UNL     1       0.404  13.368  31.123  1.00  0.00    -0.070 CG0
ATOM      9  C   UNL     1      -0.671  12.676  31.926  1.00  0.00     0.039 C 
ATOM     10  G   UNL     1       1.762  13.569  31.774  1.00  0.00     0.000 G0
ENDBRANCH   6   7
ENDBRANCH   5   6
ENDBRANCH   3   5
ENDBRANCH   1   3
BRANCH   1  11
ATOM     11  C   UNL     1       4.574  12.080  29.596  1.00  0.00     0.087 C 
BRANCH  11  12
ATOM     12  C   UNL     1       4.170  12.751  30.933  1.00  0.00     0.066 C 
BRANCH  12  13
ATOM     13  C   UNL     1       2.730  12.477  31.347  1.00  0.00     0.140 C 
ATOM     14  O   UNL     1       2.360  11.313  31.399  1.00  0.00    -0.299 OA
BRANCH  13  15
ATOM     15  C   UNL     1       1.765  13.560  31.779  1.00  0.00     0.106 CG0
ATOM     16  G   UNL     1       0.404  13.374  31.130  1.00  0.00     0.000 G0
ENDBRANCH  13  15
ENDBRANCH  12  13
BRANCH  12  17
ATOM     17  C   UNL     1       4.490  14.277  31.002  1.00  0.00    -0.006 C 
ATOM     18  C   UNL     1       4.874  14.721  32.422  1.00  0.00     0.008 C 
ATOM     19  C   UNL     1       5.560  14.737  29.999  1.00  0.00     0.008 C 
ENDBRANCH  12  17
ENDBRANCH  11  12
ENDBRANCH   1  11
TORSDOF 1
ENDMDL
MODEL 4
REMARK VINA RESULT:    -4.679      2.276      4.702
REMARK INTER + INTRA:          -6.543
REMARK INTER:                  -6.500
REMARK INTRA:                  -0.042
REMARK UNBOUND:                 0.598
REMARK SMILES CC1=CCC[C@H](C)C(=O)C[C@@H](C(C)C)C(=O)C1
REMARK SMILES IDX 8 1 9 2 6 3 7 4 5 5 4 6 3 7 2 8 1 9 10 11 11 12 15 13 16 14
REMARK SMILES IDX 17 15 12 17 13 18 14 19
REMARK H PARENT
REMARK Flexibility Score: 70.00
ROOT
ATOM      1  C   UNL     1       3.714  12.804  28.323  1.00  0.00     0.136 C 
ATOM      2  O   UNL     1       4.926  12.736  28.474  1.00  0.00    -0.299 OA
ENDROOT
BRANCH   1   3
ATOM      3  C   UNL     1       2.982  11.681  27.625  1.00  0.00     0.053 C 
ATOM      4  C   UNL     1       3.218  11.757  26.112  1.00  0.00     0.016 C 
BRANCH   3   5
ATOM      5  C   UNL     1       3.405  10.305  28.175  1.00  0.00     0.015 C 
BRANCH   5   6
ATOM      6  C   UNL     1       2.727   9.959  29.517  1.00  0.00     0.028 C 
BRANCH   6   7
ATOM      7  C   UNL     1       3.711  10.003  30.663  1.00  0.00    -0.028 C 
ATOM      8  C   UNL     1       3.701  10.844  31.726  1.00  0.00    -0.070 CG0
ATOM      9  C   UNL     1       4.766  10.643  32.778  1.00  0.00     0.039 C 
ATOM     10  G   UNL     1       2.706  11.974  31.928  1.00  0.00     0.000 G0
ENDBRANCH   6   7
ENDBRANCH   5   6
ENDBRANCH   3   5
ENDBRANCH   1   3
BRANCH   1  11
ATOM     11  C   UNL     1       2.958  14.040  28.755  1.00  0.00     0.087 C 
BRANCH  11  12
ATOM     12  C   UNL     1       2.217  13.872  30.106  1.00  0.00     0.066 C 
BRANCH  12  13
ATOM     13  C   UNL     1       3.071  13.245  31.200  1.00  0.00     0.140 C 
ATOM     14  O   UNL     1       4.083  13.838  31.548  1.00  0.00    -0.299 OA
BRANCH  13  15
ATOM     15  C   UNL     1       2.688  11.980  31.937  1.00  0.00     0.106 CG0
ATOM     16  G   UNL     1       3.709  10.879  31.706  1.00  0.00     0.000 G0
ENDBRANCH  13  15
ENDBRANCH  12  13
BRANCH  12  17
ATOM     17  C   UNL     1       0.839  13.150  29.992  1.00  0.00    -0.006 C 
ATOM     18  C   UNL     1       0.027  13.249  31.293  1.00  0.00     0.008 C 
ATOM     19  C   UNL     1      -0.016  13.618  28.802  1.00  0.00     0.008 C 
ENDBRANCH  12  17
ENDBRANCH  11  12
ENDBRANCH   1  11
TORSDOF 1
ENDMDL
MODEL 5
REMARK VINA RESULT:    -4.590      1.705      3.213
REMARK INTER + INTRA:          -6.407
REMARK INTER:                  -7.152
REMARK INTRA:                   0.745
REMARK UNBOUND:                 0.598
REMARK SMILES CC1=CCC[C@H](C)C(=O)C[C@@H](C(C)C)C(=O)C1
REMARK SMILES IDX 8 1 9 2 6 3 7 4 5 5 4 6 3 7 2 8 1 9 10 11 11 12 15 13 16 14
REMARK SMILES IDX 17 15 12 17 13 18 14 19
REMARK H PARENT
REMARK Flexibility Score: 70.00
ROOT
ATOM      1  C   UNL     1       1.662  12.411  31.780  1.00  0.00     0.136 C 
ATOM      2  O   UNL     1       1.962  11.253  32.036  1.00  0.00    -0.299 OA
ENDROOT
BRANCH   1   3
ATOM      3  C   UNL     1       0.327  12.714  31.139  1.00  0.00     0.053 C 
ATOM      4  C   UNL     1      -0.747  12.895  32.218  1.00  0.00     0.016 C 
BRANCH   3   5
ATOM      5  C   UNL     1       0.406  13.958  30.233  1.00  0.00     0.015 C 
BRANCH   5   6
ATOM      6  C   UNL     1       0.454  13.606  28.731  1.00  0.00     0.028 C 
BRANCH   6   7
ATOM      7  C   UNL     1       1.722  14.113  28.083  1.00  0.00    -0.028 C 
ATOM      8  C   UNL     1       2.930  13.500  28.044  1.00  0.00    -0.070 CG0
ATOM      9  C   UNL     1       4.031  14.188  27.273  1.00  0.00     0.039 C 
ATOM     10  G   UNL     1       3.255  12.182  28.727  1.00  0.00     0.000 G0
ENDBRANCH   6   7
ENDBRANCH   5   6
ENDBRANCH   3   5
ENDBRANCH   1   3
BRANCH   1  11
ATOM     11  C   UNL     1       2.650  13.529  32.025  1.00  0.00     0.087 C 
BRANCH  11  12
ATOM     12  C   UNL     1       3.714  13.671  30.907  1.00  0.00     0.066 C 
BRANCH  12  13
ATOM     13  C   UNL     1       3.910  12.407  30.082  1.00  0.00     0.140 C 
ATOM     14  O   UNL     1       4.573  11.501  30.567  1.00  0.00    -0.299 OA
BRANCH  13  15
ATOM     15  C   UNL     1       3.257  12.178  28.736  1.00  0.00     0.106 CG0
ATOM     16  G   UNL     1       2.941  13.496  28.047  1.00  0.00     0.000 G0
ENDBRANCH  13  15
ENDBRANCH  12  13
BRANCH  12  17
ATOM     17  C   UNL     1       5.084  14.233  31.400  1.00  0.00    -0.006 C 
ATOM     18  C   UNL     1       5.759  15.118  30.341  1.00  0.00     0.008 C 
ATOM     19  C   UNL     1       5.007  14.982  32.740  1.00  0.00     0.008 C 
ENDBRANCH  12  17
ENDBRANCH  11  12
ENDBRANCH   1  11
TORSDOF 1
ENDMDL
MODEL 6
REMARK VINA RESULT:    -4.579      2.155      4.061
REMARK INTER + INTRA:          -6.390
REMARK INTER:                  -6.289
REMARK INTRA:                  -0.101
REMARK UNBOUND:                 0.598
REMARK SMILES CC1=CCC[C@H](C)C(=O)C[C@@H](C(C)C)C(=O)C1
REMARK SMILES IDX 8 1 9 2 6 3 7 4 5 5 4 6 3 7 2 8 1 9 10 11 11 12 15 13 16 14
REMARK SMILES IDX 17 15 12 17 13 18 14 19
REMARK H PARENT
REMARK Flexibility Score: 70.00
ROOT
ATOM      1  C   UNL     1       1.546  14.042  29.275  1.00  0.00     0.136 C 
ATOM      2  O   UNL     1       1.114  14.636  28.297  1.00  0.00    -0.299 OA
ENDROOT
BRANCH   1   3
ATOM      3  C   UNL     1       0.715  13.973  30.536  1.00  0.00     0.053 C 
ATOM      4  C   UNL     1      -0.515  13.087  30.310  1.00  0.00     0.016 C 
BRANCH   3   5
ATOM      5  C   UNL     1       1.544  13.463  31.730  1.00  0.00     0.015 C 
BRANCH   5   6
ATOM      6  C   UNL     1       1.263  11.983  32.068  1.00  0.00     0.028 C 
BRANCH   6   7
ATOM      7  C   UNL     1       2.528  11.254  32.461  1.00  0.00    -0.028 C 
ATOM      8  C   UNL     1       3.297  10.458  31.678  1.00  0.00    -0.070 CG0
ATOM      9  C   UNL     1       4.556   9.894  32.291  1.00  0.00     0.039 C 
ATOM     10  G   UNL     1       2.978  10.089  30.239  1.00  0.00     0.000 G0
ENDBRANCH   6   7
ENDBRANCH   5   6
ENDBRANCH   3   5
ENDBRANCH   1   3
BRANCH   1  11
ATOM     11  C   UNL     1       2.937  13.450  29.258  1.00  0.00     0.087 C 
BRANCH  11  12
ATOM     12  C   UNL     1       3.034  12.119  28.471  1.00  0.00     0.066 C 
BRANCH  12  13
ATOM     13  C   UNL     1       3.701  10.993  29.250  1.00  0.00     0.140 C 
ATOM     14  O   UNL     1       4.910  10.851  29.132  1.00  0.00    -0.299 OA
BRANCH  13  15
ATOM     15  C   UNL     1       2.963  10.101  30.226  1.00  0.00     0.106 CG0
ATOM     16  G   UNL     1       3.290  10.472  31.663  1.00  0.00     0.000 G0
ENDBRANCH  13  15
ENDBRANCH  12  13
BRANCH  12  17
ATOM     17  C   UNL     1       3.664  12.263  27.051  1.00  0.00    -0.006 C 
ATOM     18  C   UNL     1       2.868  11.493  25.987  1.00  0.00     0.008 C 
ATOM     19  C   UNL     1       3.869  13.719  26.603  1.00  0.00     0.008 C 
ENDBRANCH  12  17
ENDBRANCH  11  12
ENDBRANCH   1  11
TORSDOF 1
ENDMDL
MODEL 7
REMARK VINA RESULT:    -4.218      1.947      4.685
REMARK INTER + INTRA:          -5.840
REMARK INTER:                  -6.503
REMARK INTRA:                   0.664
REMARK UNBOUND:                 0.598
REMARK SMILES CC1=CCC[C@H](C)C(=O)C[C@@H](C(C)C)C(=O)C1
REMARK SMILES IDX 8 1 9 2 6 3 7 4 5 5 4 6 3 7 2 8 1 9 10 11 11 12 15 13 16 14
REMARK SMILES IDX 17 15 12 17 13 18 14 19
REMARK H PARENT
REMARK Flexibility Score: 70.00
ROOT
ATOM      1  C   UNL     1       3.562  13.740  28.417  1.00  0.00     0.136 C 
ATOM      2  O   UNL     1       3.336  14.671  27.656  1.00  0.00    -0.299 OA
ENDROOT
BRANCH   1   3
ATOM      3  C   UNL     1       4.846  13.718  29.213  1.00  0.00     0.053 C 
ATOM      4  C   UNL     1       6.004  14.254  28.363  1.00  0.00     0.016 C 
BRANCH   3   5
ATOM      5  C   UNL     1       4.713  14.521  30.521  1.00  0.00     0.015 C 
BRANCH   5   6
ATOM      6  C   UNL     1       3.853  13.802  31.583  1.00  0.00     0.028 C 
BRANCH   6   7
ATOM      7  C   UNL     1       4.515  12.531  32.064  1.00  0.00    -0.028 C 
ATOM      8  C   UNL     1       3.941  11.313  32.223  1.00  0.00    -0.070 CG0
ATOM      9  C   UNL     1       4.837  10.178  32.658  1.00  0.00     0.039 C 
ATOM     10  G   UNL     1       2.467  11.014  32.006  1.00  0.00     0.000 G0
ENDBRANCH   6   7
ENDBRANCH   5   6
ENDBRANCH   3   5
ENDBRANCH   1   3
BRANCH   1  11
ATOM     11  C   UNL     1       2.605  12.573  28.502  1.00  0.00     0.087 C 
BRANCH  11  12
ATOM     12  C   UNL     1       1.873  12.469  29.864  1.00  0.00     0.066 C 
BRANCH  12  13
ATOM     13  C   UNL     1       2.062  11.129  30.562  1.00  0.00     0.140 C 
ATOM     14  O   UNL     1       1.947  10.113  29.892  1.00  0.00    -0.299 OA
BRANCH  13  15
ATOM     15  C   UNL     1       2.469  10.993  32.013  1.00  0.00     0.106 CG0
ATOM     16  G   UNL     1       3.940  11.321  32.204  1.00  0.00     0.000 G0
ENDBRANCH  13  15
ENDBRANCH  12  13
BRANCH  12  17
ATOM     17  C   UNL     1       0.363  12.861  29.808  1.00  0.00    -0.006 C 
ATOM     18  C   UNL     1      -0.197  13.197  31.199  1.00  0.00     0.008 C 
ATOM     19  C   UNL     1       0.049  14.001  28.825  1.00  0.00     0.008 C 
ENDBRANCH  12  17
ENDBRANCH  11  12
ENDBRANCH   1  11
TORSDOF 1
ENDMDL
MODEL 8
REMARK VINA RESULT:    -4.195      1.917      3.156
REMARK INTER + INTRA:          -5.803
REMARK INTER:                  -6.783
REMARK INTRA:                   0.980
REMARK UNBOUND:                 0.598
REMARK SMILES CC1=CCC[C@H](C)C(=O)C[C@@H](C(C)C)C(=O)C1
REMARK SMILES IDX 8 1 9 2 6 3 7 4 5 5 4 6 3 7 2 8 1 9 10 11 11 12 15 13 16 14
REMARK SMILES IDX 17 15 12 17 13 18 14 19
REMARK H PARENT
REMARK Flexibility Score: 70.00
ROOT
ATOM      1  C   UNL     1       5.184  14.449  29.967  1.00  0.00     0.136 C 
ATOM      2  O   UNL     1       5.812  15.189  29.223  1.00  0.00    -0.299 OA
ENDROOT
BRANCH   1   3
ATOM      3  C   UNL     1       5.386  14.542  31.462  1.00  0.00     0.053 C 
ATOM      4  C   UNL     1       5.990  15.902  31.830  1.00  0.00     0.016 C 
BRANCH   3   5
ATOM      5  C   UNL     1       4.069  14.305  32.225  1.00  0.00     0.015 C 
BRANCH   5   6
ATOM      6  C   UNL     1       3.503  12.883  32.022  1.00  0.00     0.028 C 
BRANCH   6   7
ATOM      7  C   UNL     1       1.994  12.869  32.114  1.00  0.00    -0.028 C 
ATOM      8  C   UNL     1       1.111  12.568  31.131  1.00  0.00    -0.070 CG0
ATOM      9  C   UNL     1      -0.354  12.561  31.494  1.00  0.00     0.039 C 
ATOM     10  G   UNL     1       1.490  12.247  29.694  1.00  0.00     0.000 G0
ENDBRANCH   6   7
ENDBRANCH   5   6
ENDBRANCH   3   5
ENDBRANCH   1   3
BRANCH   1  11
ATOM     11  C   UNL     1       4.269  13.388  29.397  1.00  0.00     0.087 C 
BRANCH  11  12
ATOM     12  C   UNL     1       3.142  13.959  28.500  1.00  0.00     0.066 C 
BRANCH  12  13
ATOM     13  C   UNL     1       1.745  13.513  28.911  1.00  0.00     0.140 C 
ATOM     14  O   UNL     1       0.794  14.173  28.519  1.00  0.00    -0.299 OA
BRANCH  13  15
ATOM     15  C   UNL     1       1.470  12.253  29.702  1.00  0.00     0.106 CG0
ATOM     16  G   UNL     1       1.105  12.576  31.142  1.00  0.00     0.000 G0
ENDBRANCH  13  15
ENDBRANCH  12  13
BRANCH  12  17
ATOM     17  C   UNL     1       3.370  13.738  26.972  1.00  0.00    -0.006 C 
ATOM     18  C   UNL     1       4.636  14.449  26.470  1.00  0.00     0.008 C 
ATOM     19  C   UNL     1       3.395  12.260  26.550  1.00  0.00     0.008 C 
ENDBRANCH  12  17
ENDBRANCH  11  12
ENDBRANCH   1  11
TORSDOF 1
ENDMDL
MODEL 9
REMARK VINA RESULT:    -4.069      2.184      3.750
REMARK INTER + INTRA:          -5.611
REMARK INTER:                  -6.019
REMARK INTRA:                   0.408
REMARK UNBOUND:                 0.598
REMARK SMILES CC1=CCC[C@H](C)C(=O)C[C@@H](C(C)C)C(=O)C1
REMARK SMILES IDX 8 1 9 2 6 3 7 4 5 5 4 6 3 7 2 8 1 9 10 11 11 12 15 13 16 14
REMARK SMILES IDX 17 15 12 17 13 18 14 19
REMARK H PARENT
REMARK Flexibility Score: 70.00
ROOT
ATOM      1  C   UNL     1       0.808  13.518  29.211  1.00  0.00     0.136 C 
ATOM      2  O   UNL     1      -0.330  13.649  28.783  1.00  0.00    -0.299 OA
ENDROOT
BRANCH   1   3
ATOM      3  C   UNL     1       1.031  12.890  30.567  1.00  0.00     0.053 C 
ATOM      4  C   UNL     1      -0.250  12.974  31.405  1.00  0.00     0.016 C 
BRANCH   3   5
ATOM      5  C   UNL     1       1.506  11.430  30.442  1.00  0.00     0.015 C 
BRANCH   5   6
ATOM      6  C   UNL     1       2.477  11.014  31.567  1.00  0.00     0.028 C 
BRANCH   6   7
ATOM      7  C   UNL     1       3.088  12.219  32.246  1.00  0.00    -0.028 C 
ATOM      8  C   UNL     1       4.104  12.992  31.794  1.00  0.00    -0.070 CG0
ATOM      9  C   UNL     1       4.492  14.187  32.632  1.00  0.00     0.039 C 
ATOM     10  G   UNL     1       4.884  12.738  30.514  1.00  0.00     0.000 G0
ENDBRANCH   6   7
ENDBRANCH   5   6
ENDBRANCH   3   5
ENDBRANCH   1   3
BRANCH   1  11
ATOM     11  C   UNL     1       1.985  14.053  28.427  1.00  0.00     0.087 C 
BRANCH  11  12
ATOM     12  C   UNL     1       3.219  13.116  28.444  1.00  0.00     0.066 C 
BRANCH  12  13
ATOM     13  C   UNL     1       4.332  13.583  29.373  1.00  0.00     0.140 C 
ATOM     14  O   UNL     1       4.757  14.721  29.232  1.00  0.00    -0.299 OA
BRANCH  13  15
ATOM     15  C   UNL     1       4.876  12.747  30.511  1.00  0.00     0.106 CG0
ATOM     16  G   UNL     1       4.098  12.993  31.794  1.00  0.00     0.000 G0
ENDBRANCH  13  15
ENDBRANCH  12  13
BRANCH  12  17
ATOM     17  C   UNL     1       3.780  12.775  27.028  1.00  0.00    -0.006 C 
ATOM     18  C   UNL     1       2.960  11.678  26.332  1.00  0.00     0.008 C 
ATOM     19  C   UNL     1       3.921  13.994  26.102  1.00  0.00     0.008 C 
ENDBRANCH  12  17
ENDBRANCH  11  12
ENDBRANCH   1  11
TORSDOF 1
ENDMDL
