MODEL 1
REMARK VINA RESULT:    -3.878      0.000      0.000
REMARK INTER + INTRA:          -5.306
REMARK INTER:                  -5.012
REMARK INTRA:                  -0.294
REMARK UNBOUND:                -0.294
REMARK SMILES CCO[C@@H]1O[C@H](CO)[C@@H](O)[C@@H](O)[C@@H]1O
REMARK SMILES IDX 4 1 13 2 11 3 9 4 6 5 5 6 3 7 2 8 1 9 14 10 12 12 7 14 8 15
REMARK SMILES IDX 10 17
REMARK H PARENT 14 11 12 13 8 16 10 18
REMARK Flexibility Score: inf
ROOT
ATOM      1  C   UNL     1      13.179  49.310  26.717  1.00  0.00     0.281 C 
ATOM      2  C   UNL     1      13.400  50.362  25.617  1.00  0.00     0.202 C 
ATOM      3  C   UNL     1      12.054  50.922  25.135  1.00  0.00     0.179 C 
ATOM      4  C   UNL     1      11.261  51.447  26.336  1.00  0.00     0.177 C 
ATOM      5  C   UNL     1      11.158  50.373  27.446  1.00  0.00     0.178 C 
ATOM      6  O   UNL     1      12.419  49.814  27.810  1.00  0.00    -0.341 OA
ENDROOT
BRANCH   1   7
ATOM      7  O   UNL     1      12.591  48.141  26.170  1.00  0.00    -0.350 OA
BRANCH   7   8
ATOM      8  C   UNL     1      13.129  46.971  26.760  1.00  0.00     0.160 C 
ATOM      9  C   UNL     1      14.344  46.495  25.972  1.00  0.00     0.035 C 
ENDBRANCH   7   8
ENDBRANCH   1   7
BRANCH   2  10
ATOM     10  O   UNL     1      14.093  49.773  24.546  1.00  0.00    -0.385 OA
ATOM     11  H   UNL     1      13.889  48.801  24.566  1.00  0.00     0.211 HD
ENDBRANCH   2  10
BRANCH   3  12
ATOM     12  O   UNL     1      12.262  51.971  24.223  1.00  0.00    -0.387 OA
ATOM     13  H   UNL     1      12.884  51.632  23.528  1.00  0.00     0.211 HD
ENDBRANCH   3  12
BRANCH   5  14
ATOM     14  C   UNL     1      10.083  49.304  27.157  1.00  0.00     0.191 C 
BRANCH  14  15
ATOM     15  O   UNL     1       8.915  49.898  26.659  1.00  0.00    -0.394 OA
ATOM     16  H   UNL     1       8.259  49.166  26.522  1.00  0.00     0.210 HD
ENDBRANCH  14  15
ENDBRANCH   5  14
BRANCH   4  17
ATOM     17  O   UNL     1      11.892  52.596  26.847  1.00  0.00    -0.387 OA
ATOM     18  H   UNL     1      11.266  53.001  27.503  1.00  0.00     0.211 HD
ENDBRANCH   4  17
TORSDOF 7
ENDMDL
MODEL 2
REMARK VINA RESULT:    -3.805      8.142     10.368
REMARK INTER + INTRA:          -5.211
REMARK INTER:                  -4.737
REMARK INTRA:                  -0.474
REMARK UNBOUND:                -0.294
REMARK SMILES CCO[C@@H]1O[C@H](CO)[C@@H](O)[C@@H](O)[C@@H]1O
REMARK SMILES IDX 4 1 13 2 11 3 9 4 6 5 5 6 3 7 2 8 1 9 14 10 12 12 7 14 8 15
REMARK SMILES IDX 10 17
REMARK H PARENT 14 11 12 13 8 16 10 18
REMARK Flexibility Score: inf
ROOT
ATOM      1  C   UNL     1       4.804  45.521  32.681  1.00  0.00     0.281 C 
ATOM      2  C   UNL     1       4.385  46.108  31.322  1.00  0.00     0.202 C 
ATOM      3  C   UNL     1       5.470  47.056  30.793  1.00  0.00     0.179 C 
ATOM      4  C   UNL     1       6.815  46.323  30.756  1.00  0.00     0.177 C 
ATOM      5  C   UNL     1       7.132  45.674  32.125  1.00  0.00     0.178 C 
ATOM      6  O   UNL     1       6.068  44.866  32.627  1.00  0.00    -0.341 OA
ENDROOT
BRANCH   1   7
ATOM      7  O   UNL     1       4.782  46.526  33.681  1.00  0.00    -0.350 OA
BRANCH   7   8
ATOM      8  C   UNL     1       4.307  46.016  34.913  1.00  0.00     0.160 C 
ATOM      9  C   UNL     1       4.589  47.005  36.037  1.00  0.00     0.035 C 
ENDBRANCH   7   8
ENDBRANCH   1   7
BRANCH   2  10
ATOM     10  O   UNL     1       3.169  46.795  31.472  1.00  0.00    -0.385 OA
ATOM     11  H   UNL     1       3.379  47.765  31.457  1.00  0.00     0.211 HD
ENDBRANCH   2  10
BRANCH   3  12
ATOM     12  O   UNL     1       5.145  47.492  29.497  1.00  0.00    -0.387 OA
ATOM     13  H   UNL     1       5.984  47.820  29.082  1.00  0.00     0.211 HD
ENDBRANCH   3  12
BRANCH   5  14
ATOM     14  C   UNL     1       7.668  46.682  33.164  1.00  0.00     0.191 C 
BRANCH  14  15
ATOM     15  O   UNL     1       7.778  46.080  34.425  1.00  0.00    -0.394 OA
ATOM     16  H   UNL     1       7.629  45.108  34.291  1.00  0.00     0.210 HD
ENDBRANCH  14  15
ENDBRANCH   5  14
BRANCH   4  17
ATOM     17  O   UNL     1       6.779  45.331  29.759  1.00  0.00    -0.387 OA
ATOM     18  H   UNL     1       6.805  44.453  30.225  1.00  0.00     0.211 HD
ENDBRANCH   4  17
TORSDOF 7
ENDMDL
MODEL 3
REMARK VINA RESULT:    -3.752      1.846      3.253
REMARK INTER + INTRA:          -5.143
REMARK INTER:                  -4.879
REMARK INTRA:                  -0.265
REMARK UNBOUND:                -0.294
REMARK SMILES CCO[C@@H]1O[C@H](CO)[C@@H](O)[C@@H](O)[C@@H]1O
REMARK SMILES IDX 4 1 13 2 11 3 9 4 6 5 5 6 3 7 2 8 1 9 14 10 12 12 7 14 8 15
REMARK SMILES IDX 10 17
REMARK H PARENT 14 11 12 13 8 16 10 18
REMARK Flexibility Score: inf
ROOT
ATOM      1  C   UNL     1      13.125  51.851  27.655  1.00  0.00     0.281 C 
ATOM      2  C   UNL     1      14.078  51.367  26.550  1.00  0.00     0.202 C 
ATOM      3  C   UNL     1      13.405  50.278  25.703  1.00  0.00     0.179 C 
ATOM      4  C   UNL     1      12.065  50.798  25.173  1.00  0.00     0.177 C 
ATOM      5  C   UNL     1      11.193  51.359  26.323  1.00  0.00     0.178 C 
ATOM      6  O   UNL     1      11.877  52.307  27.141  1.00  0.00    -0.341 OA
ENDROOT
BRANCH   1   7
ATOM      7  O   UNL     1      12.945  50.837  28.630  1.00  0.00    -0.350 OA
BRANCH   7   8
ATOM      8  C   UNL     1      12.685  51.391  29.907  1.00  0.00     0.160 C 
ATOM      9  C   UNL     1      13.636  52.550  30.182  1.00  0.00     0.035 C 
ENDBRANCH   7   8
ENDBRANCH   1   7
BRANCH   2  10
ATOM     10  O   UNL     1      15.253  50.869  27.138  1.00  0.00    -0.385 OA
ATOM     11  H   UNL     1      15.281  51.213  28.068  1.00  0.00     0.211 HD
ENDBRANCH   2  10
BRANCH   3  12
ATOM     12  O   UNL     1      14.227  49.927  24.618  1.00  0.00    -0.387 OA
ATOM     13  H   UNL     1      13.955  49.016  24.331  1.00  0.00     0.211 HD
ENDBRANCH   3  12
BRANCH   5  14
ATOM     14  C   UNL     1      10.484  50.257  27.139  1.00  0.00     0.191 C 
BRANCH  14  15
ATOM     15  O   UNL     1       9.157  50.103  26.714  1.00  0.00    -0.394 OA
ATOM     16  H   UNL     1       9.147  49.337  26.082  1.00  0.00     0.210 HD
ENDBRANCH  14  15
ENDBRANCH   5  14
BRANCH   4  17
ATOM     17  O   UNL     1      12.299  51.808  24.222  1.00  0.00    -0.387 OA
ATOM     18  H   UNL     1      13.109  52.301  24.518  1.00  0.00     0.211 HD
ENDBRANCH   4  17
TORSDOF 7
ENDMDL
MODEL 4
REMARK VINA RESULT:    -3.735      8.414     10.376
REMARK INTER + INTRA:          -5.120
REMARK INTER:                  -4.621
REMARK INTRA:                  -0.500
REMARK UNBOUND:                -0.294
REMARK SMILES CCO[C@@H]1O[C@H](CO)[C@@H](O)[C@@H](O)[C@@H]1O
REMARK SMILES IDX 4 1 13 2 11 3 9 4 6 5 5 6 3 7 2 8 1 9 14 10 12 12 7 14 8 15
REMARK SMILES IDX 10 17
REMARK H PARENT 14 11 12 13 8 16 10 18
REMARK Flexibility Score: inf
ROOT
ATOM      1  C   UNL     1       7.188  41.315  24.117  1.00  0.00     0.281 C 
ATOM      2  C   UNL     1       7.411  40.540  22.807  1.00  0.00     0.202 C 
ATOM      3  C   UNL     1       8.691  41.023  22.113  1.00  0.00     0.179 C 
ATOM      4  C   UNL     1       9.869  40.929  23.090  1.00  0.00     0.177 C 
ATOM      5  C   UNL     1       9.543  41.646  24.423  1.00  0.00     0.178 C 
ATOM      6  O   UNL     1       8.304  41.234  24.998  1.00  0.00    -0.341 OA
ENDROOT
BRANCH   1   7
ATOM      7  O   UNL     1       6.842  42.662  23.841  1.00  0.00    -0.350 OA
BRANCH   7   8
ATOM      8  C   UNL     1       5.860  43.137  24.743  1.00  0.00     0.160 C 
ATOM      9  C   UNL     1       4.561  42.359  24.565  1.00  0.00     0.035 C 
ENDBRANCH   7   8
ENDBRANCH   1   7
BRANCH   2  10
ATOM     10  O   UNL     1       6.301  40.726  21.966  1.00  0.00    -0.385 OA
ATOM     11  H   UNL     1       5.559  41.061  22.533  1.00  0.00     0.211 HD
ENDBRANCH   2  10
BRANCH   3  12
ATOM     12  O   UNL     1       8.962  40.230  20.984  1.00  0.00    -0.387 OA
ATOM     13  H   UNL     1       9.715  39.630  21.226  1.00  0.00     0.211 HD
ENDBRANCH   3  12
BRANCH   5  14
ATOM     14  C   UNL     1       9.688  43.180  24.337  1.00  0.00     0.191 C 
BRANCH  14  15
ATOM     15  O   UNL     1       9.180  43.791  25.492  1.00  0.00    -0.394 OA
ATOM     16  H   UNL     1       9.718  44.612  25.640  1.00  0.00     0.210 HD
ENDBRANCH  14  15
ENDBRANCH   5  14
BRANCH   4  17
ATOM     17  O   UNL     1      10.161  39.576  23.340  1.00  0.00    -0.387 OA
ATOM     18  H   UNL     1      11.034  39.385  22.907  1.00  0.00     0.211 HD
ENDBRANCH   4  17
TORSDOF 7
ENDMDL
MODEL 5
REMARK VINA RESULT:    -3.734      6.551      8.225
REMARK INTER + INTRA:          -5.120
REMARK INTER:                  -4.634
REMARK INTRA:                  -0.486
REMARK UNBOUND:                -0.294
REMARK SMILES CCO[C@@H]1O[C@H](CO)[C@@H](O)[C@@H](O)[C@@H]1O
REMARK SMILES IDX 4 1 13 2 11 3 9 4 6 5 5 6 3 7 2 8 1 9 14 10 12 12 7 14 8 15
REMARK SMILES IDX 10 17
REMARK H PARENT 14 11 12 13 8 16 10 18
REMARK Flexibility Score: inf
ROOT
ATOM      1  C   UNL     1      17.339  45.054  24.004  1.00  0.00     0.281 C 
ATOM      2  C   UNL     1      18.717  44.520  23.577  1.00  0.00     0.202 C 
ATOM      3  C   UNL     1      19.057  44.995  22.158  1.00  0.00     0.179 C 
ATOM      4  C   UNL     1      18.943  46.522  22.090  1.00  0.00     0.177 C 
ATOM      5  C   UNL     1      17.570  47.000  22.623  1.00  0.00     0.178 C 
ATOM      6  O   UNL     1      17.249  46.472  23.909  1.00  0.00    -0.341 OA
ENDROOT
BRANCH   1   7
ATOM      7  O   UNL     1      16.312  44.417  23.262  1.00  0.00    -0.350 OA
BRANCH   7   8
ATOM      8  C   UNL     1      15.197  44.116  24.081  1.00  0.00     0.160 C 
ATOM      9  C   UNL     1      13.952  43.918  23.225  1.00  0.00     0.035 C 
ENDBRANCH   7   8
ENDBRANCH   1   7
BRANCH   2  10
ATOM     10  O   UNL     1      18.705  43.116  23.630  1.00  0.00    -0.385 OA
ATOM     11  H   UNL     1      18.316  42.861  24.507  1.00  0.00     0.211 HD
ENDBRANCH   2  10
BRANCH   3  12
ATOM     12  O   UNL     1      20.367  44.614  21.818  1.00  0.00    -0.387 OA
ATOM     13  H   UNL     1      20.831  45.429  21.493  1.00  0.00     0.211 HD
ENDBRANCH   3  12
BRANCH   5  14
ATOM     14  C   UNL     1      16.430  46.832  21.597  1.00  0.00     0.191 C 
BRANCH  14  15
ATOM     15  O   UNL     1      15.188  47.100  22.190  1.00  0.00    -0.394 OA
ATOM     16  H   UNL     1      15.371  47.358  23.131  1.00  0.00     0.210 HD
ENDBRANCH  14  15
ENDBRANCH   5  14
BRANCH   4  17
ATOM     17  O   UNL     1      19.974  47.102  22.851  1.00  0.00    -0.387 OA
ATOM     18  H   UNL     1      20.500  47.676  22.233  1.00  0.00     0.211 HD
ENDBRANCH   4  17
TORSDOF 7
ENDMDL
MODEL 6
REMARK VINA RESULT:    -3.727     12.108     13.374
REMARK INTER + INTRA:          -5.111
REMARK INTER:                  -4.655
REMARK INTRA:                  -0.455
REMARK UNBOUND:                -0.294
REMARK SMILES CCO[C@@H]1O[C@H](CO)[C@@H](O)[C@@H](O)[C@@H]1O
REMARK SMILES IDX 4 1 13 2 11 3 9 4 6 5 5 6 3 7 2 8 1 9 14 10 12 12 7 14 8 15
REMARK SMILES IDX 10 17
REMARK H PARENT 14 11 12 13 8 16 10 18
REMARK Flexibility Score: inf
ROOT
ATOM      1  C   UNL     1      16.298  47.438  37.795  1.00  0.00     0.281 C 
ATOM      2  C   UNL     1      15.399  48.620  37.393  1.00  0.00     0.202 C 
ATOM      3  C   UNL     1      15.309  49.636  38.540  1.00  0.00     0.179 C 
ATOM      4  C   UNL     1      16.721  50.056  38.963  1.00  0.00     0.177 C 
ATOM      5  C   UNL     1      17.602  48.818  39.259  1.00  0.00     0.178 C 
ATOM      6  O   UNL     1      17.596  47.855  38.207  1.00  0.00    -0.341 OA
ENDROOT
BRANCH   1   7
ATOM      7  O   UNL     1      15.664  46.652  38.791  1.00  0.00    -0.350 OA
BRANCH   7   8
ATOM      8  C   UNL     1      15.682  45.279  38.450  1.00  0.00     0.160 C 
ATOM      9  C   UNL     1      14.280  44.690  38.560  1.00  0.00     0.035 C 
ENDBRANCH   7   8
ENDBRANCH   1   7
BRANCH   2  10
ATOM     10  O   UNL     1      14.120  48.138  37.068  1.00  0.00    -0.385 OA
ATOM     11  H   UNL     1      14.246  47.281  36.583  1.00  0.00     0.211 HD
ENDBRANCH   2  10
BRANCH   3  12
ATOM     12  O   UNL     1      14.593  50.773  38.128  1.00  0.00    -0.387 OA
ATOM     13  H   UNL     1      14.013  50.493  37.372  1.00  0.00     0.211 HD
ENDBRANCH   3  12
BRANCH   5  14
ATOM     14  C   UNL     1      17.330  48.199  40.647  1.00  0.00     0.191 C 
BRANCH  14  15
ATOM     15  O   UNL     1      17.888  46.916  40.735  1.00  0.00    -0.394 OA
ATOM     16  H   UNL     1      17.243  46.296  40.304  1.00  0.00     0.210 HD
ENDBRANCH  14  15
ENDBRANCH   5  14
BRANCH   4  17
ATOM     17  O   UNL     1      17.308  50.819  37.938  1.00  0.00    -0.387 OA
ATOM     18  H   UNL     1      18.013  50.254  37.524  1.00  0.00     0.211 HD
ENDBRANCH   4  17
TORSDOF 7
ENDMDL
MODEL 7
REMARK VINA RESULT:    -3.705      9.149     10.965
REMARK INTER + INTRA:          -5.082
REMARK INTER:                  -4.648
REMARK INTRA:                  -0.434
REMARK UNBOUND:                -0.294
REMARK SMILES CCO[C@@H]1O[C@H](CO)[C@@H](O)[C@@H](O)[C@@H]1O
REMARK SMILES IDX 4 1 13 2 11 3 9 4 6 5 5 6 3 7 2 8 1 9 14 10 12 12 7 14 8 15
REMARK SMILES IDX 10 17
REMARK H PARENT 14 11 12 13 8 16 10 18
REMARK Flexibility Score: inf
ROOT
ATOM      1  C   UNL     1       6.251  42.604  23.540  1.00  0.00     0.281 C 
ATOM      2  C   UNL     1       7.732  42.731  23.938  1.00  0.00     0.202 C 
ATOM      3  C   UNL     1       8.385  41.344  24.011  1.00  0.00     0.179 C 
ATOM      4  C   UNL     1       8.167  40.606  22.685  1.00  0.00     0.177 C 
ATOM      5  C   UNL     1       6.669  40.599  22.293  1.00  0.00     0.178 C 
ATOM      6  O   UNL     1       6.073  41.895  22.318  1.00  0.00    -0.341 OA
ENDROOT
BRANCH   1   7
ATOM      7  O   UNL     1       5.505  42.020  24.594  1.00  0.00    -0.350 OA
BRANCH   7   8
ATOM      8  C   UNL     1       4.427  42.851  24.983  1.00  0.00     0.160 C 
ATOM      9  C   UNL     1       3.099  42.153  24.714  1.00  0.00     0.035 C 
ENDBRANCH   7   8
ENDBRANCH   1   7
BRANCH   2  10
ATOM     10  O   UNL     1       7.822  43.377  25.183  1.00  0.00    -0.385 OA
ATOM     11  H   UNL     1       8.616  43.972  25.145  1.00  0.00     0.211 HD
ENDBRANCH   2  10
BRANCH   3  12
ATOM     12  O   UNL     1       9.764  41.467  24.250  1.00  0.00    -0.387 OA
ATOM     13  H   UNL     1      10.070  40.605  24.637  1.00  0.00     0.211 HD
ENDBRANCH   3  12
BRANCH   5  14
ATOM     14  C   UNL     1       5.848  39.541  23.060  1.00  0.00     0.191 C 
BRANCH  14  15
ATOM     15  O   UNL     1       4.485  39.656  22.755  1.00  0.00    -0.394 OA
ATOM     16  H   UNL     1       4.143  38.733  22.622  1.00  0.00     0.210 HD
ENDBRANCH  14  15
ENDBRANCH   5  14
BRANCH   4  17
ATOM     17  O   UNL     1       8.917  41.233  21.673  1.00  0.00    -0.387 OA
ATOM     18  H   UNL     1       8.445  42.076  21.444  1.00  0.00     0.211 HD
ENDBRANCH   4  17
TORSDOF 7
ENDMDL
MODEL 8
REMARK VINA RESULT:    -3.698      1.856      3.768
REMARK INTER + INTRA:          -5.073
REMARK INTER:                  -4.560
REMARK INTRA:                  -0.514
REMARK UNBOUND:                -0.294
REMARK SMILES CCO[C@@H]1O[C@H](CO)[C@@H](O)[C@@H](O)[C@@H]1O
REMARK SMILES IDX 4 1 13 2 11 3 9 4 6 5 5 6 3 7 2 8 1 9 14 10 12 12 7 14 8 15
REMARK SMILES IDX 10 17
REMARK H PARENT 14 11 12 13 8 16 10 18
REMARK Flexibility Score: inf
ROOT
ATOM      1  C   UNL     1      12.046  49.601  27.664  1.00  0.00     0.281 C 
ATOM      2  C   UNL     1      11.363  50.019  26.351  1.00  0.00     0.202 C 
ATOM      3  C   UNL     1      12.064  51.247  25.752  1.00  0.00     0.179 C 
ATOM      4  C   UNL     1      13.561  50.957  25.600  1.00  0.00     0.177 C 
ATOM      5  C   UNL     1      14.166  50.448  26.931  1.00  0.00     0.178 C 
ATOM      6  O   UNL     1      13.441  49.361  27.503  1.00  0.00    -0.341 OA
ENDROOT
BRANCH   1   7
ATOM      7  O   UNL     1      11.799  50.562  28.677  1.00  0.00    -0.350 OA
BRANCH   7   8
ATOM      8  C   UNL     1      11.606  49.945  29.936  1.00  0.00     0.160 C 
ATOM      9  C   UNL     1      10.511  48.889  29.843  1.00  0.00     0.035 C 
ENDBRANCH   7   8
ENDBRANCH   1   7
BRANCH   2  10
ATOM     10  O   UNL     1      10.011  50.306  26.604  1.00  0.00    -0.385 OA
ATOM     11  H   UNL     1       9.663  50.790  25.811  1.00  0.00     0.211 HD
ENDBRANCH   2  10
BRANCH   3  12
ATOM     12  O   UNL     1      11.521  51.551  24.492  1.00  0.00    -0.387 OA
ATOM     13  H   UNL     1      12.280  51.606  23.855  1.00  0.00     0.211 HD
ENDBRANCH   3  12
BRANCH   5  14
ATOM     14  C   UNL     1      14.451  51.582  27.939  1.00  0.00     0.191 C 
BRANCH  14  15
ATOM     15  O   UNL     1      14.846  51.055  29.177  1.00  0.00    -0.394 OA
ATOM     16  H   UNL     1      14.075  50.534  29.524  1.00  0.00     0.210 HD
ENDBRANCH  14  15
ENDBRANCH   5  14
BRANCH   4  17
ATOM     17  O   UNL     1      13.749  49.990  24.595  1.00  0.00    -0.387 OA
ATOM     18  H   UNL     1      13.277  49.168  24.893  1.00  0.00     0.211 HD
ENDBRANCH   4  17
TORSDOF 7
ENDMDL
MODEL 9
REMARK VINA RESULT:    -3.641     15.300     17.031
REMARK INTER + INTRA:          -5.000
REMARK INTER:                  -4.532
REMARK INTRA:                  -0.467
REMARK UNBOUND:                -0.294
REMARK SMILES CCO[C@@H]1O[C@H](CO)[C@@H](O)[C@@H](O)[C@@H]1O
REMARK SMILES IDX 4 1 13 2 11 3 9 4 6 5 5 6 3 7 2 8 1 9 14 10 12 12 7 14 8 15
REMARK SMILES IDX 10 17
REMARK H PARENT 14 11 12 13 8 16 10 18
REMARK Flexibility Score: inf
ROOT
ATOM      1  C   UNL     1      10.299  39.797  38.020  1.00  0.00     0.281 C 
ATOM      2  C   UNL     1      10.999  38.550  37.454  1.00  0.00     0.202 C 
ATOM      3  C   UNL     1      10.990  37.417  38.488  1.00  0.00     0.179 C 
ATOM      4  C   UNL     1       9.551  37.157  38.949  1.00  0.00     0.177 C 
ATOM      5  C   UNL     1       8.872  38.468  39.415  1.00  0.00     0.178 C 
ATOM      6  O   UNL     1       8.974  39.526  38.464  1.00  0.00    -0.341 OA
ENDROOT
BRANCH   1   7
ATOM      7  O   UNL     1      11.083  40.378  39.050  1.00  0.00    -0.350 OA
BRANCH   7   8
ATOM      8  C   UNL     1      11.144  41.786  38.918  1.00  0.00     0.160 C 
ATOM      9  C   UNL     1      12.593  42.257  38.960  1.00  0.00     0.035 C 
ENDBRANCH   7   8
ENDBRANCH   1   7
BRANCH   2  10
ATOM     10  O   UNL     1      12.319  38.880  37.105  1.00  0.00    -0.385 OA
ATOM     11  H   UNL     1      12.651  39.516  37.790  1.00  0.00     0.211 HD
ENDBRANCH   2  10
BRANCH   3  12
ATOM     12  O   UNL     1      11.515  36.240  37.926  1.00  0.00    -0.387 OA
ATOM     13  H   UNL     1      10.755  35.613  37.804  1.00  0.00     0.211 HD
ENDBRANCH   3  12
BRANCH   5  14
ATOM     14  C   UNL     1       9.291  38.893  40.839  1.00  0.00     0.191 C 
BRANCH  14  15
ATOM     15  O   UNL     1       8.830  40.186  41.125  1.00  0.00    -0.394 OA
ATOM     16  H   UNL     1       9.632  40.738  41.316  1.00  0.00     0.210 HD
ENDBRANCH  14  15
ENDBRANCH   5  14
BRANCH   4  17
ATOM     17  O   UNL     1       8.816  36.596  37.889  1.00  0.00    -0.387 OA
ATOM     18  H   UNL     1       8.004  36.184  38.288  1.00  0.00     0.211 HD
ENDBRANCH   4  17
TORSDOF 7
ENDMDL
