MODEL 1
REMARK VINA RESULT:    -3.872      0.000      0.000
REMARK INTER + INTRA:         -12.258
REMARK INTER:                  -8.398
REMARK INTRA:                  -3.860
REMARK UNBOUND:                -3.860
REMARK SMILES CCCCCCCCCCCCCCCCCCCCCC(=O)[O-]
REMARK SMILES IDX 12 1 11 2 10 3 9 4 8 5 7 6 6 7 5 8 4 9 3 10 2 11 1 12 13 13
REMARK SMILES IDX 14 14 15 15 16 16 17 17 18 18 19 19 20 20 21 21 22 22 23 23
REMARK SMILES IDX 24 24
REMARK H PARENT
REMARK Flexibility Score: inf
ROOT
ATOM      1  C   UNL     1     115.819 110.055 122.143  1.00  0.00     0.000 C 
ENDROOT
BRANCH   1   2
ATOM      2  C   UNL     1     115.447 111.389 122.810  1.00  0.00     0.000 C 
BRANCH   2   3
ATOM      3  C   UNL     1     116.142 112.601 122.163  1.00  0.00     0.000 C 
BRANCH   3   4
ATOM      4  C   UNL     1     115.317 113.342 121.090  1.00  0.00    -0.000 C 
BRANCH   4   5
ATOM      5  C   UNL     1     115.893 113.282 119.665  1.00  0.00    -0.000 C 
BRANCH   5   6
ATOM      6  C   UNL     1     115.390 112.070 118.868  1.00  0.00    -0.000 C 
BRANCH   6   7
ATOM      7  C   UNL     1     116.483 110.996 118.755  1.00  0.00    -0.000 C 
BRANCH   7   8
ATOM      8  C   UNL     1     116.189 109.953 117.660  1.00  0.00    -0.000 C 
BRANCH   8   9
ATOM      9  C   UNL     1     115.319 108.768 118.114  1.00  0.00    -0.000 C 
BRANCH   9  10
ATOM     10  C   UNL     1     114.086 108.556 117.220  1.00  0.00    -0.000 C 
BRANCH  10  11
ATOM     11  C   UNL     1     113.050 109.680 117.371  1.00  0.00    -0.003 C 
ATOM     12  C   UNL     1     112.720 110.359 116.042  1.00  0.00     0.004 C 
ENDBRANCH  10  11
ENDBRANCH   9  10
ENDBRANCH   8   9
ENDBRANCH   7   8
ENDBRANCH   6   7
ENDBRANCH   5   6
ENDBRANCH   4   5
ENDBRANCH   3   4
ENDBRANCH   2   3
ENDBRANCH   1   2
BRANCH   1  13
ATOM     13  C   UNL     1     114.587 109.236 121.722  1.00  0.00     0.000 C 
BRANCH  13  14
ATOM     14  C   UNL     1     113.386 110.067 121.225  1.00  0.00     0.000 C 
BRANCH  14  15
ATOM     15  C   UNL     1     112.070 109.838 121.991  1.00  0.00     0.000 C 
BRANCH  15  16
ATOM     16  C   UNL     1     111.496 111.084 122.693  1.00  0.00     0.000 C 
BRANCH  16  17
ATOM     17  C   UNL     1     111.922 112.420 122.044  1.00  0.00     0.000 C 
BRANCH  17  18
ATOM     18  C   UNL     1     110.874 112.960 121.053  1.00  0.00     0.000 C 
BRANCH  18  19
ATOM     19  C   UNL     1     111.181 112.587 119.593  1.00  0.00     0.000 C 
BRANCH  19  20
ATOM     20  C   UNL     1     110.022 111.913 118.837  1.00  0.00     0.006 C 
BRANCH  20  21
ATOM     21  C   UNL     1     109.979 110.393 119.033  1.00  0.00     0.053 C 
BRANCH  21  22
ATOM     22  C   UNL     1     108.630 109.856 118.670  1.00  0.00     0.041 C 
ATOM     23  O   UNL     1     108.417 108.615 118.685  1.00  0.00    -0.550 OA
ATOM     24  O   UNL     1     107.617 110.724 118.280  1.00  0.00    -0.550 OA
ENDBRANCH  21  22
ENDBRANCH  20  21
ENDBRANCH  19  20
ENDBRANCH  18  19
ENDBRANCH  17  18
ENDBRANCH  16  17
ENDBRANCH  15  16
ENDBRANCH  14  15
ENDBRANCH  13  14
ENDBRANCH   1  13
TORSDOF 20
ENDMDL
MODEL 2
REMARK VINA RESULT:    -3.731      1.428      2.842
REMARK INTER + INTRA:         -11.952
REMARK INTER:                  -8.148
REMARK INTRA:                  -3.804
REMARK UNBOUND:                -3.860
REMARK SMILES CCCCCCCCCCCCCCCCCCCCCC(=O)[O-]
REMARK SMILES IDX 12 1 11 2 10 3 9 4 8 5 7 6 6 7 5 8 4 9 3 10 2 11 1 12 13 13
REMARK SMILES IDX 14 14 15 15 16 16 17 17 18 18 19 19 20 20 21 21 22 22 23 23
REMARK SMILES IDX 24 24
REMARK H PARENT
REMARK Flexibility Score: inf
ROOT
ATOM      1  C   UNL     1     115.644 109.975 121.907  1.00  0.00     0.000 C 
ENDROOT
BRANCH   1   2
ATOM      2  C   UNL     1     115.443 111.266 122.717  1.00  0.00     0.000 C 
BRANCH   2   3
ATOM      3  C   UNL     1     116.000 112.515 122.009  1.00  0.00     0.000 C 
BRANCH   3   4
ATOM      4  C   UNL     1     114.960 113.361 121.246  1.00  0.00    -0.000 C 
BRANCH   4   5
ATOM      5  C   UNL     1     114.682 112.910 119.801  1.00  0.00    -0.000 C 
BRANCH   5   6
ATOM      6  C   UNL     1     115.583 113.611 118.774  1.00  0.00    -0.000 C 
BRANCH   6   7
ATOM      7  C   UNL     1     116.606 112.628 118.182  1.00  0.00    -0.000 C 
BRANCH   7   8
ATOM      8  C   UNL     1     116.274 111.157 118.492  1.00  0.00    -0.000 C 
BRANCH   8   9
ATOM      9  C   UNL     1     117.491 110.277 118.828  1.00  0.00    -0.000 C 
BRANCH   9  10
ATOM     10  C   UNL     1     118.523 110.996 119.711  1.00  0.00    -0.000 C 
BRANCH  10  11
ATOM     11  C   UNL     1     119.437 110.018 120.464  1.00  0.00    -0.003 C 
ATOM     12  C   UNL     1     119.252 110.087 121.980  1.00  0.00     0.004 C 
ENDBRANCH  10  11
ENDBRANCH   9  10
ENDBRANCH   8   9
ENDBRANCH   7   8
ENDBRANCH   6   7
ENDBRANCH   5   6
ENDBRANCH   4   5
ENDBRANCH   3   4
ENDBRANCH   2   3
ENDBRANCH   1   2
BRANCH   1  13
ATOM     13  C   UNL     1     114.338 109.183 121.716  1.00  0.00     0.000 C 
BRANCH  13  14
ATOM     14  C   UNL     1     113.232 109.923 120.936  1.00  0.00     0.000 C 
BRANCH  14  15
ATOM     15  C   UNL     1     111.927 110.162 121.719  1.00  0.00     0.000 C 
BRANCH  15  16
ATOM     16  C   UNL     1     111.841 111.517 122.449  1.00  0.00     0.000 C 
BRANCH  16  17
ATOM     17  C   UNL     1     111.409 112.691 121.542  1.00  0.00     0.000 C 
BRANCH  17  18
ATOM     18  C   UNL     1     110.476 112.247 120.400  1.00  0.00     0.000 C 
BRANCH  18  19
ATOM     19  C   UNL     1     111.069 112.509 119.005  1.00  0.00     0.000 C 
BRANCH  19  20
ATOM     20  C   UNL     1     111.165 111.270 118.096  1.00  0.00     0.006 C 
BRANCH  20  21
ATOM     21  C   UNL     1     110.126 110.194 118.436  1.00  0.00     0.053 C 
BRANCH  21  22
ATOM     22  C   UNL     1     108.824 110.491 117.761  1.00  0.00     0.041 C 
ATOM     23  O   UNL     1     108.800 110.812 116.543  1.00  0.00    -0.550 OA
ATOM     24  O   UNL     1     107.638 110.448 118.485  1.00  0.00    -0.550 OA
ENDBRANCH  21  22
ENDBRANCH  20  21
ENDBRANCH  19  20
ENDBRANCH  18  19
ENDBRANCH  17  18
ENDBRANCH  16  17
ENDBRANCH  15  16
ENDBRANCH  14  15
ENDBRANCH  13  14
ENDBRANCH   1  13
TORSDOF 20
ENDMDL
MODEL 3
REMARK VINA RESULT:    -3.687      3.345      6.471
REMARK INTER + INTRA:         -11.857
REMARK INTER:                  -9.196
REMARK INTRA:                  -2.662
REMARK UNBOUND:                -3.860
REMARK SMILES CCCCCCCCCCCCCCCCCCCCCC(=O)[O-]
REMARK SMILES IDX 12 1 11 2 10 3 9 4 8 5 7 6 6 7 5 8 4 9 3 10 2 11 1 12 13 13
REMARK SMILES IDX 14 14 15 15 16 16 17 17 18 18 19 19 20 20 21 21 22 22 23 23
REMARK SMILES IDX 24 24
REMARK H PARENT
REMARK Flexibility Score: inf
ROOT
ATOM      1  C   UNL     1     109.916 110.254 116.204  1.00  0.00     0.000 C 
ENDROOT
BRANCH   1   2
ATOM      2  C   UNL     1     111.079 110.252 117.209  1.00  0.00     0.000 C 
BRANCH   2   3
ATOM      3  C   UNL     1     111.486 111.666 117.663  1.00  0.00     0.000 C 
BRANCH   3   4
ATOM      4  C   UNL     1     110.491 112.367 118.611  1.00  0.00    -0.000 C 
BRANCH   4   5
ATOM      5  C   UNL     1     110.566 111.924 120.083  1.00  0.00    -0.000 C 
BRANCH   5   6
ATOM      6  C   UNL     1     110.670 113.106 121.058  1.00  0.00    -0.000 C 
BRANCH   6   7
ATOM      7  C   UNL     1     111.932 112.990 121.926  1.00  0.00    -0.000 C 
BRANCH   7   8
ATOM      8  C   UNL     1     112.206 111.551 122.400  1.00  0.00    -0.000 C 
BRANCH   8   9
ATOM      9  C   UNL     1     113.608 111.015 122.061  1.00  0.00    -0.000 C 
BRANCH   9  10
ATOM     10  C   UNL     1     113.570 109.684 121.293  1.00  0.00    -0.000 C 
BRANCH  10  11
ATOM     11  C   UNL     1     113.935 109.850 119.810  1.00  0.00    -0.003 C 
ATOM     12  C   UNL     1     114.645 111.172 119.522  1.00  0.00     0.004 C 
ENDBRANCH  10  11
ENDBRANCH   9  10
ENDBRANCH   8   9
ENDBRANCH   7   8
ENDBRANCH   6   7
ENDBRANCH   5   6
ENDBRANCH   4   5
ENDBRANCH   3   4
ENDBRANCH   2   3
ENDBRANCH   1   2
BRANCH   1  13
ATOM     13  C   UNL     1     108.646 109.588 116.762  1.00  0.00     0.000 C 
BRANCH  13  14
ATOM     14  C   UNL     1     108.785 108.997 118.181  1.00  0.00     0.000 C 
BRANCH  14  15
ATOM     15  C   UNL     1     107.552 109.174 119.087  1.00  0.00     0.000 C 
BRANCH  15  16
ATOM     16  C   UNL     1     107.062 107.888 119.782  1.00  0.00     0.000 C 
BRANCH  16  17
ATOM     17  C   UNL     1     105.726 107.345 119.226  1.00  0.00     0.000 C 
BRANCH  17  18
ATOM     18  C   UNL     1     105.892 106.628 117.875  1.00  0.00     0.000 C 
BRANCH  18  19
ATOM     19  C   UNL     1     105.189 107.358 116.718  1.00  0.00     0.000 C 
BRANCH  19  20
ATOM     20  C   UNL     1     104.410 108.622 117.125  1.00  0.00     0.006 C 
BRANCH  20  21
ATOM     21  C   UNL     1     102.906 108.520 116.838  1.00  0.00     0.053 C 
BRANCH  21  22
ATOM     22  C   UNL     1     102.348 109.862 116.487  1.00  0.00     0.041 C 
ATOM     23  O   UNL     1     102.466 110.313 115.317  1.00  0.00    -0.550 OA
ATOM     24  O   UNL     1     101.726 110.635 117.462  1.00  0.00    -0.550 OA
ENDBRANCH  21  22
ENDBRANCH  20  21
ENDBRANCH  19  20
ENDBRANCH  18  19
ENDBRANCH  17  18
ENDBRANCH  16  17
ENDBRANCH  15  16
ENDBRANCH  14  15
ENDBRANCH  13  14
ENDBRANCH   1  13
TORSDOF 20
ENDMDL
MODEL 4
REMARK VINA RESULT:    -3.686      3.179      6.864
REMARK INTER + INTRA:         -11.856
REMARK INTER:                  -8.502
REMARK INTRA:                  -3.355
REMARK UNBOUND:                -3.860
REMARK SMILES CCCCCCCCCCCCCCCCCCCCCC(=O)[O-]
REMARK SMILES IDX 12 1 11 2 10 3 9 4 8 5 7 6 6 7 5 8 4 9 3 10 2 11 1 12 13 13
REMARK SMILES IDX 14 14 15 15 16 16 17 17 18 18 19 19 20 20 21 21 22 22 23 23
REMARK SMILES IDX 24 24
REMARK H PARENT
REMARK Flexibility Score: inf
ROOT
ATOM      1  C   UNL     1     111.499 111.269 116.732  1.00  0.00     0.000 C 
ENDROOT
BRANCH   1   2
ATOM      2  C   UNL     1     111.000 112.659 116.304  1.00  0.00     0.000 C 
BRANCH   2   3
ATOM      3  C   UNL     1     109.506 112.674 115.929  1.00  0.00     0.000 C 
BRANCH   3   4
ATOM      4  C   UNL     1     108.526 112.590 117.117  1.00  0.00    -0.000 C 
BRANCH   4   5
ATOM      5  C   UNL     1     107.813 111.236 117.283  1.00  0.00    -0.000 C 
BRANCH   5   6
ATOM      6  C   UNL     1     107.932 110.670 118.706  1.00  0.00    -0.000 C 
BRANCH   6   7
ATOM      7  C   UNL     1     108.865 109.449 118.733  1.00  0.00    -0.000 C 
BRANCH   7   8
ATOM      8  C   UNL     1     108.157 108.164 119.201  1.00  0.00    -0.000 C 
BRANCH   8   9
ATOM      9  C   UNL     1     106.631 108.288 119.361  1.00  0.00    -0.000 C 
BRANCH   9  10
ATOM     10  C   UNL     1     105.877 107.038 118.880  1.00  0.00    -0.000 C 
BRANCH  10  11
ATOM     11  C   UNL     1     105.208 107.244 117.513  1.00  0.00    -0.003 C 
ATOM     12  C   UNL     1     104.914 108.714 117.217  1.00  0.00     0.004 C 
ENDBRANCH  10  11
ENDBRANCH   9  10
ENDBRANCH   8   9
ENDBRANCH   7   8
ENDBRANCH   6   7
ENDBRANCH   5   6
ENDBRANCH   4   5
ENDBRANCH   3   4
ENDBRANCH   2   3
ENDBRANCH   1   2
BRANCH   1  13
ATOM     13  C   UNL     1     112.034 111.247 118.174  1.00  0.00     0.000 C 
BRANCH  13  14
ATOM     14  C   UNL     1     111.684 112.487 119.022  1.00  0.00     0.000 C 
BRANCH  14  15
ATOM     15  C   UNL     1     110.786 112.212 120.244  1.00  0.00     0.000 C 
BRANCH  15  16
ATOM     16  C   UNL     1     111.375 112.648 121.600  1.00  0.00     0.000 C 
BRANCH  16  17
ATOM     17  C   UNL     1     111.846 111.473 122.485  1.00  0.00     0.000 C 
BRANCH  17  18
ATOM     18  C   UNL     1     111.958 110.150 121.707  1.00  0.00     0.000 C 
BRANCH  18  19
ATOM     19  C   UNL     1     113.395 109.604 121.655  1.00  0.00     0.000 C 
BRANCH  19  20
ATOM     20  C   UNL     1     114.499 110.667 121.797  1.00  0.00     0.006 C 
BRANCH  20  21
ATOM     21  C   UNL     1     115.089 111.105 120.450  1.00  0.00     0.053 C 
BRANCH  21  22
ATOM     22  C   UNL     1     115.059 112.596 120.326  1.00  0.00     0.041 C 
ATOM     23  O   UNL     1     115.263 113.143 119.210  1.00  0.00    -0.550 OA
ATOM     24  O   UNL     1     114.842 113.384 121.450  1.00  0.00    -0.550 OA
ENDBRANCH  21  22
ENDBRANCH  20  21
ENDBRANCH  19  20
ENDBRANCH  18  19
ENDBRANCH  17  18
ENDBRANCH  16  17
ENDBRANCH  15  16
ENDBRANCH  14  15
ENDBRANCH  13  14
ENDBRANCH   1  13
TORSDOF 20
ENDMDL
MODEL 5
REMARK VINA RESULT:    -3.666      2.076      5.115
REMARK INTER + INTRA:         -11.812
REMARK INTER:                  -8.587
REMARK INTRA:                  -3.225
REMARK UNBOUND:                -3.860
REMARK SMILES CCCCCCCCCCCCCCCCCCCCCC(=O)[O-]
REMARK SMILES IDX 12 1 11 2 10 3 9 4 8 5 7 6 6 7 5 8 4 9 3 10 2 11 1 12 13 13
REMARK SMILES IDX 14 14 15 15 16 16 17 17 18 18 19 19 20 20 21 21 22 22 23 23
REMARK SMILES IDX 24 24
REMARK H PARENT
REMARK Flexibility Score: inf
ROOT
ATOM      1  C   UNL     1     114.255 111.141 118.356  1.00  0.00     0.000 C 
ENDROOT
BRANCH   1   2
ATOM      2  C   UNL     1     113.504 109.994 119.050  1.00  0.00     0.000 C 
BRANCH   2   3
ATOM      3  C   UNL     1     114.248 109.441 120.280  1.00  0.00     0.000 C 
BRANCH   3   4
ATOM      4  C   UNL     1     113.479 109.536 121.614  1.00  0.00    -0.000 C 
BRANCH   4   5
ATOM      5  C   UNL     1     112.016 109.997 121.495  1.00  0.00    -0.000 C 
BRANCH   5   6
ATOM      6  C   UNL     1     111.769 111.371 122.136  1.00  0.00    -0.000 C 
BRANCH   6   7
ATOM      7  C   UNL     1     113.098 112.052 122.500  1.00  0.00    -0.000 C 
BRANCH   7   8
ATOM      8  C   UNL     1     113.425 113.253 121.594  1.00  0.00    -0.000 C 
BRANCH   8   9
ATOM      9  C   UNL     1     114.915 113.411 121.243  1.00  0.00    -0.000 C 
BRANCH   9  10
ATOM     10  C   UNL     1     115.813 112.412 121.989  1.00  0.00    -0.000 C 
BRANCH  10  11
ATOM     11  C   UNL     1     116.833 111.732 121.064  1.00  0.00    -0.003 C 
ATOM     12  C   UNL     1     117.954 111.034 121.834  1.00  0.00     0.004 C 
ENDBRANCH  10  11
ENDBRANCH   9  10
ENDBRANCH   8   9
ENDBRANCH   7   8
ENDBRANCH   6   7
ENDBRANCH   5   6
ENDBRANCH   4   5
ENDBRANCH   3   4
ENDBRANCH   2   3
ENDBRANCH   1   2
BRANCH   1  13
ATOM     13  C   UNL     1     113.365 112.371 118.107  1.00  0.00     0.000 C 
BRANCH  13  14
ATOM     14  C   UNL     1     111.885 112.200 118.507  1.00  0.00     0.000 C 
BRANCH  14  15
ATOM     15  C   UNL     1     110.866 112.525 117.397  1.00  0.00     0.000 C 
BRANCH  15  16
ATOM     16  C   UNL     1     110.019 111.330 116.917  1.00  0.00     0.000 C 
BRANCH  16  17
ATOM     17  C   UNL     1     110.153 110.071 117.802  1.00  0.00     0.000 C 
BRANCH  17  18
ATOM     18  C   UNL     1     108.951 109.120 117.669  1.00  0.00     0.000 C 
BRANCH  18  19
ATOM     19  C   UNL     1     107.938 109.267 118.818  1.00  0.00     0.000 C 
BRANCH  19  20
ATOM     20  C   UNL     1     107.586 107.957 119.546  1.00  0.00     0.006 C 
BRANCH  20  21
ATOM     21  C   UNL     1     106.076 107.709 119.640  1.00  0.00     0.053 C 
BRANCH  21  22
ATOM     22  C   UNL     1     105.547 107.192 118.340  1.00  0.00     0.041 C 
ATOM     23  O   UNL     1     106.136 106.252 117.745  1.00  0.00    -0.550 OA
ATOM     24  O   UNL     1     104.422 107.773 117.765  1.00  0.00    -0.550 OA
ENDBRANCH  21  22
ENDBRANCH  20  21
ENDBRANCH  19  20
ENDBRANCH  18  19
ENDBRANCH  17  18
ENDBRANCH  16  17
ENDBRANCH  15  16
ENDBRANCH  14  15
ENDBRANCH  13  14
ENDBRANCH   1  13
TORSDOF 20
ENDMDL
MODEL 6
REMARK VINA RESULT:    -3.644      4.747      8.045
REMARK INTER + INTRA:         -11.764
REMARK INTER:                  -9.925
REMARK INTRA:                  -1.839
REMARK UNBOUND:                -3.860
REMARK SMILES CCCCCCCCCCCCCCCCCCCCCC(=O)[O-]
REMARK SMILES IDX 12 1 11 2 10 3 9 4 8 5 7 6 6 7 5 8 4 9 3 10 2 11 1 12 13 13
REMARK SMILES IDX 14 14 15 15 16 16 17 17 18 18 19 19 20 20 21 21 22 22 23 23
REMARK SMILES IDX 24 24
REMARK H PARENT
REMARK Flexibility Score: inf
ROOT
ATOM      1  C   UNL     1     108.261 108.134 118.302  1.00  0.00     0.000 C 
ENDROOT
BRANCH   1   2
ATOM      2  C   UNL     1     108.214 109.448 117.505  1.00  0.00     0.000 C 
BRANCH   2   3
ATOM      3  C   UNL     1     107.704 110.640 118.336  1.00  0.00     0.000 C 
BRANCH   3   4
ATOM      4  C   UNL     1     108.800 111.535 118.948  1.00  0.00    -0.000 C 
BRANCH   4   5
ATOM      5  C   UNL     1     110.229 111.252 118.454  1.00  0.00    -0.000 C 
BRANCH   5   6
ATOM      6  C   UNL     1     111.298 112.017 119.248  1.00  0.00    -0.000 C 
BRANCH   6   7
ATOM      7  C   UNL     1     110.689 112.674 120.496  1.00  0.00    -0.000 C 
BRANCH   7   8
ATOM      8  C   UNL     1     111.416 112.283 121.796  1.00  0.00    -0.000 C 
BRANCH   8   9
ATOM      9  C   UNL     1     112.950 112.382 121.733  1.00  0.00    -0.000 C 
BRANCH   9  10
ATOM     10  C   UNL     1     113.653 111.161 122.347  1.00  0.00    -0.000 C 
BRANCH  10  11
ATOM     11  C   UNL     1     113.213 109.840 121.698  1.00  0.00    -0.003 C 
ATOM     12  C   UNL     1     114.062 109.469 120.483  1.00  0.00     0.004 C 
ENDBRANCH  10  11
ENDBRANCH   9  10
ENDBRANCH   8   9
ENDBRANCH   7   8
ENDBRANCH   6   7
ENDBRANCH   5   6
ENDBRANCH   4   5
ENDBRANCH   3   4
ENDBRANCH   2   3
ENDBRANCH   1   2
BRANCH   1  13
ATOM     13  C   UNL     1     107.301 108.133 119.505  1.00  0.00     0.000 C 
BRANCH  13  14
ATOM     14  C   UNL     1     105.935 107.462 119.253  1.00  0.00     0.000 C 
BRANCH  14  15
ATOM     15  C   UNL     1     105.853 106.605 117.976  1.00  0.00     0.000 C 
BRANCH  15  16
ATOM     16  C   UNL     1     104.769 107.036 116.968  1.00  0.00     0.000 C 
BRANCH  16  17
ATOM     17  C   UNL     1     104.325 108.508 117.117  1.00  0.00     0.000 C 
BRANCH  17  18
ATOM     18  C   UNL     1     102.838 108.717 116.781  1.00  0.00     0.000 C 
BRANCH  18  19
ATOM     19  C   UNL     1     102.425 110.199 116.779  1.00  0.00     0.000 C 
BRANCH  19  20
ATOM     20  C   UNL     1     101.914 110.730 115.427  1.00  0.00     0.006 C 
BRANCH  20  21
ATOM     21  C   UNL     1     101.807 112.259 115.384  1.00  0.00     0.053 C 
BRANCH  21  22
ATOM     22  C   UNL     1     100.964 112.693 114.226  1.00  0.00     0.041 C 
ATOM     23  O   UNL     1     100.728 113.915 114.036  1.00  0.00    -0.550 OA
ATOM     24  O   UNL     1     100.407 111.744 113.376  1.00  0.00    -0.550 OA
ENDBRANCH  21  22
ENDBRANCH  20  21
ENDBRANCH  19  20
ENDBRANCH  18  19
ENDBRANCH  17  18
ENDBRANCH  16  17
ENDBRANCH  15  16
ENDBRANCH  14  15
ENDBRANCH  13  14
ENDBRANCH   1  13
TORSDOF 20
ENDMDL
MODEL 7
REMARK VINA RESULT:    -3.632      1.617      4.271
REMARK INTER + INTRA:         -11.738
REMARK INTER:                  -8.369
REMARK INTRA:                  -3.369
REMARK UNBOUND:                -3.860
REMARK SMILES CCCCCCCCCCCCCCCCCCCCCC(=O)[O-]
REMARK SMILES IDX 12 1 11 2 10 3 9 4 8 5 7 6 6 7 5 8 4 9 3 10 2 11 1 12 13 13
REMARK SMILES IDX 14 14 15 15 16 16 17 17 18 18 19 19 20 20 21 21 22 22 23 23
REMARK SMILES IDX 24 24
REMARK H PARENT
REMARK Flexibility Score: inf
ROOT
ATOM      1  C   UNL     1     112.100 110.042 121.499  1.00  0.00     0.000 C 
ENDROOT
BRANCH   1   2
ATOM      2  C   UNL     1     113.530 109.560 121.793  1.00  0.00     0.000 C 
BRANCH   2   3
ATOM      3  C   UNL     1     114.348 109.282 120.518  1.00  0.00     0.000 C 
BRANCH   3   4
ATOM      4  C   UNL     1     113.892 110.049 119.260  1.00  0.00    -0.000 C 
BRANCH   4   5
ATOM      5  C   UNL     1     115.027 110.548 118.350  1.00  0.00    -0.000 C 
BRANCH   5   6
ATOM      6  C   UNL     1     115.340 112.039 118.549  1.00  0.00    -0.000 C 
BRANCH   6   7
ATOM      7  C   UNL     1     114.152 112.766 119.197  1.00  0.00    -0.000 C 
BRANCH   7   8
ATOM      8  C   UNL     1     114.543 113.536 120.472  1.00  0.00    -0.000 C 
BRANCH   8   9
ATOM      9  C   UNL     1     115.961 113.246 120.992  1.00  0.00    -0.000 C 
BRANCH   9  10
ATOM     10  C   UNL     1     115.966 112.372 122.257  1.00  0.00    -0.000 C 
BRANCH  10  11
ATOM     11  C   UNL     1     117.314 111.671 122.483  1.00  0.00    -0.003 C 
ATOM     12  C   UNL     1     117.203 110.148 122.426  1.00  0.00     0.004 C 
ENDBRANCH  10  11
ENDBRANCH   9  10
ENDBRANCH   8   9
ENDBRANCH   7   8
ENDBRANCH   6   7
ENDBRANCH   5   6
ENDBRANCH   4   5
ENDBRANCH   3   4
ENDBRANCH   2   3
ENDBRANCH   1   2
BRANCH   1  13
ATOM     13  C   UNL     1     111.808 111.433 122.088  1.00  0.00     0.000 C 
BRANCH  13  14
ATOM     14  C   UNL     1     111.056 112.398 121.149  1.00  0.00     0.000 C 
BRANCH  14  15
ATOM     15  C   UNL     1     110.459 111.750 119.886  1.00  0.00     0.000 C 
BRANCH  15  16
ATOM     16  C   UNL     1     110.693 112.531 118.578  1.00  0.00     0.000 C 
BRANCH  16  17
ATOM     17  C   UNL     1     109.644 112.242 117.480  1.00  0.00     0.000 C 
BRANCH  17  18
ATOM     18  C   UNL     1     108.203 112.510 117.949  1.00  0.00     0.000 C 
BRANCH  18  19
ATOM     19  C   UNL     1     107.227 111.387 117.561  1.00  0.00     0.000 C 
BRANCH  19  20
ATOM     20  C   UNL     1     107.795 109.962 117.680  1.00  0.00     0.006 C 
BRANCH  20  21
ATOM     21  C   UNL     1     107.672 109.381 119.095  1.00  0.00     0.053 C 
BRANCH  21  22
ATOM     22  C   UNL     1     106.622 108.317 119.135  1.00  0.00     0.041 C 
ATOM     23  O   UNL     1     106.456 107.628 120.176  1.00  0.00    -0.550 OA
ATOM     24  O   UNL     1     105.849 108.058 118.008  1.00  0.00    -0.550 OA
ENDBRANCH  21  22
ENDBRANCH  20  21
ENDBRANCH  19  20
ENDBRANCH  18  19
ENDBRANCH  17  18
ENDBRANCH  16  17
ENDBRANCH  15  16
ENDBRANCH  14  15
ENDBRANCH  13  14
ENDBRANCH   1  13
TORSDOF 20
ENDMDL
MODEL 8
REMARK VINA RESULT:    -3.618      1.673      4.070
REMARK INTER + INTRA:         -11.708
REMARK INTER:                  -7.754
REMARK INTRA:                  -3.953
REMARK UNBOUND:                -3.860
REMARK SMILES CCCCCCCCCCCCCCCCCCCCCC(=O)[O-]
REMARK SMILES IDX 12 1 11 2 10 3 9 4 8 5 7 6 6 7 5 8 4 9 3 10 2 11 1 12 13 13
REMARK SMILES IDX 14 14 15 15 16 16 17 17 18 18 19 19 20 20 21 21 22 22 23 23
REMARK SMILES IDX 24 24
REMARK H PARENT
REMARK Flexibility Score: inf
ROOT
ATOM      1  C   UNL     1     114.276 110.931 118.350  1.00  0.00     0.000 C 
ENDROOT
BRANCH   1   2
ATOM      2  C   UNL     1     115.652 111.311 118.918  1.00  0.00     0.000 C 
BRANCH   2   3
ATOM      3  C   UNL     1     116.733 111.461 117.831  1.00  0.00     0.000 C 
BRANCH   3   4
ATOM      4  C   UNL     1     118.180 111.202 118.298  1.00  0.00    -0.000 C 
BRANCH   4   5
ATOM      5  C   UNL     1     118.327 110.178 119.437  1.00  0.00    -0.000 C 
BRANCH   5   6
ATOM      6  C   UNL     1     119.388 110.584 120.470  1.00  0.00    -0.000 C 
BRANCH   6   7
ATOM      7  C   UNL     1     118.923 110.247 121.896  1.00  0.00    -0.000 C 
BRANCH   7   8
ATOM      8  C   UNL     1     117.411 110.458 122.098  1.00  0.00    -0.000 C 
BRANCH   8   9
ATOM      9  C   UNL     1     117.032 111.761 122.823  1.00  0.00    -0.000 C 
BRANCH   9  10
ATOM     10  C   UNL     1     116.456 112.826 121.875  1.00  0.00    -0.000 C 
BRANCH  10  11
ATOM     11  C   UNL     1     117.549 113.673 121.208  1.00  0.00    -0.003 C 
ATOM     12  C   UNL     1     117.012 114.530 120.062  1.00  0.00     0.004 C 
ENDBRANCH  10  11
ENDBRANCH   9  10
ENDBRANCH   8   9
ENDBRANCH   7   8
ENDBRANCH   6   7
ENDBRANCH   5   6
ENDBRANCH   4   5
ENDBRANCH   3   4
ENDBRANCH   2   3
ENDBRANCH   1   2
BRANCH   1  13
ATOM     13  C   UNL     1     113.610 109.779 119.123  1.00  0.00     0.000 C 
BRANCH  13  14
ATOM     14  C   UNL     1     114.431 109.222 120.305  1.00  0.00     0.000 C 
BRANCH  14  15
ATOM     15  C   UNL     1     113.918 109.619 121.702  1.00  0.00     0.000 C 
BRANCH  15  16
ATOM     16  C   UNL     1     112.385 109.652 121.851  1.00  0.00     0.000 C 
BRANCH  16  17
ATOM     17  C   UNL     1     111.831 111.010 122.338  1.00  0.00     0.000 C 
BRANCH  17  18
ATOM     18  C   UNL     1     112.791 112.179 122.053  1.00  0.00     0.000 C 
BRANCH  18  19
ATOM     19  C   UNL     1     112.351 113.038 120.855  1.00  0.00     0.000 C 
BRANCH  19  20
ATOM     20  C   UNL     1     110.961 112.698 120.287  1.00  0.00     0.006 C 
BRANCH  20  21
ATOM     21  C   UNL     1     110.976 112.441 118.774  1.00  0.00     0.053 C 
BRANCH  21  22
ATOM     22  C   UNL     1     109.582 112.290 118.255  1.00  0.00     0.041 C 
ATOM     23  O   UNL     1     109.249 112.825 117.165  1.00  0.00    -0.550 OA
ATOM     24  O   UNL     1     108.636 111.587 118.993  1.00  0.00    -0.550 OA
ENDBRANCH  21  22
ENDBRANCH  20  21
ENDBRANCH  19  20
ENDBRANCH  18  19
ENDBRANCH  17  18
ENDBRANCH  16  17
ENDBRANCH  15  16
ENDBRANCH  14  15
ENDBRANCH  13  14
ENDBRANCH   1  13
TORSDOF 20
ENDMDL
MODEL 9
REMARK VINA RESULT:    -3.603      1.524      4.151
REMARK INTER + INTRA:         -11.676
REMARK INTER:                  -8.504
REMARK INTRA:                  -3.172
REMARK UNBOUND:                -3.860
REMARK SMILES CCCCCCCCCCCCCCCCCCCCCC(=O)[O-]
REMARK SMILES IDX 12 1 11 2 10 3 9 4 8 5 7 6 6 7 5 8 4 9 3 10 2 11 1 12 13 13
REMARK SMILES IDX 14 14 15 15 16 16 17 17 18 18 19 19 20 20 21 21 22 22 23 23
REMARK SMILES IDX 24 24
REMARK H PARENT
REMARK Flexibility Score: inf
ROOT
ATOM      1  C   UNL     1     111.801 111.598 122.437  1.00  0.00     0.000 C 
ENDROOT
BRANCH   1   2
ATOM      2  C   UNL     1     112.043 110.169 121.924  1.00  0.00     0.000 C 
BRANCH   2   3
ATOM      3  C   UNL     1     113.324 110.041 121.078  1.00  0.00     0.000 C 
BRANCH   3   4
ATOM      4  C   UNL     1     114.454 109.205 121.713  1.00  0.00    -0.000 C 
BRANCH   4   5
ATOM      5  C   UNL     1     115.758 109.972 121.993  1.00  0.00    -0.000 C 
BRANCH   5   6
ATOM      6  C   UNL     1     115.541 111.218 122.864  1.00  0.00    -0.000 C 
BRANCH   6   7
ATOM      7  C   UNL     1     116.146 112.464 122.198  1.00  0.00    -0.000 C 
BRANCH   7   8
ATOM      8  C   UNL     1     115.115 113.273 121.389  1.00  0.00    -0.000 C 
BRANCH   8   9
ATOM      9  C   UNL     1     115.515 113.556 119.931  1.00  0.00    -0.000 C 
BRANCH   9  10
ATOM     10  C   UNL     1     114.703 112.733 118.918  1.00  0.00    -0.000 C 
BRANCH  10  11
ATOM     11  C   UNL     1     115.415 111.435 118.509  1.00  0.00    -0.003 C 
ATOM     12  C   UNL     1     114.726 110.728 117.342  1.00  0.00     0.004 C 
ENDBRANCH  10  11
ENDBRANCH   9  10
ENDBRANCH   8   9
ENDBRANCH   7   8
ENDBRANCH   6   7
ENDBRANCH   5   6
ENDBRANCH   4   5
ENDBRANCH   3   4
ENDBRANCH   2   3
ENDBRANCH   1   2
BRANCH   1  13
ATOM     13  C   UNL     1     111.682 112.626 121.299  1.00  0.00     0.000 C 
BRANCH  13  14
ATOM     14  C   UNL     1     110.530 112.372 120.304  1.00  0.00     0.000 C 
BRANCH  14  15
ATOM     15  C   UNL     1     110.956 112.243 118.829  1.00  0.00     0.000 C 
BRANCH  15  16
ATOM     16  C   UNL     1     111.199 110.801 118.343  1.00  0.00     0.000 C 
BRANCH  16  17
ATOM     17  C   UNL     1     109.946 110.119 117.752  1.00  0.00     0.000 C 
BRANCH  17  18
ATOM     18  C   UNL     1     108.959 111.124 117.130  1.00  0.00     0.000 C 
BRANCH  18  19
ATOM     19  C   UNL     1     107.811 110.443 116.366  1.00  0.00     0.000 C 
BRANCH  19  20
ATOM     20  C   UNL     1     107.486 109.009 116.823  1.00  0.00     0.006 C 
BRANCH  20  21
ATOM     21  C   UNL     1     106.226 108.925 117.693  1.00  0.00     0.053 C 
BRANCH  21  22
ATOM     22  C   UNL     1     106.443 107.991 118.841  1.00  0.00     0.041 C 
ATOM     23  O   UNL     1     105.625 107.060 119.065  1.00  0.00    -0.550 OA
ATOM     24  O   UNL     1     107.530 108.170 119.688  1.00  0.00    -0.550 OA
ENDBRANCH  21  22
ENDBRANCH  20  21
ENDBRANCH  19  20
ENDBRANCH  18  19
ENDBRANCH  17  18
ENDBRANCH  16  17
ENDBRANCH  15  16
ENDBRANCH  14  15
ENDBRANCH  13  14
ENDBRANCH   1  13
TORSDOF 20
ENDMDL
