MODEL 1
REMARK VINA RESULT:    -5.683      0.000      0.000
REMARK INTER + INTRA:          -6.254
REMARK INTER:                  -6.181
REMARK INTRA:                  -0.073
REMARK UNBOUND:                -0.073
REMARK SMILES CCc1cccc(O)c1
REMARK SMILES IDX 3 1 9 2 7 3 6 4 5 5 4 6 2 7 1 8 8 9
REMARK H PARENT 8 10
REMARK Flexibility Score: inf
ROOT
ATOM      1  C   UNL     1     -36.833  -8.968  26.722  1.00  0.00    -0.045 A 
ATOM      2  C   UNL     1     -38.075  -8.360  26.479  1.00  0.00     0.049 A 
ATOM      3  C   UNL     1     -38.238  -7.493  25.393  1.00  0.00     0.115 A 
ATOM      4  C   UNL     1     -37.157  -7.237  24.537  1.00  0.00     0.046 A 
ATOM      5  C   UNL     1     -35.922  -7.850  24.767  1.00  0.00     0.004 A 
ATOM      6  C   UNL     1     -35.760  -8.717  25.851  1.00  0.00     0.004 A 
ENDROOT
BRANCH   1   7
ATOM      7  C   UNL     1     -36.668  -9.926  27.871  1.00  0.00     0.032 C 
ATOM      8  C   UNL     1     -35.206 -10.009  28.300  1.00  0.00     0.009 C 
ENDBRANCH   1   7
BRANCH   3   9
ATOM      9  O   UNL     1     -39.475  -6.893  25.171  1.00  0.00    -0.508 OA
ATOM     10  H   UNL     1     -39.794  -6.665  24.235  1.00  0.00     0.293 HD
ENDBRANCH   3   9
TORSDOF 2
ENDMDL
MODEL 2
REMARK VINA RESULT:    -5.671      1.257      1.672
REMARK INTER + INTRA:          -6.241
REMARK INTER:                  -6.193
REMARK INTRA:                  -0.048
REMARK UNBOUND:                -0.073
REMARK SMILES CCc1cccc(O)c1
REMARK SMILES IDX 3 1 9 2 7 3 6 4 5 5 4 6 2 7 1 8 8 9
REMARK H PARENT 8 10
REMARK Flexibility Score: inf
ROOT
ATOM      1  C   UNL     1     -36.146  -9.249  26.795  1.00  0.00    -0.045 A 
ATOM      2  C   UNL     1     -37.374  -9.308  27.472  1.00  0.00     0.049 A 
ATOM      3  C   UNL     1     -38.476  -8.582  27.005  1.00  0.00     0.115 A 
ATOM      4  C   UNL     1     -38.354  -7.799  25.849  1.00  0.00     0.046 A 
ATOM      5  C   UNL     1     -37.137  -7.747  25.163  1.00  0.00     0.004 A 
ATOM      6  C   UNL     1     -36.038  -8.472  25.630  1.00  0.00     0.004 A 
ENDROOT
BRANCH   1   7
ATOM      7  C   UNL     1     -34.971 -10.056  27.280  1.00  0.00     0.032 C 
ATOM      8  C   UNL     1     -34.922 -10.074  28.805  1.00  0.00     0.009 C 
ENDBRANCH   1   7
BRANCH   3   9
ATOM      9  O   UNL     1     -39.685  -8.648  27.693  1.00  0.00    -0.508 OA
ATOM     10  H   UNL     1     -39.995  -7.892  28.294  1.00  0.00     0.293 HD
ENDBRANCH   3   9
TORSDOF 2
ENDMDL
MODEL 3
REMARK VINA RESULT:    -5.639      1.731      3.488
REMARK INTER + INTRA:          -6.206
REMARK INTER:                  -6.132
REMARK INTRA:                  -0.074
REMARK UNBOUND:                -0.073
REMARK SMILES CCc1cccc(O)c1
REMARK SMILES IDX 3 1 9 2 7 3 6 4 5 5 4 6 2 7 1 8 8 9
REMARK H PARENT 8 10
REMARK Flexibility Score: inf
ROOT
ATOM      1  C   UNL     1     -37.499  -7.722  25.637  1.00  0.00    -0.045 A 
ATOM      2  C   UNL     1     -38.340  -8.213  26.648  1.00  0.00     0.049 A 
ATOM      3  C   UNL     1     -37.899  -9.227  27.506  1.00  0.00     0.115 A 
ATOM      4  C   UNL     1     -36.607  -9.750  27.360  1.00  0.00     0.046 A 
ATOM      5  C   UNL     1     -35.760  -9.255  26.363  1.00  0.00     0.004 A 
ATOM      6  C   UNL     1     -36.201  -8.242  25.508  1.00  0.00     0.004 A 
ENDROOT
BRANCH   1   7
ATOM      7  C   UNL     1     -37.963  -6.608  24.737  1.00  0.00     0.032 C 
ATOM      8  C   UNL     1     -36.773  -5.848  24.161  1.00  0.00     0.009 C 
ENDBRANCH   1   7
BRANCH   3   9
ATOM      9  O   UNL     1     -38.750  -9.706  28.499  1.00  0.00    -0.508 OA
ATOM     10  H   UNL     1     -38.750  -9.310  29.433  1.00  0.00     0.293 HD
ENDBRANCH   3   9
TORSDOF 2
ENDMDL
MODEL 4
REMARK VINA RESULT:    -5.627      9.039     10.708
REMARK INTER + INTRA:          -6.193
REMARK INTER:                  -6.135
REMARK INTRA:                  -0.058
REMARK UNBOUND:                -0.073
REMARK SMILES CCc1cccc(O)c1
REMARK SMILES IDX 3 1 9 2 7 3 6 4 5 5 4 6 2 7 1 8 8 9
REMARK H PARENT 8 10
REMARK Flexibility Score: inf
ROOT
ATOM      1  C   UNL     1     -26.229 -10.148  28.387  1.00  0.00    -0.045 A 
ATOM      2  C   UNL     1     -26.669  -9.014  29.090  1.00  0.00     0.049 A 
ATOM      3  C   UNL     1     -28.036  -8.777  29.268  1.00  0.00     0.115 A 
ATOM      4  C   UNL     1     -28.973  -9.682  28.749  1.00  0.00     0.046 A 
ATOM      5  C   UNL     1     -28.541 -10.819  28.060  1.00  0.00     0.004 A 
ATOM      6  C   UNL     1     -27.175 -11.055  27.884  1.00  0.00     0.004 A 
ENDROOT
BRANCH   1   7
ATOM      7  C   UNL     1     -24.757 -10.418  28.225  1.00  0.00     0.032 C 
ATOM      8  C   UNL     1     -24.305 -11.526  29.171  1.00  0.00     0.009 C 
ENDBRANCH   1   7
BRANCH   3   9
ATOM      9  O   UNL     1     -28.454  -7.644  29.962  1.00  0.00    -0.508 OA
ATOM     10  H   UNL     1     -29.260  -7.666  30.577  1.00  0.00     0.293 HD
ENDBRANCH   3   9
TORSDOF 2
ENDMDL
MODEL 5
REMARK VINA RESULT:    -5.358      9.890     11.376
REMARK INTER + INTRA:          -5.900
REMARK INTER:                  -5.850
REMARK INTRA:                  -0.050
REMARK UNBOUND:                -0.073
REMARK SMILES CCc1cccc(O)c1
REMARK SMILES IDX 3 1 9 2 7 3 6 4 5 5 4 6 2 7 1 8 8 9
REMARK H PARENT 8 10
REMARK Flexibility Score: inf
ROOT
ATOM      1  C   UNL     1     -27.382 -10.214  27.846  1.00  0.00    -0.045 A 
ATOM      2  C   UNL     1     -26.525 -10.947  28.683  1.00  0.00     0.049 A 
ATOM      3  C   UNL     1     -25.466 -11.684  28.141  1.00  0.00     0.115 A 
ATOM      4  C   UNL     1     -25.254 -11.683  26.755  1.00  0.00     0.046 A 
ATOM      5  C   UNL     1     -26.097 -10.944  25.919  1.00  0.00     0.004 A 
ATOM      6  C   UNL     1     -27.153 -10.208  26.460  1.00  0.00     0.004 A 
ENDROOT
BRANCH   1   7
ATOM      7  C   UNL     1     -28.501  -9.395  28.434  1.00  0.00     0.032 C 
ATOM      8  C   UNL     1     -27.966  -8.427  29.484  1.00  0.00     0.009 C 
ENDBRANCH   1   7
BRANCH   3   9
ATOM      9  O   UNL     1     -24.630 -12.410  28.986  1.00  0.00    -0.508 OA
ATOM     10  H   UNL     1     -24.794 -12.452  29.985  1.00  0.00     0.293 HD
ENDBRANCH   3   9
TORSDOF 2
ENDMDL
MODEL 6
REMARK VINA RESULT:    -5.318      1.141      2.073
REMARK INTER + INTRA:          -5.857
REMARK INTER:                  -5.789
REMARK INTRA:                  -0.068
REMARK UNBOUND:                -0.073
REMARK SMILES CCc1cccc(O)c1
REMARK SMILES IDX 3 1 9 2 7 3 6 4 5 5 4 6 2 7 1 8 8 9
REMARK H PARENT 8 10
REMARK Flexibility Score: inf
ROOT
ATOM      1  C   UNL     1     -36.332  -9.272  26.835  1.00  0.00    -0.045 A 
ATOM      2  C   UNL     1     -36.232  -8.263  25.864  1.00  0.00     0.049 A 
ATOM      3  C   UNL     1     -37.363  -7.533  25.483  1.00  0.00     0.115 A 
ATOM      4  C   UNL     1     -38.602  -7.805  26.080  1.00  0.00     0.046 A 
ATOM      5  C   UNL     1     -38.705  -8.799  27.057  1.00  0.00     0.004 A 
ATOM      6  C   UNL     1     -37.575  -9.528  27.438  1.00  0.00     0.004 A 
ENDROOT
BRANCH   1   7
ATOM      7  C   UNL     1     -35.109 -10.035  27.268  1.00  0.00     0.032 C 
ATOM      8  C   UNL     1     -34.975 -10.023  28.788  1.00  0.00     0.009 C 
ENDBRANCH   1   7
BRANCH   3   9
ATOM      9  O   UNL     1     -37.246  -6.539  24.513  1.00  0.00    -0.508 OA
ATOM     10  H   UNL     1     -36.351  -6.309  24.096  1.00  0.00     0.293 HD
ENDBRANCH   3   9
TORSDOF 2
ENDMDL
MODEL 7
REMARK VINA RESULT:    -5.284      1.506      1.849
REMARK INTER + INTRA:          -5.820
REMARK INTER:                  -5.770
REMARK INTRA:                  -0.050
REMARK UNBOUND:                -0.073
REMARK SMILES CCc1cccc(O)c1
REMARK SMILES IDX 3 1 9 2 7 3 6 4 5 5 4 6 2 7 1 8 8 9
REMARK H PARENT 8 10
REMARK Flexibility Score: inf
ROOT
ATOM      1  C   UNL     1     -37.013  -9.341  25.496  1.00  0.00    -0.045 A 
ATOM      2  C   UNL     1     -38.296  -8.771  25.523  1.00  0.00     0.049 A 
ATOM      3  C   UNL     1     -38.473  -7.411  25.244  1.00  0.00     0.115 A 
ATOM      4  C   UNL     1     -37.363  -6.615  24.927  1.00  0.00     0.046 A 
ATOM      5  C   UNL     1     -36.085  -7.181  24.885  1.00  0.00     0.004 A 
ATOM      6  C   UNL     1     -35.910  -8.539  25.163  1.00  0.00     0.004 A 
ENDROOT
BRANCH   1   7
ATOM      7  C   UNL     1     -36.830 -10.811  25.764  1.00  0.00     0.032 C 
ATOM      8  C   UNL     1     -37.693 -11.644  24.821  1.00  0.00     0.009 C 
ENDBRANCH   1   7
BRANCH   3   9
ATOM      9  O   UNL     1     -39.752  -6.861  25.281  1.00  0.00    -0.508 OA
ATOM     10  H   UNL     1     -39.999  -6.138  25.948  1.00  0.00     0.293 HD
ENDBRANCH   3   9
TORSDOF 2
ENDMDL
MODEL 8
REMARK VINA RESULT:    -5.137      2.070      2.451
REMARK INTER + INTRA:          -5.660
REMARK INTER:                  -5.608
REMARK INTRA:                  -0.052
REMARK UNBOUND:                -0.073
REMARK SMILES CCc1cccc(O)c1
REMARK SMILES IDX 3 1 9 2 7 3 6 4 5 5 4 6 2 7 1 8 8 9
REMARK H PARENT 8 10
REMARK Flexibility Score: inf
ROOT
ATOM      1  C   UNL     1     -37.367  -9.955  25.283  1.00  0.00    -0.045 A 
ATOM      2  C   UNL     1     -38.396  -9.517  26.131  1.00  0.00     0.049 A 
ATOM      3  C   UNL     1     -38.509  -8.162  26.465  1.00  0.00     0.115 A 
ATOM      4  C   UNL     1     -37.595  -7.237  25.942  1.00  0.00     0.046 A 
ATOM      5  C   UNL     1     -36.577  -7.666  25.086  1.00  0.00     0.004 A 
ATOM      6  C   UNL     1     -36.465  -9.019  24.752  1.00  0.00     0.004 A 
ENDROOT
BRANCH   1   7
ATOM      7  C   UNL     1     -37.266 -11.407  24.899  1.00  0.00     0.032 C 
ATOM      8  C   UNL     1     -38.605 -12.111  25.093  1.00  0.00     0.009 C 
ENDBRANCH   1   7
BRANCH   3   9
ATOM      9  O   UNL     1     -39.533  -7.746  27.313  1.00  0.00    -0.508 OA
ATOM     10  H   UNL     1     -40.468  -7.565  26.966  1.00  0.00     0.293 HD
ENDBRANCH   3   9
TORSDOF 2
ENDMDL
MODEL 9
REMARK VINA RESULT:    -4.980      9.845     11.487
REMARK INTER + INTRA:          -5.489
REMARK INTER:                  -5.418
REMARK INTRA:                  -0.071
REMARK UNBOUND:                -0.073
REMARK SMILES CCc1cccc(O)c1
REMARK SMILES IDX 3 1 9 2 7 3 6 4 5 5 4 6 2 7 1 8 8 9
REMARK H PARENT 8 10
REMARK Flexibility Score: inf
ROOT
ATOM      1  C   UNL     1     -25.361 -10.828  28.476  1.00  0.00    -0.045 A 
ATOM      2  C   UNL     1     -25.912 -11.119  27.218  1.00  0.00     0.049 A 
ATOM      3  C   UNL     1     -27.167 -10.614  26.861  1.00  0.00     0.115 A 
ATOM      4  C   UNL     1     -27.875  -9.805  27.761  1.00  0.00     0.046 A 
ATOM      5  C   UNL     1     -27.325  -9.501  29.010  1.00  0.00     0.004 A 
ATOM      6  C   UNL     1     -26.071 -10.005  29.366  1.00  0.00     0.004 A 
ENDROOT
BRANCH   1   7
ATOM      7  C   UNL     1     -23.997 -11.346  28.846  1.00  0.00     0.032 C 
ATOM      8  C   UNL     1     -23.896 -11.572  30.352  1.00  0.00     0.009 C 
ENDBRANCH   1   7
BRANCH   3   9
ATOM      9  O   UNL     1     -27.701 -10.918  25.610  1.00  0.00    -0.508 OA
ATOM     10  H   UNL     1     -28.146 -10.210  25.038  1.00  0.00     0.293 HD
ENDBRANCH   3   9
TORSDOF 2
ENDMDL
