MODEL 1
REMARK VINA RESULT:     4.799      0.000      0.000
REMARK INTER + INTRA:           5.162
REMARK INTER:                   5.641
REMARK INTRA:                  -0.479
REMARK UNBOUND:                -0.479
REMARK SMILES C=C(C)[C@H]1CC[C@@]2(CO)CC[C@]3(C)[C@@H](CC[C@@H]4[C@@]5(C)CC[C@@H](O)C(C)(C)[C@H]5CC[C@@]43C)[C@@H]12
REMARK SMILES IDX 4 1 5 2 6 3 7 4 32 5 14 6 15 7 16 8 17 9 18 10 20 11 21 12
REMARK SMILES IDX 22 13 24 14 27 15 28 16 29 17 30 18 12 19 11 20 10 21 13 22
REMARK SMILES IDX 31 23 25 24 26 25 19 26 2 27 3 28 1 29 8 30 9 31 23 33
REMARK H PARENT 9 32 23 34
REMARK Flexibility Score: inf
ROOT
ATOM      1  C   UNL     1      16.464  -6.374  15.941  1.00  0.00     0.018 C 
ATOM      2  C   UNL     1      16.537  -6.622  17.463  1.00  0.00     0.009 C 
ATOM      3  C   UNL     1      15.806  -7.957  17.725  1.00  0.00     0.010 C 
ATOM      4  C   UNL     1      15.452  -8.543  16.336  1.00  0.00    -0.003 C 
ATOM      5  C   UNL     1      15.299  -7.270  15.450  1.00  0.00     0.008 C 
ATOM      6  C   UNL     1      13.857  -6.593  15.458  1.00  0.00    -0.000 C 
ATOM      7  C   UNL     1      13.560  -5.613  16.603  1.00  0.00     0.005 C 
ATOM      8  C   UNL     1      12.365  -4.717  16.256  1.00  0.00     0.005 C 
ATOM      9  C   UNL     1      11.301  -5.329  15.269  1.00  0.00     0.002 C 
ATOM     10  C   UNL     1       9.929  -4.489  15.314  1.00  0.00    -0.026 C 
ATOM     11  C   UNL     1       9.198  -4.598  13.918  1.00  0.00     0.010 C 
ATOM     12  C   UNL     1       7.655  -4.441  13.876  1.00  0.00     0.033 C 
ATOM     13  C   UNL     1       6.897  -5.007  15.087  1.00  0.00     0.120 C 
ATOM     14  C   UNL     1       7.482  -4.519  16.447  1.00  0.00    -0.006 C 
ATOM     15  C   UNL     1       9.022  -4.906  16.572  1.00  0.00     0.003 C 
ATOM     16  C   UNL     1       9.196  -6.368  17.086  1.00  0.00     0.005 C 
ATOM     17  C   UNL     1      10.578  -7.023  16.946  1.00  0.00     0.008 C 
ATOM     18  C   UNL     1      11.190  -6.891  15.514  1.00  0.00    -0.024 C 
ATOM     19  C   UNL     1      12.662  -7.616  15.336  1.00  0.00    -0.024 C 
ATOM     20  C   UNL     1      12.859  -8.728  16.414  1.00  0.00     0.008 C 
ATOM     21  C   UNL     1      14.197  -9.459  16.348  1.00  0.00     0.010 C 
ATOM     22  C   UNL     1      12.803  -8.269  13.916  1.00  0.00     0.012 C 
ATOM     23  C   UNL     1      10.161  -7.585  14.563  1.00  0.00     0.012 C 
ATOM     24  C   UNL     1       6.638  -5.127  17.606  1.00  0.00     0.014 C 
ATOM     25  C   UNL     1       7.270  -2.979  16.582  1.00  0.00     0.014 C 
ATOM     26  C   UNL     1      10.297  -2.965  15.428  1.00  0.00     0.012 C 
ENDROOT
BRANCH   1  27
ATOM     27  C   UNL     1      16.490  -4.931  15.428  1.00  0.00    -0.077 C 
ATOM     28  C   UNL     1      16.407  -3.744  16.356  1.00  0.00     0.039 C 
ATOM     29  C   UNL     1      16.724  -4.696  14.124  1.00  0.00     0.008 C 
ENDBRANCH   1  27
BRANCH   4  30
ATOM     30  C   UNL     1      16.661  -9.433  15.875  1.00  0.00     0.163 C 
BRANCH  30  31
ATOM     31  O   UNL     1      16.587 -10.728  16.409  1.00  0.00    -0.396 OA
ATOM     32  H   UNL     1      17.513 -11.077  16.454  1.00  0.00     0.210 HD
ENDBRANCH  30  31
ENDBRANCH   4  30
BRANCH  13  33
ATOM     33  O   UNL     1       6.896  -6.414  14.997  1.00  0.00    -0.393 OA
ATOM     34  H   UNL     1       7.631  -6.692  14.388  1.00  0.00     0.210 HD
ENDBRANCH  13  33
TORSDOF 4
ENDMDL
MODEL 2
REMARK VINA RESULT:     5.158      1.692      3.295
REMARK INTER + INTRA:           5.584
REMARK INTER:                   5.391
REMARK INTRA:                   0.193
REMARK UNBOUND:                -0.479
REMARK SMILES C=C(C)[C@H]1CC[C@@]2(CO)CC[C@]3(C)[C@@H](CC[C@@H]4[C@@]5(C)CC[C@@H](O)C(C)(C)[C@H]5CC[C@@]43C)[C@@H]12
REMARK SMILES IDX 4 1 5 2 6 3 7 4 32 5 14 6 15 7 16 8 17 9 18 10 20 11 21 12
REMARK SMILES IDX 22 13 24 14 27 15 28 16 29 17 30 18 12 19 11 20 10 21 13 22
REMARK SMILES IDX 31 23 25 24 26 25 19 26 2 27 3 28 1 29 8 30 9 31 23 33
REMARK H PARENT 9 32 23 34
REMARK Flexibility Score: inf
ROOT
ATOM      1  C   UNL     1      14.983  -9.475  17.554  1.00  0.00     0.018 C 
ATOM      2  C   UNL     1      14.518 -10.766  16.846  1.00  0.00     0.009 C 
ATOM      3  C   UNL     1      14.591 -10.483  15.329  1.00  0.00     0.010 C 
ATOM      4  C   UNL     1      15.244  -9.087  15.174  1.00  0.00    -0.003 C 
ATOM      5  C   UNL     1      14.829  -8.360  16.489  1.00  0.00     0.008 C 
ATOM      6  C   UNL     1      13.414  -7.630  16.456  1.00  0.00    -0.000 C 
ATOM      7  C   UNL     1      12.181  -8.495  16.756  1.00  0.00     0.005 C 
ATOM      8  C   UNL     1      10.980  -7.620  17.135  1.00  0.00     0.005 C 
ATOM      9  C   UNL     1      10.959  -6.168  16.522  1.00  0.00     0.002 C 
ATOM     10  C   UNL     1       9.492  -5.518  16.642  1.00  0.00    -0.026 C 
ATOM     11  C   UNL     1       9.617  -3.946  16.733  1.00  0.00     0.010 C 
ATOM     12  C   UNL     1       8.429  -3.079  16.239  1.00  0.00     0.033 C 
ATOM     13  C   UNL     1       7.664  -3.630  15.026  1.00  0.00     0.120 C 
ATOM     14  C   UNL     1       7.244  -5.122  15.206  1.00  0.00    -0.006 C 
ATOM     15  C   UNL     1       8.517  -6.039  15.477  1.00  0.00     0.003 C 
ATOM     16  C   UNL     1       9.209  -6.453  14.141  1.00  0.00     0.005 C 
ATOM     17  C   UNL     1      10.624  -7.043  14.214  1.00  0.00     0.008 C 
ATOM     18  C   UNL     1      11.612  -6.194  15.078  1.00  0.00    -0.024 C 
ATOM     19  C   UNL     1      13.147  -6.797  15.143  1.00  0.00    -0.024 C 
ATOM     20  C   UNL     1      13.425  -7.719  13.914  1.00  0.00     0.008 C 
ATOM     21  C   UNL     1      14.819  -8.342  13.879  1.00  0.00     0.010 C 
ATOM     22  C   UNL     1      14.209  -5.642  15.147  1.00  0.00     0.012 C 
ATOM     23  C   UNL     1      11.645  -4.787  14.399  1.00  0.00     0.012 C 
ATOM     24  C   UNL     1       6.461  -5.579  13.940  1.00  0.00     0.014 C 
ATOM     25  C   UNL     1       6.205  -5.234  16.364  1.00  0.00     0.014 C 
ATOM     26  C   UNL     1       8.891  -5.929  18.036  1.00  0.00     0.012 C 
ENDROOT
BRANCH   1  27
ATOM     27  C   UNL     1      14.448  -9.170  18.957  1.00  0.00    -0.077 C 
ATOM     28  C   UNL     1      15.224  -8.346  19.954  1.00  0.00     0.039 C 
ATOM     29  C   UNL     1      13.193  -9.533  19.280  1.00  0.00     0.008 C 
ENDBRANCH   1  27
BRANCH   4  30
ATOM     30  C   UNL     1      16.798  -9.298  15.090  1.00  0.00     0.163 C 
BRANCH  30  31
ATOM     31  O   UNL     1      17.125 -10.531  14.505  1.00  0.00    -0.396 OA
ATOM     32  H   UNL     1      18.031 -10.437  14.116  1.00  0.00     0.210 HD
ENDBRANCH  30  31
ENDBRANCH   4  30
BRANCH  13  33
ATOM     33  O   UNL     1       8.457  -3.449  13.876  1.00  0.00    -0.393 OA
ATOM     34  H   UNL     1       7.996  -2.808  13.272  1.00  0.00     0.210 HD
ENDBRANCH  13  33
TORSDOF 4
ENDMDL
MODEL 3
REMARK VINA RESULT:     6.766     13.902     16.904
REMARK INTER + INTRA:           7.473
REMARK INTER:                   7.513
REMARK INTRA:                  -0.040
REMARK UNBOUND:                -0.479
REMARK SMILES C=C(C)[C@H]1CC[C@@]2(CO)CC[C@]3(C)[C@@H](CC[C@@H]4[C@@]5(C)CC[C@@H](O)C(C)(C)[C@H]5CC[C@@]43C)[C@@H]12
REMARK SMILES IDX 4 1 5 2 6 3 7 4 32 5 14 6 15 7 16 8 17 9 18 10 20 11 21 12
REMARK SMILES IDX 22 13 24 14 27 15 28 16 29 17 30 18 12 19 11 20 10 21 13 22
REMARK SMILES IDX 31 23 25 24 26 25 19 26 2 27 3 28 1 29 8 30 9 31 23 33
REMARK H PARENT 9 32 23 34
REMARK Flexibility Score: inf
ROOT
ATOM      1  C   UNL     1       0.189 -16.478  17.535  1.00  0.00     0.018 C 
ATOM      2  C   UNL     1       0.532 -15.164  16.799  1.00  0.00     0.009 C 
ATOM      3  C   UNL     1       0.467 -15.480  15.288  1.00  0.00     0.010 C 
ATOM      4  C   UNL     1      -0.063 -16.929  15.165  1.00  0.00    -0.003 C 
ATOM      5  C   UNL     1       0.428 -17.594  16.486  1.00  0.00     0.008 C 
ATOM      6  C   UNL     1       1.901 -18.199  16.448  1.00  0.00    -0.000 C 
ATOM      7  C   UNL     1       3.057 -17.224  16.718  1.00  0.00     0.005 C 
ATOM      8  C   UNL     1       4.334 -17.985  17.096  1.00  0.00     0.005 C 
ATOM      9  C   UNL     1       4.475 -19.440  16.507  1.00  0.00     0.002 C 
ATOM     10  C   UNL     1       5.994 -19.957  16.620  1.00  0.00    -0.026 C 
ATOM     11  C   UNL     1       6.007 -21.532  16.740  1.00  0.00     0.010 C 
ATOM     12  C   UNL     1       7.261 -22.301  16.245  1.00  0.00     0.033 C 
ATOM     13  C   UNL     1       7.962 -21.707  15.013  1.00  0.00     0.120 C 
ATOM     14  C   UNL     1       8.252 -20.182  15.162  1.00  0.00    -0.006 C 
ATOM     15  C   UNL     1       6.907 -19.374  15.434  1.00  0.00     0.003 C 
ATOM     16  C   UNL     1       6.166 -19.046  14.100  1.00  0.00     0.005 C 
ATOM     17  C   UNL     1       4.706 -18.580  14.182  1.00  0.00     0.008 C 
ATOM     18  C   UNL     1       3.806 -19.496  15.072  1.00  0.00    -0.024 C 
ATOM     19  C   UNL     1       2.225 -19.029  15.146  1.00  0.00    -0.024 C 
ATOM     20  C   UNL     1       1.853 -18.156  13.906  1.00  0.00     0.008 C 
ATOM     21  C   UNL     1       0.411 -17.658  13.877  1.00  0.00     0.010 C 
ATOM     22  C   UNL     1       1.268 -20.272  15.183  1.00  0.00     0.012 C 
ATOM     23  C   UNL     1       3.889 -20.913  14.417  1.00  0.00     0.012 C 
ATOM     24  C   UNL     1       8.978 -19.680  13.879  1.00  0.00     0.014 C 
ATOM     25  C   UNL     1       9.290 -19.959  16.305  1.00  0.00     0.014 C 
ATOM     26  C   UNL     1       6.572 -19.470  17.999  1.00  0.00     0.012 C 
ENDROOT
BRANCH   1  27
ATOM     27  C   UNL     1       0.765 -16.710  18.935  1.00  0.00    -0.077 C 
ATOM     28  C   UNL     1       0.167 -17.708  19.897  1.00  0.00     0.039 C 
ATOM     29  C   UNL     1       1.914 -16.107  19.287  1.00  0.00     0.008 C 
ENDBRANCH   1  27
BRANCH   4  30
ATOM     30  C   UNL     1      -1.631 -16.857  15.096  1.00  0.00     0.163 C 
BRANCH  30  31
ATOM     31  O   UNL     1      -2.074 -16.326  13.875  1.00  0.00    -0.396 OA
ATOM     32  H   UNL     1      -1.886 -15.354  13.895  1.00  0.00     0.210 HD
ENDBRANCH  30  31
ENDBRANCH   4  30
BRANCH  13  33
ATOM     33  O   UNL     1       7.175 -21.978  13.876  1.00  0.00    -0.393 OA
ATOM     34  H   UNL     1       7.774 -22.040  13.085  1.00  0.00     0.210 HD
ENDBRANCH  13  33
TORSDOF 4
ENDMDL
MODEL 4
REMARK VINA RESULT:     6.902     15.230     18.073
REMARK INTER + INTRA:           7.634
REMARK INTER:                   8.158
REMARK INTRA:                  -0.524
REMARK UNBOUND:                -0.479
REMARK SMILES C=C(C)[C@H]1CC[C@@]2(CO)CC[C@]3(C)[C@@H](CC[C@@H]4[C@@]5(C)CC[C@@H](O)C(C)(C)[C@H]5CC[C@@]43C)[C@@H]12
REMARK SMILES IDX 4 1 5 2 6 3 7 4 32 5 14 6 15 7 16 8 17 9 18 10 20 11 21 12
REMARK SMILES IDX 22 13 24 14 27 15 28 16 29 17 30 18 12 19 11 20 10 21 13 22
REMARK SMILES IDX 31 23 25 24 26 25 19 26 2 27 3 28 1 29 8 30 9 31 23 33
REMARK H PARENT 9 32 23 34
REMARK Flexibility Score: inf
ROOT
ATOM      1  C   UNL     1      -0.190 -22.879  16.620  1.00  0.00     0.018 C 
ATOM      2  C   UNL     1       0.647 -23.028  17.909  1.00  0.00     0.009 C 
ATOM      3  C   UNL     1      -0.104 -22.248  19.010  1.00  0.00     0.010 C 
ATOM      4  C   UNL     1      -1.444 -21.787  18.386  1.00  0.00    -0.003 C 
ATOM      5  C   UNL     1      -1.093 -21.645  16.874  1.00  0.00     0.008 C 
ATOM      6  C   UNL     1      -0.481 -20.241  16.437  1.00  0.00    -0.000 C 
ATOM      7  C   UNL     1       1.033 -20.058  16.621  1.00  0.00     0.005 C 
ATOM      8  C   UNL     1       1.548 -18.891  15.771  1.00  0.00     0.005 C 
ATOM      9  C   UNL     1       0.512 -17.743  15.467  1.00  0.00     0.002 C 
ATOM     10  C   UNL     1       1.263 -16.419  14.946  1.00  0.00    -0.026 C 
ATOM     11  C   UNL     1       0.297 -15.604  13.998  1.00  0.00     0.010 C 
ATOM     12  C   UNL     1       0.501 -14.070  13.875  1.00  0.00     0.033 C 
ATOM     13  C   UNL     1       0.956 -13.356  15.158  1.00  0.00     0.120 C 
ATOM     14  C   UNL     1       2.188 -14.042  15.825  1.00  0.00    -0.006 C 
ATOM     15  C   UNL     1       1.872 -15.566  16.163  1.00  0.00     0.003 C 
ATOM     16  C   UNL     1       1.129 -15.698  17.529  1.00  0.00     0.005 C 
ATOM     17  C   UNL     1       0.451 -17.036  17.855  1.00  0.00     0.008 C 
ATOM     18  C   UNL     1      -0.463 -17.570  16.705  1.00  0.00    -0.024 C 
ATOM     19  C   UNL     1      -1.226 -18.993  17.049  1.00  0.00    -0.024 C 
ATOM     20  C   UNL     1      -1.333 -19.197  18.593  1.00  0.00     0.008 C 
ATOM     21  C   UNL     1      -2.015 -20.492  19.026  1.00  0.00     0.010 C 
ATOM     22  C   UNL     1      -2.673 -19.020  16.443  1.00  0.00     0.012 C 
ATOM     23  C   UNL     1      -1.536 -16.456  16.483  1.00  0.00     0.012 C 
ATOM     24  C   UNL     1       2.584 -13.238  17.098  1.00  0.00     0.014 C 
ATOM     25  C   UNL     1       3.427 -13.913  14.886  1.00  0.00     0.014 C 
ATOM     26  C   UNL     1       2.434 -16.866  13.996  1.00  0.00     0.012 C 
ENDROOT
BRANCH   1  27
ATOM     27  C   UNL     1       0.524 -22.946  15.266  1.00  0.00    -0.077 C 
ATOM     28  C   UNL     1       2.021 -23.099  15.151  1.00  0.00     0.039 C 
ATOM     29  C   UNL     1      -0.204 -23.001  14.136  1.00  0.00     0.008 C 
ENDBRANCH   1  27
BRANCH   4  30
ATOM     30  C   UNL     1      -2.499 -22.923  18.636  1.00  0.00     0.163 C 
BRANCH  30  31
ATOM     31  O   UNL     1      -3.084 -22.819  19.907  1.00  0.00    -0.396 OA
ATOM     32  H   UNL     1      -4.065 -22.866  19.781  1.00  0.00     0.210 HD
ENDBRANCH  30  31
ENDBRANCH   4  30
BRANCH  13  33
ATOM     33  O   UNL     1      -0.139 -13.282  16.042  1.00  0.00    -0.393 OA
ATOM     34  H   UNL     1       0.053 -12.584  16.724  1.00  0.00     0.210 HD
ENDBRANCH  13  33
TORSDOF 4
ENDMDL
