MODEL 1
REMARK VINA RESULT:    -5.064      0.000      0.000
REMARK INTER + INTRA:         -12.278
REMARK INTER:                  -9.504
REMARK INTRA:                  -2.773
REMARK UNBOUND:                -2.773
REMARK SMILES CCCCCCCCC=CCCCCCCCC(=O)[O-]
REMARK SMILES IDX 10 1 9 2 11 3 12 4 13 5 14 6 15 7 16 8 17 9 18 10 19 11
REMARK SMILES IDX 20 12 8 13 7 14 6 15 5 16 4 17 3 18 2 19 1 20
REMARK H PARENT
REMARK Flexibility Score: inf
ROOT
ATOM      1  C   UNL     1      17.087  23.575   7.492  1.00  0.00    -0.031 C 
ATOM      2  C   UNL     1      17.064  24.530   8.441  1.00  0.00    -0.031 C 
ENDROOT
BRANCH   1   3
ATOM      3  C   UNL     1      17.884  23.640   6.209  1.00  0.00     0.027 C 
BRANCH   3   4
ATOM      4  C   UNL     1      18.856  22.459   6.098  1.00  0.00     0.004 C 
BRANCH   4   5
ATOM      5  C   UNL     1      20.186  22.740   6.819  1.00  0.00     0.000 C 
BRANCH   5   6
ATOM      6  C   UNL     1      21.348  21.907   6.255  1.00  0.00     0.000 C 
BRANCH   6   7
ATOM      7  C   UNL     1      21.501  20.557   6.977  1.00  0.00     0.000 C 
BRANCH   7   8
ATOM      8  C   UNL     1      21.154  19.361   6.077  1.00  0.00     0.006 C 
BRANCH   8   9
ATOM      9  C   UNL     1      19.755  18.795   6.352  1.00  0.00     0.053 C 
BRANCH   9  10
ATOM     10  C   UNL     1      19.800  17.302   6.433  1.00  0.00     0.041 C 
ATOM     11  O   UNL     1      18.755  16.649   6.690  1.00  0.00    -0.550 OA
ATOM     12  O   UNL     1      20.988  16.628   6.179  1.00  0.00    -0.550 OA
ENDBRANCH   9  10
ENDBRANCH   8   9
ENDBRANCH   7   8
ENDBRANCH   6   7
ENDBRANCH   5   6
ENDBRANCH   4   5
ENDBRANCH   3   4
ENDBRANCH   1   3
BRANCH   2  13
ATOM     13  C   UNL     1      17.781  25.852   8.355  1.00  0.00     0.027 C 
BRANCH  13  14
ATOM     14  C   UNL     1      19.183  25.760   8.972  1.00  0.00     0.004 C 
BRANCH  14  15
ATOM     15  C   UNL     1      19.174  24.890  10.237  1.00  0.00     0.000 C 
BRANCH  15  16
ATOM     16  C   UNL     1      20.291  23.830  10.243  1.00  0.00     0.000 C 
BRANCH  16  17
ATOM     17  C   UNL     1      19.802  22.373  10.320  1.00  0.00    -0.000 C 
BRANCH  17  18
ATOM     18  C   UNL     1      18.445  22.235  11.032  1.00  0.00    -0.000 C 
BRANCH  18  19
ATOM     19  C   UNL     1      17.602  21.078  10.472  1.00  0.00    -0.003 C 
ATOM     20  C   UNL     1      18.167  20.514   9.168  1.00  0.00     0.004 C 
ENDBRANCH  18  19
ENDBRANCH  17  18
ENDBRANCH  16  17
ENDBRANCH  15  16
ENDBRANCH  14  15
ENDBRANCH  13  14
ENDBRANCH   2  13
TORSDOF 15
ENDMDL
MODEL 2
REMARK VINA RESULT:    -5.048      1.329      3.859
REMARK INTER + INTRA:         -12.248
REMARK INTER:                  -9.327
REMARK INTRA:                  -2.921
REMARK UNBOUND:                -2.773
REMARK SMILES CCCCCCCCC=CCCCCCCCC(=O)[O-]
REMARK SMILES IDX 10 1 9 2 11 3 12 4 13 5 14 6 15 7 16 8 17 9 18 10 19 11
REMARK SMILES IDX 20 12 8 13 7 14 6 15 5 16 4 17 3 18 2 19 1 20
REMARK H PARENT
REMARK Flexibility Score: inf
ROOT
ATOM      1  C   UNL     1      20.435  23.682  10.422  1.00  0.00    -0.031 C 
ATOM      2  C   UNL     1      19.300  23.077  10.820  1.00  0.00    -0.031 C 
ENDROOT
BRANCH   1   3
ATOM      3  C   UNL     1      21.590  22.999   9.726  1.00  0.00     0.027 C 
BRANCH   3   4
ATOM      4  C   UNL     1      21.455  23.097   8.201  1.00  0.00     0.004 C 
BRANCH   4   5
ATOM      5  C   UNL     1      21.293  21.712   7.549  1.00  0.00     0.000 C 
BRANCH   5   6
ATOM      6  C   UNL     1      21.193  21.792   6.017  1.00  0.00     0.000 C 
BRANCH   6   7
ATOM      7  C   UNL     1      19.782  22.186   5.545  1.00  0.00     0.000 C 
BRANCH   7   8
ATOM      8  C   UNL     1      19.024  21.015   4.903  1.00  0.00     0.006 C 
BRANCH   8   9
ATOM      9  C   UNL     1      18.307  20.133   5.934  1.00  0.00     0.053 C 
BRANCH   9  10
ATOM     10  C   UNL     1      19.018  18.826   6.088  1.00  0.00     0.041 C 
ATOM     11  O   UNL     1      19.991  18.541   5.340  1.00  0.00    -0.550 OA
ATOM     12  O   UNL     1      18.637  17.940   7.088  1.00  0.00    -0.550 OA
ENDBRANCH   9  10
ENDBRANCH   8   9
ENDBRANCH   7   8
ENDBRANCH   6   7
ENDBRANCH   5   6
ENDBRANCH   4   5
ENDBRANCH   3   4
ENDBRANCH   1   3
BRANCH   2  13
ATOM     13  C   UNL     1      19.015  21.603  10.693  1.00  0.00     0.027 C 
BRANCH  13  14
ATOM     14  C   UNL     1      18.078  21.323   9.511  1.00  0.00     0.004 C 
BRANCH  14  15
ATOM     15  C   UNL     1      17.144  22.514   9.252  1.00  0.00     0.000 C 
BRANCH  15  16
ATOM     16  C   UNL     1      16.887  22.758   7.754  1.00  0.00     0.000 C 
BRANCH  16  17
ATOM     17  C   UNL     1      16.958  24.232   7.316  1.00  0.00    -0.000 C 
BRANCH  17  18
ATOM     18  C   UNL     1      18.226  24.944   7.818  1.00  0.00    -0.000 C 
BRANCH  18  19
ATOM     19  C   UNL     1      17.907  26.206   8.635  1.00  0.00    -0.003 C 
ATOM     20  C   UNL     1      19.163  26.905   9.156  1.00  0.00     0.004 C 
ENDBRANCH  18  19
ENDBRANCH  17  18
ENDBRANCH  16  17
ENDBRANCH  15  16
ENDBRANCH  14  15
ENDBRANCH  13  14
ENDBRANCH   2  13
TORSDOF 15
ENDMDL
MODEL 3
REMARK VINA RESULT:    -5.007      1.789      3.506
REMARK INTER + INTRA:         -12.170
REMARK INTER:                  -9.946
REMARK INTRA:                  -2.224
REMARK UNBOUND:                -2.773
REMARK SMILES CCCCCCCCC=CCCCCCCCC(=O)[O-]
REMARK SMILES IDX 10 1 9 2 11 3 12 4 13 5 14 6 15 7 16 8 17 9 18 10 19 11
REMARK SMILES IDX 20 12 8 13 7 14 6 15 5 16 4 17 3 18 2 19 1 20
REMARK H PARENT
REMARK Flexibility Score: inf
ROOT
ATOM      1  C   UNL     1      18.041  23.470   6.458  1.00  0.00    -0.031 C 
ATOM      2  C   UNL     1      16.993  23.031   7.180  1.00  0.00    -0.031 C 
ENDROOT
BRANCH   1   3
ATOM      3  C   UNL     1      19.254  22.645   6.093  1.00  0.00     0.027 C 
BRANCH   3   4
ATOM      4  C   UNL     1      20.380  22.828   7.118  1.00  0.00     0.004 C 
BRANCH   4   5
ATOM      5  C   UNL     1      21.564  21.883   6.848  1.00  0.00     0.000 C 
BRANCH   5   6
ATOM      6  C   UNL     1      22.231  21.391   8.142  1.00  0.00     0.000 C 
BRANCH   6   7
ATOM      7  C   UNL     1      23.297  20.314   7.874  1.00  0.00     0.000 C 
BRANCH   7   8
ATOM      8  C   UNL     1      22.979  19.459   6.638  1.00  0.00     0.006 C 
BRANCH   8   9
ATOM      9  C   UNL     1      24.233  18.847   6.000  1.00  0.00     0.053 C 
BRANCH   9  10
ATOM     10  C   UNL     1      23.878  17.618   5.224  1.00  0.00     0.041 C 
ATOM     11  O   UNL     1      24.755  17.023   4.543  1.00  0.00    -0.550 OA
ATOM     12  O   UNL     1      22.591  17.101   5.291  1.00  0.00    -0.550 OA
ENDBRANCH   9  10
ENDBRANCH   8   9
ENDBRANCH   7   8
ENDBRANCH   6   7
ENDBRANCH   5   6
ENDBRANCH   4   5
ENDBRANCH   3   4
ENDBRANCH   1   3
BRANCH   2  13
ATOM     13  C   UNL     1      16.881  21.663   7.800  1.00  0.00     0.027 C 
BRANCH  13  14
ATOM     14  C   UNL     1      16.944  21.745   9.331  1.00  0.00     0.004 C 
BRANCH  14  15
ATOM     15  C   UNL     1      18.359  21.442   9.844  1.00  0.00     0.000 C 
BRANCH  15  16
ATOM     16  C   UNL     1      19.017  22.652  10.533  1.00  0.00     0.000 C 
BRANCH  16  17
ATOM     17  C   UNL     1      18.407  24.017  10.169  1.00  0.00    -0.000 C 
BRANCH  17  18
ATOM     18  C   UNL     1      19.468  25.116   9.987  1.00  0.00    -0.000 C 
BRANCH  18  19
ATOM     19  C   UNL     1      19.064  26.154   8.928  1.00  0.00    -0.003 C 
ATOM     20  C   UNL     1      17.553  26.376   8.867  1.00  0.00     0.004 C 
ENDBRANCH  18  19
ENDBRANCH  17  18
ENDBRANCH  16  17
ENDBRANCH  15  16
ENDBRANCH  14  15
ENDBRANCH  13  14
ENDBRANCH   2  13
TORSDOF 15
ENDMDL
MODEL 4
REMARK VINA RESULT:    -5.001      1.845      3.523
REMARK INTER + INTRA:         -12.159
REMARK INTER:                  -9.492
REMARK INTRA:                  -2.667
REMARK UNBOUND:                -2.773
REMARK SMILES CCCCCCCCC=CCCCCCCCC(=O)[O-]
REMARK SMILES IDX 10 1 9 2 11 3 12 4 13 5 14 6 15 7 16 8 17 9 18 10 19 11
REMARK SMILES IDX 20 12 8 13 7 14 6 15 5 16 4 17 3 18 2 19 1 20
REMARK H PARENT
REMARK Flexibility Score: inf
ROOT
ATOM      1  C   UNL     1      19.770  22.701  10.338  1.00  0.00    -0.031 C 
ATOM      2  C   UNL     1      18.649  23.436  10.205  1.00  0.00    -0.031 C 
ENDROOT
BRANCH   1   3
ATOM      3  C   UNL     1      21.180  23.240  10.260  1.00  0.00     0.027 C 
BRANCH   3   4
ATOM      4  C   UNL     1      21.736  23.138   8.834  1.00  0.00     0.004 C 
BRANCH   4   5
ATOM      5  C   UNL     1      21.097  21.980   8.049  1.00  0.00     0.000 C 
BRANCH   5   6
ATOM      6  C   UNL     1      21.064  22.242   6.535  1.00  0.00     0.000 C 
BRANCH   6   7
ATOM      7  C   UNL     1      21.771  21.133   5.736  1.00  0.00     0.000 C 
BRANCH   7   8
ATOM      8  C   UNL     1      21.889  19.819   6.523  1.00  0.00     0.006 C 
BRANCH   8   9
ATOM      9  C   UNL     1      23.340  19.345   6.676  1.00  0.00     0.053 C 
BRANCH   9  10
ATOM     10  C   UNL     1      23.764  18.562   5.474  1.00  0.00     0.041 C 
ATOM     11  O   UNL     1      22.914  17.918   4.805  1.00  0.00    -0.550 OA
ATOM     12  O   UNL     1      25.091  18.580   5.064  1.00  0.00    -0.550 OA
ENDBRANCH   9  10
ENDBRANCH   8   9
ENDBRANCH   7   8
ENDBRANCH   6   7
ENDBRANCH   5   6
ENDBRANCH   4   5
ENDBRANCH   3   4
ENDBRANCH   1   3
BRANCH   2  13
ATOM     13  C   UNL     1      18.612  24.909   9.895  1.00  0.00     0.027 C 
BRANCH  13  14
ATOM     14  C   UNL     1      18.610  25.153   8.381  1.00  0.00     0.004 C 
BRANCH  14  15
ATOM     15  C   UNL     1      17.337  24.591   7.732  1.00  0.00     0.000 C 
BRANCH  15  16
ATOM     16  C   UNL     1      17.634  23.617   6.576  1.00  0.00     0.000 C 
BRANCH  16  17
ATOM     17  C   UNL     1      16.983  22.230   6.714  1.00  0.00    -0.000 C 
BRANCH  17  18
ATOM     18  C   UNL     1      17.740  21.135   5.944  1.00  0.00    -0.000 C 
BRANCH  18  19
ATOM     19  C   UNL     1      18.011  19.891   6.806  1.00  0.00    -0.003 C 
ATOM     20  C   UNL     1      17.958  20.189   8.304  1.00  0.00     0.004 C 
ENDBRANCH  18  19
ENDBRANCH  17  18
ENDBRANCH  16  17
ENDBRANCH  15  16
ENDBRANCH  14  15
ENDBRANCH  13  14
ENDBRANCH   2  13
TORSDOF 15
ENDMDL
MODEL 5
REMARK VINA RESULT:    -4.974      2.007      3.826
REMARK INTER + INTRA:         -12.110
REMARK INTER:                 -10.133
REMARK INTRA:                  -1.977
REMARK UNBOUND:                -2.773
REMARK SMILES CCCCCCCCC=CCCCCCCCC(=O)[O-]
REMARK SMILES IDX 10 1 9 2 11 3 12 4 13 5 14 6 15 7 16 8 17 9 18 10 19 11
REMARK SMILES IDX 20 12 8 13 7 14 6 15 5 16 4 17 3 18 2 19 1 20
REMARK H PARENT
REMARK Flexibility Score: inf
ROOT
ATOM      1  C   UNL     1      20.371  22.845   7.319  1.00  0.00    -0.031 C 
ATOM      2  C   UNL     1      20.624  22.370   8.553  1.00  0.00    -0.031 C 
ENDROOT
BRANCH   1   3
ATOM      3  C   UNL     1      19.008  22.892   6.666  1.00  0.00     0.027 C 
BRANCH   3   4
ATOM      4  C   UNL     1      19.048  22.300   5.251  1.00  0.00     0.004 C 
BRANCH   4   5
ATOM      5  C   UNL     1      19.923  21.036   5.183  1.00  0.00     0.000 C 
BRANCH   5   6
ATOM      6  C   UNL     1      21.042  21.152   4.136  1.00  0.00     0.000 C 
BRANCH   6   7
ATOM      7  C   UNL     1      22.384  20.606   4.656  1.00  0.00     0.000 C 
BRANCH   7   8
ATOM      8  C   UNL     1      22.228  19.768   5.934  1.00  0.00     0.006 C 
BRANCH   8   9
ATOM      9  C   UNL     1      23.567  19.240   6.466  1.00  0.00     0.053 C 
BRANCH   9  10
ATOM     10  C   UNL     1      24.155  18.248   5.512  1.00  0.00     0.041 C 
ATOM     11  O   UNL     1      25.235  18.504   4.917  1.00  0.00    -0.550 OA
ATOM     12  O   UNL     1      23.535  17.021   5.315  1.00  0.00    -0.550 OA
ENDBRANCH   9  10
ENDBRANCH   8   9
ENDBRANCH   7   8
ENDBRANCH   6   7
ENDBRANCH   5   6
ENDBRANCH   4   5
ENDBRANCH   3   4
ENDBRANCH   1   3
BRANCH   2  13
ATOM     13  C   UNL     1      19.602  21.749   9.468  1.00  0.00     0.027 C 
BRANCH  13  14
ATOM     14  C   UNL     1      19.470  22.549  10.770  1.00  0.00     0.004 C 
BRANCH  14  15
ATOM     15  C   UNL     1      18.161  22.209  11.498  1.00  0.00     0.000 C 
BRANCH  15  16
ATOM     16  C   UNL     1      16.947  22.966  10.930  1.00  0.00     0.000 C 
BRANCH  16  17
ATOM     17  C   UNL     1      17.134  24.488  10.801  1.00  0.00    -0.000 C 
BRANCH  17  18
ATOM     18  C   UNL     1      17.236  24.956   9.339  1.00  0.00    -0.000 C 
BRANCH  18  19
ATOM     19  C   UNL     1      18.491  25.805   9.080  1.00  0.00    -0.003 C 
ATOM     20  C   UNL     1      18.160  27.259   8.743  1.00  0.00     0.004 C 
ENDBRANCH  18  19
ENDBRANCH  17  18
ENDBRANCH  16  17
ENDBRANCH  15  16
ENDBRANCH  14  15
ENDBRANCH  13  14
ENDBRANCH   2  13
TORSDOF 15
ENDMDL
MODEL 6
REMARK VINA RESULT:    -4.959      2.084      3.714
REMARK INTER + INTRA:         -12.081
REMARK INTER:                  -9.665
REMARK INTRA:                  -2.416
REMARK UNBOUND:                -2.773
REMARK SMILES CCCCCCCCC=CCCCCCCCC(=O)[O-]
REMARK SMILES IDX 10 1 9 2 11 3 12 4 13 5 14 6 15 7 16 8 17 9 18 10 19 11
REMARK SMILES IDX 20 12 8 13 7 14 6 15 5 16 4 17 3 18 2 19 1 20
REMARK H PARENT
REMARK Flexibility Score: inf
ROOT
ATOM      1  C   UNL     1      17.304  21.058   6.788  1.00  0.00    -0.031 C 
ATOM      2  C   UNL     1      17.230  20.356   7.935  1.00  0.00    -0.031 C 
ENDROOT
BRANCH   1   3
ATOM      3  C   UNL     1      17.150  22.557   6.672  1.00  0.00     0.027 C 
BRANCH   3   4
ATOM      4  C   UNL     1      18.452  23.214   6.197  1.00  0.00     0.004 C 
BRANCH   4   5
ATOM      5  C   UNL     1      19.483  23.334   7.333  1.00  0.00     0.000 C 
BRANCH   5   6
ATOM      6  C   UNL     1      20.756  22.518   7.060  1.00  0.00     0.000 C 
BRANCH   6   7
ATOM      7  C   UNL     1      20.715  21.816   5.691  1.00  0.00     0.000 C 
BRANCH   7   8
ATOM      8  C   UNL     1      22.074  21.220   5.290  1.00  0.00     0.006 C 
BRANCH   8   9
ATOM      9  C   UNL     1      22.081  19.686   5.316  1.00  0.00     0.053 C 
BRANCH   9  10
ATOM     10  C   UNL     1      23.257  19.182   6.092  1.00  0.00     0.041 C 
ATOM     11  O   UNL     1      24.084  18.399   5.554  1.00  0.00    -0.550 OA
ATOM     12  O   UNL     1      23.467  19.613   7.396  1.00  0.00    -0.550 OA
ENDBRANCH   9  10
ENDBRANCH   8   9
ENDBRANCH   7   8
ENDBRANCH   6   7
ENDBRANCH   5   6
ENDBRANCH   4   5
ENDBRANCH   3   4
ENDBRANCH   1   3
BRANCH   2  13
ATOM     13  C   UNL     1      16.920  20.940   9.288  1.00  0.00     0.027 C 
BRANCH  13  14
ATOM     14  C   UNL     1      18.198  21.117  10.118  1.00  0.00     0.004 C 
BRANCH  14  15
ATOM     15  C   UNL     1      18.283  22.532  10.707  1.00  0.00     0.000 C 
BRANCH  15  16
ATOM     16  C   UNL     1      17.064  23.403  10.352  1.00  0.00     0.000 C 
BRANCH  16  17
ATOM     17  C   UNL     1      17.385  24.877  10.051  1.00  0.00    -0.000 C 
BRANCH  17  18
ATOM     18  C   UNL     1      18.892  25.184  10.106  1.00  0.00    -0.000 C 
BRANCH  18  19
ATOM     19  C   UNL     1      19.254  26.485   9.373  1.00  0.00    -0.003 C 
ATOM     20  C   UNL     1      18.076  27.071   8.594  1.00  0.00     0.004 C 
ENDBRANCH  18  19
ENDBRANCH  17  18
ENDBRANCH  16  17
ENDBRANCH  15  16
ENDBRANCH  14  15
ENDBRANCH  13  14
ENDBRANCH   2  13
TORSDOF 15
ENDMDL
MODEL 7
REMARK VINA RESULT:    -4.848      1.436      2.673
REMARK INTER + INTRA:         -11.873
REMARK INTER:                  -9.860
REMARK INTRA:                  -2.013
REMARK UNBOUND:                -2.773
REMARK SMILES CCCCCCCCC=CCCCCCCCC(=O)[O-]
REMARK SMILES IDX 10 1 9 2 11 3 12 4 13 5 14 6 15 7 16 8 17 9 18 10 19 11
REMARK SMILES IDX 20 12 8 13 7 14 6 15 5 16 4 17 3 18 2 19 1 20
REMARK H PARENT
REMARK Flexibility Score: inf
ROOT
ATOM      1  C   UNL     1      20.028  22.263   6.094  1.00  0.00    -0.031 C 
ATOM      2  C   UNL     1      19.332  23.130   6.854  1.00  0.00    -0.031 C 
ENDROOT
BRANCH   1   3
ATOM      3  C   UNL     1      19.509  21.585   4.847  1.00  0.00     0.027 C 
BRANCH   3   4
ATOM      4  C   UNL     1      20.652  21.251   3.879  1.00  0.00     0.004 C 
BRANCH   4   5
ATOM      5  C   UNL     1      21.997  21.096   4.611  1.00  0.00     0.000 C 
BRANCH   5   6
ATOM      6  C   UNL     1      22.849  19.953   4.037  1.00  0.00     0.000 C 
BRANCH   6   7
ATOM      7  C   UNL     1      22.337  18.569   4.473  1.00  0.00     0.000 C 
BRANCH   7   8
ATOM      8  C   UNL     1      21.859  18.547   5.933  1.00  0.00     0.006 C 
BRANCH   8   9
ATOM      9  C   UNL     1      20.440  17.984   6.085  1.00  0.00     0.053 C 
BRANCH   9  10
ATOM     10  C   UNL     1      20.488  16.528   6.427  1.00  0.00     0.041 C 
ATOM     11  O   UNL     1      19.442  15.830   6.373  1.00  0.00    -0.550 OA
ATOM     12  O   UNL     1      21.697  15.932   6.760  1.00  0.00    -0.550 OA
ENDBRANCH   9  10
ENDBRANCH   8   9
ENDBRANCH   7   8
ENDBRANCH   6   7
ENDBRANCH   5   6
ENDBRANCH   4   5
ENDBRANCH   3   4
ENDBRANCH   1   3
BRANCH   2  13
ATOM     13  C   UNL     1      17.896  23.523   6.623  1.00  0.00     0.027 C 
BRANCH  13  14
ATOM     14  C   UNL     1      17.376  24.405   7.766  1.00  0.00     0.004 C 
BRANCH  14  15
ATOM     15  C   UNL     1      18.517  25.210   8.406  1.00  0.00     0.000 C 
BRANCH  15  16
ATOM     16  C   UNL     1      18.592  25.028   9.934  1.00  0.00     0.000 C 
BRANCH  16  17
ATOM     17  C   UNL     1      18.225  23.622  10.439  1.00  0.00    -0.000 C 
BRANCH  17  18
ATOM     18  C   UNL     1      19.427  22.662  10.460  1.00  0.00    -0.000 C 
BRANCH  18  19
ATOM     19  C   UNL     1      20.764  23.397  10.638  1.00  0.00    -0.003 C 
ATOM     20  C   UNL     1      21.796  23.010   9.579  1.00  0.00     0.004 C 
ENDBRANCH  18  19
ENDBRANCH  17  18
ENDBRANCH  16  17
ENDBRANCH  15  16
ENDBRANCH  14  15
ENDBRANCH  13  14
ENDBRANCH   2  13
TORSDOF 15
ENDMDL
MODEL 8
REMARK VINA RESULT:    -4.828      2.172      3.900
REMARK INTER + INTRA:         -11.834
REMARK INTER:                  -9.718
REMARK INTRA:                  -2.116
REMARK UNBOUND:                -2.773
REMARK SMILES CCCCCCCCC=CCCCCCCCC(=O)[O-]
REMARK SMILES IDX 10 1 9 2 11 3 12 4 13 5 14 6 15 7 16 8 17 9 18 10 19 11
REMARK SMILES IDX 20 12 8 13 7 14 6 15 5 16 4 17 3 18 2 19 1 20
REMARK H PARENT
REMARK Flexibility Score: inf
ROOT
ATOM      1  C   UNL     1      21.285  23.182   9.788  1.00  0.00    -0.031 C 
ATOM      2  C   UNL     1      20.299  22.781  10.613  1.00  0.00    -0.031 C 
ENDROOT
BRANCH   1   3
ATOM      3  C   UNL     1      21.236  23.120   8.278  1.00  0.00     0.027 C 
BRANCH   3   4
ATOM      4  C   UNL     1      21.854  21.816   7.755  1.00  0.00     0.004 C 
BRANCH   4   5
ATOM      5  C   UNL     1      21.610  21.630   6.248  1.00  0.00     0.000 C 
BRANCH   5   6
ATOM      6  C   UNL     1      21.087  20.225   5.907  1.00  0.00     0.000 C 
BRANCH   6   7
ATOM      7  C   UNL     1      22.155  19.138   6.118  1.00  0.00     0.000 C 
BRANCH   7   8
ATOM      8  C   UNL     1      23.402  19.355   5.246  1.00  0.00     0.006 C 
BRANCH   8   9
ATOM      9  C   UNL     1      24.542  18.388   5.589  1.00  0.00     0.053 C 
BRANCH   9  10
ATOM     10  C   UNL     1      24.586  17.261   4.605  1.00  0.00     0.041 C 
ATOM     11  O   UNL     1      23.589  17.017   3.875  1.00  0.00    -0.550 OA
ATOM     12  O   UNL     1      25.744  16.508   4.461  1.00  0.00    -0.550 OA
ENDBRANCH   9  10
ENDBRANCH   8   9
ENDBRANCH   7   8
ENDBRANCH   6   7
ENDBRANCH   5   6
ENDBRANCH   4   5
ENDBRANCH   3   4
ENDBRANCH   1   3
BRANCH   2  13
ATOM     13  C   UNL     1      19.007  22.144  10.173  1.00  0.00     0.027 C 
BRANCH  13  14
ATOM     14  C   UNL     1      17.825  22.673  10.996  1.00  0.00     0.004 C 
BRANCH  14  15
ATOM     15  C   UNL     1      16.975  23.654  10.176  1.00  0.00     0.000 C 
BRANCH  15  16
ATOM     16  C   UNL     1      17.713  24.968   9.861  1.00  0.00     0.000 C 
BRANCH  16  17
ATOM     17  C   UNL     1      17.986  25.217   8.367  1.00  0.00    -0.000 C 
BRANCH  17  18
ATOM     18  C   UNL     1      17.184  24.279   7.449  1.00  0.00    -0.000 C 
BRANCH  18  19
ATOM     19  C   UNL     1      18.086  23.466   6.507  1.00  0.00    -0.003 C 
ATOM     20  C   UNL     1      17.866  21.959   6.635  1.00  0.00     0.004 C 
ENDBRANCH  18  19
ENDBRANCH  17  18
ENDBRANCH  16  17
ENDBRANCH  15  16
ENDBRANCH  14  15
ENDBRANCH  13  14
ENDBRANCH   2  13
TORSDOF 15
ENDMDL
MODEL 9
REMARK VINA RESULT:    -4.816      2.458      5.481
REMARK INTER + INTRA:         -11.812
REMARK INTER:                  -9.430
REMARK INTRA:                  -2.382
REMARK UNBOUND:                -2.773
REMARK SMILES CCCCCCCCC=CCCCCCCCC(=O)[O-]
REMARK SMILES IDX 10 1 9 2 11 3 12 4 13 5 14 6 15 7 16 8 17 9 18 10 19 11
REMARK SMILES IDX 20 12 8 13 7 14 6 15 5 16 4 17 3 18 2 19 1 20
REMARK H PARENT
REMARK Flexibility Score: inf
ROOT
ATOM      1  C   UNL     1      17.417  22.406   6.797  1.00  0.00    -0.031 C 
ATOM      2  C   UNL     1      18.445  21.751   6.224  1.00  0.00    -0.031 C 
ENDROOT
BRANCH   1   3
ATOM      3  C   UNL     1      17.229  23.905   6.796  1.00  0.00     0.027 C 
BRANCH   3   4
ATOM      4  C   UNL     1      17.244  24.469   8.223  1.00  0.00     0.004 C 
BRANCH   4   5
ATOM      5  C   UNL     1      18.363  25.506   8.419  1.00  0.00     0.000 C 
BRANCH   5   6
ATOM      6  C   UNL     1      19.461  25.012   9.375  1.00  0.00     0.000 C 
BRANCH   6   7
ATOM      7  C   UNL     1      20.308  23.886   8.756  1.00  0.00     0.000 C 
BRANCH   7   8
ATOM      8  C   UNL     1      20.193  22.564   9.531  1.00  0.00     0.006 C 
BRANCH   8   9
ATOM      9  C   UNL     1      19.366  22.698  10.817  1.00  0.00     0.053 C 
BRANCH   9  10
ATOM     10  C   UNL     1      18.102  21.905  10.712  1.00  0.00     0.041 C 
ATOM     11  O   UNL     1      17.068  22.274  11.328  1.00  0.00    -0.550 OA
ATOM     12  O   UNL     1      18.052  20.781   9.896  1.00  0.00    -0.550 OA
ENDBRANCH   9  10
ENDBRANCH   8   9
ENDBRANCH   7   8
ENDBRANCH   6   7
ENDBRANCH   5   6
ENDBRANCH   4   5
ENDBRANCH   3   4
ENDBRANCH   1   3
BRANCH   2  13
ATOM     13  C   UNL     1      19.615  22.408   5.539  1.00  0.00     0.027 C 
BRANCH  13  14
ATOM     14  C   UNL     1      20.753  21.405   5.311  1.00  0.00     0.004 C 
BRANCH  14  15
ATOM     15  C   UNL     1      20.949  20.502   6.537  1.00  0.00     0.000 C 
BRANCH  15  16
ATOM     16  C   UNL     1      22.327  20.684   7.200  1.00  0.00     0.000 C 
BRANCH  16  17
ATOM     17  C   UNL     1      23.275  19.479   7.068  1.00  0.00    -0.000 C 
BRANCH  17  18
ATOM     18  C   UNL     1      23.555  19.096   5.604  1.00  0.00    -0.000 C 
BRANCH  18  19
ATOM     19  C   UNL     1      23.387  17.590   5.348  1.00  0.00    -0.003 C 
ATOM     20  C   UNL     1      22.167  17.004   6.058  1.00  0.00     0.004 C 
ENDBRANCH  18  19
ENDBRANCH  17  18
ENDBRANCH  16  17
ENDBRANCH  15  16
ENDBRANCH  14  15
ENDBRANCH  13  14
ENDBRANCH   2  13
TORSDOF 15
ENDMDL
