MODEL 1
REMARK VINA RESULT:    -3.456      0.000      0.000
REMARK INTER + INTRA:          -5.136
REMARK INTER:                  -4.668
REMARK INTRA:                  -0.468
REMARK UNBOUND:                -0.468
REMARK SMILES CCCCCCCC(=O)[O-]
REMARK SMILES IDX 5 1 6 2 7 3 8 4 9 5 10 6 4 7 3 8 2 9 1 10
REMARK H PARENT
REMARK Flexibility Score: inf
ROOT
ATOM      1  C   UNL     1      -7.070   3.064  52.295  1.00  0.00     0.000 C 
ENDROOT
BRANCH   1   2
ATOM      2  C   UNL     1      -7.529   3.876  51.072  1.00  0.00     0.006 C 
BRANCH   2   3
ATOM      3  C   UNL     1      -7.840   5.336  51.430  1.00  0.00     0.053 C 
BRANCH   3   4
ATOM      4  C   UNL     1      -9.310   5.570  51.590  1.00  0.00     0.041 C 
ATOM      5  O   UNL     1      -9.968   6.123  50.669  1.00  0.00    -0.550 OA
ATOM      6  O   UNL     1      -9.950   5.204  52.768  1.00  0.00    -0.550 OA
ENDBRANCH   3   4
ENDBRANCH   2   3
ENDBRANCH   1   2
BRANCH   1   7
ATOM      7  C   UNL     1      -6.024   3.807  53.139  1.00  0.00     0.000 C 
BRANCH   7   8
ATOM      8  C   UNL     1      -6.157   3.512  54.643  1.00  0.00    -0.000 C 
BRANCH   8   9
ATOM      9  C   UNL     1      -6.201   4.792  55.493  1.00  0.00    -0.003 C 
ATOM     10  C   UNL     1      -7.390   5.689  55.147  1.00  0.00     0.004 C 
ENDBRANCH   8   9
ENDBRANCH   7   8
ENDBRANCH   1   7
TORSDOF 6
ENDMDL
MODEL 2
REMARK VINA RESULT:    -3.343     10.226     11.073
REMARK INTER + INTRA:          -4.984
REMARK INTER:                  -4.681
REMARK INTRA:                  -0.303
REMARK UNBOUND:                -0.468
REMARK SMILES CCCCCCCC(=O)[O-]
REMARK SMILES IDX 5 1 6 2 7 3 8 4 9 5 10 6 4 7 3 8 2 9 1 10
REMARK H PARENT
REMARK Flexibility Score: inf
ROOT
ATOM      1  C   UNL     1       0.443   1.544  57.447  1.00  0.00     0.000 C 
ENDROOT
BRANCH   1   2
ATOM      2  C   UNL     1       1.241   1.995  56.212  1.00  0.00     0.006 C 
BRANCH   2   3
ATOM      3  C   UNL     1       1.970   0.827  55.535  1.00  0.00     0.053 C 
BRANCH   3   4
ATOM      4  C   UNL     1       2.439   1.184  54.159  1.00  0.00     0.041 C 
ATOM      5  O   UNL     1       2.201   2.327  53.686  1.00  0.00    -0.550 OA
ATOM      6  O   UNL     1       3.114   0.247  53.387  1.00  0.00    -0.550 OA
ENDBRANCH   3   4
ENDBRANCH   2   3
ENDBRANCH   1   2
BRANCH   1   7
ATOM      7  C   UNL     1       1.185   0.484  58.276  1.00  0.00     0.000 C 
BRANCH   7   8
ATOM      8  C   UNL     1       1.749   1.047  59.592  1.00  0.00    -0.000 C 
BRANCH   8   9
ATOM      9  C   UNL     1       1.151   2.416  59.951  1.00  0.00    -0.003 C 
ATOM     10  C   UNL     1       0.318   2.378  61.231  1.00  0.00     0.004 C 
ENDBRANCH   8   9
ENDBRANCH   7   8
ENDBRANCH   1   7
TORSDOF 6
ENDMDL
MODEL 3
REMARK VINA RESULT:    -3.328     10.404     11.769
REMARK INTER + INTRA:          -4.963
REMARK INTER:                  -4.447
REMARK INTRA:                  -0.516
REMARK UNBOUND:                -0.468
REMARK SMILES CCCCCCCC(=O)[O-]
REMARK SMILES IDX 5 1 6 2 7 3 8 4 9 5 10 6 4 7 3 8 2 9 1 10
REMARK H PARENT
REMARK Flexibility Score: inf
ROOT
ATOM      1  C   UNL     1       2.812  -0.491  53.189  1.00  0.00     0.000 C 
ENDROOT
BRANCH   1   2
ATOM      2  C   UNL     1       2.428   0.874  53.785  1.00  0.00     0.006 C 
BRANCH   2   3
ATOM      3  C   UNL     1       2.591   0.907  55.310  1.00  0.00     0.053 C 
BRANCH   3   4
ATOM      4  C   UNL     1       1.292   1.181  56.003  1.00  0.00     0.041 C 
ATOM      5  O   UNL     1       0.392   0.299  56.034  1.00  0.00    -0.550 OA
ATOM      6  O   UNL     1       1.062   2.419  56.590  1.00  0.00    -0.550 OA
ENDBRANCH   3   4
ENDBRANCH   2   3
ENDBRANCH   1   2
BRANCH   1   7
ATOM      7  C   UNL     1       1.688  -1.531  53.326  1.00  0.00     0.000 C 
BRANCH   7   8
ATOM      8  C   UNL     1       2.144  -2.802  54.063  1.00  0.00    -0.000 C 
BRANCH   8   9
ATOM      9  C   UNL     1       3.641  -2.778  54.410  1.00  0.00    -0.003 C 
ATOM     10  C   UNL     1       3.895  -2.662  55.913  1.00  0.00     0.004 C 
ENDBRANCH   8   9
ENDBRANCH   7   8
ENDBRANCH   1   7
TORSDOF 6
ENDMDL
MODEL 4
REMARK VINA RESULT:    -3.265      2.003      3.746
REMARK INTER + INTRA:          -4.879
REMARK INTER:                  -4.365
REMARK INTRA:                  -0.514
REMARK UNBOUND:                -0.468
REMARK SMILES CCCCCCCC(=O)[O-]
REMARK SMILES IDX 5 1 6 2 7 3 8 4 9 5 10 6 4 7 3 8 2 9 1 10
REMARK H PARENT
REMARK Flexibility Score: inf
ROOT
ATOM      1  C   UNL     1      -7.068   3.101  52.480  1.00  0.00     0.000 C 
ENDROOT
BRANCH   1   2
ATOM      2  C   UNL     1      -5.891   3.727  53.249  1.00  0.00     0.006 C 
BRANCH   2   3
ATOM      3  C   UNL     1      -6.155   3.791  54.759  1.00  0.00     0.053 C 
BRANCH   3   4
ATOM      4  C   UNL     1      -7.341   4.646  55.082  1.00  0.00     0.041 C 
ATOM      5  O   UNL     1      -7.254   5.901  55.018  1.00  0.00    -0.550 OA
ATOM      6  O   UNL     1      -8.535   4.058  55.483  1.00  0.00    -0.550 OA
ENDBRANCH   3   4
ENDBRANCH   2   3
ENDBRANCH   1   2
BRANCH   1   7
ATOM      7  C   UNL     1      -7.373   3.837  51.166  1.00  0.00     0.000 C 
BRANCH   7   8
ATOM      8  C   UNL     1      -7.605   5.344  51.371  1.00  0.00    -0.000 C 
BRANCH   8   9
ATOM      9  C   UNL     1      -9.075   5.746  51.174  1.00  0.00    -0.003 C 
ATOM     10  C   UNL     1      -9.738   6.209  52.472  1.00  0.00     0.004 C 
ENDBRANCH   8   9
ENDBRANCH   7   8
ENDBRANCH   1   7
TORSDOF 6
ENDMDL
MODEL 5
REMARK VINA RESULT:    -3.200      9.816     10.849
REMARK INTER + INTRA:          -4.790
REMARK INTER:                  -4.511
REMARK INTRA:                  -0.280
REMARK UNBOUND:                -0.468
REMARK SMILES CCCCCCCC(=O)[O-]
REMARK SMILES IDX 5 1 6 2 7 3 8 4 9 5 10 6 4 7 3 8 2 9 1 10
REMARK H PARENT
REMARK Flexibility Score: inf
ROOT
ATOM      1  C   UNL     1      -0.116   1.322  57.021  1.00  0.00     0.000 C 
ENDROOT
BRANCH   1   2
ATOM      2  C   UNL     1       1.161   1.826  56.328  1.00  0.00     0.006 C 
BRANCH   2   3
ATOM      3  C   UNL     1       1.883   0.711  55.561  1.00  0.00     0.053 C 
BRANCH   3   4
ATOM      4  C   UNL     1       2.443   1.200  54.261  1.00  0.00     0.041 C 
ATOM      5  O   UNL     1       3.222   0.470  53.593  1.00  0.00    -0.550 OA
ATOM      6  O   UNL     1       2.128   2.473  53.801  1.00  0.00    -0.550 OA
ENDBRANCH   3   4
ENDBRANCH   2   3
ENDBRANCH   1   2
BRANCH   1   7
ATOM      7  C   UNL     1       0.116   0.959  58.496  1.00  0.00     0.000 C 
BRANCH   7   8
ATOM      8  C   UNL     1      -0.589   1.926  59.463  1.00  0.00    -0.000 C 
BRANCH   8   9
ATOM      9  C   UNL     1       0.311   2.348  60.635  1.00  0.00    -0.003 C 
ATOM     10  C   UNL     1       1.799   2.166  60.331  1.00  0.00     0.004 C 
ENDBRANCH   8   9
ENDBRANCH   7   8
ENDBRANCH   1   7
TORSDOF 6
ENDMDL
MODEL 6
REMARK VINA RESULT:    -3.191      9.453     10.997
REMARK INTER + INTRA:          -4.778
REMARK INTER:                  -4.385
REMARK INTRA:                  -0.393
REMARK UNBOUND:                -0.468
REMARK SMILES CCCCCCCC(=O)[O-]
REMARK SMILES IDX 5 1 6 2 7 3 8 4 9 5 10 6 4 7 3 8 2 9 1 10
REMARK H PARENT
REMARK Flexibility Score: inf
ROOT
ATOM      1  C   UNL     1       3.093   0.641  54.967  1.00  0.00     0.000 C 
ENDROOT
BRANCH   1   2
ATOM      2  C   UNL     1       1.783   1.401  55.239  1.00  0.00     0.006 C 
BRANCH   2   3
ATOM      3  C   UNL     1       1.198   1.071  56.618  1.00  0.00     0.053 C 
BRANCH   3   4
ATOM      4  C   UNL     1      -0.239   0.655  56.529  1.00  0.00     0.041 C 
ATOM      5  O   UNL     1      -1.150   1.445  56.891  1.00  0.00    -0.550 OA
ATOM      6  O   UNL     1      -0.570  -0.615  56.074  1.00  0.00    -0.550 OA
ENDBRANCH   3   4
ENDBRANCH   2   3
ENDBRANCH   1   2
BRANCH   1   7
ATOM      7  C   UNL     1       3.157   0.065  53.544  1.00  0.00     0.000 C 
BRANCH   7   8
ATOM      8  C   UNL     1       1.959  -0.844  53.218  1.00  0.00    -0.000 C 
BRANCH   8   9
ATOM      9  C   UNL     1       2.075  -2.229  53.875  1.00  0.00    -0.003 C 
ATOM     10  C   UNL     1       0.873  -3.125  53.575  1.00  0.00     0.004 C 
ENDBRANCH   8   9
ENDBRANCH   7   8
ENDBRANCH   1   7
TORSDOF 6
ENDMDL
MODEL 7
REMARK VINA RESULT:    -3.173     10.320     11.154
REMARK INTER + INTRA:          -4.753
REMARK INTER:                  -4.573
REMARK INTRA:                  -0.180
REMARK UNBOUND:                -0.468
REMARK SMILES CCCCCCCC(=O)[O-]
REMARK SMILES IDX 5 1 6 2 7 3 8 4 9 5 10 6 4 7 3 8 2 9 1 10
REMARK H PARENT
REMARK Flexibility Score: inf
ROOT
ATOM      1  C   UNL     1       1.375   0.588  55.912  1.00  0.00     0.000 C 
ENDROOT
BRANCH   1   2
ATOM      2  C   UNL     1       2.622   0.805  55.037  1.00  0.00     0.006 C 
BRANCH   2   3
ATOM      3  C   UNL     1       2.380   0.405  53.575  1.00  0.00     0.053 C 
BRANCH   3   4
ATOM      4  C   UNL     1       2.176  -1.072  53.428  1.00  0.00     0.041 C 
ATOM      5  O   UNL     1       3.132  -1.867  53.629  1.00  0.00    -0.550 OA
ATOM      6  O   UNL     1       0.937  -1.568  53.040  1.00  0.00    -0.550 OA
ENDBRANCH   3   4
ENDBRANCH   2   3
ENDBRANCH   1   2
BRANCH   1   7
ATOM      7  C   UNL     1       0.928   1.871  56.629  1.00  0.00     0.000 C 
BRANCH   7   8
ATOM      8  C   UNL     1       0.375   1.600  58.039  1.00  0.00    -0.000 C 
BRANCH   8   9
ATOM      9  C   UNL     1       1.042   2.474  59.113  1.00  0.00    -0.003 C 
ATOM     10  C   UNL     1       0.844   1.926  60.526  1.00  0.00     0.004 C 
ENDBRANCH   8   9
ENDBRANCH   7   8
ENDBRANCH   1   7
TORSDOF 6
ENDMDL
MODEL 8
REMARK VINA RESULT:    -3.172      1.367      2.527
REMARK INTER + INTRA:          -4.753
REMARK INTER:                  -4.196
REMARK INTRA:                  -0.557
REMARK UNBOUND:                -0.468
REMARK SMILES CCCCCCCC(=O)[O-]
REMARK SMILES IDX 5 1 6 2 7 3 8 4 9 5 10 6 4 7 3 8 2 9 1 10
REMARK H PARENT
REMARK Flexibility Score: inf
ROOT
ATOM      1  C   UNL     1      -7.681   5.298  51.326  1.00  0.00     0.000 C 
ENDROOT
BRANCH   1   2
ATOM      2  C   UNL     1      -9.157   5.705  51.175  1.00  0.00     0.006 C 
BRANCH   2   3
ATOM      3  C   UNL     1      -9.751   6.224  52.490  1.00  0.00     0.053 C 
BRANCH   3   4
ATOM      4  C   UNL     1     -10.061   5.108  53.440  1.00  0.00     0.041 C 
ATOM      5  O   UNL     1      -9.692   5.179  54.643  1.00  0.00    -0.550 OA
ATOM      6  O   UNL     1     -10.732   3.977  52.992  1.00  0.00    -0.550 OA
ENDBRANCH   3   4
ENDBRANCH   2   3
ENDBRANCH   1   2
BRANCH   1   7
ATOM      7  C   UNL     1      -7.459   3.792  51.113  1.00  0.00     0.000 C 
BRANCH   7   8
ATOM      8  C   UNL     1      -7.123   3.052  52.419  1.00  0.00    -0.000 C 
BRANCH   8   9
ATOM      9  C   UNL     1      -5.957   3.700  53.181  1.00  0.00    -0.003 C 
ATOM     10  C   UNL     1      -6.328   4.083  54.614  1.00  0.00     0.004 C 
ENDBRANCH   8   9
ENDBRANCH   7   8
ENDBRANCH   1   7
TORSDOF 6
ENDMDL
MODEL 9
REMARK VINA RESULT:    -3.139     10.860     11.989
REMARK INTER + INTRA:          -4.708
REMARK INTER:                  -4.509
REMARK INTRA:                  -0.199
REMARK UNBOUND:                -0.468
REMARK SMILES CCCCCCCC(=O)[O-]
REMARK SMILES IDX 5 1 6 2 7 3 8 4 9 5 10 6 4 7 3 8 2 9 1 10
REMARK H PARENT
REMARK Flexibility Score: inf
ROOT
ATOM      1  C   UNL     1       1.260   1.320  56.001  1.00  0.00     0.000 C 
ENDROOT
BRANCH   1   2
ATOM      2  C   UNL     1       1.198   0.829  57.458  1.00  0.00     0.006 C 
BRANCH   2   3
ATOM      3  C   UNL     1       0.854   1.960  58.435  1.00  0.00     0.053 C 
BRANCH   3   4
ATOM      4  C   UNL     1       1.407   1.702  59.803  1.00  0.00     0.041 C 
ATOM      5  O   UNL     1       0.952   2.327  60.798  1.00  0.00    -0.550 OA
ATOM      6  O   UNL     1       2.443   0.794  59.976  1.00  0.00    -0.550 OA
ENDBRANCH   3   4
ENDBRANCH   2   3
ENDBRANCH   1   2
BRANCH   1   7
ATOM      7  C   UNL     1       2.538   0.864  55.279  1.00  0.00     0.000 C 
BRANCH   7   8
ATOM      8  C   UNL     1       2.368   0.809  53.751  1.00  0.00    -0.000 C 
BRANCH   8   9
ATOM      9  C   UNL     1       2.005  -0.597  53.249  1.00  0.00    -0.003 C 
ATOM     10  C   UNL     1       2.886  -1.687  53.860  1.00  0.00     0.004 C 
ENDBRANCH   8   9
ENDBRANCH   7   8
ENDBRANCH   1   7
TORSDOF 6
ENDMDL
