MODEL 1
REMARK VINA RESULT:    -6.496      0.000      0.000
REMARK INTER + INTRA:         -11.441
REMARK INTER:                  -9.534
REMARK INTRA:                  -1.907
REMARK UNBOUND:                -1.907
REMARK SMILES O=c1c(O[C@@H]2O[C@@H](CO)[C@@H](O)[C@H](O)[C@@H]2O)c(-c2ccc(O)c(O)c2)oc2cc(O)cc(O)c12
REMARK SMILES IDX 4 1 3 2 16 3 25 4 2 5 26 6 1 7 33 8 27 9 31 10 28 11 30 12
REMARK SMILES IDX 17 13 18 14 19 15 20 16 24 17 22 18 21 19 23 21 32 23 29 25
REMARK SMILES IDX 5 27 14 28 6 29 12 30 7 31 10 32 15 33 13 35 8 37 9 38 11 40
REMARK H PARENT 21 20 23 22 32 24 29 26 15 34 13 36 9 39 11 41
REMARK Flexibility Score: inf
ROOT
ATOM      1  O   UNL     1     -19.117  -1.859  13.581  1.00  0.00    -0.454 OA
ENDROOT
BRANCH   1   2
ATOM      2  C   UNL     1     -19.191  -2.240  14.932  1.00  0.00     0.214 A 
ATOM      3  C   UNL     1     -18.155  -2.997  15.507  1.00  0.00     0.180 A 
ATOM      4  O   UNL     1     -18.278  -3.456  16.746  1.00  0.00    -0.452 OA
ATOM      5  C   UNL     1     -20.287  -1.879  15.735  1.00  0.00     0.239 A 
ATOM      6  C   UNL     1     -19.319  -3.188  17.523  1.00  0.00     0.146 A 
ATOM      7  O   UNL     1     -21.184  -1.148  15.244  1.00  0.00    -0.285 OA
ATOM      8  C   UNL     1     -20.367  -2.341  17.073  1.00  0.00     0.111 A 
ATOM      9  C   UNL     1     -19.361  -3.756  18.799  1.00  0.00     0.094 A 
ATOM     10  C   UNL     1     -21.433  -2.043  17.975  1.00  0.00     0.134 A 
ATOM     11  C   UNL     1     -20.435  -3.504  19.649  1.00  0.00     0.123 A 
ATOM     12  C   UNL     1     -21.463  -2.655  19.235  1.00  0.00     0.093 A 
BRANCH   3  13
ATOM     13  C   UNL     1     -16.926  -3.327  14.761  1.00  0.00     0.025 A 
ATOM     14  C   UNL     1     -16.780  -4.598  14.190  1.00  0.00     0.016 A 
ATOM     15  C   UNL     1     -15.631  -4.915  13.462  1.00  0.00     0.051 A 
ATOM     16  C   UNL     1     -14.604  -3.977  13.307  1.00  0.00     0.157 A 
ATOM     17  C   UNL     1     -15.885  -2.395  14.636  1.00  0.00     0.062 A 
ATOM     18  C   UNL     1     -14.729  -2.702  13.907  1.00  0.00     0.158 A 
BRANCH  16  19
ATOM     19  O   UNL     1     -13.486  -4.352  12.559  1.00  0.00    -0.504 OA
ATOM     20  H   UNL     1     -13.474  -4.403  11.550  1.00  0.00     0.293 HD
ENDBRANCH  16  19
BRANCH  18  21
ATOM     21  O   UNL     1     -13.742  -1.720  13.806  1.00  0.00    -0.504 OA
ATOM     22  H   UNL     1     -12.752  -1.915  13.787  1.00  0.00     0.293 HD
ENDBRANCH  18  21
ENDBRANCH   3  13
BRANCH  10  23
ATOM     23  O   UNL     1     -22.469  -1.146  17.697  1.00  0.00    -0.507 OA
ATOM     24  H   UNL     1     -23.390  -1.403  17.380  1.00  0.00     0.293 HD
ENDBRANCH  10  23
BRANCH  11  25
ATOM     25  O   UNL     1     -20.467  -4.097  20.909  1.00  0.00    -0.508 OA
ATOM     26  H   UNL     1     -20.777  -3.587  21.727  1.00  0.00     0.293 HD
ENDBRANCH  11  25
ENDBRANCH   1   2
BRANCH   1  27
ATOM     27  C   UNL     1     -19.591  -2.682  12.507  1.00  0.00     0.339 C 
ATOM     28  C   UNL     1     -20.663  -1.955  11.659  1.00  0.00     0.214 C 
ATOM     29  O   UNL     1     -18.517  -3.166  11.715  1.00  0.00    -0.332 OA
ATOM     30  C   UNL     1     -20.059  -0.903  10.703  1.00  0.00     0.180 C 
ATOM     31  C   UNL     1     -17.845  -2.113  11.046  1.00  0.00     0.179 C 
ATOM     32  C   UNL     1     -18.774  -1.420  10.019  1.00  0.00     0.177 C 
BRANCH  28  33
ATOM     33  O   UNL     1     -21.620  -1.350  12.491  1.00  0.00    -0.384 OA
ATOM     34  H   UNL     1     -21.854  -2.015  13.190  1.00  0.00     0.211 HD
ENDBRANCH  28  33
BRANCH  30  35
ATOM     35  O   UNL     1     -19.836   0.327  11.350  1.00  0.00    -0.387 OA
ATOM     36  H   UNL     1     -20.279   1.038  10.822  1.00  0.00     0.211 HD
ENDBRANCH  30  35
BRANCH  31  37
ATOM     37  C   UNL     1     -16.590  -2.674  10.368  1.00  0.00     0.191 C 
BRANCH  37  38
ATOM     38  O   UNL     1     -16.936  -3.780   9.581  1.00  0.00    -0.394 OA
ATOM     39  H   UNL     1     -16.332  -3.758   8.794  1.00  0.00     0.210 HD
ENDBRANCH  37  38
ENDBRANCH  31  37
BRANCH  32  40
ATOM     40  O   UNL     1     -19.093  -2.277   8.949  1.00  0.00    -0.387 OA
ATOM     41  H   UNL     1     -18.244  -2.588   8.540  1.00  0.00     0.211 HD
ENDBRANCH  32  40
ENDBRANCH   1  27
TORSDOF 12
ENDMDL
MODEL 2
REMARK VINA RESULT:    -6.127      2.168      5.350
REMARK INTER + INTRA:         -10.900
REMARK INTER:                  -9.261
REMARK INTRA:                  -1.638
REMARK UNBOUND:                -1.907
REMARK SMILES O=c1c(O[C@@H]2O[C@@H](CO)[C@@H](O)[C@H](O)[C@@H]2O)c(-c2ccc(O)c(O)c2)oc2cc(O)cc(O)c12
REMARK SMILES IDX 4 1 3 2 16 3 25 4 2 5 26 6 1 7 33 8 27 9 31 10 28 11 30 12
REMARK SMILES IDX 17 13 18 14 19 15 20 16 24 17 22 18 21 19 23 21 32 23 29 25
REMARK SMILES IDX 5 27 14 28 6 29 12 30 7 31 10 32 15 33 13 35 8 37 9 38 11 40
REMARK H PARENT 21 20 23 22 32 24 29 26 15 34 13 36 9 39 11 41
REMARK Flexibility Score: inf
ROOT
ATOM      1  O   UNL     1     -19.754  -2.026  14.443  1.00  0.00    -0.454 OA
ENDROOT
BRANCH   1   2
ATOM      2  C   UNL     1     -20.308  -2.049  15.734  1.00  0.00     0.214 A 
ATOM      3  C   UNL     1     -21.585  -1.505  15.961  1.00  0.00     0.180 A 
ATOM      4  O   UNL     1     -22.058  -1.420  17.198  1.00  0.00    -0.452 OA
ATOM      5  C   UNL     1     -19.611  -2.608  16.820  1.00  0.00     0.239 A 
ATOM      6  C   UNL     1     -21.413  -1.883  18.261  1.00  0.00     0.146 A 
ATOM      7  O   UNL     1     -18.498  -3.154  16.609  1.00  0.00    -0.285 OA
ATOM      8  C   UNL     1     -20.166  -2.549  18.123  1.00  0.00     0.111 A 
ATOM      9  C   UNL     1     -21.990  -1.706  19.520  1.00  0.00     0.094 A 
ATOM     10  C   UNL     1     -19.546  -3.077  19.297  1.00  0.00     0.134 A 
ATOM     11  C   UNL     1     -21.348  -2.175  20.664  1.00  0.00     0.123 A 
ATOM     12  C   UNL     1     -20.133  -2.853  20.548  1.00  0.00     0.093 A 
BRANCH   3  13
ATOM     13  C   UNL     1     -22.420  -0.993  14.859  1.00  0.00     0.025 A 
ATOM     14  C   UNL     1     -22.707   0.376  14.782  1.00  0.00     0.016 A 
ATOM     15  C   UNL     1     -23.478   0.875  13.731  1.00  0.00     0.051 A 
ATOM     16  C   UNL     1     -23.989   0.017  12.750  1.00  0.00     0.157 A 
ATOM     17  C   UNL     1     -22.957  -1.862  13.898  1.00  0.00     0.062 A 
ATOM     18  C   UNL     1     -23.731  -1.371  12.837  1.00  0.00     0.158 A 
BRANCH  16  19
ATOM     19  O   UNL     1     -24.743   0.580  11.719  1.00  0.00    -0.504 OA
ATOM     20  H   UNL     1     -24.869   1.574  11.590  1.00  0.00     0.293 HD
ENDBRANCH  16  19
BRANCH  18  21
ATOM     21  O   UNL     1     -24.216  -2.290  11.905  1.00  0.00    -0.504 OA
ATOM     22  H   UNL     1     -23.645  -2.736  11.202  1.00  0.00     0.293 HD
ENDBRANCH  18  21
ENDBRANCH   3  13
BRANCH  10  23
ATOM     23  O   UNL     1     -18.374  -3.841  19.289  1.00  0.00    -0.507 OA
ATOM     24  H   UNL     1     -17.460  -3.498  19.042  1.00  0.00     0.293 HD
ENDBRANCH  10  23
BRANCH  11  25
ATOM     25  O   UNL     1     -21.931  -1.969  21.912  1.00  0.00    -0.508 OA
ATOM     26  H   UNL     1     -22.039  -2.725  22.578  1.00  0.00     0.293 HD
ENDBRANCH  11  25
ENDBRANCH   1   2
BRANCH   1  27
ATOM     27  C   UNL     1     -19.262  -0.831  13.821  1.00  0.00     0.339 C 
ATOM     28  C   UNL     1     -17.722  -0.858  13.669  1.00  0.00     0.214 C 
ATOM     29  O   UNL     1     -19.919  -0.583  12.587  1.00  0.00    -0.332 OA
ATOM     30  C   UNL     1     -17.249  -1.761  12.508  1.00  0.00     0.180 C 
ATOM     31  C   UNL     1     -19.634  -1.590  11.632  1.00  0.00     0.179 C 
ATOM     32  C   UNL     1     -18.132  -1.591  11.253  1.00  0.00     0.177 C 
BRANCH  28  33
ATOM     33  O   UNL     1     -17.117  -1.267  14.868  1.00  0.00    -0.384 OA
ATOM     34  H   UNL     1     -16.670  -2.135  14.683  1.00  0.00     0.211 HD
ENDBRANCH  28  33
BRANCH  30  35
ATOM     35  O   UNL     1     -17.165  -3.111  12.896  1.00  0.00    -0.387 OA
ATOM     36  H   UNL     1     -16.856  -3.144  13.836  1.00  0.00     0.211 HD
ENDBRANCH  30  35
BRANCH  31  37
ATOM     37  C   UNL     1     -20.517  -1.371  10.398  1.00  0.00     0.191 C 
BRANCH  37  38
ATOM     38  O   UNL     1     -19.959  -2.034   9.298  1.00  0.00    -0.394 OA
ATOM     39  H   UNL     1     -19.273  -2.650   9.665  1.00  0.00     0.210 HD
ENDBRANCH  37  38
ENDBRANCH  31  37
BRANCH  32  40
ATOM     40  O   UNL     1     -17.775  -0.423  10.551  1.00  0.00    -0.387 OA
ATOM     41  H   UNL     1     -17.146  -0.680   9.827  1.00  0.00     0.211 HD
ENDBRANCH  32  40
ENDBRANCH   1  27
TORSDOF 12
ENDMDL
MODEL 3
REMARK VINA RESULT:    -6.070      1.391      2.858
REMARK INTER + INTRA:         -10.816
REMARK INTER:                  -9.332
REMARK INTRA:                  -1.483
REMARK UNBOUND:                -1.907
REMARK SMILES O=c1c(O[C@@H]2O[C@@H](CO)[C@@H](O)[C@H](O)[C@@H]2O)c(-c2ccc(O)c(O)c2)oc2cc(O)cc(O)c12
REMARK SMILES IDX 4 1 3 2 16 3 25 4 2 5 26 6 1 7 33 8 27 9 31 10 28 11 30 12
REMARK SMILES IDX 17 13 18 14 19 15 20 16 24 17 22 18 21 19 23 21 32 23 29 25
REMARK SMILES IDX 5 27 14 28 6 29 12 30 7 31 10 32 15 33 13 35 8 37 9 38 11 40
REMARK H PARENT 21 20 23 22 32 24 29 26 15 34 13 36 9 39 11 41
REMARK Flexibility Score: inf
ROOT
ATOM      1  O   UNL     1     -17.683  -2.590  11.965  1.00  0.00    -0.454 OA
ENDROOT
BRANCH   1   2
ATOM      2  C   UNL     1     -17.955  -2.704  13.339  1.00  0.00     0.214 A 
ATOM      3  C   UNL     1     -17.035  -3.346  14.186  1.00  0.00     0.180 A 
ATOM      4  O   UNL     1     -17.344  -3.558  15.460  1.00  0.00    -0.452 OA
ATOM      5  C   UNL     1     -19.138  -2.187  13.896  1.00  0.00     0.239 A 
ATOM      6  C   UNL     1     -18.472  -3.138  16.017  1.00  0.00     0.146 A 
ATOM      7  O   UNL     1     -19.932  -1.555  13.154  1.00  0.00    -0.285 OA
ATOM      8  C   UNL     1     -19.417  -2.384  15.272  1.00  0.00     0.111 A 
ATOM      9  C   UNL     1     -18.709  -3.450  17.358  1.00  0.00     0.094 A 
ATOM     10  C   UNL     1     -20.586  -1.909  15.942  1.00  0.00     0.134 A 
ATOM     11  C   UNL     1     -19.880  -3.031  17.984  1.00  0.00     0.123 A 
ATOM     12  C   UNL     1     -20.811  -2.268  17.277  1.00  0.00     0.093 A 
BRANCH   3  13
ATOM     13  C   UNL     1     -15.728  -3.823  13.698  1.00  0.00     0.025 A 
ATOM     14  C   UNL     1     -15.616  -5.112  13.159  1.00  0.00     0.016 A 
ATOM     15  C   UNL     1     -14.389  -5.566  12.673  1.00  0.00     0.051 A 
ATOM     16  C   UNL     1     -13.252  -4.752  12.731  1.00  0.00     0.157 A 
ATOM     17  C   UNL     1     -14.585  -3.016  13.789  1.00  0.00     0.062 A 
ATOM     18  C   UNL     1     -13.349  -3.462  13.303  1.00  0.00     0.158 A 
BRANCH  16  19
ATOM     19  O   UNL     1     -12.058  -5.262  12.218  1.00  0.00    -0.504 OA
ATOM     20  H   UNL     1     -11.183  -4.758  12.219  1.00  0.00     0.293 HD
ENDBRANCH  16  19
BRANCH  18  21
ATOM     21  O   UNL     1     -12.258  -2.598  13.407  1.00  0.00    -0.504 OA
ATOM     22  H   UNL     1     -11.537  -2.681  14.109  1.00  0.00     0.293 HD
ENDBRANCH  18  21
ENDBRANCH   3  13
BRANCH  10  23
ATOM     23  O   UNL     1     -21.542  -1.073  15.356  1.00  0.00    -0.507 OA
ATOM     24  H   UNL     1     -21.479  -0.069  15.301  1.00  0.00     0.293 HD
ENDBRANCH  10  23
BRANCH  11  25
ATOM     25  O   UNL     1     -20.106  -3.371  19.316  1.00  0.00    -0.508 OA
ATOM     26  H   UNL     1     -19.417  -3.881  19.858  1.00  0.00     0.293 HD
ENDBRANCH  11  25
ENDBRANCH   1   2
BRANCH   1  27
ATOM     27  C   UNL     1     -17.013  -1.460  11.389  1.00  0.00     0.339 C 
ATOM     28  C   UNL     1     -16.189  -1.860  10.140  1.00  0.00     0.214 C 
ATOM     29  O   UNL     1     -17.921  -0.404  11.117  1.00  0.00    -0.332 OA
ATOM     30  C   UNL     1     -17.067  -2.087   8.889  1.00  0.00     0.180 C 
ATOM     31  C   UNL     1     -18.863  -0.768  10.122  1.00  0.00     0.179 C 
ATOM     32  C   UNL     1     -18.169  -1.013   8.760  1.00  0.00     0.177 C 
BRANCH  28  33
ATOM     33  O   UNL     1     -15.426  -3.010  10.402  1.00  0.00    -0.384 OA
ATOM     34  H   UNL     1     -15.560  -3.624   9.633  1.00  0.00     0.211 HD
ENDBRANCH  28  33
BRANCH  30  35
ATOM     35  O   UNL     1     -17.611  -3.385   8.860  1.00  0.00    -0.387 OA
ATOM     36  H   UNL     1     -17.926  -3.608   9.771  1.00  0.00     0.211 HD
ENDBRANCH  30  35
BRANCH  31  37
ATOM     37  C   UNL     1     -19.923   0.334  10.014  1.00  0.00     0.191 C 
BRANCH  37  38
ATOM     38  O   UNL     1     -20.495   0.311   8.736  1.00  0.00    -0.394 OA
ATOM     39  H   UNL     1     -20.434  -0.629   8.423  1.00  0.00     0.210 HD
ENDBRANCH  37  38
ENDBRANCH  31  37
BRANCH  32  40
ATOM     40  O   UNL     1     -17.638   0.178   8.227  1.00  0.00    -0.387 OA
ATOM     41  H   UNL     1     -18.389   0.710   7.856  1.00  0.00     0.211 HD
ENDBRANCH  32  40
ENDBRANCH   1  27
TORSDOF 12
ENDMDL
MODEL 4
REMARK VINA RESULT:    -6.035      3.706      8.845
REMARK INTER + INTRA:         -10.764
REMARK INTER:                  -8.717
REMARK INTRA:                  -2.047
REMARK UNBOUND:                -1.907
REMARK SMILES O=c1c(O[C@@H]2O[C@@H](CO)[C@@H](O)[C@H](O)[C@@H]2O)c(-c2ccc(O)c(O)c2)oc2cc(O)cc(O)c12
REMARK SMILES IDX 4 1 3 2 16 3 25 4 2 5 26 6 1 7 33 8 27 9 31 10 28 11 30 12
REMARK SMILES IDX 17 13 18 14 19 15 20 16 24 17 22 18 21 19 23 21 32 23 29 25
REMARK SMILES IDX 5 27 14 28 6 29 12 30 7 31 10 32 15 33 13 35 8 37 9 38 11 40
REMARK H PARENT 21 20 23 22 32 24 29 26 15 34 13 36 9 39 11 41
REMARK Flexibility Score: inf
ROOT
ATOM      1  O   UNL     1     -13.208  -2.574  12.634  1.00  0.00    -0.454 OA
ENDROOT
BRANCH   1   2
ATOM      2  C   UNL     1     -12.798  -3.794  12.069  1.00  0.00     0.214 A 
ATOM      3  C   UNL     1     -13.752  -4.772  11.738  1.00  0.00     0.180 A 
ATOM      4  O   UNL     1     -13.357  -5.967  11.317  1.00  0.00    -0.452 OA
ATOM      5  C   UNL     1     -11.440  -4.066  11.823  1.00  0.00     0.239 A 
ATOM      6  C   UNL     1     -12.085  -6.288  11.122  1.00  0.00     0.146 A 
ATOM      7  O   UNL     1     -10.590  -3.169  12.056  1.00  0.00    -0.285 OA
ATOM      8  C   UNL     1     -11.052  -5.334  11.322  1.00  0.00     0.111 A 
ATOM      9  C   UNL     1     -11.782  -7.589  10.710  1.00  0.00     0.094 A 
ATOM     10  C   UNL     1      -9.707  -5.721  11.040  1.00  0.00     0.134 A 
ATOM     11  C   UNL     1     -10.461  -7.972  10.494  1.00  0.00     0.123 A 
ATOM     12  C   UNL     1      -9.433  -7.042  10.662  1.00  0.00     0.093 A 
BRANCH   3  13
ATOM     13  C   UNL     1     -15.200  -4.523  11.871  1.00  0.00     0.025 A 
ATOM     14  C   UNL     1     -15.909  -5.096  12.935  1.00  0.00     0.016 A 
ATOM     15  C   UNL     1     -17.275  -4.850  13.084  1.00  0.00     0.051 A 
ATOM     16  C   UNL     1     -17.958  -4.044  12.166  1.00  0.00     0.157 A 
ATOM     17  C   UNL     1     -15.887  -3.742  10.930  1.00  0.00     0.062 A 
ATOM     18  C   UNL     1     -17.257  -3.487  11.071  1.00  0.00     0.158 A 
BRANCH  16  19
ATOM     19  O   UNL     1     -19.322  -3.827  12.378  1.00  0.00    -0.504 OA
ATOM     20  H   UNL     1     -20.038  -4.514  12.191  1.00  0.00     0.293 HD
ENDBRANCH  16  19
BRANCH  18  21
ATOM     21  O   UNL     1     -17.873  -2.685  10.109  1.00  0.00    -0.504 OA
ATOM     22  H   UNL     1     -18.108  -2.998   9.179  1.00  0.00     0.293 HD
ENDBRANCH  18  21
ENDBRANCH   3  13
BRANCH  10  23
ATOM     23  O   UNL     1      -8.612  -4.853  11.095  1.00  0.00    -0.507 OA
ATOM     24  H   UNL     1      -7.869  -4.898  11.774  1.00  0.00     0.293 HD
ENDBRANCH  10  23
BRANCH  11  25
ATOM     25  O   UNL     1     -10.180  -9.279  10.104  1.00  0.00    -0.508 OA
ATOM     26  H   UNL     1      -9.789  -9.953  10.751  1.00  0.00     0.293 HD
ENDBRANCH  11  25
ENDBRANCH   1   2
BRANCH   1  27
ATOM     27  C   UNL     1     -13.370  -2.377  14.045  1.00  0.00     0.339 C 
ATOM     28  C   UNL     1     -12.536  -1.177  14.555  1.00  0.00     0.214 C 
ATOM     29  O   UNL     1     -14.740  -2.267  14.398  1.00  0.00    -0.332 OA
ATOM     30  C   UNL     1     -13.170   0.187  14.203  1.00  0.00     0.180 C 
ATOM     31  C   UNL     1     -15.332  -1.107  13.836  1.00  0.00     0.179 C 
ATOM     32  C   UNL     1     -14.699   0.180  14.419  1.00  0.00     0.177 C 
BRANCH  28  33
ATOM     33  O   UNL     1     -11.227  -1.238  14.048  1.00  0.00    -0.384 OA
ATOM     34  H   UNL     1     -10.639  -1.505  14.803  1.00  0.00     0.211 HD
ENDBRANCH  28  33
BRANCH  30  35
ATOM     35  O   UNL     1     -12.839   0.599  12.899  1.00  0.00    -0.387 OA
ATOM     36  H   UNL     1     -13.269  -0.022  12.260  1.00  0.00     0.211 HD
ENDBRANCH  30  35
BRANCH  31  37
ATOM     37  C   UNL     1     -16.843  -1.147  14.091  1.00  0.00     0.191 C 
BRANCH  37  38
ATOM     38  O   UNL     1     -17.105  -1.887  15.251  1.00  0.00    -0.394 OA
ATOM     39  H   UNL     1     -16.236  -2.277  15.532  1.00  0.00     0.210 HD
ENDBRANCH  37  38
ENDBRANCH  31  37
BRANCH  32  40
ATOM     40  O   UNL     1     -15.007   0.337  15.784  1.00  0.00    -0.387 OA
ATOM     41  H   UNL     1     -15.601   1.126  15.877  1.00  0.00     0.211 HD
ENDBRANCH  32  40
ENDBRANCH   1  27
TORSDOF 12
ENDMDL
MODEL 5
REMARK VINA RESULT:    -6.027      2.119      5.222
REMARK INTER + INTRA:         -10.752
REMARK INTER:                  -9.172
REMARK INTRA:                  -1.580
REMARK UNBOUND:                -1.907
REMARK SMILES O=c1c(O[C@@H]2O[C@@H](CO)[C@@H](O)[C@H](O)[C@@H]2O)c(-c2ccc(O)c(O)c2)oc2cc(O)cc(O)c12
REMARK SMILES IDX 4 1 3 2 16 3 25 4 2 5 26 6 1 7 33 8 27 9 31 10 28 11 30 12
REMARK SMILES IDX 17 13 18 14 19 15 20 16 24 17 22 18 21 19 23 21 32 23 29 25
REMARK SMILES IDX 5 27 14 28 6 29 12 30 7 31 10 32 15 33 13 35 8 37 9 38 11 40
REMARK H PARENT 21 20 23 22 32 24 29 26 15 34 13 36 9 39 11 41
REMARK Flexibility Score: inf
ROOT
ATOM      1  O   UNL     1     -19.667  -1.850  14.230  1.00  0.00    -0.454 OA
ENDROOT
BRANCH   1   2
ATOM      2  C   UNL     1     -20.219  -1.966  15.517  1.00  0.00     0.214 A 
ATOM      3  C   UNL     1     -21.523  -1.504  15.767  1.00  0.00     0.180 A 
ATOM      4  O   UNL     1     -22.000  -1.505  17.006  1.00  0.00    -0.452 OA
ATOM      5  C   UNL     1     -19.493  -2.541  16.576  1.00  0.00     0.239 A 
ATOM      6  C   UNL     1     -21.330  -1.986  18.046  1.00  0.00     0.146 A 
ATOM      7  O   UNL     1     -18.352  -3.014  16.341  1.00  0.00    -0.285 OA
ATOM      8  C   UNL     1     -20.049  -2.576  17.879  1.00  0.00     0.111 A 
ATOM      9  C   UNL     1     -21.916  -1.902  19.311  1.00  0.00     0.094 A 
ATOM     10  C   UNL     1     -19.402  -3.128  19.026  1.00  0.00     0.134 A 
ATOM     11  C   UNL     1     -21.250  -2.392  20.431  1.00  0.00     0.123 A 
ATOM     12  C   UNL     1     -20.000  -2.998  20.286  1.00  0.00     0.093 A 
BRANCH   3  13
ATOM     13  C   UNL     1     -22.385  -0.983  14.690  1.00  0.00     0.025 A 
ATOM     14  C   UNL     1     -22.351   0.380  14.370  1.00  0.00     0.016 A 
ATOM     15  C   UNL     1     -23.146   0.880  13.337  1.00  0.00     0.051 A 
ATOM     16  C   UNL     1     -23.998   0.034  12.618  1.00  0.00     0.157 A 
ATOM     17  C   UNL     1     -23.261  -1.830  13.995  1.00  0.00     0.062 A 
ATOM     18  C   UNL     1     -24.062  -1.339  12.956  1.00  0.00     0.158 A 
BRANCH  16  19
ATOM     19  O   UNL     1     -24.758   0.594  11.589  1.00  0.00    -0.504 OA
ATOM     20  H   UNL     1     -25.002   0.107  10.739  1.00  0.00     0.293 HD
ENDBRANCH  16  19
BRANCH  18  21
ATOM     21  O   UNL     1     -24.896  -2.241  12.293  1.00  0.00    -0.504 OA
ATOM     22  H   UNL     1     -25.900  -2.259  12.393  1.00  0.00     0.293 HD
ENDBRANCH  18  21
ENDBRANCH   3  13
BRANCH  10  23
ATOM     23  O   UNL     1     -18.191  -3.826  18.984  1.00  0.00    -0.507 OA
ATOM     24  H   UNL     1     -17.978  -4.581  18.352  1.00  0.00     0.293 HD
ENDBRANCH  10  23
BRANCH  11  25
ATOM     25  O   UNL     1     -21.843  -2.280  21.687  1.00  0.00    -0.508 OA
ATOM     26  H   UNL     1     -21.722  -2.993  22.396  1.00  0.00     0.293 HD
ENDBRANCH  11  25
ENDBRANCH   1   2
BRANCH   1  27
ATOM     27  C   UNL     1     -19.823  -2.851  13.216  1.00  0.00     0.339 C 
ATOM     28  C   UNL     1     -19.806  -2.236  11.795  1.00  0.00     0.214 C 
ATOM     29  O   UNL     1     -18.864  -3.888  13.362  1.00  0.00    -0.332 OA
ATOM     30  C   UNL     1     -18.386  -1.853  11.323  1.00  0.00     0.180 C 
ATOM     31  C   UNL     1     -17.545  -3.413  13.153  1.00  0.00     0.179 C 
ATOM     32  C   UNL     1     -17.348  -2.936  11.692  1.00  0.00     0.177 C 
BRANCH  28  33
ATOM     33  O   UNL     1     -20.646  -1.111  11.738  1.00  0.00    -0.384 OA
ATOM     34  H   UNL     1     -20.284  -0.449  12.384  1.00  0.00     0.211 HD
ENDBRANCH  28  33
BRANCH  30  35
ATOM     35  O   UNL     1     -17.997  -0.588  11.802  1.00  0.00    -0.387 OA
ATOM     36  H   UNL     1     -17.077  -0.408  11.485  1.00  0.00     0.211 HD
ENDBRANCH  30  35
BRANCH  31  37
ATOM     37  C   UNL     1     -16.552  -4.524  13.512  1.00  0.00     0.191 C 
BRANCH  37  38
ATOM     38  O   UNL     1     -16.833  -5.007  14.796  1.00  0.00    -0.394 OA
ATOM     39  H   UNL     1     -17.680  -4.573  15.076  1.00  0.00     0.210 HD
ENDBRANCH  37  38
ENDBRANCH  31  37
BRANCH  32  40
ATOM     40  O   UNL     1     -17.411  -4.011  10.784  1.00  0.00    -0.387 OA
ATOM     41  H   UNL     1     -17.635  -3.646   9.890  1.00  0.00     0.211 HD
ENDBRANCH  32  40
ENDBRANCH   1  27
TORSDOF 12
ENDMDL
MODEL 6
REMARK VINA RESULT:    -5.875      1.130      2.505
REMARK INTER + INTRA:         -10.529
REMARK INTER:                  -8.960
REMARK INTRA:                  -1.568
REMARK UNBOUND:                -1.907
REMARK SMILES O=c1c(O[C@@H]2O[C@@H](CO)[C@@H](O)[C@H](O)[C@@H]2O)c(-c2ccc(O)c(O)c2)oc2cc(O)cc(O)c12
REMARK SMILES IDX 4 1 3 2 16 3 25 4 2 5 26 6 1 7 33 8 27 9 31 10 28 11 30 12
REMARK SMILES IDX 17 13 18 14 19 15 20 16 24 17 22 18 21 19 23 21 32 23 29 25
REMARK SMILES IDX 5 27 14 28 6 29 12 30 7 31 10 32 15 33 13 35 8 37 9 38 11 40
REMARK H PARENT 21 20 23 22 32 24 29 26 15 34 13 36 9 39 11 41
REMARK Flexibility Score: inf
ROOT
ATOM      1  O   UNL     1     -19.220  -2.021  13.668  1.00  0.00    -0.454 OA
ENDROOT
BRANCH   1   2
ATOM      2  C   UNL     1     -19.256  -2.321  15.040  1.00  0.00     0.214 A 
ATOM      3  C   UNL     1     -18.193  -3.024  15.635  1.00  0.00     0.180 A 
ATOM      4  O   UNL     1     -18.280  -3.410  16.901  1.00  0.00    -0.452 OA
ATOM      5  C   UNL     1     -20.341  -1.932  15.847  1.00  0.00     0.239 A 
ATOM      6  C   UNL     1     -19.308  -3.114  17.686  1.00  0.00     0.146 A 
ATOM      7  O   UNL     1     -21.261  -1.246  15.334  1.00  0.00    -0.285 OA
ATOM      8  C   UNL     1     -20.381  -2.314  17.211  1.00  0.00     0.111 A 
ATOM      9  C   UNL     1     -19.311  -3.605  18.994  1.00  0.00     0.094 A 
ATOM     10  C   UNL     1     -21.432  -1.980  18.119  1.00  0.00     0.134 A 
ATOM     11  C   UNL     1     -20.370  -3.321  19.852  1.00  0.00     0.123 A 
ATOM     12  C   UNL     1     -21.423  -2.516  19.413  1.00  0.00     0.093 A 
BRANCH   3  13
ATOM     13  C   UNL     1     -16.976  -3.378  14.881  1.00  0.00     0.025 A 
ATOM     14  C   UNL     1     -16.926  -4.581  14.165  1.00  0.00     0.016 A 
ATOM     15  C   UNL     1     -15.788  -4.915  13.429  1.00  0.00     0.051 A 
ATOM     16  C   UNL     1     -14.676  -4.066  13.410  1.00  0.00     0.157 A 
ATOM     17  C   UNL     1     -15.852  -2.539  14.892  1.00  0.00     0.062 A 
ATOM     18  C   UNL     1     -14.705  -2.864  14.156  1.00  0.00     0.158 A 
BRANCH  16  19
ATOM     19  O   UNL     1     -13.573  -4.453  12.645  1.00  0.00    -0.504 OA
ATOM     20  H   UNL     1     -12.616  -4.241  12.889  1.00  0.00     0.293 HD
ENDBRANCH  16  19
BRANCH  18  21
ATOM     21  O   UNL     1     -13.631  -1.973  14.195  1.00  0.00    -0.504 OA
ATOM     22  H   UNL     1     -13.470  -1.316  14.943  1.00  0.00     0.293 HD
ENDBRANCH  18  21
ENDBRANCH   3  13
BRANCH  10  23
ATOM     23  O   UNL     1     -22.491  -1.119  17.813  1.00  0.00    -0.507 OA
ATOM     24  H   UNL     1     -22.625  -0.656  16.928  1.00  0.00     0.293 HD
ENDBRANCH  10  23
BRANCH  11  25
ATOM     25  O   UNL     1     -20.362  -3.838  21.146  1.00  0.00    -0.508 OA
ATOM     26  H   UNL     1     -20.357  -4.836  21.319  1.00  0.00     0.293 HD
ENDBRANCH  11  25
ENDBRANCH   1   2
BRANCH   1  27
ATOM     27  C   UNL     1     -18.607  -0.837  13.139  1.00  0.00     0.339 C 
ATOM     28  C   UNL     1     -18.061  -1.066  11.709  1.00  0.00     0.214 C 
ATOM     29  O   UNL     1     -19.487   0.274  13.207  1.00  0.00    -0.332 OA
ATOM     30  C   UNL     1     -19.173  -1.075  10.636  1.00  0.00     0.180 C 
ATOM     31  C   UNL     1     -20.621   0.094  12.375  1.00  0.00     0.179 C 
ATOM     32  C   UNL     1     -20.215   0.039  10.882  1.00  0.00     0.177 C 
BRANCH  28  33
ATOM     33  O   UNL     1     -17.331  -2.264  11.647  1.00  0.00    -0.384 OA
ATOM     34  H   UNL     1     -16.369  -2.016  11.670  1.00  0.00     0.211 HD
ENDBRANCH  28  33
BRANCH  30  35
ATOM     35  O   UNL     1     -19.788  -2.336  10.529  1.00  0.00    -0.387 OA
ATOM     36  H   UNL     1     -19.437  -2.913  11.252  1.00  0.00     0.211 HD
ENDBRANCH  30  35
BRANCH  31  37
ATOM     37  C   UNL     1     -21.616   1.230  12.638  1.00  0.00     0.191 C 
BRANCH  37  38
ATOM     38  O   UNL     1     -22.092   1.143  13.952  1.00  0.00    -0.394 OA
ATOM     39  H   UNL     1     -22.730   1.895  14.065  1.00  0.00     0.210 HD
ENDBRANCH  37  38
ENDBRANCH  31  37
BRANCH  32  40
ATOM     40  O   UNL     1     -19.727   1.281  10.432  1.00  0.00    -0.387 OA
ATOM     41  H   UNL     1     -20.092   1.988  11.024  1.00  0.00     0.211 HD
ENDBRANCH  32  40
ENDBRANCH   1  27
TORSDOF 12
ENDMDL
MODEL 7
REMARK VINA RESULT:    -5.806      2.497      3.405
REMARK INTER + INTRA:         -10.428
REMARK INTER:                  -8.417
REMARK INTRA:                  -2.011
REMARK UNBOUND:                -1.907
REMARK SMILES O=c1c(O[C@@H]2O[C@@H](CO)[C@@H](O)[C@H](O)[C@@H]2O)c(-c2ccc(O)c(O)c2)oc2cc(O)cc(O)c12
REMARK SMILES IDX 4 1 3 2 16 3 25 4 2 5 26 6 1 7 33 8 27 9 31 10 28 11 30 12
REMARK SMILES IDX 17 13 18 14 19 15 20 16 24 17 22 18 21 19 23 21 32 23 29 25
REMARK SMILES IDX 5 27 14 28 6 29 12 30 7 31 10 32 15 33 13 35 8 37 9 38 11 40
REMARK H PARENT 21 20 23 22 32 24 29 26 15 34 13 36 9 39 11 41
REMARK Flexibility Score: inf
ROOT
ATOM      1  O   UNL     1     -20.588  -0.538  10.802  1.00  0.00    -0.454 OA
ENDROOT
BRANCH   1   2
ATOM      2  C   UNL     1     -20.749  -0.761  12.180  1.00  0.00     0.214 A 
ATOM      3  C   UNL     1     -19.763  -1.459  12.899  1.00  0.00     0.180 A 
ATOM      4  O   UNL     1     -19.969  -1.773  14.172  1.00  0.00    -0.452 OA
ATOM      5  C   UNL     1     -21.885  -0.299  12.869  1.00  0.00     0.239 A 
ATOM      6  C   UNL     1     -21.050  -1.406  14.849  1.00  0.00     0.146 A 
ATOM      7  O   UNL     1     -22.737   0.383  12.243  1.00  0.00    -0.285 OA
ATOM      8  C   UNL     1     -22.053  -0.604  14.242  1.00  0.00     0.111 A 
ATOM      9  C   UNL     1     -21.178  -1.824  16.176  1.00  0.00     0.094 A 
ATOM     10  C   UNL     1     -23.166  -0.193  15.038  1.00  0.00     0.134 A 
ATOM     11  C   UNL     1     -22.296  -1.465  16.924  1.00  0.00     0.123 A 
ATOM     12  C   UNL     1     -23.282  -0.657  16.354  1.00  0.00     0.093 A 
BRANCH   3  13
ATOM     13  C   UNL     1     -18.498  -1.886  12.272  1.00  0.00     0.025 A 
ATOM     14  C   UNL     1     -18.272  -3.245  12.019  1.00  0.00     0.016 A 
ATOM     15  C   UNL     1     -17.088  -3.659  11.406  1.00  0.00     0.051 A 
ATOM     16  C   UNL     1     -16.105  -2.729  11.051  1.00  0.00     0.157 A 
ATOM     17  C   UNL     1     -17.502  -0.953  11.949  1.00  0.00     0.062 A 
ATOM     18  C   UNL     1     -16.311  -1.358  11.332  1.00  0.00     0.158 A 
BRANCH  16  19
ATOM     19  O   UNL     1     -14.949  -3.206  10.430  1.00  0.00    -0.504 OA
ATOM     20  H   UNL     1     -14.026  -2.831  10.592  1.00  0.00     0.293 HD
ENDBRANCH  16  19
BRANCH  18  21
ATOM     21  O   UNL     1     -15.372  -0.373  11.019  1.00  0.00    -0.504 OA
ATOM     22  H   UNL     1     -14.852   0.150  11.708  1.00  0.00     0.293 HD
ENDBRANCH  18  21
ENDBRANCH   3  13
BRANCH  10  23
ATOM     23  O   UNL     1     -24.166   0.679  14.597  1.00  0.00    -0.507 OA
ATOM     24  H   UNL     1     -24.239   1.056  13.665  1.00  0.00     0.293 HD
ENDBRANCH  10  23
BRANCH  11  25
ATOM     25  O   UNL     1     -22.414  -1.910  18.239  1.00  0.00    -0.508 OA
ATOM     26  H   UNL     1     -22.236  -1.295  19.025  1.00  0.00     0.293 HD
ENDBRANCH  11  25
ENDBRANCH   1   2
BRANCH   1  27
ATOM     27  C   UNL     1     -21.006  -1.475   9.801  1.00  0.00     0.339 C 
ATOM     28  C   UNL     1     -21.986  -0.834   8.789  1.00  0.00     0.214 C 
ATOM     29  O   UNL     1     -19.891  -2.077   9.160  1.00  0.00    -0.332 OA
ATOM     30  C   UNL     1     -21.279   0.079   7.764  1.00  0.00     0.180 C 
ATOM     31  C   UNL     1     -19.136  -1.129   8.424  1.00  0.00     0.179 C 
ATOM     32  C   UNL     1     -19.963  -0.547   7.251  1.00  0.00     0.177 C 
BRANCH  28  33
ATOM     33  O   UNL     1     -22.983  -0.109   9.464  1.00  0.00    -0.384 OA
ATOM     34  H   UNL     1     -22.768   0.853   9.346  1.00  0.00     0.211 HD
ENDBRANCH  28  33
BRANCH  30  35
ATOM     35  O   UNL     1     -21.066   1.374   8.273  1.00  0.00    -0.387 OA
ATOM     36  H   UNL     1     -21.010   1.312   9.259  1.00  0.00     0.211 HD
ENDBRANCH  30  35
BRANCH  31  37
ATOM     37  C   UNL     1     -17.853  -1.797   7.920  1.00  0.00     0.191 C 
BRANCH  37  38
ATOM     38  O   UNL     1     -18.123  -3.125   7.564  1.00  0.00    -0.394 OA
ATOM     39  H   UNL     1     -19.031  -3.325   7.913  1.00  0.00     0.210 HD
ENDBRANCH  37  38
ENDBRANCH  31  37
BRANCH  32  40
ATOM     40  O   UNL     1     -20.228  -1.521   6.270  1.00  0.00    -0.387 OA
ATOM     41  H   UNL     1     -19.419  -2.088   6.174  1.00  0.00     0.211 HD
ENDBRANCH  32  40
ENDBRANCH   1  27
TORSDOF 12
ENDMDL
MODEL 8
REMARK VINA RESULT:    -5.739      4.220      7.118
REMARK INTER + INTRA:         -10.330
REMARK INTER:                  -8.327
REMARK INTRA:                  -2.003
REMARK UNBOUND:                -1.907
REMARK SMILES O=c1c(O[C@@H]2O[C@@H](CO)[C@@H](O)[C@H](O)[C@@H]2O)c(-c2ccc(O)c(O)c2)oc2cc(O)cc(O)c12
REMARK SMILES IDX 4 1 3 2 16 3 25 4 2 5 26 6 1 7 33 8 27 9 31 10 28 11 30 12
REMARK SMILES IDX 17 13 18 14 19 15 20 16 24 17 22 18 21 19 23 21 32 23 29 25
REMARK SMILES IDX 5 27 14 28 6 29 12 30 7 31 10 32 15 33 13 35 8 37 9 38 11 40
REMARK H PARENT 21 20 23 22 32 24 29 26 15 34 13 36 9 39 11 41
REMARK Flexibility Score: inf
ROOT
ATOM      1  O   UNL     1     -14.724  -1.287  14.283  1.00  0.00    -0.454 OA
ENDROOT
BRANCH   1   2
ATOM      2  C   UNL     1     -14.325  -0.321  15.222  1.00  0.00     0.214 A 
ATOM      3  C   UNL     1     -14.835   0.987  15.146  1.00  0.00     0.180 A 
ATOM      4  O   UNL     1     -14.370   1.928  15.958  1.00  0.00    -0.452 OA
ATOM      5  C   UNL     1     -13.416  -0.631  16.250  1.00  0.00     0.239 A 
ATOM      6  C   UNL     1     -13.472   1.695  16.907  1.00  0.00     0.146 A 
ATOM      7  O   UNL     1     -13.008  -1.815  16.361  1.00  0.00    -0.285 OA
ATOM      8  C   UNL     1     -12.977   0.384  17.137  1.00  0.00     0.111 A 
ATOM      9  C   UNL     1     -13.027   2.770  17.681  1.00  0.00     0.094 A 
ATOM     10  C   UNL     1     -12.056   0.185  18.210  1.00  0.00     0.134 A 
ATOM     11  C   UNL     1     -12.084   2.573  18.687  1.00  0.00     0.123 A 
ATOM     12  C   UNL     1     -11.603   1.288  18.945  1.00  0.00     0.093 A 
BRANCH   3  13
ATOM     13  C   UNL     1     -15.867   1.364  14.162  1.00  0.00     0.025 A 
ATOM     14  C   UNL     1     -15.505   2.089  13.019  1.00  0.00     0.016 A 
ATOM     15  C   UNL     1     -16.469   2.432  12.070  1.00  0.00     0.051 A 
ATOM     16  C   UNL     1     -17.810   2.073  12.252  1.00  0.00     0.157 A 
ATOM     17  C   UNL     1     -17.214   1.031  14.366  1.00  0.00     0.062 A 
ATOM     18  C   UNL     1     -18.189   1.369  13.418  1.00  0.00     0.158 A 
BRANCH  16  19
ATOM     19  O   UNL     1     -18.723   2.436  11.260  1.00  0.00    -0.504 OA
ATOM     20  H   UNL     1     -19.525   3.028  11.420  1.00  0.00     0.293 HD
ENDBRANCH  16  19
BRANCH  18  21
ATOM     21  O   UNL     1     -19.507   0.988  13.675  1.00  0.00    -0.504 OA
ATOM     22  H   UNL     1     -20.138   1.504  14.270  1.00  0.00     0.293 HD
ENDBRANCH  18  21
ENDBRANCH   3  13
BRANCH  10  23
ATOM     23  O   UNL     1     -11.573  -1.066  18.608  1.00  0.00    -0.507 OA
ATOM     24  H   UNL     1     -11.906  -1.952  18.265  1.00  0.00     0.293 HD
ENDBRANCH  10  23
BRANCH  11  25
ATOM     25  O   UNL     1     -11.639   3.662  19.432  1.00  0.00    -0.508 OA
ATOM     26  H   UNL     1     -11.067   4.389  19.019  1.00  0.00     0.293 HD
ENDBRANCH  11  25
ENDBRANCH   1   2
BRANCH   1  27
ATOM     27  C   UNL     1     -14.036  -1.508  13.044  1.00  0.00     0.339 C 
ATOM     28  C   UNL     1     -13.575  -2.978  12.900  1.00  0.00     0.214 C 
ATOM     29  O   UNL     1     -14.815  -1.079  11.937  1.00  0.00    -0.332 OA
ATOM     30  C   UNL     1     -14.729  -3.936  12.531  1.00  0.00     0.180 C 
ATOM     31  C   UNL     1     -15.995  -1.852  11.798  1.00  0.00     0.179 C 
ATOM     32  C   UNL     1     -15.661  -3.326  11.461  1.00  0.00     0.177 C 
BRANCH  28  33
ATOM     33  O   UNL     1     -12.952  -3.416  14.081  1.00  0.00    -0.384 OA
ATOM     34  H   UNL     1     -13.072  -2.694  14.753  1.00  0.00     0.211 HD
ENDBRANCH  28  33
BRANCH  30  35
ATOM     35  O   UNL     1     -15.453  -4.347  13.666  1.00  0.00    -0.387 OA
ATOM     36  H   UNL     1     -14.847  -4.876  14.244  1.00  0.00     0.211 HD
ENDBRANCH  30  35
BRANCH  31  37
ATOM     37  C   UNL     1     -16.878  -1.222  10.716  1.00  0.00     0.191 C 
BRANCH  37  38
ATOM     38  O   UNL     1     -16.078  -0.789   9.651  1.00  0.00    -0.394 OA
ATOM     39  H   UNL     1     -15.139  -0.875   9.958  1.00  0.00     0.210 HD
ENDBRANCH  37  38
ENDBRANCH  31  37
BRANCH  32  40
ATOM     40  O   UNL     1     -15.090  -3.447  10.180  1.00  0.00    -0.387 OA
ATOM     41  H   UNL     1     -15.002  -4.413   9.972  1.00  0.00     0.211 HD
ENDBRANCH  32  40
ENDBRANCH   1  27
TORSDOF 12
ENDMDL
MODEL 9
REMARK VINA RESULT:    -5.721      2.219      3.196
REMARK INTER + INTRA:         -10.304
REMARK INTER:                  -8.240
REMARK INTRA:                  -2.064
REMARK UNBOUND:                -1.907
REMARK SMILES O=c1c(O[C@@H]2O[C@@H](CO)[C@@H](O)[C@H](O)[C@@H]2O)c(-c2ccc(O)c(O)c2)oc2cc(O)cc(O)c12
REMARK SMILES IDX 4 1 3 2 16 3 25 4 2 5 26 6 1 7 33 8 27 9 31 10 28 11 30 12
REMARK SMILES IDX 17 13 18 14 19 15 20 16 24 17 22 18 21 19 23 21 32 23 29 25
REMARK SMILES IDX 5 27 14 28 6 29 12 30 7 31 10 32 15 33 13 35 8 37 9 38 11 40
REMARK H PARENT 21 20 23 22 32 24 29 26 15 34 13 36 9 39 11 41
REMARK Flexibility Score: inf
ROOT
ATOM      1  O   UNL     1     -21.536  -0.760  13.042  1.00  0.00    -0.454 OA
ENDROOT
BRANCH   1   2
ATOM      2  C   UNL     1     -20.998  -1.247  14.245  1.00  0.00     0.214 A 
ATOM      3  C   UNL     1     -19.667  -1.699  14.287  1.00  0.00     0.180 A 
ATOM      4  O   UNL     1     -19.195  -2.268  15.390  1.00  0.00    -0.452 OA
ATOM      5  C   UNL     1     -21.764  -1.295  15.423  1.00  0.00     0.239 A 
ATOM      6  C   UNL     1     -19.899  -2.385  16.509  1.00  0.00     0.146 A 
ATOM      7  O   UNL     1     -22.932  -0.831  15.405  1.00  0.00    -0.285 OA
ATOM      8  C   UNL     1     -21.215  -1.861  16.601  1.00  0.00     0.111 A 
ATOM      9  C   UNL     1     -19.313  -3.035  17.598  1.00  0.00     0.094 A 
ATOM     10  C   UNL     1     -21.901  -1.967  17.850  1.00  0.00     0.134 A 
ATOM     11  C   UNL     1     -20.014  -3.183  18.792  1.00  0.00     0.123 A 
ATOM     12  C   UNL     1     -21.300  -2.653  18.912  1.00  0.00     0.093 A 
BRANCH   3  13
ATOM     13  C   UNL     1     -18.769  -1.587  13.123  1.00  0.00     0.025 A 
ATOM     14  C   UNL     1     -18.221  -0.343  12.785  1.00  0.00     0.016 A 
ATOM     15  C   UNL     1     -17.351  -0.229  11.698  1.00  0.00     0.051 A 
ATOM     16  C   UNL     1     -17.029  -1.348  10.922  1.00  0.00     0.157 A 
ATOM     17  C   UNL     1     -18.476  -2.705  12.328  1.00  0.00     0.062 A 
ATOM     18  C   UNL     1     -17.603  -2.602  11.237  1.00  0.00     0.158 A 
BRANCH  16  19
ATOM     19  O   UNL     1     -16.145  -1.170   9.856  1.00  0.00    -0.504 OA
ATOM     20  H   UNL     1     -15.160  -1.390   9.897  1.00  0.00     0.293 HD
ENDBRANCH  16  19
BRANCH  18  21
ATOM     21  O   UNL     1     -17.339  -3.759  10.502  1.00  0.00    -0.504 OA
ATOM     22  H   UNL     1     -17.110  -3.764   9.519  1.00  0.00     0.293 HD
ENDBRANCH  18  21
ENDBRANCH   3  13
BRANCH  10  23
ATOM     23  O   UNL     1     -23.155  -1.404  18.106  1.00  0.00    -0.507 OA
ATOM     24  H   UNL     1     -23.364  -0.418  18.087  1.00  0.00     0.293 HD
ENDBRANCH  10  23
BRANCH  11  25
ATOM     25  O   UNL     1     -19.419  -3.853  19.859  1.00  0.00    -0.508 OA
ATOM     26  H   UNL     1     -18.412  -3.896  19.962  1.00  0.00     0.293 HD
ENDBRANCH  11  25
ENDBRANCH   1   2
BRANCH   1  27
ATOM     27  C   UNL     1     -22.218  -1.592  12.093  1.00  0.00     0.339 C 
ATOM     28  C   UNL     1     -23.615  -1.029  11.738  1.00  0.00     0.214 C 
ATOM     29  O   UNL     1     -21.422  -1.819  10.940  1.00  0.00    -0.332 OA
ATOM     30  C   UNL     1     -23.550   0.173  10.769  1.00  0.00     0.180 C 
ATOM     31  C   UNL     1     -21.193  -0.620  10.218  1.00  0.00     0.179 C 
ATOM     32  C   UNL     1     -22.516  -0.054   9.645  1.00  0.00     0.177 C 
BRANCH  28  33
ATOM     33  O   UNL     1     -24.308  -0.663  12.904  1.00  0.00    -0.384 OA
ATOM     34  H   UNL     1     -24.405   0.325  12.882  1.00  0.00     0.211 HD
ENDBRANCH  28  33
BRANCH  30  35
ATOM     35  O   UNL     1     -23.311   1.382  11.449  1.00  0.00    -0.387 OA
ATOM     36  H   UNL     1     -23.466   1.229  12.414  1.00  0.00     0.211 HD
ENDBRANCH  30  35
BRANCH  31  37
ATOM     37  C   UNL     1     -20.179  -0.896   9.103  1.00  0.00     0.191 C 
BRANCH  37  38
ATOM     38  O   UNL     1     -20.222  -2.251   8.753  1.00  0.00    -0.394 OA
ATOM     39  H   UNL     1     -19.497  -2.693   9.267  1.00  0.00     0.210 HD
ENDBRANCH  37  38
ENDBRANCH  31  37
BRANCH  32  40
ATOM     40  O   UNL     1     -23.047  -0.890   8.644  1.00  0.00    -0.387 OA
ATOM     41  H   UNL     1     -23.133  -0.358   7.812  1.00  0.00     0.211 HD
ENDBRANCH  32  40
ENDBRANCH   1  27
TORSDOF 12
ENDMDL
