MODEL 1
REMARK VINA RESULT:    -2.784      0.000      0.000
REMARK INTER + INTRA:          -2.520
REMARK INTER:                  -3.924
REMARK INTRA:                   1.403
REMARK UNBOUND:                 1.403
REMARK SMILES CC1=CCC(=C(C)C)C(=O)CC(C)=CCC1
REMARK SMILES IDX 12 1 14 2 13 3 15 4 16 5 2 6 1 7 3 8 11 10 9 11 10 12 5 13
REMARK SMILES IDX 6 14 7 15 8 16 4 17
REMARK H PARENT
REMARK Flexibility Score: 60.00
ROOT
ATOM      1  C   UNL     1       9.125 -31.977  16.127  1.00  0.00    -0.070 C 
ATOM      2  C   UNL     1       9.971 -31.855  15.070  1.00  0.00    -0.027 C 
ATOM      3  C   UNL     1       9.632 -31.523  17.473  1.00  0.00     0.039 C 
ENDROOT
BRANCH   2   4
ATOM      4  C   UNL     1       9.641 -32.148  13.627  1.00  0.00     0.032 C 
BRANCH   4   5
ATOM      5  C   UNL     1      10.779 -32.856  12.876  1.00  0.00     0.034 C 
BRANCH   5   6
ATOM      6  C   UNL     1      10.744 -34.346  13.156  1.00  0.00    -0.077 C 
ATOM      7  C   UNL     1      12.043 -35.110  13.122  1.00  0.00     0.039 C 
ATOM      8  C   UNL     1       9.599 -35.040  13.357  1.00  0.00    -0.023 CG0
ATOM      9  G   UNL     1       8.212 -34.447  13.439  1.00  0.00     0.000 G0
ENDBRANCH   5   6
ENDBRANCH   4   5
ENDBRANCH   2   4
BRANCH   1  10
ATOM     10  C   UNL     1       7.740 -32.612  16.053  1.00  0.00     0.111 C 
BRANCH  10  11
ATOM     11  C   UNL     1       7.759 -34.118  15.980  1.00  0.00     0.163 C 
ATOM     12  O   UNL     1       8.069 -34.749  17.028  1.00  0.00    -0.294 OA
BRANCH  11  13
ATOM     13  C   UNL     1       7.485 -34.873  14.713  1.00  0.00    -0.002 C 
ATOM     14  C   UNL     1       6.564 -35.887  14.688  1.00  0.00    -0.069 C 
ATOM     15  C   UNL     1       6.200 -36.599  13.403  1.00  0.00     0.039 C 
ATOM     16  C   UNL     1       5.896 -36.387  15.950  1.00  0.00     0.039 C 
BRANCH  13  17
ATOM     17  C   UNL     1       8.212 -34.453  13.437  1.00  0.00     0.066 CG0
ATOM     18  G   UNL     1       9.601 -35.040  13.353  1.00  0.00     0.000 G0
ENDBRANCH  13  17
ENDBRANCH  11  13
ENDBRANCH  10  11
ENDBRANCH   1  10
TORSDOF 0
ENDMDL
MODEL 2
REMARK VINA RESULT:    -2.533      2.415      4.284
REMARK INTER + INTRA:          -2.167
REMARK INTER:                  -2.585
REMARK INTRA:                   0.419
REMARK UNBOUND:                 1.403
REMARK SMILES CC1=CCC(=C(C)C)C(=O)CC(C)=CCC1
REMARK SMILES IDX 12 1 14 2 13 3 15 4 16 5 2 6 1 7 3 8 11 10 9 11 10 12 5 13
REMARK SMILES IDX 6 14 7 15 8 16 4 17
REMARK H PARENT
REMARK Flexibility Score: 60.00
ROOT
ATOM      1  C   UNL     1      11.664 -31.353  14.538  1.00  0.00    -0.070 C 
ATOM      2  C   UNL     1      11.717 -30.745  15.752  1.00  0.00    -0.027 C 
ATOM      3  C   UNL     1      12.974 -31.590  13.827  1.00  0.00     0.039 C 
ENDROOT
BRANCH   2   4
ATOM      4  C   UNL     1      10.550 -30.503  16.679  1.00  0.00     0.032 C 
BRANCH   4   5
ATOM      5  C   UNL     1      10.289 -31.670  17.643  1.00  0.00     0.034 C 
BRANCH   5   6
ATOM      6  C   UNL     1       8.802 -31.819  17.894  1.00  0.00    -0.077 C 
ATOM      7  C   UNL     1       8.145 -30.883  18.876  1.00  0.00     0.039 C 
ATOM      8  C   UNL     1       8.047 -32.799  17.342  1.00  0.00    -0.023 CG0
ATOM      9  G   UNL     1       8.524 -33.815  16.332  1.00  0.00     0.000 G0
ENDBRANCH   5   6
ENDBRANCH   4   5
ENDBRANCH   2   4
BRANCH   1  10
ATOM     10  C   UNL     1      10.374 -31.735  13.820  1.00  0.00     0.111 C 
BRANCH  10  11
ATOM     11  C   UNL     1       9.833 -33.089  14.208  1.00  0.00     0.163 C 
ATOM     12  O   UNL     1      10.513 -34.102  13.887  1.00  0.00    -0.294 OA
BRANCH  11  13
ATOM     13  C   UNL     1       8.512 -33.269  14.895  1.00  0.00    -0.002 C 
ATOM     14  C   UNL     1       7.340 -32.985  14.245  1.00  0.00    -0.069 C 
ATOM     15  C   UNL     1       5.993 -33.249  14.882  1.00  0.00     0.039 C 
ATOM     16  C   UNL     1       7.325 -32.344  12.875  1.00  0.00     0.039 C 
BRANCH  13  17
ATOM     17  C   UNL     1       8.496 -33.829  16.317  1.00  0.00     0.066 CG0
ATOM     18  G   UNL     1       8.044 -32.803  17.329  1.00  0.00     0.000 G0
ENDBRANCH  13  17
ENDBRANCH  11  13
ENDBRANCH  10  11
ENDBRANCH   1  10
TORSDOF 0
ENDMDL
MODEL 3
REMARK VINA RESULT:    -2.325      1.333      4.001
REMARK INTER + INTRA:          -1.874
REMARK INTER:                  -3.963
REMARK INTRA:                   2.089
REMARK UNBOUND:                 1.403
REMARK SMILES CC1=CCC(=C(C)C)C(=O)CC(C)=CCC1
REMARK SMILES IDX 12 1 14 2 13 3 15 4 16 5 2 6 1 7 3 8 11 10 9 11 10 12 5 13
REMARK SMILES IDX 6 14 7 15 8 16 4 17
REMARK H PARENT
REMARK Flexibility Score: 60.00
ROOT
ATOM      1  C   UNL     1       7.149 -35.503  14.972  1.00  0.00    -0.070 C 
ATOM      2  C   UNL     1       7.800 -36.235  14.031  1.00  0.00    -0.027 C 
ATOM      3  C   UNL     1       6.159 -36.230  15.848  1.00  0.00     0.039 C 
ENDROOT
BRANCH   2   4
ATOM      4  C   UNL     1       8.899 -35.741  13.121  1.00  0.00     0.032 C 
BRANCH   4   5
ATOM      5  C   UNL     1       8.971 -34.209  13.034  1.00  0.00     0.034 C 
BRANCH   5   6
ATOM      6  C   UNL     1      10.362 -33.729  13.401  1.00  0.00    -0.077 C 
ATOM      7  C   UNL     1      11.545 -34.511  12.890  1.00  0.00     0.039 C 
ATOM      8  C   UNL     1      10.596 -32.681  14.226  1.00  0.00    -0.023 CG0
ATOM      9  G   UNL     1       9.543 -31.776  14.820  1.00  0.00     0.000 G0
ENDBRANCH   5   6
ENDBRANCH   4   5
ENDBRANCH   2   4
BRANCH   1  10
ATOM     10  C   UNL     1       7.294 -33.995  15.144  1.00  0.00     0.111 C 
BRANCH  10  11
ATOM     11  C   UNL     1       8.265 -33.591  16.225  1.00  0.00     0.163 C 
ATOM     12  O   UNL     1       8.384 -34.359  17.220  1.00  0.00    -0.294 OA
BRANCH  11  13
ATOM     13  C   UNL     1       9.033 -32.303  16.187  1.00  0.00    -0.002 C 
ATOM     14  C   UNL     1       9.329 -31.630  17.343  1.00  0.00    -0.069 C 
ATOM     15  C   UNL     1      10.185 -30.381  17.339  1.00  0.00     0.039 C 
ATOM     16  C   UNL     1       8.778 -32.067  18.682  1.00  0.00     0.039 C 
BRANCH  13  17
ATOM     17  C   UNL     1       9.528 -31.784  14.838  1.00  0.00     0.066 CG0
ATOM     18  G   UNL     1      10.587 -32.677  14.237  1.00  0.00     0.000 G0
ENDBRANCH  13  17
ENDBRANCH  11  13
ENDBRANCH  10  11
ENDBRANCH   1  10
TORSDOF 0
ENDMDL
MODEL 4
REMARK VINA RESULT:    -2.199      1.930      5.064
REMARK INTER + INTRA:          -1.695
REMARK INTER:                  -3.396
REMARK INTRA:                   1.701
REMARK UNBOUND:                 1.403
REMARK SMILES CC1=CCC(=C(C)C)C(=O)CC(C)=CCC1
REMARK SMILES IDX 12 1 14 2 13 3 15 4 16 5 2 6 1 7 3 8 11 10 9 11 10 12 5 13
REMARK SMILES IDX 6 14 7 15 8 16 4 17
REMARK H PARENT
REMARK Flexibility Score: 60.00
ROOT
ATOM      1  C   UNL     1       7.613 -34.872  13.875  1.00  0.00    -0.070 C 
ATOM      2  C   UNL     1       6.980 -34.093  14.790  1.00  0.00    -0.027 C 
ATOM      3  C   UNL     1       7.323 -36.353  13.911  1.00  0.00     0.039 C 
ENDROOT
BRANCH   2   4
ATOM      4  C   UNL     1       7.041 -32.587  14.872  1.00  0.00     0.032 C 
BRANCH   4   5
ATOM      5  C   UNL     1       7.093 -32.059  16.313  1.00  0.00     0.034 C 
BRANCH   5   6
ATOM      6  C   UNL     1       8.513 -32.115  16.841  1.00  0.00    -0.077 C 
ATOM      7  C   UNL     1       8.718 -32.247  18.328  1.00  0.00     0.039 C 
ATOM      8  C   UNL     1       9.607 -31.975  16.054  1.00  0.00    -0.023 CG0
ATOM      9  G   UNL     1       9.600 -31.848  14.549  1.00  0.00     0.000 G0
ENDBRANCH   5   6
ENDBRANCH   4   5
ENDBRANCH   2   4
BRANCH   1  10
ATOM     10  C   UNL     1       8.649 -34.363  12.878  1.00  0.00     0.111 C 
BRANCH  10  11
ATOM     11  C   UNL     1      10.028 -34.187  13.463  1.00  0.00     0.163 C 
ATOM     12  O   UNL     1      10.725 -35.224  13.641  1.00  0.00    -0.294 OA
BRANCH  11  13
ATOM     13  C   UNL     1      10.565 -32.851  13.887  1.00  0.00    -0.002 C 
ATOM     14  C   UNL     1      11.871 -32.514  13.648  1.00  0.00    -0.069 C 
ATOM     15  C   UNL     1      12.411 -31.139  13.979  1.00  0.00     0.039 C 
ATOM     16  C   UNL     1      12.861 -33.511  13.087  1.00  0.00     0.039 C 
BRANCH  13  17
ATOM     17  C   UNL     1       9.612 -31.852  14.542  1.00  0.00     0.066 CG0
ATOM     18  G   UNL     1       9.614 -31.966  16.048  1.00  0.00     0.000 G0
ENDBRANCH  13  17
ENDBRANCH  11  13
ENDBRANCH  10  11
ENDBRANCH   1  10
TORSDOF 0
ENDMDL
MODEL 5
REMARK VINA RESULT:    -2.147      1.829      4.505
REMARK INTER + INTRA:          -1.622
REMARK INTER:                  -3.258
REMARK INTRA:                   1.636
REMARK UNBOUND:                 1.403
REMARK SMILES CC1=CCC(=C(C)C)C(=O)CC(C)=CCC1
REMARK SMILES IDX 12 1 14 2 13 3 15 4 16 5 2 6 1 7 3 8 11 10 9 11 10 12 5 13
REMARK SMILES IDX 6 14 7 15 8 16 4 17
REMARK H PARENT
REMARK Flexibility Score: 60.00
ROOT
ATOM      1  C   UNL     1      10.540 -34.462  13.041  1.00  0.00    -0.070 C 
ATOM      2  C   UNL     1      10.162 -35.766  13.106  1.00  0.00    -0.027 C 
ATOM      3  C   UNL     1      12.010 -34.161  13.198  1.00  0.00     0.039 C 
ENDROOT
BRANCH   2   4
ATOM      4  C   UNL     1       8.770 -36.302  12.875  1.00  0.00     0.032 C 
BRANCH   4   5
ATOM      5  C   UNL     1       7.665 -35.317  13.283  1.00  0.00     0.034 C 
BRANCH   5   6
ATOM      6  C   UNL     1       7.439 -35.374  14.781  1.00  0.00    -0.077 C 
ATOM      7  C   UNL     1       7.305 -36.727  15.433  1.00  0.00     0.039 C 
ATOM      8  C   UNL     1       7.275 -34.273  15.553  1.00  0.00    -0.023 CG0
ATOM      9  G   UNL     1       7.389 -32.843  15.083  1.00  0.00     0.000 G0
ENDBRANCH   5   6
ENDBRANCH   4   5
ENDBRANCH   2   4
BRANCH   1  10
ATOM     10  C   UNL     1       9.573 -33.291  12.903  1.00  0.00     0.111 C 
BRANCH  10  11
ATOM     11  C   UNL     1       9.690 -32.266  14.003  1.00  0.00     0.163 C 
ATOM     12  O   UNL     1      10.614 -31.412  13.910  1.00  0.00    -0.294 OA
BRANCH  11  13
ATOM     13  C   UNL     1       8.799 -32.265  15.211  1.00  0.00    -0.002 C 
ATOM     14  C   UNL     1       9.227 -31.727  16.395  1.00  0.00    -0.069 C 
ATOM     15  C   UNL     1       8.315 -31.627  17.599  1.00  0.00     0.039 C 
ATOM     16  C   UNL     1      10.650 -31.249  16.585  1.00  0.00     0.039 C 
BRANCH  13  17
ATOM     17  C   UNL     1       7.384 -32.825  15.078  1.00  0.00     0.066 CG0
ATOM     18  G   UNL     1       7.290 -34.255  15.557  1.00  0.00     0.000 G0
ENDBRANCH  13  17
ENDBRANCH  11  13
ENDBRANCH  10  11
ENDBRANCH   1  10
TORSDOF 0
ENDMDL
MODEL 6
REMARK VINA RESULT:    -2.008      1.335      3.908
REMARK INTER + INTRA:          -1.427
REMARK INTER:                  -3.469
REMARK INTRA:                   2.042
REMARK UNBOUND:                 1.403
REMARK SMILES CC1=CCC(=C(C)C)C(=O)CC(C)=CCC1
REMARK SMILES IDX 12 1 14 2 13 3 15 4 16 5 2 6 1 7 3 8 11 10 9 11 10 12 5 13
REMARK SMILES IDX 6 14 7 15 8 16 4 17
REMARK H PARENT
REMARK Flexibility Score: 60.00
ROOT
ATOM      1  C   UNL     1       7.157 -35.401  15.213  1.00  0.00    -0.070 C 
ATOM      2  C   UNL     1       7.209 -35.718  13.893  1.00  0.00    -0.027 C 
ATOM      3  C   UNL     1       6.027 -35.991  16.021  1.00  0.00     0.039 C 
ENDROOT
BRANCH   2   4
ATOM      4  C   UNL     1       8.300 -35.328  12.925  1.00  0.00     0.032 C 
BRANCH   4   5
ATOM      5  C   UNL     1       9.476 -36.317  12.906  1.00  0.00     0.034 C 
BRANCH   5   6
ATOM      6  C   UNL     1      10.792 -35.567  12.978  1.00  0.00    -0.077 C 
ATOM      7  C   UNL     1      12.069 -36.367  13.011  1.00  0.00     0.039 C 
ATOM      8  C   UNL     1      10.877 -34.220  13.094  1.00  0.00    -0.023 CG0
ATOM      9  G   UNL     1       9.714 -33.258  13.066  1.00  0.00     0.000 G0
ENDBRANCH   5   6
ENDBRANCH   4   5
ENDBRANCH   2   4
BRANCH   1  10
ATOM     10  C   UNL     1       8.112 -34.433  15.905  1.00  0.00     0.111 C 
BRANCH  10  11
ATOM     11  C   UNL     1       8.221 -33.090  15.228  1.00  0.00     0.163 C 
ATOM     12  O   UNL     1       7.205 -32.342  15.247  1.00  0.00    -0.294 OA
BRANCH  11  13
ATOM     13  C   UNL     1       9.453 -32.649  14.495  1.00  0.00    -0.002 C 
ATOM     14  C   UNL     1      10.350 -31.797  15.083  1.00  0.00    -0.069 C 
ATOM     15  C   UNL     1      11.647 -31.413  14.403  1.00  0.00     0.039 C 
ATOM     16  C   UNL     1      10.073 -31.150  16.423  1.00  0.00     0.039 C 
BRANCH  13  17
ATOM     17  C   UNL     1       9.718 -33.212  13.100  1.00  0.00     0.066 CG0
ATOM     18  G   UNL     1      10.873 -34.186  13.088  1.00  0.00     0.000 G0
ENDBRANCH  13  17
ENDBRANCH  11  13
ENDBRANCH  10  11
ENDBRANCH   1  10
TORSDOF 0
ENDMDL
MODEL 7
REMARK VINA RESULT:    -1.650      1.872      3.631
REMARK INTER + INTRA:          -0.921
REMARK INTER:                  -1.932
REMARK INTRA:                   1.011
REMARK UNBOUND:                 1.403
REMARK SMILES CC1=CCC(=C(C)C)C(=O)CC(C)=CCC1
REMARK SMILES IDX 12 1 14 2 13 3 15 4 16 5 2 6 1 7 3 8 11 10 9 11 10 12 5 13
REMARK SMILES IDX 6 14 7 15 8 16 4 17
REMARK H PARENT
REMARK Flexibility Score: 60.00
ROOT
ATOM      1  C   UNL     1       9.609 -34.728  13.058  1.00  0.00    -0.070 C 
ATOM      2  C   UNL     1      10.867 -34.220  13.130  1.00  0.00    -0.027 C 
ATOM      3  C   UNL     1       9.474 -36.230  12.997  1.00  0.00     0.039 C 
ENDROOT
BRANCH   2   4
ATOM      4  C   UNL     1      11.231 -32.765  13.302  1.00  0.00     0.032 C 
BRANCH   4   5
ATOM      5  C   UNL     1      10.053 -31.895  13.762  1.00  0.00     0.034 C 
BRANCH   5   6
ATOM      6  C   UNL     1      10.171 -31.595  15.244  1.00  0.00    -0.077 C 
ATOM      7  C   UNL     1      11.501 -31.124  15.773  1.00  0.00     0.039 C 
ATOM      8  C   UNL     1       9.167 -31.803  16.129  1.00  0.00    -0.023 CG0
ATOM      9  G   UNL     1       7.768 -32.255  15.784  1.00  0.00     0.000 G0
ENDBRANCH   5   6
ENDBRANCH   4   5
ENDBRANCH   2   4
BRANCH   1  10
ATOM     10  C   UNL     1       8.343 -33.884  12.954  1.00  0.00     0.111 C 
BRANCH  10  11
ATOM     11  C   UNL     1       7.348 -34.131  14.060  1.00  0.00     0.163 C 
ATOM     12  O   UNL     1       6.245 -34.657  13.747  1.00  0.00    -0.294 OA
BRANCH  11  13
ATOM     13  C   UNL     1       7.599 -33.725  15.483  1.00  0.00    -0.002 C 
ATOM     14  C   UNL     1       7.757 -34.670  16.462  1.00  0.00    -0.069 C 
ATOM     15  C   UNL     1       8.106 -34.289  17.885  1.00  0.00     0.039 C 
ATOM     16  C   UNL     1       7.542 -36.142  16.191  1.00  0.00     0.039 C 
BRANCH  13  17
ATOM     17  C   UNL     1       7.730 -32.239  15.809  1.00  0.00     0.066 CG0
ATOM     18  G   UNL     1       9.156 -31.847  16.118  1.00  0.00     0.000 G0
ENDBRANCH  13  17
ENDBRANCH  11  13
ENDBRANCH  10  11
ENDBRANCH   1  10
TORSDOF 0
ENDMDL
MODEL 8
REMARK VINA RESULT:    -1.236      2.034      4.409
REMARK INTER + INTRA:          -0.339
REMARK INTER:                  -3.105
REMARK INTRA:                   2.766
REMARK UNBOUND:                 1.403
REMARK SMILES CC1=CCC(=C(C)C)C(=O)CC(C)=CCC1
REMARK SMILES IDX 12 1 14 2 13 3 15 4 16 5 2 6 1 7 3 8 11 10 9 11 10 12 5 13
REMARK SMILES IDX 6 14 7 15 8 16 4 17
REMARK H PARENT
REMARK Flexibility Score: 60.00
ROOT
ATOM      1  C   UNL     1       8.718 -32.488  17.520  1.00  0.00    -0.070 C 
ATOM      2  C   UNL     1       8.278 -33.764  17.368  1.00  0.00    -0.027 C 
ATOM      3  C   UNL     1       8.946 -31.999  18.929  1.00  0.00     0.039 C 
ENDROOT
BRANCH   2   4
ATOM      4  C   UNL     1       8.082 -34.489  16.058  1.00  0.00     0.032 C 
BRANCH   4   5
ATOM      5  C   UNL     1       6.815 -34.054  15.307  1.00  0.00     0.034 C 
BRANCH   5   6
ATOM      6  C   UNL     1       7.186 -33.341  14.022  1.00  0.00    -0.077 C 
ATOM      7  C   UNL     1       6.075 -32.829  13.142  1.00  0.00     0.039 C 
ATOM      8  C   UNL     1       8.461 -33.209  13.584  1.00  0.00    -0.023 CG0
ATOM      9  G   UNL     1       9.699 -33.645  14.332  1.00  0.00     0.000 G0
ENDBRANCH   5   6
ENDBRANCH   4   5
ENDBRANCH   2   4
BRANCH   1  10
ATOM     10  C   UNL     1       8.916 -31.502  16.372  1.00  0.00     0.111 C 
BRANCH  10  11
ATOM     11  C   UNL     1      10.293 -31.546  15.757  1.00  0.00     0.163 C 
ATOM     12  O   UNL     1      11.148 -30.720  16.180  1.00  0.00    -0.294 OA
BRANCH  11  13
ATOM     13  C   UNL     1      10.653 -32.480  14.639  1.00  0.00    -0.002 C 
ATOM     14  C   UNL     1      11.821 -32.320  13.943  1.00  0.00    -0.069 C 
ATOM     15  C   UNL     1      12.253 -33.305  12.878  1.00  0.00     0.039 C 
ATOM     16  C   UNL     1      12.722 -31.125  14.164  1.00  0.00     0.039 C 
BRANCH  13  17
ATOM     17  C   UNL     1       9.717 -33.647  14.329  1.00  0.00     0.066 CG0
ATOM     18  G   UNL     1       8.486 -33.206  13.573  1.00  0.00     0.000 G0
ENDBRANCH  13  17
ENDBRANCH  11  13
ENDBRANCH  10  11
ENDBRANCH   1  10
TORSDOF 0
ENDMDL
MODEL 9
REMARK VINA RESULT:    -0.915      1.524      2.072
REMARK INTER + INTRA:           0.114
REMARK INTER:                  -2.449
REMARK INTRA:                   2.563
REMARK UNBOUND:                 1.403
REMARK SMILES CC1=CCC(=C(C)C)C(=O)CC(C)=CCC1
REMARK SMILES IDX 12 1 14 2 13 3 15 4 16 5 2 6 1 7 3 8 11 10 9 11 10 12 5 13
REMARK SMILES IDX 6 14 7 15 8 16 4 17
REMARK H PARENT
REMARK Flexibility Score: 60.00
ROOT
ATOM      1  C   UNL     1       9.446 -31.273  17.922  1.00  0.00    -0.070 C 
ATOM      2  C   UNL     1      10.494 -30.908  17.138  1.00  0.00    -0.027 C 
ATOM      3  C   UNL     1       9.629 -31.157  19.416  1.00  0.00     0.039 C 
ENDROOT
BRANCH   2   4
ATOM      4  C   UNL     1      10.497 -30.845  15.629  1.00  0.00     0.032 C 
BRANCH   4   5
ATOM      5  C   UNL     1      11.761 -31.451  15.000  1.00  0.00     0.034 C 
BRANCH   5   6
ATOM      6  C   UNL     1      11.382 -32.448  13.923  1.00  0.00    -0.077 C 
ATOM      7  C   UNL     1      12.479 -33.017  13.059  1.00  0.00     0.039 C 
ATOM      8  C   UNL     1      10.103 -32.796  13.644  1.00  0.00    -0.023 CG0
ATOM      9  G   UNL     1       8.881 -32.343  14.407  1.00  0.00     0.000 G0
ENDBRANCH   5   6
ENDBRANCH   4   5
ENDBRANCH   2   4
BRANCH   1  10
ATOM     10  C   UNL     1       8.141 -31.864  17.398  1.00  0.00     0.111 C 
BRANCH  10  11
ATOM     11  C   UNL     1       8.294 -33.225  16.767  1.00  0.00     0.163 C 
ATOM     12  O   UNL     1       8.488 -34.207  17.536  1.00  0.00    -0.294 OA
BRANCH  11  13
ATOM     13  C   UNL     1       8.283 -33.437  15.282  1.00  0.00    -0.002 C 
ATOM     14  C   UNL     1       7.716 -34.560  14.740  1.00  0.00    -0.069 C 
ATOM     15  C   UNL     1       7.606 -34.752  13.242  1.00  0.00     0.039 C 
ATOM     16  C   UNL     1       7.214 -35.696  15.605  1.00  0.00     0.039 C 
BRANCH  13  17
ATOM     17  C   UNL     1       8.866 -32.350  14.381  1.00  0.00     0.066 CG0
ATOM     18  G   UNL     1      10.102 -32.817  13.650  1.00  0.00     0.000 G0
ENDBRANCH  13  17
ENDBRANCH  11  13
ENDBRANCH  10  11
ENDBRANCH   1  10
TORSDOF 0
ENDMDL
