MODEL 1
REMARK VINA RESULT:    -5.013      0.000      0.000
REMARK INTER + INTRA:          -7.276
REMARK INTER:                  -7.650
REMARK INTRA:                   0.375
REMARK UNBOUND:                 0.375
REMARK SMILES CC1=CCC[C@H](C)C(=O)C[C@@H](C(C)C)C(=O)C1
REMARK SMILES IDX 8 1 9 2 6 3 7 4 5 5 4 6 3 7 2 8 1 9 10 11 11 12 15 13 16 14
REMARK SMILES IDX 17 15 12 17 13 18 14 19
REMARK H PARENT
REMARK Flexibility Score: 70.00
ROOT
ATOM      1  C   UNL     1     -15.685  36.969  12.656  1.00  0.00     0.136 C 
ATOM      2  O   UNL     1     -15.271  36.578  11.573  1.00  0.00    -0.299 OA
ENDROOT
BRANCH   1   3
ATOM      3  C   UNL     1     -15.168  38.278  13.221  1.00  0.00     0.053 C 
ATOM      4  C   UNL     1     -13.944  38.755  12.426  1.00  0.00     0.016 C 
BRANCH   3   5
ATOM      5  C   UNL     1     -16.284  39.350  13.211  1.00  0.00     0.015 C 
BRANCH   5   6
ATOM      6  C   UNL     1     -16.343  40.119  14.545  1.00  0.00     0.028 C 
BRANCH   6   7
ATOM      7  C   UNL     1     -16.811  39.274  15.704  1.00  0.00    -0.028 C 
ATOM      8  C   UNL     1     -17.856  38.408  15.681  1.00  0.00    -0.070 CG0
ATOM      9  C   UNL     1     -18.100  37.574  16.915  1.00  0.00     0.039 C 
ATOM     10  G   UNL     1     -18.818  38.274  14.507  1.00  0.00     0.000 G0
ENDBRANCH   6   7
ENDBRANCH   5   6
ENDBRANCH   3   5
ENDBRANCH   1   3
BRANCH   1  11
ATOM     11  C   UNL     1     -16.684  36.117  13.407  1.00  0.00     0.087 C 
BRANCH  11  12
ATOM     12  C   UNL     1     -18.132  36.324  12.885  1.00  0.00     0.066 C 
BRANCH  12  13
ATOM     13  C   UNL     1     -19.002  36.867  14.011  1.00  0.00     0.140 C 
ATOM     14  O   UNL     1     -19.885  36.170  14.492  1.00  0.00    -0.299 OA
BRANCH  13  15
ATOM     15  C   UNL     1     -18.811  38.281  14.500  1.00  0.00     0.106 CG0
ATOM     16  G   UNL     1     -17.874  38.404  15.696  1.00  0.00     0.000 G0
ENDBRANCH  13  15
ENDBRANCH  12  13
BRANCH  12  17
ATOM     17  C   UNL     1     -18.754  35.029  12.264  1.00  0.00    -0.006 C 
ATOM     18  C   UNL     1     -18.826  35.135  10.728  1.00  0.00     0.008 C 
ATOM     19  C   UNL     1     -17.963  33.760  12.632  1.00  0.00     0.008 C 
ENDBRANCH  12  17
ENDBRANCH  11  12
ENDBRANCH   1  11
TORSDOF 1
ENDMDL
MODEL 2
REMARK VINA RESULT:    -4.675      1.604      4.348
REMARK INTER + INTRA:          -6.760
REMARK INTER:                  -7.153
REMARK INTRA:                   0.393
REMARK UNBOUND:                 0.375
REMARK SMILES CC1=CCC[C@H](C)C(=O)C[C@@H](C(C)C)C(=O)C1
REMARK SMILES IDX 8 1 9 2 6 3 7 4 5 5 4 6 3 7 2 8 1 9 10 11 11 12 15 13 16 14
REMARK SMILES IDX 17 15 12 17 13 18 14 19
REMARK H PARENT
REMARK Flexibility Score: 70.00
ROOT
ATOM      1  C   UNL     1     -17.235  37.112  11.331  1.00  0.00     0.136 C 
ATOM      2  O   UNL     1     -16.096  36.728  11.107  1.00  0.00    -0.299 OA
ENDROOT
BRANCH   1   3
ATOM      3  C   UNL     1     -18.409  36.264  10.880  1.00  0.00     0.053 C 
ATOM      4  C   UNL     1     -18.711  36.517   9.397  1.00  0.00     0.016 C 
BRANCH   3   5
ATOM      5  C   UNL     1     -18.124  34.765  11.138  1.00  0.00     0.015 C 
BRANCH   5   6
ATOM      6  C   UNL     1     -18.024  34.458  12.645  1.00  0.00     0.028 C 
BRANCH   6   7
ATOM      7  C   UNL     1     -19.228  34.918  13.431  1.00  0.00    -0.028 C 
ATOM      8  C   UNL     1     -19.233  35.898  14.369  1.00  0.00    -0.070 CG0
ATOM      9  C   UNL     1     -20.563  36.284  14.968  1.00  0.00     0.039 C 
ATOM     10  G   UNL     1     -17.974  36.586  14.882  1.00  0.00     0.000 G0
ENDBRANCH   6   7
ENDBRANCH   5   6
ENDBRANCH   3   5
ENDBRANCH   1   3
BRANCH   1  11
ATOM     11  C   UNL     1     -17.434  38.438  12.032  1.00  0.00     0.087 C 
BRANCH  11  12
ATOM     12  C   UNL     1     -16.800  38.447  13.450  1.00  0.00     0.066 C 
BRANCH  12  13
ATOM     13  C   UNL     1     -17.849  38.038  14.475  1.00  0.00     0.140 C 
ATOM     14  O   UNL     1     -18.563  38.888  14.991  1.00  0.00    -0.299 OA
BRANCH  13  15
ATOM     15  C   UNL     1     -17.976  36.594  14.893  1.00  0.00     0.106 CG0
ATOM     16  G   UNL     1     -19.227  35.903  14.365  1.00  0.00     0.000 G0
ENDBRANCH  13  15
ENDBRANCH  12  13
BRANCH  12  17
ATOM     17  C   UNL     1     -16.147  39.819  13.824  1.00  0.00    -0.006 C 
ATOM     18  C   UNL     1     -15.920  39.925  15.346  1.00  0.00     0.008 C 
ATOM     19  C   UNL     1     -14.803  40.047  13.110  1.00  0.00     0.008 C 
ENDBRANCH  12  17
ENDBRANCH  11  12
ENDBRANCH   1  11
TORSDOF 1
ENDMDL
MODEL 3
REMARK VINA RESULT:    -4.568     16.737     19.526
REMARK INTER + INTRA:          -6.597
REMARK INTER:                  -7.690
REMARK INTRA:                   1.093
REMARK UNBOUND:                 0.375
REMARK SMILES CC1=CCC[C@H](C)C(=O)C[C@@H](C(C)C)C(=O)C1
REMARK SMILES IDX 8 1 9 2 6 3 7 4 5 5 4 6 3 7 2 8 1 9 10 11 11 12 15 13 16 14
REMARK SMILES IDX 17 15 12 17 13 18 14 19
REMARK H PARENT
REMARK Flexibility Score: 70.00
ROOT
ATOM      1  C   UNL     1     -27.885  23.550  13.978  1.00  0.00     0.136 C 
ATOM      2  O   UNL     1     -26.772  23.581  14.484  1.00  0.00    -0.299 OA
ENDROOT
BRANCH   1   3
ATOM      3  C   UNL     1     -28.109  24.211  12.631  1.00  0.00     0.053 C 
ATOM      4  C   UNL     1     -27.918  25.730  12.743  1.00  0.00     0.016 C 
BRANCH   3   5
ATOM      5  C   UNL     1     -27.154  23.612  11.571  1.00  0.00     0.015 C 
BRANCH   5   6
ATOM      6  C   UNL     1     -27.910  22.720  10.566  1.00  0.00     0.028 C 
BRANCH   6   7
ATOM      7  C   UNL     1     -29.410  22.780  10.723  1.00  0.00    -0.028 C 
ATOM      8  C   UNL     1     -30.156  21.966  11.513  1.00  0.00    -0.070 CG0
ATOM      9  C   UNL     1     -31.633  22.255  11.615  1.00  0.00     0.039 C 
ATOM     10  G   UNL     1     -29.594  20.757  12.251  1.00  0.00     0.000 G0
ENDBRANCH   6   7
ENDBRANCH   5   6
ENDBRANCH   3   5
ENDBRANCH   1   3
BRANCH   1  11
ATOM     11  C   UNL     1     -29.011  22.873  14.728  1.00  0.00     0.087 C 
BRANCH  11  12
ATOM     12  C   UNL     1     -28.870  21.326  14.715  1.00  0.00     0.066 C 
BRANCH  12  13
ATOM     13  C   UNL     1     -29.879  20.735  13.740  1.00  0.00     0.140 C 
ATOM     14  O   UNL     1     -30.901  20.211  14.161  1.00  0.00    -0.299 OA
BRANCH  13  15
ATOM     15  C   UNL     1     -29.596  20.750  12.258  1.00  0.00     0.106 CG0
ATOM     16  G   UNL     1     -30.161  21.963  11.530  1.00  0.00     0.000 G0
ENDBRANCH  13  15
ENDBRANCH  12  13
BRANCH  12  17
ATOM     17  C   UNL     1     -29.012  20.683  16.135  1.00  0.00    -0.006 C 
ATOM     18  C   UNL     1     -28.230  21.494  17.188  1.00  0.00     0.008 C 
ATOM     19  C   UNL     1     -30.479  20.574  16.590  1.00  0.00     0.008 C 
ENDBRANCH  12  17
ENDBRANCH  11  12
ENDBRANCH   1  11
TORSDOF 1
ENDMDL
MODEL 4
REMARK VINA RESULT:    -4.568      1.979      4.527
REMARK INTER + INTRA:          -6.597
REMARK INTER:                  -6.650
REMARK INTRA:                   0.054
REMARK UNBOUND:                 0.375
REMARK SMILES CC1=CCC[C@H](C)C(=O)C[C@@H](C(C)C)C(=O)C1
REMARK SMILES IDX 8 1 9 2 6 3 7 4 5 5 4 6 3 7 2 8 1 9 10 11 11 12 15 13 16 14
REMARK SMILES IDX 17 15 12 17 13 18 14 19
REMARK H PARENT
REMARK Flexibility Score: 70.00
ROOT
ATOM      1  C   UNL     1     -16.550  38.583  15.687  1.00  0.00     0.136 C 
ATOM      2  O   UNL     1     -15.823  39.508  16.022  1.00  0.00    -0.299 OA
ENDROOT
BRANCH   1   3
ATOM      3  C   UNL     1     -17.862  38.366  16.417  1.00  0.00     0.053 C 
ATOM      4  C   UNL     1     -18.129  39.523  17.389  1.00  0.00     0.016 C 
BRANCH   3   5
ATOM      5  C   UNL     1     -19.023  38.213  15.406  1.00  0.00     0.015 C 
BRANCH   5   6
ATOM      6  C   UNL     1     -19.492  36.749  15.299  1.00  0.00     0.028 C 
BRANCH   6   7
ATOM      7  C   UNL     1     -19.982  36.376  13.921  1.00  0.00    -0.028 C 
ATOM      8  C   UNL     1     -19.198  36.015  12.873  1.00  0.00    -0.070 CG0
ATOM      9  C   UNL     1     -19.886  35.576  11.605  1.00  0.00     0.039 C 
ATOM     10  G   UNL     1     -17.675  36.079  12.894  1.00  0.00     0.000 G0
ENDBRANCH   6   7
ENDBRANCH   5   6
ENDBRANCH   3   5
ENDBRANCH   1   3
BRANCH   1  11
ATOM     11  C   UNL     1     -16.101  37.670  14.567  1.00  0.00     0.087 C 
BRANCH  11  12
ATOM     12  C   UNL     1     -16.321  38.312  13.170  1.00  0.00     0.066 C 
BRANCH  12  13
ATOM     13  C   UNL     1     -17.112  37.352  12.292  1.00  0.00     0.140 C 
ATOM     14  O   UNL     1     -17.329  37.632  11.121  1.00  0.00    -0.299 OA
BRANCH  13  15
ATOM     15  C   UNL     1     -17.671  36.078  12.876  1.00  0.00     0.106 CG0
ATOM     16  G   UNL     1     -19.193  36.008  12.872  1.00  0.00     0.000 G0
ENDBRANCH  13  15
ENDBRANCH  12  13
BRANCH  12  17
ATOM     17  C   UNL     1     -14.988  38.747  12.476  1.00  0.00    -0.006 C 
ATOM     18  C   UNL     1     -14.467  40.074  13.064  1.00  0.00     0.008 C 
ATOM     19  C   UNL     1     -13.881  37.685  12.606  1.00  0.00     0.008 C 
ENDBRANCH  12  17
ENDBRANCH  11  12
ENDBRANCH   1  11
TORSDOF 1
ENDMDL
MODEL 5
REMARK VINA RESULT:    -4.565      1.475      2.137
REMARK INTER + INTRA:          -6.592
REMARK INTER:                  -7.452
REMARK INTRA:                   0.860
REMARK UNBOUND:                 0.375
REMARK SMILES CC1=CCC[C@H](C)C(=O)C[C@@H](C(C)C)C(=O)C1
REMARK SMILES IDX 8 1 9 2 6 3 7 4 5 5 4 6 3 7 2 8 1 9 10 11 11 12 15 13 16 14
REMARK SMILES IDX 17 15 12 17 13 18 14 19
REMARK H PARENT
REMARK Flexibility Score: 70.00
ROOT
ATOM      1  C   UNL     1     -15.268  37.440  12.543  1.00  0.00     0.136 C 
ATOM      2  O   UNL     1     -14.389  36.613  12.741  1.00  0.00    -0.299 OA
ENDROOT
BRANCH   1   3
ATOM      3  C   UNL     1     -15.278  38.724  13.350  1.00  0.00     0.053 C 
ATOM      4  C   UNL     1     -14.382  39.778  12.684  1.00  0.00     0.016 C 
BRANCH   3   5
ATOM      5  C   UNL     1     -16.724  39.250  13.511  1.00  0.00     0.015 C 
BRANCH   5   6
ATOM      6  C   UNL     1     -17.224  39.098  14.961  1.00  0.00     0.028 C 
BRANCH   6   7
ATOM      7  C   UNL     1     -18.506  38.311  15.073  1.00  0.00    -0.028 C 
ATOM      8  C   UNL     1     -18.611  36.958  15.035  1.00  0.00    -0.070 CG0
ATOM      9  C   UNL     1     -19.974  36.356  15.271  1.00  0.00     0.039 C 
ATOM     10  G   UNL     1     -17.446  36.028  14.718  1.00  0.00     0.000 G0
ENDBRANCH   6   7
ENDBRANCH   5   6
ENDBRANCH   3   5
ENDBRANCH   1   3
BRANCH   1  11
ATOM     11  C   UNL     1     -16.335  37.140  11.512  1.00  0.00     0.087 C 
BRANCH  11  12
ATOM     12  C   UNL     1     -17.661  36.669  12.170  1.00  0.00     0.066 C 
BRANCH  12  13
ATOM     13  C   UNL     1     -17.353  35.639  13.248  1.00  0.00     0.140 C 
ATOM     14  O   UNL     1     -17.058  34.494  12.933  1.00  0.00    -0.299 OA
BRANCH  13  15
ATOM     15  C   UNL     1     -17.460  36.014  14.705  1.00  0.00     0.106 CG0
ATOM     16  G   UNL     1     -18.612  36.961  15.021  1.00  0.00     0.000 G0
ENDBRANCH  13  15
ENDBRANCH  12  13
BRANCH  12  17
ATOM     17  C   UNL     1     -18.697  36.115  11.136  1.00  0.00    -0.006 C 
ATOM     18  C   UNL     1     -20.032  35.767  11.826  1.00  0.00     0.008 C 
ATOM     19  C   UNL     1     -18.979  37.106   9.993  1.00  0.00     0.008 C 
ENDBRANCH  12  17
ENDBRANCH  11  12
ENDBRANCH   1  11
TORSDOF 1
ENDMDL
MODEL 6
REMARK VINA RESULT:    -4.482      2.046      5.359
REMARK INTER + INTRA:          -6.465
REMARK INTER:                  -7.214
REMARK INTRA:                   0.749
REMARK UNBOUND:                 0.375
REMARK SMILES CC1=CCC[C@H](C)C(=O)C[C@@H](C(C)C)C(=O)C1
REMARK SMILES IDX 8 1 9 2 6 3 7 4 5 5 4 6 3 7 2 8 1 9 10 11 11 12 15 13 16 14
REMARK SMILES IDX 17 15 12 17 13 18 14 19
REMARK H PARENT
REMARK Flexibility Score: 70.00
ROOT
ATOM      1  C   UNL     1     -18.388  37.247  15.180  1.00  0.00     0.136 C 
ATOM      2  O   UNL     1     -18.649  38.123  15.993  1.00  0.00    -0.299 OA
ENDROOT
BRANCH   1   3
ATOM      3  C   UNL     1     -19.330  36.068  15.028  1.00  0.00     0.053 C 
ATOM      4  C   UNL     1     -20.777  36.503  15.298  1.00  0.00     0.016 C 
BRANCH   3   5
ATOM      5  C   UNL     1     -19.195  35.447  13.617  1.00  0.00     0.015 C 
BRANCH   5   6
ATOM      6  C   UNL     1     -20.005  36.237  12.570  1.00  0.00     0.028 C 
BRANCH   6   7
ATOM      7  C   UNL     1     -19.641  35.893  11.146  1.00  0.00    -0.028 C 
ATOM      8  C   UNL     1     -18.745  36.559  10.375  1.00  0.00    -0.070 CG0
ATOM      9  C   UNL     1     -18.442  35.994   9.010  1.00  0.00     0.039 C 
ATOM     10  G   UNL     1     -18.077  37.864  10.791  1.00  0.00     0.000 G0
ENDBRANCH   6   7
ENDBRANCH   5   6
ENDBRANCH   3   5
ENDBRANCH   1   3
BRANCH   1  11
ATOM     11  C   UNL     1     -17.115  37.359  14.369  1.00  0.00     0.087 C 
BRANCH  11  12
ATOM     12  C   UNL     1     -17.244  38.402  13.226  1.00  0.00     0.066 C 
BRANCH  12  13
ATOM     13  C   UNL     1     -17.036  37.710  11.885  1.00  0.00     0.140 C 
ATOM     14  O   UNL     1     -16.014  37.068  11.681  1.00  0.00    -0.299 OA
BRANCH  13  15
ATOM     15  C   UNL     1     -18.064  37.855  10.792  1.00  0.00     0.106 CG0
ATOM     16  G   UNL     1     -18.754  36.551  10.409  1.00  0.00     0.000 G0
ENDBRANCH  13  15
ENDBRANCH  12  13
BRANCH  12  17
ATOM     17  C   UNL     1     -16.276  39.620  13.391  1.00  0.00    -0.006 C 
ATOM     18  C   UNL     1     -16.187  40.058  14.866  1.00  0.00     0.008 C 
ATOM     19  C   UNL     1     -14.854  39.316  12.883  1.00  0.00     0.008 C 
ENDBRANCH  12  17
ENDBRANCH  11  12
ENDBRANCH   1  11
TORSDOF 1
ENDMDL
MODEL 7
REMARK VINA RESULT:    -4.364     16.914     19.756
REMARK INTER + INTRA:          -6.286
REMARK INTER:                  -6.610
REMARK INTRA:                   0.325
REMARK UNBOUND:                 0.375
REMARK SMILES CC1=CCC[C@H](C)C(=O)C[C@@H](C(C)C)C(=O)C1
REMARK SMILES IDX 8 1 9 2 6 3 7 4 5 5 4 6 3 7 2 8 1 9 10 11 11 12 15 13 16 14
REMARK SMILES IDX 17 15 12 17 13 18 14 19
REMARK H PARENT
REMARK Flexibility Score: 70.00
ROOT
ATOM      1  C   UNL     1     -27.305  22.766  14.513  1.00  0.00     0.136 C 
ATOM      2  O   UNL     1     -26.731  23.718  15.024  1.00  0.00    -0.299 OA
ENDROOT
BRANCH   1   3
ATOM      3  C   UNL     1     -27.670  21.569  15.371  1.00  0.00     0.053 C 
ATOM      4  C   UNL     1     -28.241  22.034  16.718  1.00  0.00     0.016 C 
BRANCH   3   5
ATOM      5  C   UNL     1     -28.678  20.660  14.629  1.00  0.00     0.015 C 
BRANCH   5   6
ATOM      6  C   UNL     1     -30.126  20.932  15.080  1.00  0.00     0.028 C 
BRANCH   6   7
ATOM      7  C   UNL     1     -31.162  20.290  14.190  1.00  0.00    -0.028 C 
ATOM      8  C   UNL     1     -31.637  20.806  13.029  1.00  0.00    -0.070 CG0
ATOM      9  C   UNL     1     -32.594  19.959  12.227  1.00  0.00     0.039 C 
ATOM     10  G   UNL     1     -31.299  22.204  12.523  1.00  0.00     0.000 G0
ENDBRANCH   6   7
ENDBRANCH   5   6
ENDBRANCH   3   5
ENDBRANCH   1   3
BRANCH   1  11
ATOM     11  C   UNL     1     -27.611  22.806  13.032  1.00  0.00     0.087 C 
BRANCH  11  12
ATOM     12  C   UNL     1     -29.003  23.431  12.743  1.00  0.00     0.066 C 
BRANCH  12  13
ATOM     13  C   UNL     1     -29.888  22.399  12.059  1.00  0.00     0.140 C 
ATOM     14  O   UNL     1     -29.454  21.749  11.116  1.00  0.00    -0.299 OA
BRANCH  13  15
ATOM     15  C   UNL     1     -31.316  22.210  12.508  1.00  0.00     0.106 CG0
ATOM     16  G   UNL     1     -31.628  20.807  13.014  1.00  0.00     0.000 G0
ENDBRANCH  13  15
ENDBRANCH  12  13
BRANCH  12  17
ATOM     17  C   UNL     1     -28.922  24.751  11.906  1.00  0.00    -0.006 C 
ATOM     18  C   UNL     1     -28.596  25.958  12.809  1.00  0.00     0.008 C 
ATOM     19  C   UNL     1     -27.869  24.677  10.786  1.00  0.00     0.008 C 
ENDBRANCH  12  17
ENDBRANCH  11  12
ENDBRANCH   1  11
TORSDOF 1
ENDMDL
MODEL 8
REMARK VINA RESULT:    -4.332      1.444      2.321
REMARK INTER + INTRA:          -6.237
REMARK INTER:                  -6.703
REMARK INTRA:                   0.467
REMARK UNBOUND:                 0.375
REMARK SMILES CC1=CCC[C@H](C)C(=O)C[C@@H](C(C)C)C(=O)C1
REMARK SMILES IDX 8 1 9 2 6 3 7 4 5 5 4 6 3 7 2 8 1 9 10 11 11 12 15 13 16 14
REMARK SMILES IDX 17 15 12 17 13 18 14 19
REMARK H PARENT
REMARK Flexibility Score: 70.00
ROOT
ATOM      1  C   UNL     1     -16.784  35.765  12.165  1.00  0.00     0.136 C 
ATOM      2  O   UNL     1     -16.707  34.739  11.502  1.00  0.00    -0.299 OA
ENDROOT
BRANCH   1   3
ATOM      3  C   UNL     1     -16.412  37.091  11.530  1.00  0.00     0.053 C 
ATOM      4  C   UNL     1     -17.676  37.884  11.171  1.00  0.00     0.016 C 
BRANCH   3   5
ATOM      5  C   UNL     1     -15.499  37.906  12.477  1.00  0.00     0.015 C 
BRANCH   5   6
ATOM      6  C   UNL     1     -16.215  39.163  13.011  1.00  0.00     0.028 C 
BRANCH   6   7
ATOM      7  C   UNL     1     -15.853  39.497  14.438  1.00  0.00    -0.028 C 
ATOM      8  C   UNL     1     -16.628  39.261  15.526  1.00  0.00    -0.070 CG0
ATOM      9  C   UNL     1     -16.043  39.572  16.881  1.00  0.00     0.039 C 
ATOM     10  G   UNL     1     -18.063  38.753  15.449  1.00  0.00     0.000 G0
ENDBRANCH   6   7
ENDBRANCH   5   6
ENDBRANCH   3   5
ENDBRANCH   1   3
BRANCH   1  11
ATOM     11  C   UNL     1     -17.227  35.671  13.608  1.00  0.00     0.087 C 
BRANCH  11  12
ATOM     12  C   UNL     1     -18.395  36.646  13.923  1.00  0.00     0.066 C 
BRANCH  12  13
ATOM     13  C   UNL     1     -18.185  37.256  15.302  1.00  0.00     0.140 C 
ATOM     14  O   UNL     1     -18.161  36.537  16.292  1.00  0.00    -0.299 OA
BRANCH  13  15
ATOM     15  C   UNL     1     -18.058  38.751  15.456  1.00  0.00     0.106 CG0
ATOM     16  G   UNL     1     -16.620  39.247  15.549  1.00  0.00     0.000 G0
ENDBRANCH  13  15
ENDBRANCH  12  13
BRANCH  12  17
ATOM     17  C   UNL     1     -19.804  35.977  13.808  1.00  0.00    -0.006 C 
ATOM     18  C   UNL     1     -20.859  36.771  14.604  1.00  0.00     0.008 C 
ATOM     19  C   UNL     1     -20.282  35.852  12.349  1.00  0.00     0.008 C 
ENDBRANCH  12  17
ENDBRANCH  11  12
ENDBRANCH   1  11
TORSDOF 1
ENDMDL
MODEL 9
REMARK VINA RESULT:    -4.294     16.707     18.759
REMARK INTER + INTRA:          -6.178
REMARK INTER:                  -6.673
REMARK INTRA:                   0.495
REMARK UNBOUND:                 0.375
REMARK SMILES CC1=CCC[C@H](C)C(=O)C[C@@H](C(C)C)C(=O)C1
REMARK SMILES IDX 8 1 9 2 6 3 7 4 5 5 4 6 3 7 2 8 1 9 10 11 11 12 15 13 16 14
REMARK SMILES IDX 17 15 12 17 13 18 14 19
REMARK H PARENT
REMARK Flexibility Score: 70.00
ROOT
ATOM      1  C   UNL     1     -28.814  24.877  12.467  1.00  0.00     0.136 C 
ATOM      2  O   UNL     1     -29.782  25.594  12.677  1.00  0.00    -0.299 OA
ENDROOT
BRANCH   1   3
ATOM      3  C   UNL     1     -28.638  24.246  11.099  1.00  0.00     0.053 C 
ATOM      4  C   UNL     1     -27.244  24.562  10.541  1.00  0.00     0.016 C 
BRANCH   3   5
ATOM      5  C   UNL     1     -28.869  22.718  11.176  1.00  0.00     0.015 C 
BRANCH   5   6
ATOM      6  C   UNL     1     -30.330  22.382  11.531  1.00  0.00     0.028 C 
BRANCH   6   7
ATOM      7  C   UNL     1     -30.465  21.195  12.454  1.00  0.00    -0.028 C 
ATOM      8  C   UNL     1     -30.408  21.236  13.809  1.00  0.00    -0.070 CG0
ATOM      9  C   UNL     1     -30.672  19.954  14.558  1.00  0.00     0.039 C 
ATOM     10  G   UNL     1     -30.044  22.485  14.603  1.00  0.00     0.000 G0
ENDBRANCH   6   7
ENDBRANCH   5   6
ENDBRANCH   3   5
ENDBRANCH   1   3
BRANCH   1  11
ATOM     11  C   UNL     1     -27.833  24.625  13.592  1.00  0.00     0.087 C 
BRANCH  11  12
ATOM     12  C   UNL     1     -27.604  23.108  13.833  1.00  0.00     0.066 C 
BRANCH  12  13
ATOM     13  C   UNL     1     -28.568  22.617  14.905  1.00  0.00     0.140 C 
ATOM     14  O   UNL     1     -28.143  22.286  16.004  1.00  0.00    -0.299 OA
BRANCH  13  15
ATOM     15  C   UNL     1     -30.039  22.489  14.599  1.00  0.00     0.106 CG0
ATOM     16  G   UNL     1     -30.404  21.235  13.814  1.00  0.00     0.000 G0
ENDBRANCH  13  15
ENDBRANCH  12  13
BRANCH  12  17
ATOM     17  C   UNL     1     -26.124  22.760  14.201  1.00  0.00    -0.006 C 
ATOM     18  C   UNL     1     -25.214  22.838  12.958  1.00  0.00     0.008 C 
ATOM     19  C   UNL     1     -25.551  23.688  15.288  1.00  0.00     0.008 C 
ENDBRANCH  12  17
ENDBRANCH  11  12
ENDBRANCH   1  11
TORSDOF 1
ENDMDL
