MODEL 1
REMARK VINA RESULT:    -5.614      0.000      0.000
REMARK INTER + INTRA:          -8.435
REMARK INTER:                  -7.583
REMARK INTRA:                  -0.852
REMARK UNBOUND:                -0.852
REMARK SMILES CC(=O)CCC=C(C)CCC=C(C)C
REMARK SMILES IDX 7 1 6 2 8 3 9 4 10 5 11 6 13 7 12 8 14 9 5 10 4 11 2 12 3 13
REMARK SMILES IDX 1 14
REMARK H PARENT
REMARK Flexibility Score: inf
ROOT
ATOM      1  C   UNL     1      21.629  28.054 -16.230  1.00  0.00    -0.077 C 
ATOM      2  C   UNL     1      21.681  29.298 -16.759  1.00  0.00    -0.028 C 
ATOM      3  C   UNL     1      22.871  27.331 -15.767  1.00  0.00     0.039 C 
ENDROOT
BRANCH   1   4
ATOM      4  C   UNL     1      20.287  27.364 -16.115  1.00  0.00     0.034 C 
BRANCH   4   5
ATOM      5  C   UNL     1      19.214  28.344 -15.624  1.00  0.00     0.032 C 
BRANCH   5   6
ATOM      6  C   UNL     1      18.318  27.689 -14.604  1.00  0.00    -0.028 C 
ATOM      7  C   UNL     1      19.699  28.460 -12.662  1.00  0.00     0.039 C 
ATOM      8  C   UNL     1      18.536  27.712 -13.270  1.00  0.00    -0.080 C 
ATOM      9  C   UNL     1      17.574  26.977 -12.373  1.00  0.00     0.039 C 
ENDBRANCH   5   6
ENDBRANCH   4   5
ENDBRANCH   1   4
BRANCH   2  10
ATOM     10  C   UNL     1      22.933  30.137 -16.853  1.00  0.00     0.035 C 
BRANCH  10  11
ATOM     11  C   UNL     1      23.360  30.350 -18.311  1.00  0.00     0.079 C 
BRANCH  11  12
ATOM     12  C   UNL     1      24.481  29.421 -18.702  1.00  0.00     0.130 C 
ATOM     13  O   UNL     1      25.636  29.815 -18.650  1.00  0.00    -0.300 OA
ATOM     14  C   UNL     1      24.206  28.016 -19.150  1.00  0.00     0.087 C 
ENDBRANCH  11  12
ENDBRANCH  10  11
ENDBRANCH   2  10
TORSDOF 6
ENDMDL
MODEL 2
REMARK VINA RESULT:    -5.392      1.294      1.736
REMARK INTER + INTRA:          -8.136
REMARK INTER:                  -7.504
REMARK INTRA:                  -0.632
REMARK UNBOUND:                -0.852
REMARK SMILES CC(=O)CCC=C(C)CCC=C(C)C
REMARK SMILES IDX 7 1 6 2 8 3 9 4 10 5 11 6 13 7 12 8 14 9 5 10 4 11 2 12 3 13
REMARK SMILES IDX 1 14
REMARK H PARENT
REMARK Flexibility Score: inf
ROOT
ATOM      1  C   UNL     1      21.374  28.593 -16.318  1.00  0.00    -0.077 C 
ATOM      2  C   UNL     1      21.134  28.898 -17.614  1.00  0.00    -0.028 C 
ATOM      3  C   UNL     1      22.621  29.063 -15.605  1.00  0.00     0.039 C 
ENDROOT
BRANCH   1   4
ATOM      4  C   UNL     1      20.372  27.744 -15.569  1.00  0.00     0.034 C 
BRANCH   4   5
ATOM      5  C   UNL     1      19.049  28.499 -15.389  1.00  0.00     0.032 C 
BRANCH   5   6
ATOM      6  C   UNL     1      18.444  28.205 -14.039  1.00  0.00    -0.028 C 
ATOM      7  C   UNL     1      17.336  26.098 -14.817  1.00  0.00     0.039 C 
ATOM      8  C   UNL     1      17.652  27.143 -13.773  1.00  0.00    -0.080 C 
ATOM      9  C   UNL     1      17.086  27.000 -12.384  1.00  0.00     0.039 C 
ENDBRANCH   5   6
ENDBRANCH   4   5
ENDBRANCH   1   4
BRANCH   2  10
ATOM     10  C   UNL     1      21.999  29.806 -18.455  1.00  0.00     0.035 C 
BRANCH  10  11
ATOM     11  C   UNL     1      22.837  29.010 -19.464  1.00  0.00     0.079 C 
BRANCH  11  12
ATOM     12  C   UNL     1      24.166  28.602 -18.883  1.00  0.00     0.130 C 
ATOM     13  O   UNL     1      24.445  27.416 -18.792  1.00  0.00    -0.300 OA
ATOM     14  C   UNL     1      25.158  29.625 -18.416  1.00  0.00     0.087 C 
ENDBRANCH  11  12
ENDBRANCH  10  11
ENDBRANCH   2  10
TORSDOF 6
ENDMDL
MODEL 3
REMARK VINA RESULT:    -5.174      1.703      2.610
REMARK INTER + INTRA:          -7.841
REMARK INTER:                  -7.096
REMARK INTRA:                  -0.745
REMARK UNBOUND:                -0.852
REMARK SMILES CC(=O)CCC=C(C)CCC=C(C)C
REMARK SMILES IDX 7 1 6 2 8 3 9 4 10 5 11 6 13 7 12 8 14 9 5 10 4 11 2 12 3 13
REMARK SMILES IDX 1 14
REMARK H PARENT
REMARK Flexibility Score: inf
ROOT
ATOM      1  C   UNL     1      22.169  29.129 -13.501  1.00  0.00    -0.077 C 
ATOM      2  C   UNL     1      22.052  28.327 -14.583  1.00  0.00    -0.028 C 
ATOM      3  C   UNL     1      23.228  30.202 -13.412  1.00  0.00     0.039 C 
ENDROOT
BRANCH   1   4
ATOM      4  C   UNL     1      21.219  28.932 -12.340  1.00  0.00     0.034 C 
BRANCH   4   5
ATOM      5  C   UNL     1      19.775  29.220 -12.766  1.00  0.00     0.032 C 
BRANCH   5   6
ATOM      6  C   UNL     1      18.912  27.995 -12.596  1.00  0.00    -0.028 C 
ATOM      7  C   UNL     1      17.904  28.193 -14.880  1.00  0.00     0.039 C 
ATOM      8  C   UNL     1      18.048  27.535 -13.528  1.00  0.00    -0.080 C 
ATOM      9  C   UNL     1      17.220  26.319 -13.201  1.00  0.00     0.039 C 
ENDBRANCH   5   6
ENDBRANCH   4   5
ENDBRANCH   1   4
BRANCH   2  10
ATOM     10  C   UNL     1      22.869  28.467 -15.846  1.00  0.00     0.035 C 
BRANCH  10  11
ATOM     11  C   UNL     1      22.190  29.402 -16.855  1.00  0.00     0.079 C 
BRANCH  11  12
ATOM     12  C   UNL     1      23.201  30.121 -17.713  1.00  0.00     0.130 C 
ATOM     13  O   UNL     1      22.848  31.077 -18.386  1.00  0.00    -0.300 OA
ATOM     14  C   UNL     1      24.636  29.687 -17.753  1.00  0.00     0.087 C 
ENDBRANCH  11  12
ENDBRANCH  10  11
ENDBRANCH   2  10
TORSDOF 6
ENDMDL
MODEL 4
REMARK VINA RESULT:    -5.161      3.489      5.966
REMARK INTER + INTRA:          -7.823
REMARK INTER:                  -6.920
REMARK INTRA:                  -0.902
REMARK UNBOUND:                -0.852
REMARK SMILES CC(=O)CCC=C(C)CCC=C(C)C
REMARK SMILES IDX 7 1 6 2 8 3 9 4 10 5 11 6 13 7 12 8 14 9 5 10 4 11 2 12 3 13
REMARK SMILES IDX 1 14
REMARK H PARENT
REMARK Flexibility Score: inf
ROOT
ATOM      1  C   UNL     1      21.104  28.471 -15.746  1.00  0.00    -0.077 C 
ATOM      2  C   UNL     1      20.142  28.111 -14.866  1.00  0.00    -0.028 C 
ATOM      3  C   UNL     1      20.786  28.797 -17.186  1.00  0.00     0.039 C 
ENDROOT
BRANCH   1   4
ATOM      4  C   UNL     1      22.540  28.533 -15.275  1.00  0.00     0.034 C 
BRANCH   4   5
ATOM      5  C   UNL     1      22.612  28.464 -13.745  1.00  0.00     0.032 C 
BRANCH   5   6
ATOM      6  C   UNL     1      22.910  29.822 -13.161  1.00  0.00    -0.028 C 
ATOM      7  C   UNL     1      20.841  29.844 -11.749  1.00  0.00     0.039 C 
ATOM      8  C   UNL     1      22.111  30.466 -12.281  1.00  0.00    -0.080 C 
ATOM      9  C   UNL     1      22.519  31.839 -11.813  1.00  0.00     0.039 C 
ENDBRANCH   5   6
ENDBRANCH   4   5
ENDBRANCH   1   4
BRANCH   2  10
ATOM     10  C   UNL     1      18.663  28.094 -15.172  1.00  0.00     0.035 C 
BRANCH  10  11
ATOM     11  C   UNL     1      17.824  28.339 -13.911  1.00  0.00     0.079 C 
BRANCH  11  12
ATOM     12  C   UNL     1      17.696  27.089 -13.079  1.00  0.00     0.130 C 
ATOM     13  O   UNL     1      18.182  27.059 -11.958  1.00  0.00    -0.300 OA
ATOM     14  C   UNL     1      16.978  25.879 -13.597  1.00  0.00     0.087 C 
ENDBRANCH  11  12
ENDBRANCH  10  11
ENDBRANCH   2  10
TORSDOF 6
ENDMDL
MODEL 5
REMARK VINA RESULT:    -5.159      3.532      5.866
REMARK INTER + INTRA:          -7.821
REMARK INTER:                  -6.945
REMARK INTRA:                  -0.875
REMARK UNBOUND:                -0.852
REMARK SMILES CC(=O)CCC=C(C)CCC=C(C)C
REMARK SMILES IDX 7 1 6 2 8 3 9 4 10 5 11 6 13 7 12 8 14 9 5 10 4 11 2 12 3 13
REMARK SMILES IDX 1 14
REMARK H PARENT
REMARK Flexibility Score: inf
ROOT
ATOM      1  C   UNL     1      21.507  28.341 -14.461  1.00  0.00    -0.077 C 
ATOM      2  C   UNL     1      20.192  28.517 -14.202  1.00  0.00    -0.028 C 
ATOM      3  C   UNL     1      21.990  27.689 -15.735  1.00  0.00     0.039 C 
ENDROOT
BRANCH   1   4
ATOM      4  C   UNL     1      22.522  28.796 -13.435  1.00  0.00     0.034 C 
BRANCH   4   5
ATOM      5  C   UNL     1      21.854  29.658 -12.358  1.00  0.00     0.032 C 
BRANCH   5   6
ATOM      6  C   UNL     1      22.141  29.113 -10.981  1.00  0.00    -0.028 C 
ATOM      7  C   UNL     1      19.731  28.630 -10.498  1.00  0.00     0.039 C 
ATOM      8  C   UNL     1      21.194  28.670 -10.124  1.00  0.00    -0.080 C 
ATOM      9  C   UNL     1      21.627  28.189  -8.764  1.00  0.00     0.039 C 
ENDBRANCH   5   6
ENDBRANCH   4   5
ENDBRANCH   1   4
BRANCH   2  10
ATOM     10  C   UNL     1      19.077  28.194 -15.168  1.00  0.00     0.035 C 
BRANCH  10  11
ATOM     11  C   UNL     1      17.709  28.209 -14.475  1.00  0.00     0.079 C 
BRANCH  11  12
ATOM     12  C   UNL     1      17.368  26.862 -13.890  1.00  0.00     0.130 C 
ATOM     13  O   UNL     1      17.247  25.897 -14.629  1.00  0.00    -0.300 OA
ATOM     14  C   UNL     1      17.180  26.680 -12.413  1.00  0.00     0.087 C 
ENDBRANCH  11  12
ENDBRANCH  10  11
ENDBRANCH   2  10
TORSDOF 6
ENDMDL
MODEL 6
REMARK VINA RESULT:    -5.153      2.960      5.281
REMARK INTER + INTRA:          -7.812
REMARK INTER:                  -6.962
REMARK INTRA:                  -0.850
REMARK UNBOUND:                -0.852
REMARK SMILES CC(=O)CCC=C(C)CCC=C(C)C
REMARK SMILES IDX 7 1 6 2 8 3 9 4 10 5 11 6 13 7 12 8 14 9 5 10 4 11 2 12 3 13
REMARK SMILES IDX 1 14
REMARK H PARENT
REMARK Flexibility Score: inf
ROOT
ATOM      1  C   UNL     1      18.370  27.420 -12.440  1.00  0.00    -0.077 C 
ATOM      2  C   UNL     1      18.869  28.236 -13.396  1.00  0.00    -0.028 C 
ATOM      3  C   UNL     1      17.075  26.667 -12.630  1.00  0.00     0.039 C 
ENDROOT
BRANCH   1   4
ATOM      4  C   UNL     1      19.126  27.272 -11.138  1.00  0.00     0.034 C 
BRANCH   4   5
ATOM      5  C   UNL     1      19.541  28.644 -10.593  1.00  0.00     0.032 C 
BRANCH   5   6
ATOM      6  C   UNL     1      20.996  28.646 -10.198  1.00  0.00    -0.028 C 
ATOM      7  C   UNL     1      21.649  30.255 -12.003  1.00  0.00     0.039 C 
ATOM      8  C   UNL     1      21.959  29.346 -10.837  1.00  0.00    -0.080 C 
ATOM      9  C   UNL     1      23.381  29.218 -10.353  1.00  0.00     0.039 C 
ENDBRANCH   5   6
ENDBRANCH   4   5
ENDBRANCH   1   4
BRANCH   2  10
ATOM     10  C   UNL     1      18.271  28.410 -14.772  1.00  0.00     0.035 C 
BRANCH  10  11
ATOM     11  C   UNL     1      19.352  28.686 -15.825  1.00  0.00     0.079 C 
BRANCH  11  12
ATOM     12  C   UNL     1      20.279  27.509 -15.990  1.00  0.00     0.130 C 
ATOM     13  O   UNL     1      19.831  26.438 -16.371  1.00  0.00    -0.300 OA
ATOM     14  C   UNL     1      21.745  27.627 -15.699  1.00  0.00     0.087 C 
ENDBRANCH  11  12
ENDBRANCH  10  11
ENDBRANCH   2  10
TORSDOF 6
ENDMDL
MODEL 7
REMARK VINA RESULT:    -5.107      1.974      3.122
REMARK INTER + INTRA:          -7.750
REMARK INTER:                  -7.136
REMARK INTRA:                  -0.613
REMARK UNBOUND:                -0.852
REMARK SMILES CC(=O)CCC=C(C)CCC=C(C)C
REMARK SMILES IDX 7 1 6 2 8 3 9 4 10 5 11 6 13 7 12 8 14 9 5 10 4 11 2 12 3 13
REMARK SMILES IDX 1 14
REMARK H PARENT
REMARK Flexibility Score: inf
ROOT
ATOM      1  C   UNL     1      20.382  28.475 -14.596  1.00  0.00    -0.077 C 
ATOM      2  C   UNL     1      21.726  28.554 -14.469  1.00  0.00    -0.028 C 
ATOM      3  C   UNL     1      19.706  28.480 -15.947  1.00  0.00     0.039 C 
ENDROOT
BRANCH   1   4
ATOM      4  C   UNL     1      19.533  28.395 -13.347  1.00  0.00     0.034 C 
BRANCH   4   5
ATOM      5  C   UNL     1      20.094  29.310 -12.251  1.00  0.00     0.032 C 
BRANCH   5   6
ATOM      6  C   UNL     1      19.861  28.714 -10.885  1.00  0.00    -0.028 C 
ATOM      7  C   UNL     1      22.270  28.890 -10.223  1.00  0.00     0.039 C 
ATOM      8  C   UNL     1      20.834  28.497  -9.972  1.00  0.00    -0.080 C 
ATOM      9  C   UNL     1      20.457  27.857  -8.661  1.00  0.00     0.039 C 
ENDBRANCH   5   6
ENDBRANCH   4   5
ENDBRANCH   1   4
BRANCH   2  10
ATOM     10  C   UNL     1      22.698  28.549 -15.625  1.00  0.00     0.035 C 
BRANCH  10  11
ATOM     11  C   UNL     1      23.188  29.965 -15.955  1.00  0.00     0.079 C 
BRANCH  11  12
ATOM     12  C   UNL     1      23.742  30.049 -17.354  1.00  0.00     0.130 C 
ATOM     13  O   UNL     1      24.889  29.689 -17.570  1.00  0.00    -0.300 OA
ATOM     14  C   UNL     1      22.909  30.563 -18.491  1.00  0.00     0.087 C 
ENDBRANCH  11  12
ENDBRANCH  10  11
ENDBRANCH   2  10
TORSDOF 6
ENDMDL
MODEL 8
REMARK VINA RESULT:    -5.103     10.923     12.490
REMARK INTER + INTRA:          -7.745
REMARK INTER:                  -7.127
REMARK INTRA:                  -0.618
REMARK UNBOUND:                -0.852
REMARK SMILES CC(=O)CCC=C(C)CCC=C(C)C
REMARK SMILES IDX 7 1 6 2 8 3 9 4 10 5 11 6 13 7 12 8 14 9 5 10 4 11 2 12 3 13
REMARK SMILES IDX 1 14
REMARK H PARENT
REMARK Flexibility Score: inf
ROOT
ATOM      1  C   UNL     1      33.942  31.034 -13.826  1.00  0.00    -0.077 C 
ATOM      2  C   UNL     1      32.698  31.449 -14.156  1.00  0.00    -0.028 C 
ATOM      3  C   UNL     1      35.161  31.461 -14.609  1.00  0.00     0.039 C 
ENDROOT
BRANCH   1   4
ATOM      4  C   UNL     1      34.112  30.101 -12.647  1.00  0.00     0.034 C 
BRANCH   4   5
ATOM      5  C   UNL     1      34.007  30.873 -11.326  1.00  0.00     0.032 C 
BRANCH   5   6
ATOM      6  C   UNL     1      32.769  30.468 -10.566  1.00  0.00    -0.028 C 
ATOM      7  C   UNL     1      33.868  30.717  -8.329  1.00  0.00     0.039 C 
ATOM      8  C   UNL     1      32.698  30.370  -9.220  1.00  0.00    -0.080 C 
ATOM      9  C   UNL     1      31.403  29.914  -8.600  1.00  0.00     0.039 C 
ENDBRANCH   5   6
ENDBRANCH   4   5
ENDBRANCH   1   4
BRANCH   2  10
ATOM     10  C   UNL     1      32.390  32.446 -15.248  1.00  0.00     0.035 C 
BRANCH  10  11
ATOM     11  C   UNL     1      31.355  31.895 -16.238  1.00  0.00     0.079 C 
BRANCH  11  12
ATOM     12  C   UNL     1      31.982  31.558 -17.567  1.00  0.00     0.130 C 
ATOM     13  O   UNL     1      31.411  30.787 -18.323  1.00  0.00    -0.300 OA
ATOM     14  C   UNL     1      33.293  32.156 -17.982  1.00  0.00     0.087 C 
ENDBRANCH  11  12
ENDBRANCH  10  11
ENDBRANCH   2  10
TORSDOF 6
ENDMDL
MODEL 9
REMARK VINA RESULT:    -5.060      3.244      6.651
REMARK INTER + INTRA:          -7.686
REMARK INTER:                  -6.865
REMARK INTRA:                  -0.821
REMARK UNBOUND:                -0.852
REMARK SMILES CC(=O)CCC=C(C)CCC=C(C)C
REMARK SMILES IDX 7 1 6 2 8 3 9 4 10 5 11 6 13 7 12 8 14 9 5 10 4 11 2 12 3 13
REMARK SMILES IDX 1 14
REMARK H PARENT
REMARK Flexibility Score: inf
ROOT
ATOM      1  C   UNL     1      19.621  28.235 -14.244  1.00  0.00    -0.077 C 
ATOM      2  C   UNL     1      20.636  28.722 -13.495  1.00  0.00    -0.028 C 
ATOM      3  C   UNL     1      18.211  28.137 -13.711  1.00  0.00     0.039 C 
ENDROOT
BRANCH   1   4
ATOM      4  C   UNL     1      19.913  27.760 -15.650  1.00  0.00     0.034 C 
BRANCH   4   5
ATOM      5  C   UNL     1      21.424  27.714 -15.904  1.00  0.00     0.032 C 
BRANCH   5   6
ATOM      6  C   UNL     1      21.792  28.555 -17.100  1.00  0.00    -0.028 C 
ATOM      7  C   UNL     1      23.228  30.112 -15.762  1.00  0.00     0.039 C 
ATOM      8  C   UNL     1      22.583  29.651 -17.047  1.00  0.00    -0.080 C 
ATOM      9  C   UNL     1      22.832  30.418 -18.320  1.00  0.00     0.039 C 
ENDBRANCH   5   6
ENDBRANCH   4   5
ENDBRANCH   1   4
BRANCH   2  10
ATOM     10  C   UNL     1      20.476  29.311 -12.113  1.00  0.00     0.035 C 
BRANCH  10  11
ATOM     11  C   UNL     1      21.287  28.531 -11.071  1.00  0.00     0.079 C 
BRANCH  11  12
ATOM     12  C   UNL     1      20.395  27.713 -10.172  1.00  0.00     0.130 C 
ATOM     13  O   UNL     1      19.549  26.983 -10.667  1.00  0.00    -0.300 OA
ATOM     14  C   UNL     1      20.528  27.772  -8.680  1.00  0.00     0.087 C 
ENDBRANCH  11  12
ENDBRANCH  10  11
ENDBRANCH   2  10
TORSDOF 6
ENDMDL
