MODEL 1
REMARK VINA RESULT:    -3.920      0.000      0.000
REMARK INTER + INTRA:          -8.799
REMARK INTER:                  -7.358
REMARK INTRA:                  -1.441
REMARK UNBOUND:                -1.441
REMARK SMILES CCCCCCCCC=CCCCCCCCC(=O)[O-]
REMARK SMILES IDX 10 1 9 2 11 3 12 4 13 5 14 6 15 7 16 8 17 9 18 10 19 11
REMARK SMILES IDX 20 12 8 13 7 14 6 15 5 16 4 17 3 18 2 19 1 20
REMARK H PARENT
REMARK Flexibility Score: inf
ROOT
ATOM      1  C   UNL     1       2.472  13.609  19.009  1.00  0.00    -0.031 C 
ATOM      2  C   UNL     1       2.181  14.598  18.149  1.00  0.00    -0.031 C 
ENDROOT
BRANCH   1   3
ATOM      3  C   UNL     1       3.124  12.332  18.553  1.00  0.00     0.027 C 
BRANCH   3   4
ATOM      4  C   UNL     1       4.341  11.965  19.417  1.00  0.00     0.004 C 
BRANCH   4   5
ATOM      5  C   UNL     1       5.670  12.250  18.693  1.00  0.00     0.000 C 
BRANCH   5   6
ATOM      6  C   UNL     1       5.482  13.096  17.424  1.00  0.00     0.000 C 
BRANCH   6   7
ATOM      7  C   UNL     1       6.396  12.640  16.274  1.00  0.00     0.000 C 
BRANCH   7   8
ATOM      8  C   UNL     1       5.763  12.847  14.885  1.00  0.00     0.006 C 
BRANCH   8   9
ATOM      9  C   UNL     1       4.575  11.913  14.593  1.00  0.00     0.053 C 
BRANCH   9  10
ATOM     10  C   UNL     1       3.291  12.657  14.388  1.00  0.00     0.041 C 
ATOM     11  O   UNL     1       3.073  13.732  15.005  1.00  0.00    -0.550 OA
ATOM     12  O   UNL     1       2.320  12.146  13.535  1.00  0.00    -0.550 OA
ENDBRANCH   9  10
ENDBRANCH   8   9
ENDBRANCH   7   8
ENDBRANCH   6   7
ENDBRANCH   5   6
ENDBRANCH   4   5
ENDBRANCH   3   4
ENDBRANCH   1   3
BRANCH   2  13
ATOM     13  C   UNL     1       1.496  15.856  18.603  1.00  0.00     0.027 C 
BRANCH  13  14
ATOM     14  C   UNL     1       0.148  16.032  17.889  1.00  0.00     0.004 C 
BRANCH  14  15
ATOM     15  C   UNL     1      -1.042  16.091  18.861  1.00  0.00     0.000 C 
BRANCH  15  16
ATOM     16  C   UNL     1      -1.762  17.454  18.947  1.00  0.00     0.000 C 
BRANCH  16  17
ATOM     17  C   UNL     1      -1.333  18.351  20.126  1.00  0.00    -0.000 C 
BRANCH  17  18
ATOM     18  C   UNL     1      -0.798  19.736  19.698  1.00  0.00    -0.000 C 
BRANCH  18  19
ATOM     19  C   UNL     1      -0.297  19.779  18.245  1.00  0.00    -0.003 C 
ATOM     20  C   UNL     1       1.222  19.646  18.136  1.00  0.00     0.004 C 
ENDBRANCH  18  19
ENDBRANCH  17  18
ENDBRANCH  16  17
ENDBRANCH  15  16
ENDBRANCH  14  15
ENDBRANCH  13  14
ENDBRANCH   2  13
TORSDOF 15
ENDMDL
MODEL 2
REMARK VINA RESULT:    -3.802      2.573      7.984
REMARK INTER + INTRA:          -8.576
REMARK INTER:                  -7.231
REMARK INTRA:                  -1.345
REMARK UNBOUND:                -1.441
REMARK SMILES CCCCCCCCC=CCCCCCCCC(=O)[O-]
REMARK SMILES IDX 10 1 9 2 11 3 12 4 13 5 14 6 15 7 16 8 17 9 18 10 19 11
REMARK SMILES IDX 20 12 8 13 7 14 6 15 5 16 4 17 3 18 2 19 1 20
REMARK H PARENT
REMARK Flexibility Score: inf
ROOT
ATOM      1  C   UNL     1       2.052  14.824  18.118  1.00  0.00    -0.031 C 
ATOM      2  C   UNL     1       2.393  13.801  18.916  1.00  0.00    -0.031 C 
ENDROOT
BRANCH   1   3
ATOM      3  C   UNL     1       1.343  16.040  18.651  1.00  0.00     0.027 C 
BRANCH   3   4
ATOM      4  C   UNL     1      -0.049  16.217  18.026  1.00  0.00     0.004 C 
BRANCH   4   5
ATOM      5  C   UNL     1      -1.175  15.989  19.051  1.00  0.00     0.000 C 
BRANCH   5   6
ATOM      6  C   UNL     1      -2.071  17.224  19.229  1.00  0.00     0.000 C 
BRANCH   6   7
ATOM      7  C   UNL     1      -1.638  18.096  20.420  1.00  0.00     0.000 C 
BRANCH   7   8
ATOM      8  C   UNL     1      -1.437  19.575  20.040  1.00  0.00     0.006 C 
BRANCH   8   9
ATOM      9  C   UNL     1       0.029  19.958  19.767  1.00  0.00     0.053 C 
BRANCH   9  10
ATOM     10  C   UNL     1       0.375  19.919  18.310  1.00  0.00     0.041 C 
ATOM     11  O   UNL     1       1.570  19.767  17.944  1.00  0.00    -0.550 OA
ATOM     12  O   UNL     1      -0.621  20.078  17.354  1.00  0.00    -0.550 OA
ENDBRANCH   9  10
ENDBRANCH   8   9
ENDBRANCH   7   8
ENDBRANCH   6   7
ENDBRANCH   5   6
ENDBRANCH   4   5
ENDBRANCH   3   4
ENDBRANCH   1   3
BRANCH   2  13
ATOM     13  C   UNL     1       3.068  12.574  18.373  1.00  0.00     0.027 C 
BRANCH  13  14
ATOM     14  C   UNL     1       4.362  12.275  19.144  1.00  0.00     0.004 C 
BRANCH  14  15
ATOM     15  C   UNL     1       5.625  12.421  18.277  1.00  0.00     0.000 C 
BRANCH  15  16
ATOM     16  C   UNL     1       5.403  13.053  16.886  1.00  0.00     0.000 C 
BRANCH  16  17
ATOM     17  C   UNL     1       5.076  12.057  15.756  1.00  0.00    -0.000 C 
BRANCH  17  18
ATOM     18  C   UNL     1       4.845  12.722  14.380  1.00  0.00    -0.000 C 
BRANCH  18  19
ATOM     19  C   UNL     1       3.368  12.749  13.952  1.00  0.00    -0.003 C 
ATOM     20  C   UNL     1       2.500  13.609  14.869  1.00  0.00     0.004 C 
ENDBRANCH  18  19
ENDBRANCH  17  18
ENDBRANCH  16  17
ENDBRANCH  15  16
ENDBRANCH  14  15
ENDBRANCH  13  14
ENDBRANCH   2  13
TORSDOF 15
ENDMDL
MODEL 3
REMARK VINA RESULT:    -3.379      2.001      3.383
REMARK INTER + INTRA:          -7.783
REMARK INTER:                  -6.209
REMARK INTRA:                  -1.574
REMARK UNBOUND:                -1.441
REMARK SMILES CCCCCCCCC=CCCCCCCCC(=O)[O-]
REMARK SMILES IDX 10 1 9 2 11 3 12 4 13 5 14 6 15 7 16 8 17 9 18 10 19 11
REMARK SMILES IDX 20 12 8 13 7 14 6 15 5 16 4 17 3 18 2 19 1 20
REMARK H PARENT
REMARK Flexibility Score: inf
ROOT
ATOM      1  C   UNL     1       2.072  13.912  15.935  1.00  0.00    -0.031 C 
ATOM      2  C   UNL     1       2.618  14.577  16.964  1.00  0.00    -0.031 C 
ENDROOT
BRANCH   1   3
ATOM      3  C   UNL     1       2.782  13.778  14.615  1.00  0.00     0.027 C 
BRANCH   3   4
ATOM      4  C   UNL     1       2.968  12.309  14.206  1.00  0.00     0.004 C 
BRANCH   4   5
ATOM      5  C   UNL     1       4.418  11.832  14.405  1.00  0.00     0.000 C 
BRANCH   5   6
ATOM      6  C   UNL     1       5.424  12.994  14.428  1.00  0.00     0.000 C 
BRANCH   6   7
ATOM      7  C   UNL     1       6.268  13.014  15.714  1.00  0.00     0.000 C 
BRANCH   7   8
ATOM      8  C   UNL     1       5.470  12.596  16.963  1.00  0.00     0.006 C 
BRANCH   8   9
ATOM      9  C   UNL     1       6.300  12.580  18.259  1.00  0.00     0.053 C 
BRANCH   9  10
ATOM     10  C   UNL     1       5.484  12.223  19.464  1.00  0.00     0.041 C 
ATOM     11  O   UNL     1       6.047  11.855  20.528  1.00  0.00    -0.550 OA
ATOM     12  O   UNL     1       4.097  12.271  19.403  1.00  0.00    -0.550 OA
ENDBRANCH   9  10
ENDBRANCH   8   9
ENDBRANCH   7   8
ENDBRANCH   6   7
ENDBRANCH   5   6
ENDBRANCH   4   5
ENDBRANCH   3   4
ENDBRANCH   1   3
BRANCH   2  13
ATOM     13  C   UNL     1       1.888  14.740  18.268  1.00  0.00     0.027 C 
BRANCH  13  14
ATOM     14  C   UNL     1       1.316  16.159  18.400  1.00  0.00     0.004 C 
BRANCH  14  15
ATOM     15  C   UNL     1      -0.168  16.247  18.002  1.00  0.00     0.000 C 
BRANCH  15  16
ATOM     16  C   UNL     1      -1.155  16.460  19.170  1.00  0.00     0.000 C 
BRANCH  16  17
ATOM     17  C   UNL     1      -1.065  17.834  19.865  1.00  0.00    -0.000 C 
BRANCH  17  18
ATOM     18  C   UNL     1      -1.112  19.033  18.891  1.00  0.00    -0.000 C 
BRANCH  18  19
ATOM     19  C   UNL     1       0.050  20.022  19.079  1.00  0.00    -0.003 C 
ATOM     20  C   UNL     1       1.221  19.749  18.136  1.00  0.00     0.004 C 
ENDBRANCH  18  19
ENDBRANCH  17  18
ENDBRANCH  16  17
ENDBRANCH  15  16
ENDBRANCH  14  15
ENDBRANCH  13  14
ENDBRANCH   2  13
TORSDOF 15
ENDMDL
MODEL 4
REMARK VINA RESULT:    -3.366      2.772      7.928
REMARK INTER + INTRA:          -7.759
REMARK INTER:                  -6.420
REMARK INTRA:                  -1.339
REMARK UNBOUND:                -1.441
REMARK SMILES CCCCCCCCC=CCCCCCCCC(=O)[O-]
REMARK SMILES IDX 10 1 9 2 11 3 12 4 13 5 14 6 15 7 16 8 17 9 18 10 19 11
REMARK SMILES IDX 20 12 8 13 7 14 6 15 5 16 4 17 3 18 2 19 1 20
REMARK H PARENT
REMARK Flexibility Score: inf
ROOT
ATOM      1  C   UNL     1       2.828  14.101  15.885  1.00  0.00    -0.031 C 
ATOM      2  C   UNL     1       2.620  13.463  14.723  1.00  0.00    -0.031 C 
ENDROOT
BRANCH   1   3
ATOM      3  C   UNL     1       1.730  14.865  16.575  1.00  0.00     0.027 C 
BRANCH   3   4
ATOM      4  C   UNL     1       1.981  15.001  18.085  1.00  0.00     0.004 C 
BRANCH   4   5
ATOM      5  C   UNL     1       1.144  16.132  18.710  1.00  0.00     0.000 C 
BRANCH   5   6
ATOM      6  C   UNL     1      -0.343  16.045  18.332  1.00  0.00     0.000 C 
BRANCH   6   7
ATOM      7  C   UNL     1      -1.183  17.150  18.995  1.00  0.00     0.000 C 
BRANCH   7   8
ATOM      8  C   UNL     1      -1.769  18.150  17.981  1.00  0.00     0.006 C 
BRANCH   8   9
ATOM      9  C   UNL     1      -1.520  19.626  18.340  1.00  0.00     0.053 C 
BRANCH   9  10
ATOM     10  C   UNL     1      -0.278  19.821  19.155  1.00  0.00     0.041 C 
ATOM     11  O   UNL     1       0.857  19.688  18.627  1.00  0.00    -0.550 OA
ATOM     12  O   UNL     1      -0.374  20.125  20.507  1.00  0.00    -0.550 OA
ENDBRANCH   9  10
ENDBRANCH   8   9
ENDBRANCH   7   8
ENDBRANCH   6   7
ENDBRANCH   5   6
ENDBRANCH   4   5
ENDBRANCH   3   4
ENDBRANCH   1   3
BRANCH   2  13
ATOM     13  C   UNL     1       3.729  12.733  14.021  1.00  0.00     0.027 C 
BRANCH  13  14
ATOM     14  C   UNL     1       4.597  11.961  15.025  1.00  0.00     0.004 C 
BRANCH  14  15
ATOM     15  C   UNL     1       5.969  12.617  15.259  1.00  0.00     0.000 C 
BRANCH  15  16
ATOM     16  C   UNL     1       6.338  12.871  16.737  1.00  0.00     0.000 C 
BRANCH  16  17
ATOM     17  C   UNL     1       5.141  13.014  17.699  1.00  0.00    -0.000 C 
BRANCH  17  18
ATOM     18  C   UNL     1       5.320  12.264  19.038  1.00  0.00    -0.000 C 
BRANCH  18  19
ATOM     19  C   UNL     1       4.042  11.557  19.520  1.00  0.00    -0.003 C 
ATOM     20  C   UNL     1       3.007  11.379  18.410  1.00  0.00     0.004 C 
ENDBRANCH  18  19
ENDBRANCH  17  18
ENDBRANCH  16  17
ENDBRANCH  15  16
ENDBRANCH  14  15
ENDBRANCH  13  14
ENDBRANCH   2  13
TORSDOF 15
ENDMDL
MODEL 5
REMARK VINA RESULT:    -3.088      2.684      7.684
REMARK INTER + INTRA:          -7.236
REMARK INTER:                  -5.690
REMARK INTRA:                  -1.546
REMARK UNBOUND:                -1.441
REMARK SMILES CCCCCCCCC=CCCCCCCCC(=O)[O-]
REMARK SMILES IDX 10 1 9 2 11 3 12 4 13 5 14 6 15 7 16 8 17 9 18 10 19 11
REMARK SMILES IDX 20 12 8 13 7 14 6 15 5 16 4 17 3 18 2 19 1 20
REMARK H PARENT
REMARK Flexibility Score: inf
ROOT
ATOM      1  C   UNL     1       2.927  14.115  15.381  1.00  0.00    -0.031 C 
ATOM      2  C   UNL     1       3.548  12.926  15.431  1.00  0.00    -0.031 C 
ENDROOT
BRANCH   1   3
ATOM      3  C   UNL     1       1.829  14.474  16.346  1.00  0.00     0.027 C 
BRANCH   3   4
ATOM      4  C   UNL     1       2.364  14.717  17.765  1.00  0.00     0.004 C 
BRANCH   4   5
ATOM      5  C   UNL     1       1.274  15.261  18.708  1.00  0.00     0.000 C 
BRANCH   5   6
ATOM      6  C   UNL     1       0.255  16.152  17.981  1.00  0.00     0.000 C 
BRANCH   6   7
ATOM      7  C   UNL     1      -0.995  16.429  18.834  1.00  0.00     0.000 C 
BRANCH   7   8
ATOM      8  C   UNL     1      -1.270  17.932  19.025  1.00  0.00     0.006 C 
BRANCH   8   9
ATOM      9  C   UNL     1       0.002  18.794  19.120  1.00  0.00     0.053 C 
BRANCH   9  10
ATOM     10  C   UNL     1       0.189  19.682  17.927  1.00  0.00     0.041 C 
ATOM     11  O   UNL     1       1.342  20.050  17.583  1.00  0.00    -0.550 OA
ATOM     12  O   UNL     1      -0.916  20.125  17.210  1.00  0.00    -0.550 OA
ENDBRANCH   9  10
ENDBRANCH   8   9
ENDBRANCH   7   8
ENDBRANCH   6   7
ENDBRANCH   5   6
ENDBRANCH   4   5
ENDBRANCH   3   4
ENDBRANCH   1   3
BRANCH   2  13
ATOM     13  C   UNL     1       4.618  12.559  14.443  1.00  0.00     0.027 C 
BRANCH  13  14
ATOM     14  C   UNL     1       6.006  12.600  15.099  1.00  0.00     0.004 C 
BRANCH  14  15
ATOM     15  C   UNL     1       5.990  13.250  16.494  1.00  0.00     0.000 C 
BRANCH  15  16
ATOM     16  C   UNL     1       6.953  12.625  17.526  1.00  0.00     0.000 C 
BRANCH  16  17
ATOM     17  C   UNL     1       6.312  12.243  18.876  1.00  0.00    -0.000 C 
BRANCH  17  18
ATOM     18  C   UNL     1       4.819  12.623  18.991  1.00  0.00    -0.000 C 
BRANCH  18  19
ATOM     19  C   UNL     1       3.922  11.457  19.437  1.00  0.00    -0.003 C 
ATOM     20  C   UNL     1       2.789  11.169  18.452  1.00  0.00     0.004 C 
ENDBRANCH  18  19
ENDBRANCH  17  18
ENDBRANCH  16  17
ENDBRANCH  15  16
ENDBRANCH  14  15
ENDBRANCH  13  14
ENDBRANCH   2  13
TORSDOF 15
ENDMDL
MODEL 6
REMARK VINA RESULT:    -3.029      2.629      8.013
REMARK INTER + INTRA:          -7.125
REMARK INTER:                  -5.778
REMARK INTRA:                  -1.348
REMARK UNBOUND:                -1.441
REMARK SMILES CCCCCCCCC=CCCCCCCCC(=O)[O-]
REMARK SMILES IDX 10 1 9 2 11 3 12 4 13 5 14 6 15 7 16 8 17 9 18 10 19 11
REMARK SMILES IDX 20 12 8 13 7 14 6 15 5 16 4 17 3 18 2 19 1 20
REMARK H PARENT
REMARK Flexibility Score: inf
ROOT
ATOM      1  C   UNL     1       0.541  15.937  18.383  1.00  0.00    -0.031 C 
ATOM      2  C   UNL     1       1.369  15.060  17.794  1.00  0.00    -0.031 C 
ENDROOT
BRANCH   1   3
ATOM      3  C   UNL     1      -0.670  16.480  17.673  1.00  0.00     0.027 C 
BRANCH   3   4
ATOM      4  C   UNL     1      -1.934  16.401  18.543  1.00  0.00     0.004 C 
BRANCH   4   5
ATOM      5  C   UNL     1      -1.597  16.219  20.034  1.00  0.00     0.000 C 
BRANCH   5   6
ATOM      6  C   UNL     1      -1.652  17.540  20.818  1.00  0.00     0.000 C 
BRANCH   6   7
ATOM      7  C   UNL     1      -2.125  18.718  19.949  1.00  0.00     0.000 C 
BRANCH   7   8
ATOM      8  C   UNL     1      -1.250  19.975  20.113  1.00  0.00     0.006 C 
BRANCH   8   9
ATOM      9  C   UNL     1       0.214  19.779  19.679  1.00  0.00     0.053 C 
BRANCH   9  10
ATOM     10  C   UNL     1       0.398  19.889  18.197  1.00  0.00     0.041 C 
ATOM     11  O   UNL     1       1.546  19.798  17.689  1.00  0.00    -0.550 OA
ATOM     12  O   UNL     1      -0.699  20.119  17.376  1.00  0.00    -0.550 OA
ENDBRANCH   9  10
ENDBRANCH   8   9
ENDBRANCH   7   8
ENDBRANCH   6   7
ENDBRANCH   5   6
ENDBRANCH   4   5
ENDBRANCH   3   4
ENDBRANCH   1   3
BRANCH   2  13
ATOM     13  C   UNL     1       2.596  14.549  18.494  1.00  0.00     0.027 C 
BRANCH  13  14
ATOM     14  C   UNL     1       2.372  13.124  19.021  1.00  0.00     0.004 C 
BRANCH  14  15
ATOM     15  C   UNL     1       3.206  12.070  18.273  1.00  0.00     0.000 C 
BRANCH  15  16
ATOM     16  C   UNL     1       4.721  12.358  18.195  1.00  0.00     0.000 C 
BRANCH  16  17
ATOM     17  C   UNL     1       5.282  12.547  16.771  1.00  0.00    -0.000 C 
BRANCH  17  18
ATOM     18  C   UNL     1       4.263  13.133  15.768  1.00  0.00    -0.000 C 
BRANCH  18  19
ATOM     19  C   UNL     1       4.544  12.742  14.308  1.00  0.00    -0.003 C 
ATOM     20  C   UNL     1       3.306  12.210  13.587  1.00  0.00     0.004 C 
ENDBRANCH  18  19
ENDBRANCH  17  18
ENDBRANCH  16  17
ENDBRANCH  15  16
ENDBRANCH  14  15
ENDBRANCH  13  14
ENDBRANCH   2  13
TORSDOF 15
ENDMDL
MODEL 7
REMARK VINA RESULT:    -2.849      1.948      3.871
REMARK INTER + INTRA:          -6.789
REMARK INTER:                  -7.119
REMARK INTRA:                   0.330
REMARK UNBOUND:                -1.441
REMARK SMILES CCCCCCCCC=CCCCCCCCC(=O)[O-]
REMARK SMILES IDX 10 1 9 2 11 3 12 4 13 5 14 6 15 7 16 8 17 9 18 10 19 11
REMARK SMILES IDX 20 12 8 13 7 14 6 15 5 16 4 17 3 18 2 19 1 20
REMARK H PARENT
REMARK Flexibility Score: inf
ROOT
ATOM      1  C   UNL     1       3.087  13.921  15.682  1.00  0.00    -0.031 C 
ATOM      2  C   UNL     1       1.972  14.301  16.324  1.00  0.00    -0.031 C 
ENDROOT
BRANCH   1   3
ATOM      3  C   UNL     1       3.041  12.994  14.498  1.00  0.00     0.027 C 
BRANCH   3   4
ATOM      4  C   UNL     1       4.409  12.361  14.205  1.00  0.00     0.004 C 
BRANCH   4   5
ATOM      5  C   UNL     1       5.572  13.277  14.630  1.00  0.00     0.000 C 
BRANCH   5   6
ATOM      6  C   UNL     1       6.312  12.754  15.870  1.00  0.00     0.000 C 
BRANCH   6   7
ATOM      7  C   UNL     1       5.351  12.343  16.998  1.00  0.00     0.000 C 
BRANCH   7   8
ATOM      8  C   UNL     1       5.984  12.449  18.397  1.00  0.00     0.006 C 
BRANCH   8   9
ATOM      9  C   UNL     1       5.034  12.065  19.546  1.00  0.00     0.053 C 
BRANCH   9  10
ATOM     10  C   UNL     1       3.607  11.953  19.103  1.00  0.00     0.041 C 
ATOM     11  O   UNL     1       3.169  10.868  18.640  1.00  0.00    -0.550 OA
ATOM     12  O   UNL     1       2.767  13.057  19.178  1.00  0.00    -0.550 OA
ENDBRANCH   9  10
ENDBRANCH   8   9
ENDBRANCH   7   8
ENDBRANCH   6   7
ENDBRANCH   5   6
ENDBRANCH   4   5
ENDBRANCH   3   4
ENDBRANCH   1   3
BRANCH   2  13
ATOM     13  C   UNL     1       2.027  15.197  17.529  1.00  0.00     0.027 C 
BRANCH  13  14
ATOM     14  C   UNL     1       0.638  15.769  17.849  1.00  0.00     0.004 C 
BRANCH  14  15
ATOM     15  C   UNL     1       0.697  17.177  18.465  1.00  0.00     0.000 C 
BRANCH  15  16
ATOM     16  C   UNL     1      -0.643  17.717  19.013  1.00  0.00     0.000 C 
BRANCH  16  17
ATOM     17  C   UNL     1      -1.880  16.856  18.689  1.00  0.00    -0.000 C 
BRANCH  17  18
ATOM     18  C   UNL     1      -2.092  15.672  19.659  1.00  0.00    -0.000 C 
BRANCH  18  19
ATOM     19  C   UNL     1      -2.123  16.089  21.138  1.00  0.00    -0.003 C 
ATOM     20  C   UNL     1      -1.871  14.919  22.090  1.00  0.00     0.004 C 
ENDBRANCH  18  19
ENDBRANCH  17  18
ENDBRANCH  16  17
ENDBRANCH  15  16
ENDBRANCH  14  15
ENDBRANCH  13  14
ENDBRANCH   2  13
TORSDOF 15
ENDMDL
MODEL 8
REMARK VINA RESULT:    -2.761      3.767      9.267
REMARK INTER + INTRA:          -6.623
REMARK INTER:                  -5.764
REMARK INTRA:                  -0.859
REMARK UNBOUND:                -1.441
REMARK SMILES CCCCCCCCC=CCCCCCCCC(=O)[O-]
REMARK SMILES IDX 10 1 9 2 11 3 12 4 13 5 14 6 15 7 16 8 17 9 18 10 19 11
REMARK SMILES IDX 20 12 8 13 7 14 6 15 5 16 4 17 3 18 2 19 1 20
REMARK H PARENT
REMARK Flexibility Score: inf
ROOT
ATOM      1  C   UNL     1       4.106  12.454  16.294  1.00  0.00    -0.031 C 
ATOM      2  C   UNL     1       4.535  12.511  15.024  1.00  0.00    -0.031 C 
ENDROOT
BRANCH   1   3
ATOM      3  C   UNL     1       5.061  12.263  17.442  1.00  0.00     0.027 C 
BRANCH   3   4
ATOM      4  C   UNL     1       4.369  12.434  18.803  1.00  0.00     0.004 C 
BRANCH   4   5
ATOM      5  C   UNL     1       2.845  12.602  18.660  1.00  0.00     0.000 C 
BRANCH   5   6
ATOM      6  C   UNL     1       2.355  13.977  19.141  1.00  0.00     0.000 C 
BRANCH   6   7
ATOM      7  C   UNL     1       1.987  14.909  17.974  1.00  0.00     0.000 C 
BRANCH   7   8
ATOM      8  C   UNL     1       0.674  15.679  18.212  1.00  0.00     0.006 C 
BRANCH   8   9
ATOM      9  C   UNL     1       0.872  17.177  18.508  1.00  0.00     0.053 C 
BRANCH   9  10
ATOM     10  C   UNL     1      -0.403  17.864  18.892  1.00  0.00     0.041 C 
ATOM     11  O   UNL     1      -0.847  18.815  18.198  1.00  0.00    -0.550 OA
ATOM     12  O   UNL     1      -1.087  17.471  20.036  1.00  0.00    -0.550 OA
ENDBRANCH   9  10
ENDBRANCH   8   9
ENDBRANCH   7   8
ENDBRANCH   6   7
ENDBRANCH   5   6
ENDBRANCH   4   5
ENDBRANCH   3   4
ENDBRANCH   1   3
BRANCH   2  13
ATOM     13  C   UNL     1       3.574  12.665  13.879  1.00  0.00     0.027 C 
BRANCH  13  14
ATOM     14  C   UNL     1       3.556  11.401  13.006  1.00  0.00     0.004 C 
BRANCH  14  15
ATOM     15  C   UNL     1       4.620  10.370  13.423  1.00  0.00     0.000 C 
BRANCH  15  16
ATOM     16  C   UNL     1       5.127   9.448  12.293  1.00  0.00     0.000 C 
BRANCH  16  17
ATOM     17  C   UNL     1       5.773   8.129  12.761  1.00  0.00    -0.000 C 
BRANCH  17  18
ATOM     18  C   UNL     1       6.353   7.273  11.613  1.00  0.00    -0.000 C 
BRANCH  18  19
ATOM     19  C   UNL     1       6.397   8.006  10.262  1.00  0.00    -0.003 C 
ATOM     20  C   UNL     1       6.082   7.091   9.079  1.00  0.00     0.004 C 
ENDBRANCH  18  19
ENDBRANCH  17  18
ENDBRANCH  16  17
ENDBRANCH  15  16
ENDBRANCH  14  15
ENDBRANCH  13  14
ENDBRANCH   2  13
TORSDOF 15
ENDMDL
MODEL 9
REMARK VINA RESULT:    -2.741      3.575      5.126
REMARK INTER + INTRA:          -6.585
REMARK INTER:                  -6.103
REMARK INTRA:                  -0.482
REMARK UNBOUND:                -1.441
REMARK SMILES CCCCCCCCC=CCCCCCCCC(=O)[O-]
REMARK SMILES IDX 10 1 9 2 11 3 12 4 13 5 14 6 15 7 16 8 17 9 18 10 19 11
REMARK SMILES IDX 20 12 8 13 7 14 6 15 5 16 4 17 3 18 2 19 1 20
REMARK H PARENT
REMARK Flexibility Score: inf
ROOT
ATOM      1  C   UNL     1       4.951  12.618  16.103  1.00  0.00    -0.031 C 
ATOM      2  C   UNL     1       3.837  12.332  16.795  1.00  0.00    -0.031 C 
ENDROOT
BRANCH   1   3
ATOM      3  C   UNL     1       4.948  12.698  14.600  1.00  0.00     0.027 C 
BRANCH   3   4
ATOM      4  C   UNL     1       3.629  12.194  13.997  1.00  0.00     0.004 C 
BRANCH   4   5
ATOM      5  C   UNL     1       3.863  11.258  12.796  1.00  0.00     0.000 C 
BRANCH   5   6
ATOM      6  C   UNL     1       4.657   9.998  13.176  1.00  0.00     0.000 C 
BRANCH   6   7
ATOM      7  C   UNL     1       5.363   9.363  11.966  1.00  0.00     0.000 C 
BRANCH   7   8
ATOM      8  C   UNL     1       5.756   7.893  12.203  1.00  0.00     0.006 C 
BRANCH   8   9
ATOM      9  C   UNL     1       6.825   7.366  11.228  1.00  0.00     0.053 C 
BRANCH   9  10
ATOM     10  C   UNL     1       6.440   7.551   9.792  1.00  0.00     0.041 C 
ATOM     11  O   UNL     1       6.501   8.689   9.258  1.00  0.00    -0.550 OA
ATOM     12  O   UNL     1       5.986   6.468   9.049  1.00  0.00    -0.550 OA
ENDBRANCH   9  10
ENDBRANCH   8   9
ENDBRANCH   7   8
ENDBRANCH   6   7
ENDBRANCH   5   6
ENDBRANCH   4   5
ENDBRANCH   3   4
ENDBRANCH   1   3
BRANCH   2  13
ATOM     13  C   UNL     1       3.853  12.218  18.293  1.00  0.00     0.027 C 
BRANCH  13  14
ATOM     14  C   UNL     1       2.794  13.137  18.922  1.00  0.00     0.004 C 
BRANCH  14  15
ATOM     15  C   UNL     1       2.381  14.295  17.999  1.00  0.00     0.000 C 
BRANCH  15  16
ATOM     16  C   UNL     1       1.684  15.483  18.697  1.00  0.00     0.000 C 
BRANCH  16  17
ATOM     17  C   UNL     1       0.456  16.051  17.958  1.00  0.00    -0.000 C 
BRANCH  17  18
ATOM     18  C   UNL     1      -0.107  17.348  18.583  1.00  0.00    -0.000 C 
BRANCH  18  19
ATOM     19  C   UNL     1       0.854  18.544  18.483  1.00  0.00    -0.003 C 
ATOM     20  C   UNL     1       0.126  19.875  18.293  1.00  0.00     0.004 C 
ENDBRANCH  18  19
ENDBRANCH  17  18
ENDBRANCH  16  17
ENDBRANCH  15  16
ENDBRANCH  14  15
ENDBRANCH  13  14
ENDBRANCH   2  13
TORSDOF 15
ENDMDL
