MODEL 1
REMARK VINA RESULT:    -3.263      0.000      0.000
REMARK INTER + INTRA:          -4.942
REMARK INTER:                  -4.598
REMARK INTRA:                  -0.344
REMARK UNBOUND:                -0.344
REMARK SMILES CCCCCCCCC(=O)[O-]
REMARK SMILES IDX 6 1 7 2 8 3 9 4 10 5 11 6 5 7 4 8 3 9 2 10 1 11
REMARK H PARENT
REMARK Flexibility Score: inf
ROOT
ATOM      1  C   UNL     1      64.042  32.895  59.691  1.00  0.00     0.000 C 
ENDROOT
BRANCH   1   2
ATOM      2  C   UNL     1      64.984  33.593  60.687  1.00  0.00     0.006 C 
BRANCH   2   3
ATOM      3  C   UNL     1      64.431  34.943  61.159  1.00  0.00     0.053 C 
BRANCH   3   4
ATOM      4  C   UNL     1      65.396  35.655  62.057  1.00  0.00     0.041 C 
ATOM      5  O   UNL     1      66.547  35.954  61.640  1.00  0.00    -0.550 OA
ATOM      6  O   UNL     1      65.038  35.957  63.364  1.00  0.00    -0.550 OA
ENDBRANCH   3   4
ENDBRANCH   2   3
ENDBRANCH   1   2
BRANCH   1   7
ATOM      7  C   UNL     1      64.120  31.362  59.776  1.00  0.00     0.000 C 
BRANCH   7   8
ATOM      8  C   UNL     1      65.230  30.879  60.723  1.00  0.00    -0.000 C 
BRANCH   8   9
ATOM      9  C   UNL     1      64.899  29.490  61.289  1.00  0.00    -0.000 C 
BRANCH   9  10
ATOM     10  C   UNL     1      63.387  29.256  61.433  1.00  0.00    -0.003 C 
ATOM     11  C   UNL     1      62.991  27.795  61.213  1.00  0.00     0.004 C 
ENDBRANCH   9  10
ENDBRANCH   8   9
ENDBRANCH   7   8
ENDBRANCH   1   7
TORSDOF 7
ENDMDL
MODEL 2
REMARK VINA RESULT:    -3.203     14.183     15.640
REMARK INTER + INTRA:          -4.858
REMARK INTER:                  -4.493
REMARK INTRA:                  -0.365
REMARK UNBOUND:                -0.344
REMARK SMILES CCCCCCCCC(=O)[O-]
REMARK SMILES IDX 6 1 7 2 8 3 9 4 10 5 11 6 5 7 4 8 3 9 2 10 1 11
REMARK H PARENT
REMARK Flexibility Score: inf
ROOT
ATOM      1  C   UNL     1      57.381  26.343  51.165  1.00  0.00     0.000 C 
ENDROOT
BRANCH   1   2
ATOM      2  C   UNL     1      55.885  26.630  50.956  1.00  0.00     0.006 C 
BRANCH   2   3
ATOM      3  C   UNL     1      55.254  25.689  49.921  1.00  0.00     0.053 C 
BRANCH   3   4
ATOM      4  C   UNL     1      54.347  26.426  48.983  1.00  0.00     0.041 C 
ATOM      5  O   UNL     1      53.959  27.592  49.261  1.00  0.00    -0.550 OA
ATOM      6  O   UNL     1      53.902  25.812  47.820  1.00  0.00    -0.550 OA
ENDBRANCH   3   4
ENDBRANCH   2   3
ENDBRANCH   1   2
BRANCH   1   7
ATOM      7  C   UNL     1      57.896  25.200  50.275  1.00  0.00     0.000 C 
BRANCH   7   8
ATOM      8  C   UNL     1      59.324  25.446  49.765  1.00  0.00    -0.000 C 
BRANCH   8   9
ATOM      9  C   UNL     1      59.951  26.664  50.459  1.00  0.00    -0.000 C 
BRANCH   9  10
ATOM     10  C   UNL     1      60.875  27.464  49.526  1.00  0.00    -0.003 C 
ATOM     11  C   UNL     1      61.253  28.831  50.099  1.00  0.00     0.004 C 
ENDBRANCH   9  10
ENDBRANCH   8   9
ENDBRANCH   7   8
ENDBRANCH   1   7
TORSDOF 7
ENDMDL
MODEL 3
REMARK VINA RESULT:    -3.130      3.440      5.820
REMARK INTER + INTRA:          -4.755
REMARK INTER:                  -4.395
REMARK INTRA:                  -0.360
REMARK UNBOUND:                -0.344
REMARK SMILES CCCCCCCCC(=O)[O-]
REMARK SMILES IDX 6 1 7 2 8 3 9 4 10 5 11 6 5 7 4 8 3 9 2 10 1 11
REMARK H PARENT
REMARK Flexibility Score: inf
ROOT
ATOM      1  C   UNL     1      64.541  31.528  59.465  1.00  0.00     0.000 C 
ENDROOT
BRANCH   1   2
ATOM      2  C   UNL     1      65.105  31.258  60.870  1.00  0.00     0.006 C 
BRANCH   2   3
ATOM      3  C   UNL     1      64.603  29.929  61.450  1.00  0.00     0.053 C 
BRANCH   3   4
ATOM      4  C   UNL     1      65.322  28.758  60.852  1.00  0.00     0.041 C 
ATOM      5  O   UNL     1      64.700  27.934  60.129  1.00  0.00    -0.550 OA
ATOM      6  O   UNL     1      66.669  28.556  61.122  1.00  0.00    -0.550 OA
ENDBRANCH   3   4
ENDBRANCH   2   3
ENDBRANCH   1   2
BRANCH   1   7
ATOM      7  C   UNL     1      64.325  33.025  59.190  1.00  0.00     0.000 C 
BRANCH   7   8
ATOM      8  C   UNL     1      64.645  33.901  60.412  1.00  0.00    -0.000 C 
BRANCH   8   9
ATOM      9  C   UNL     1      63.609  35.025  60.565  1.00  0.00    -0.000 C 
BRANCH   9  10
ATOM     10  C   UNL     1      63.866  35.900  61.802  1.00  0.00    -0.003 C 
ATOM     11  C   UNL     1      65.233  35.641  62.436  1.00  0.00     0.004 C 
ENDBRANCH   9  10
ENDBRANCH   8   9
ENDBRANCH   7   8
ENDBRANCH   1   7
TORSDOF 7
ENDMDL
MODEL 4
REMARK VINA RESULT:    -3.080      3.536      5.907
REMARK INTER + INTRA:          -4.684
REMARK INTER:                  -4.271
REMARK INTRA:                  -0.413
REMARK UNBOUND:                -0.344
REMARK SMILES CCCCCCCCC(=O)[O-]
REMARK SMILES IDX 6 1 7 2 8 3 9 4 10 5 11 6 5 7 4 8 3 9 2 10 1 11
REMARK H PARENT
REMARK Flexibility Score: inf
ROOT
ATOM      1  C   UNL     1      65.097  32.187  60.820  1.00  0.00     0.000 C 
ENDROOT
BRANCH   1   2
ATOM      2  C   UNL     1      64.804  30.680  60.724  1.00  0.00     0.006 C 
BRANCH   2   3
ATOM      3  C   UNL     1      63.536  30.387  59.913  1.00  0.00     0.053 C 
BRANCH   3   4
ATOM      4  C   UNL     1      62.621  29.446  60.636  1.00  0.00     0.041 C 
ATOM      5  O   UNL     1      62.930  29.014  61.779  1.00  0.00    -0.550 OA
ATOM      6  O   UNL     1      61.445  29.018  60.034  1.00  0.00    -0.550 OA
ENDBRANCH   3   4
ENDBRANCH   2   3
ENDBRANCH   1   2
BRANCH   1   7
ATOM      7  C   UNL     1      64.239  33.020  59.854  1.00  0.00     0.000 C 
BRANCH   7   8
ATOM      8  C   UNL     1      64.512  34.527  59.971  1.00  0.00    -0.000 C 
BRANCH   8   9
ATOM      9  C   UNL     1      63.322  35.251  60.619  1.00  0.00    -0.000 C 
BRANCH   9  10
ATOM     10  C   UNL     1      63.724  36.046  61.871  1.00  0.00    -0.003 C 
ATOM     11  C   UNL     1      65.115  35.674  62.386  1.00  0.00     0.004 C 
ENDBRANCH   9  10
ENDBRANCH   8   9
ENDBRANCH   7   8
ENDBRANCH   1   7
TORSDOF 7
ENDMDL
MODEL 5
REMARK VINA RESULT:    -3.063     14.145     15.666
REMARK INTER + INTRA:          -4.660
REMARK INTER:                  -4.246
REMARK INTRA:                  -0.414
REMARK UNBOUND:                -0.344
REMARK SMILES CCCCCCCCC(=O)[O-]
REMARK SMILES IDX 6 1 7 2 8 3 9 4 10 5 11 6 5 7 4 8 3 9 2 10 1 11
REMARK H PARENT
REMARK Flexibility Score: inf
ROOT
ATOM      1  C   UNL     1      58.090  26.323  51.193  1.00  0.00     0.000 C 
ENDROOT
BRANCH   1   2
ATOM      2  C   UNL     1      58.312  25.295  50.070  1.00  0.00     0.006 C 
BRANCH   2   3
ATOM      3  C   UNL     1      59.798  24.976  49.865  1.00  0.00     0.053 C 
BRANCH   3   4
ATOM      4  C   UNL     1      60.133  23.585  50.311  1.00  0.00     0.041 C 
ATOM      5  O   UNL     1      60.983  22.903  49.679  1.00  0.00    -0.550 OA
ATOM      6  O   UNL     1      59.481  23.029  51.404  1.00  0.00    -0.550 OA
ENDBRANCH   3   4
ENDBRANCH   2   3
ENDBRANCH   1   2
BRANCH   1   7
ATOM      7  C   UNL     1      56.699  26.204  51.838  1.00  0.00     0.000 C 
BRANCH   7   8
ATOM      8  C   UNL     1      55.613  25.797  50.830  1.00  0.00    -0.000 C 
BRANCH   8   9
ATOM      9  C   UNL     1      54.800  27.019  50.378  1.00  0.00    -0.000 C 
BRANCH   9  10
ATOM     10  C   UNL     1      54.047  26.773  49.060  1.00  0.00    -0.003 C 
ATOM     11  C   UNL     1      54.312  25.384  48.479  1.00  0.00     0.004 C 
ENDBRANCH   9  10
ENDBRANCH   8   9
ENDBRANCH   7   8
ENDBRANCH   1   7
TORSDOF 7
ENDMDL
MODEL 6
REMARK VINA RESULT:    -3.048     13.088     14.414
REMARK INTER + INTRA:          -4.639
REMARK INTER:                  -4.430
REMARK INTRA:                  -0.210
REMARK UNBOUND:                -0.344
REMARK SMILES CCCCCCCCC(=O)[O-]
REMARK SMILES IDX 6 1 7 2 8 3 9 4 10 5 11 6 5 7 4 8 3 9 2 10 1 11
REMARK H PARENT
REMARK Flexibility Score: inf
ROOT
ATOM      1  C   UNL     1      59.405  25.807  50.757  1.00  0.00     0.000 C 
ENDROOT
BRANCH   1   2
ATOM      2  C   UNL     1      60.520  25.891  49.701  1.00  0.00     0.006 C 
BRANCH   2   3
ATOM      3  C   UNL     1      60.884  27.342  49.358  1.00  0.00     0.053 C 
BRANCH   3   4
ATOM      4  C   UNL     1      62.365  27.564  49.391  1.00  0.00     0.041 C 
ATOM      5  O   UNL     1      63.155  26.599  49.206  1.00  0.00    -0.550 OA
ATOM      6  O   UNL     1      62.874  28.827  49.660  1.00  0.00    -0.550 OA
ENDBRANCH   3   4
ENDBRANCH   2   3
ENDBRANCH   1   2
BRANCH   1   7
ATOM      7  C   UNL     1      58.096  25.230  50.192  1.00  0.00     0.000 C 
BRANCH   7   8
ATOM      8  C   UNL     1      56.859  26.021  50.645  1.00  0.00    -0.000 C 
BRANCH   8   9
ATOM      9  C   UNL     1      55.618  25.603  49.842  1.00  0.00    -0.000 C 
BRANCH   9  10
ATOM     10  C   UNL     1      54.612  26.751  49.669  1.00  0.00    -0.003 C 
ATOM     11  C   UNL     1      54.711  27.797  50.780  1.00  0.00     0.004 C 
ENDBRANCH   9  10
ENDBRANCH   8   9
ENDBRANCH   7   8
ENDBRANCH   1   7
TORSDOF 7
ENDMDL
MODEL 7
REMARK VINA RESULT:    -2.982      4.257      6.488
REMARK INTER + INTRA:          -4.546
REMARK INTER:                  -4.237
REMARK INTRA:                  -0.309
REMARK UNBOUND:                -0.344
REMARK SMILES CCCCCCCCC(=O)[O-]
REMARK SMILES IDX 6 1 7 2 8 3 9 4 10 5 11 6 5 7 4 8 3 9 2 10 1 11
REMARK H PARENT
REMARK Flexibility Score: inf
ROOT
ATOM      1  C   UNL     1      64.874  30.460  61.440  1.00  0.00     0.000 C 
ENDROOT
BRANCH   1   2
ATOM      2  C   UNL     1      64.307  29.165  60.834  1.00  0.00     0.006 C 
BRANCH   2   3
ATOM      3  C   UNL     1      62.967  28.769  61.467  1.00  0.00     0.053 C 
BRANCH   3   4
ATOM      4  C   UNL     1      62.778  27.283  61.479  1.00  0.00     0.041 C 
ATOM      5  O   UNL     1      61.641  26.790  61.708  1.00  0.00    -0.550 OA
ATOM      6  O   UNL     1      63.863  26.442  61.271  1.00  0.00    -0.550 OA
ENDBRANCH   3   4
ENDBRANCH   2   3
ENDBRANCH   1   2
BRANCH   1   7
ATOM      7  C   UNL     1      65.310  31.474  60.369  1.00  0.00     0.000 C 
BRANCH   7   8
ATOM      8  C   UNL     1      64.117  32.111  59.638  1.00  0.00    -0.000 C 
BRANCH   8   9
ATOM      9  C   UNL     1      64.108  33.635  59.830  1.00  0.00    -0.000 C 
BRANCH   9  10
ATOM     10  C   UNL     1      64.970  34.085  61.021  1.00  0.00    -0.003 C 
ATOM     11  C   UNL     1      64.453  35.368  61.673  1.00  0.00     0.004 C 
ENDBRANCH   9  10
ENDBRANCH   8   9
ENDBRANCH   7   8
ENDBRANCH   1   7
TORSDOF 7
ENDMDL
MODEL 8
REMARK VINA RESULT:    -2.979     14.618     15.699
REMARK INTER + INTRA:          -4.542
REMARK INTER:                  -4.317
REMARK INTRA:                  -0.225
REMARK UNBOUND:                -0.344
REMARK SMILES CCCCCCCCC(=O)[O-]
REMARK SMILES IDX 6 1 7 2 8 3 9 4 10 5 11 6 5 7 4 8 3 9 2 10 1 11
REMARK H PARENT
REMARK Flexibility Score: inf
ROOT
ATOM      1  C   UNL     1      59.837  25.817  49.928  1.00  0.00     0.000 C 
ENDROOT
BRANCH   1   2
ATOM      2  C   UNL     1      60.940  24.753  50.058  1.00  0.00     0.006 C 
BRANCH   2   3
ATOM      3  C   UNL     1      60.365  23.341  50.227  1.00  0.00     0.053 C 
BRANCH   3   4
ATOM      4  C   UNL     1      61.322  22.292  49.747  1.00  0.00     0.041 C 
ATOM      5  O   UNL     1      61.133  21.721  48.640  1.00  0.00    -0.550 OA
ATOM      6  O   UNL     1      62.402  21.921  50.537  1.00  0.00    -0.550 OA
ENDBRANCH   3   4
ENDBRANCH   2   3
ENDBRANCH   1   2
BRANCH   1   7
ATOM      7  C   UNL     1      58.427  25.206  49.880  1.00  0.00     0.000 C 
BRANCH   7   8
ATOM      8  C   UNL     1      57.459  25.875  50.869  1.00  0.00    -0.000 C 
BRANCH   8   9
ATOM      9  C   UNL     1      56.004  25.716  50.403  1.00  0.00    -0.000 C 
BRANCH   9  10
ATOM     10  C   UNL     1      55.096  26.850  50.905  1.00  0.00    -0.003 C 
ATOM     11  C   UNL     1      54.334  27.541  49.774  1.00  0.00     0.004 C 
ENDBRANCH   9  10
ENDBRANCH   8   9
ENDBRANCH   7   8
ENDBRANCH   1   7
TORSDOF 7
ENDMDL
MODEL 9
REMARK VINA RESULT:    -2.931      6.744      8.417
REMARK INTER + INTRA:          -4.474
REMARK INTER:                  -3.910
REMARK INTRA:                  -0.564
REMARK UNBOUND:                -0.344
REMARK SMILES CCCCCCCCC(=O)[O-]
REMARK SMILES IDX 6 1 7 2 8 3 9 4 10 5 11 6 5 7 4 8 3 9 2 10 1 11
REMARK H PARENT
REMARK Flexibility Score: inf
ROOT
ATOM      1  C   UNL     1      71.121  28.477  60.513  1.00  0.00     0.000 C 
ENDROOT
BRANCH   1   2
ATOM      2  C   UNL     1      70.118  29.323  61.315  1.00  0.00     0.006 C 
BRANCH   2   3
ATOM      3  C   UNL     1      68.901  28.504  61.765  1.00  0.00     0.053 C 
BRANCH   3   4
ATOM      4  C   UNL     1      67.808  28.527  60.741  1.00  0.00     0.041 C 
ATOM      5  O   UNL     1      66.844  29.329  60.860  1.00  0.00    -0.550 OA
ATOM      6  O   UNL     1      67.836  27.640  59.673  1.00  0.00    -0.550 OA
ENDBRANCH   3   4
ENDBRANCH   2   3
ENDBRANCH   1   2
BRANCH   1   7
ATOM      7  C   UNL     1      72.572  28.677  60.980  1.00  0.00     0.000 C 
BRANCH   7   8
ATOM      8  C   UNL     1      72.777  30.012  61.713  1.00  0.00    -0.000 C 
BRANCH   8   9
ATOM      9  C   UNL     1      73.420  31.053  60.785  1.00  0.00    -0.000 C 
BRANCH   9  10
ATOM     10  C   UNL     1      72.498  32.253  60.515  1.00  0.00    -0.003 C 
ATOM     11  C   UNL     1      71.828  32.186  59.142  1.00  0.00     0.004 C 
ENDBRANCH   9  10
ENDBRANCH   8   9
ENDBRANCH   7   8
ENDBRANCH   1   7
TORSDOF 7
ENDMDL
