MODEL 1
REMARK VINA RESULT:    -6.156      0.000      0.000
REMARK INTER + INTRA:          -8.275
REMARK INTER:                  -7.775
REMARK INTRA:                  -0.500
REMARK UNBOUND:                -0.500
REMARK SMILES Oc1ccc(CCc2cc(O)cc(O)c2)cc1
REMARK SMILES IDX 6 1 5 2 4 3 3 4 2 5 16 6 17 7 1 8 7 10 8 11 15 12 9 13 13 14
REMARK SMILES IDX 10 15 12 16 14 17 11 19
REMARK H PARENT 1 9 14 18 11 20
REMARK Flexibility Score: inf
ROOT
ATOM      1  C   UNL     1     -13.337   1.488  27.562  1.00  0.00     0.040 C 
ENDROOT
BRANCH   1   2
ATOM      2  C   UNL     1     -14.235   2.604  27.090  1.00  0.00    -0.047 A 
ATOM      3  C   UNL     1     -13.815   3.460  26.060  1.00  0.00     0.007 A 
ATOM      4  C   UNL     1     -14.665   4.467  25.590  1.00  0.00     0.046 A 
ATOM      5  C   UNL     1     -15.945   4.620  26.140  1.00  0.00     0.115 A 
ATOM      6  C   UNL     1     -15.521   2.758  27.633  1.00  0.00     0.007 A 
ATOM      7  C   UNL     1     -16.370   3.764  27.160  1.00  0.00     0.046 A 
BRANCH   5   8
ATOM      8  O   UNL     1     -16.802   5.616  25.677  1.00  0.00    -0.508 OA
ATOM      9  H   UNL     1     -16.447   6.493  25.311  1.00  0.00     0.293 HD
ENDBRANCH   5   8
ENDBRANCH   1   2
BRANCH   1  10
ATOM     10  C   UNL     1     -13.848   0.860  28.868  1.00  0.00     0.040 C 
BRANCH  10  11
ATOM     11  C   UNL     1     -13.066   1.341  30.063  1.00  0.00    -0.040 A 
ATOM     12  C   UNL     1     -12.738   0.450  31.097  1.00  0.00     0.050 A 
ATOM     13  C   UNL     1     -12.605   2.666  30.123  1.00  0.00     0.050 A 
ATOM     14  C   UNL     1     -11.972   0.880  32.186  1.00  0.00     0.119 A 
ATOM     15  C   UNL     1     -11.836   3.100  31.208  1.00  0.00     0.119 A 
ATOM     16  C   UNL     1     -11.523   2.206  32.241  1.00  0.00     0.092 A 
BRANCH  14  17
ATOM     17  O   UNL     1     -11.659  -0.018  33.204  1.00  0.00    -0.508 OA
ATOM     18  H   UNL     1     -10.806   0.068  33.742  1.00  0.00     0.293 HD
ENDBRANCH  14  17
BRANCH  15  19
ATOM     19  O   UNL     1     -11.388   4.418  31.249  1.00  0.00    -0.508 OA
ATOM     20  H   UNL     1     -11.674   5.097  30.553  1.00  0.00     0.293 HD
ENDBRANCH  15  19
ENDBRANCH  10  11
ENDBRANCH   1  10
TORSDOF 6
ENDMDL
MODEL 2
REMARK VINA RESULT:    -6.139      0.097      2.356
REMARK INTER + INTRA:          -8.254
REMARK INTER:                  -7.722
REMARK INTRA:                  -0.532
REMARK UNBOUND:                -0.500
REMARK SMILES Oc1ccc(CCc2cc(O)cc(O)c2)cc1
REMARK SMILES IDX 6 1 5 2 4 3 3 4 2 5 16 6 17 7 1 8 7 10 8 11 15 12 9 13 13 14
REMARK SMILES IDX 10 15 12 16 14 17 11 19
REMARK H PARENT 1 9 14 18 11 20
REMARK Flexibility Score: inf
ROOT
ATOM      1  C   UNL     1     -13.347   1.399  27.535  1.00  0.00     0.040 C 
ENDROOT
BRANCH   1   2
ATOM      2  C   UNL     1     -14.286   2.469  27.037  1.00  0.00    -0.047 A 
ATOM      3  C   UNL     1     -15.538   2.649  27.646  1.00  0.00     0.007 A 
ATOM      4  C   UNL     1     -16.391   3.671  27.216  1.00  0.00     0.046 A 
ATOM      5  C   UNL     1     -15.995   4.527  26.179  1.00  0.00     0.115 A 
ATOM      6  C   UNL     1     -13.892   3.334  26.003  1.00  0.00     0.007 A 
ATOM      7  C   UNL     1     -14.746   4.356  25.576  1.00  0.00     0.046 A 
BRANCH   5   8
ATOM      8  O   UNL     1     -16.834   5.550  25.744  1.00  0.00    -0.508 OA
ATOM      9  H   UNL     1     -16.590   6.526  25.874  1.00  0.00     0.293 HD
ENDBRANCH   5   8
ENDBRANCH   1   2
BRANCH   1  10
ATOM     10  C   UNL     1     -13.822   0.800  28.867  1.00  0.00     0.040 C 
BRANCH  10  11
ATOM     11  C   UNL     1     -12.985   1.279  30.025  1.00  0.00    -0.040 A 
ATOM     12  C   UNL     1     -12.548   2.612  30.077  1.00  0.00     0.050 A 
ATOM     13  C   UNL     1     -12.688   0.415  31.092  1.00  0.00     0.050 A 
ATOM     14  C   UNL     1     -11.811   3.074  31.172  1.00  0.00     0.119 A 
ATOM     15  C   UNL     1     -11.954   0.872  32.190  1.00  0.00     0.119 A 
ATOM     16  C   UNL     1     -11.512   2.202  32.228  1.00  0.00     0.092 A 
BRANCH  14  17
ATOM     17  O   UNL     1     -11.383   4.400  31.204  1.00  0.00    -0.508 OA
ATOM     18  H   UNL     1     -10.709   4.722  31.887  1.00  0.00     0.293 HD
ENDBRANCH  14  17
BRANCH  15  19
ATOM     19  O   UNL     1     -11.671   0.001  33.238  1.00  0.00    -0.508 OA
ATOM     20  H   UNL     1     -12.110   0.103  34.147  1.00  0.00     0.293 HD
ENDBRANCH  15  19
ENDBRANCH  10  11
ENDBRANCH   1  10
TORSDOF 6
ENDMDL
MODEL 3
REMARK VINA RESULT:    -6.072      1.365      6.885
REMARK INTER + INTRA:          -8.169
REMARK INTER:                  -7.754
REMARK INTRA:                  -0.415
REMARK UNBOUND:                -0.500
REMARK SMILES Oc1ccc(CCc2cc(O)cc(O)c2)cc1
REMARK SMILES IDX 6 1 5 2 4 3 3 4 2 5 16 6 17 7 1 8 7 10 8 11 15 12 9 13 13 14
REMARK SMILES IDX 10 15 12 16 14 17 11 19
REMARK H PARENT 1 9 14 18 11 20
REMARK Flexibility Score: inf
ROOT
ATOM      1  C   UNL     1     -14.153   1.435  28.469  1.00  0.00     0.040 C 
ENDROOT
BRANCH   1   2
ATOM      2  C   UNL     1     -13.358   1.221  29.733  1.00  0.00    -0.047 A 
ATOM      3  C   UNL     1     -12.677   2.294  30.329  1.00  0.00     0.007 A 
ATOM      4  C   UNL     1     -11.978   2.107  31.526  1.00  0.00     0.046 A 
ATOM      5  C   UNL     1     -11.960   0.848  32.141  1.00  0.00     0.115 A 
ATOM      6  C   UNL     1     -13.343  -0.037  30.357  1.00  0.00     0.007 A 
ATOM      7  C   UNL     1     -12.645  -0.221  31.554  1.00  0.00     0.046 A 
BRANCH   5   8
ATOM      8  O   UNL     1     -11.270   0.651  33.335  1.00  0.00    -0.508 OA
ATOM      9  H   UNL     1     -11.162  -0.274  33.737  1.00  0.00     0.293 HD
ENDBRANCH   5   8
ENDBRANCH   1   2
BRANCH   1  10
ATOM     10  C   UNL     1     -13.322   2.140  27.387  1.00  0.00     0.040 C 
BRANCH  10  11
ATOM     11  C   UNL     1     -14.190   2.931  26.442  1.00  0.00    -0.040 A 
ATOM     12  C   UNL     1     -13.906   2.946  25.067  1.00  0.00     0.050 A 
ATOM     13  C   UNL     1     -15.324   3.608  26.919  1.00  0.00     0.050 A 
ATOM     14  C   UNL     1     -14.735   3.640  24.180  1.00  0.00     0.119 A 
ATOM     15  C   UNL     1     -16.158   4.301  26.036  1.00  0.00     0.119 A 
ATOM     16  C   UNL     1     -15.861   4.319  24.666  1.00  0.00     0.092 A 
BRANCH  14  17
ATOM     17  O   UNL     1     -14.436   3.646  22.819  1.00  0.00    -0.508 OA
ATOM     18  H   UNL     1     -13.483   3.567  22.487  1.00  0.00     0.293 HD
ENDBRANCH  14  17
BRANCH  15  19
ATOM     19  O   UNL     1     -17.279   4.965  26.528  1.00  0.00    -0.508 OA
ATOM     20  H   UNL     1     -17.205   5.874  26.971  1.00  0.00     0.293 HD
ENDBRANCH  15  19
ENDBRANCH  10  11
ENDBRANCH   1  10
TORSDOF 6
ENDMDL
MODEL 4
REMARK VINA RESULT:    -6.051      1.420      6.893
REMARK INTER + INTRA:          -8.144
REMARK INTER:                  -7.752
REMARK INTRA:                  -0.392
REMARK UNBOUND:                -0.500
REMARK SMILES Oc1ccc(CCc2cc(O)cc(O)c2)cc1
REMARK SMILES IDX 6 1 5 2 4 3 3 4 2 5 16 6 17 7 1 8 7 10 8 11 15 12 9 13 13 14
REMARK SMILES IDX 10 15 12 16 14 17 11 19
REMARK H PARENT 1 9 14 18 11 20
REMARK Flexibility Score: inf
ROOT
ATOM      1  C   UNL     1     -14.072   1.502  28.402  1.00  0.00     0.040 C 
ENDROOT
BRANCH   1   2
ATOM      2  C   UNL     1     -13.317   1.261  29.686  1.00  0.00    -0.047 A 
ATOM      3  C   UNL     1     -12.630   2.314  30.309  1.00  0.00     0.007 A 
ATOM      4  C   UNL     1     -11.969   2.104  31.523  1.00  0.00     0.046 A 
ATOM      5  C   UNL     1     -11.997   0.840  32.129  1.00  0.00     0.115 A 
ATOM      6  C   UNL     1     -13.348  -0.002  30.301  1.00  0.00     0.007 A 
ATOM      7  C   UNL     1     -12.687  -0.209  31.515  1.00  0.00     0.046 A 
BRANCH   5   8
ATOM      8  O   UNL     1     -11.345   0.618  33.340  1.00  0.00    -0.508 OA
ATOM      9  H   UNL     1     -11.665   1.050  34.200  1.00  0.00     0.293 HD
ENDBRANCH   5   8
ENDBRANCH   1   2
BRANCH   1  10
ATOM     10  C   UNL     1     -13.230   2.291  27.388  1.00  0.00     0.040 C 
BRANCH  10  11
ATOM     11  C   UNL     1     -14.093   2.979  26.361  1.00  0.00    -0.040 A 
ATOM     12  C   UNL     1     -15.212   3.724  26.765  1.00  0.00     0.050 A 
ATOM     13  C   UNL     1     -13.750   2.933  25.000  1.00  0.00     0.050 A 
ATOM     14  C   UNL     1     -15.989   4.403  25.820  1.00  0.00     0.119 A 
ATOM     15  C   UNL     1     -14.522   3.613  24.052  1.00  0.00     0.119 A 
ATOM     16  C   UNL     1     -15.644   4.345  24.463  1.00  0.00     0.092 A 
BRANCH  14  17
ATOM     17  O   UNL     1     -17.098   5.135  26.239  1.00  0.00    -0.508 OA
ATOM     18  H   UNL     1     -17.491   5.874  25.670  1.00  0.00     0.293 HD
ENDBRANCH  14  17
BRANCH  15  19
ATOM     19  O   UNL     1     -14.165   3.556  22.707  1.00  0.00    -0.508 OA
ATOM     20  H   UNL     1     -13.351   4.046  22.354  1.00  0.00     0.293 HD
ENDBRANCH  15  19
ENDBRANCH  10  11
ENDBRANCH   1  10
TORSDOF 6
ENDMDL
MODEL 5
REMARK VINA RESULT:    -6.004      9.257     11.539
REMARK INTER + INTRA:          -8.084
REMARK INTER:                  -7.575
REMARK INTRA:                  -0.509
REMARK UNBOUND:                -0.500
REMARK SMILES Oc1ccc(CCc2cc(O)cc(O)c2)cc1
REMARK SMILES IDX 6 1 5 2 4 3 3 4 2 5 16 6 17 7 1 8 7 10 8 11 15 12 9 13 13 14
REMARK SMILES IDX 10 15 12 16 14 17 11 19
REMARK H PARENT 1 9 14 18 11 20
REMARK Flexibility Score: inf
ROOT
ATOM      1  C   UNL     1      -4.758  -0.552  30.407  1.00  0.00     0.040 C 
ENDROOT
BRANCH   1   2
ATOM      2  C   UNL     1      -4.995   0.225  31.678  1.00  0.00    -0.047 A 
ATOM      3  C   UNL     1      -4.035   1.142  32.134  1.00  0.00     0.007 A 
ATOM      4  C   UNL     1      -4.273   1.898  33.287  1.00  0.00     0.046 A 
ATOM      5  C   UNL     1      -5.477   1.749  33.989  1.00  0.00     0.115 A 
ATOM      6  C   UNL     1      -6.203   0.085  32.382  1.00  0.00     0.007 A 
ATOM      7  C   UNL     1      -6.439   0.842  33.533  1.00  0.00     0.046 A 
BRANCH   5   8
ATOM      8  O   UNL     1      -5.728   2.498  35.136  1.00  0.00    -0.508 OA
ATOM      9  H   UNL     1      -5.627   2.098  36.062  1.00  0.00     0.293 HD
ENDBRANCH   5   8
ENDBRANCH   1   2
BRANCH   1  10
ATOM     10  C   UNL     1      -4.797   0.357  29.169  1.00  0.00     0.040 C 
BRANCH  10  11
ATOM     11  C   UNL     1      -3.544   0.226  28.341  1.00  0.00    -0.040 A 
ATOM     12  C   UNL     1      -2.283   0.286  28.955  1.00  0.00     0.050 A 
ATOM     13  C   UNL     1      -3.628  -0.020  26.961  1.00  0.00     0.050 A 
ATOM     14  C   UNL     1      -1.119   0.119  28.197  1.00  0.00     0.119 A 
ATOM     15  C   UNL     1      -2.468  -0.192  26.200  1.00  0.00     0.119 A 
ATOM     16  C   UNL     1      -1.212  -0.119  26.819  1.00  0.00     0.092 A 
BRANCH  14  17
ATOM     17  O   UNL     1       0.125   0.185  28.823  1.00  0.00    -0.508 OA
ATOM     18  H   UNL     1       0.284  -0.235  29.730  1.00  0.00     0.293 HD
ENDBRANCH  14  17
BRANCH  15  19
ATOM     19  O   UNL     1      -2.572  -0.436  24.834  1.00  0.00    -0.508 OA
ATOM     20  H   UNL     1      -3.075  -1.240  24.475  1.00  0.00     0.293 HD
ENDBRANCH  15  19
ENDBRANCH  10  11
ENDBRANCH   1  10
TORSDOF 6
ENDMDL
MODEL 6
REMARK VINA RESULT:    -5.772      9.960     11.471
REMARK INTER + INTRA:          -7.791
REMARK INTER:                  -7.040
REMARK INTRA:                  -0.752
REMARK UNBOUND:                -0.500
REMARK SMILES Oc1ccc(CCc2cc(O)cc(O)c2)cc1
REMARK SMILES IDX 6 1 5 2 4 3 3 4 2 5 16 6 17 7 1 8 7 10 8 11 15 12 9 13 13 14
REMARK SMILES IDX 10 15 12 16 14 17 11 19
REMARK H PARENT 1 9 14 18 11 20
REMARK Flexibility Score: inf
ROOT
ATOM      1  C   UNL     1      -0.328   1.092  28.512  1.00  0.00     0.040 C 
ENDROOT
BRANCH   1   2
ATOM      2  C   UNL     1      -1.361   0.981  27.419  1.00  0.00    -0.047 A 
ATOM      3  C   UNL     1      -1.433  -0.178  26.629  1.00  0.00     0.007 A 
ATOM      4  C   UNL     1      -2.419  -0.301  25.646  1.00  0.00     0.046 A 
ATOM      5  C   UNL     1      -3.348   0.730  25.449  1.00  0.00     0.115 A 
ATOM      6  C   UNL     1      -2.299   2.008  27.221  1.00  0.00     0.007 A 
ATOM      7  C   UNL     1      -3.285   1.882  26.238  1.00  0.00     0.046 A 
BRANCH   5   8
ATOM      8  O   UNL     1      -4.338   0.618  24.474  1.00  0.00    -0.508 OA
ATOM      9  H   UNL     1      -4.291   1.145  23.609  1.00  0.00     0.293 HD
ENDBRANCH   5   8
ENDBRANCH   1   2
BRANCH   1  10
ATOM     10  C   UNL     1      -0.604   0.105  29.657  1.00  0.00     0.040 C 
BRANCH  10  11
ATOM     11  C   UNL     1      -1.980   0.297  30.241  1.00  0.00    -0.040 A 
ATOM     12  C   UNL     1      -2.294   1.477  30.935  1.00  0.00     0.050 A 
ATOM     13  C   UNL     1      -2.978  -0.672  30.043  1.00  0.00     0.050 A 
ATOM     14  C   UNL     1      -3.584   1.680  31.438  1.00  0.00     0.119 A 
ATOM     15  C   UNL     1      -4.268  -0.472  30.542  1.00  0.00     0.119 A 
ATOM     16  C   UNL     1      -4.570   0.704  31.243  1.00  0.00     0.092 A 
BRANCH  14  17
ATOM     17  O   UNL     1      -3.876   2.856  32.127  1.00  0.00    -0.508 OA
ATOM     18  H   UNL     1      -4.691   2.932  32.722  1.00  0.00     0.293 HD
ENDBRANCH  14  17
BRANCH  15  19
ATOM     19  O   UNL     1      -5.243  -1.444  30.334  1.00  0.00    -0.508 OA
ATOM     20  H   UNL     1      -5.105  -2.405  30.628  1.00  0.00     0.293 HD
ENDBRANCH  15  19
ENDBRANCH  10  11
ENDBRANCH   1  10
TORSDOF 6
ENDMDL
MODEL 7
REMARK VINA RESULT:    -5.742      1.367      2.632
REMARK INTER + INTRA:          -7.753
REMARK INTER:                  -7.227
REMARK INTRA:                  -0.526
REMARK UNBOUND:                -0.500
REMARK SMILES Oc1ccc(CCc2cc(O)cc(O)c2)cc1
REMARK SMILES IDX 6 1 5 2 4 3 3 4 2 5 16 6 17 7 1 8 7 10 8 11 15 12 9 13 13 14
REMARK SMILES IDX 10 15 12 16 14 17 11 19
REMARK H PARENT 1 9 14 18 11 20
REMARK Flexibility Score: inf
ROOT
ATOM      1  C   UNL     1     -14.915   2.604  28.219  1.00  0.00     0.040 C 
ENDROOT
BRANCH   1   2
ATOM      2  C   UNL     1     -14.763   2.938  26.755  1.00  0.00    -0.047 A 
ATOM      3  C   UNL     1     -13.524   2.767  26.117  1.00  0.00     0.007 A 
ATOM      4  C   UNL     1     -13.394   3.032  24.750  1.00  0.00     0.046 A 
ATOM      5  C   UNL     1     -14.502   3.463  24.008  1.00  0.00     0.115 A 
ATOM      6  C   UNL     1     -15.872   3.364  26.006  1.00  0.00     0.007 A 
ATOM      7  C   UNL     1     -15.739   3.627  24.639  1.00  0.00     0.046 A 
BRANCH   5   8
ATOM      8  O   UNL     1     -14.386   3.727  22.645  1.00  0.00    -0.508 OA
ATOM      9  H   UNL     1     -14.581   3.016  21.949  1.00  0.00     0.293 HD
ENDBRANCH   5   8
ENDBRANCH   1   2
BRANCH   1  10
ATOM     10  C   UNL     1     -14.093   1.366  28.607  1.00  0.00     0.040 C 
BRANCH  10  11
ATOM     11  C   UNL     1     -13.179   1.645  29.772  1.00  0.00    -0.040 A 
ATOM     12  C   UNL     1     -12.637   2.927  29.953  1.00  0.00     0.050 A 
ATOM     13  C   UNL     1     -12.912   0.644  30.721  1.00  0.00     0.050 A 
ATOM     14  C   UNL     1     -11.826   3.203  31.059  1.00  0.00     0.119 A 
ATOM     15  C   UNL     1     -12.104   0.916  31.829  1.00  0.00     0.119 A 
ATOM     16  C   UNL     1     -11.558   2.196  31.996  1.00  0.00     0.092 A 
BRANCH  14  17
ATOM     17  O   UNL     1     -11.294   4.482  31.220  1.00  0.00    -0.508 OA
ATOM     18  H   UNL     1     -11.015   4.828  32.130  1.00  0.00     0.293 HD
ENDBRANCH  14  17
BRANCH  15  19
ATOM     19  O   UNL     1     -11.852  -0.089  32.759  1.00  0.00    -0.508 OA
ATOM     20  H   UNL     1     -12.578  -0.436  33.376  1.00  0.00     0.293 HD
ENDBRANCH  15  19
ENDBRANCH  10  11
ENDBRANCH   1  10
TORSDOF 6
ENDMDL
MODEL 8
REMARK VINA RESULT:    -5.670     12.036     12.984
REMARK INTER + INTRA:          -7.661
REMARK INTER:                  -7.219
REMARK INTRA:                  -0.443
REMARK UNBOUND:                -0.500
REMARK SMILES Oc1ccc(CCc2cc(O)cc(O)c2)cc1
REMARK SMILES IDX 6 1 5 2 4 3 3 4 2 5 16 6 17 7 1 8 7 10 8 11 15 12 9 13 13 14
REMARK SMILES IDX 10 15 12 16 14 17 11 19
REMARK H PARENT 1 9 14 18 11 20
REMARK Flexibility Score: inf
ROOT
ATOM      1  C   UNL     1      -0.168   1.985  29.276  1.00  0.00     0.040 C 
ENDROOT
BRANCH   1   2
ATOM      2  C   UNL     1      -0.908   1.359  28.120  1.00  0.00    -0.047 A 
ATOM      3  C   UNL     1      -1.832   2.115  27.381  1.00  0.00     0.007 A 
ATOM      4  C   UNL     1      -2.484   1.550  26.280  1.00  0.00     0.046 A 
ATOM      5  C   UNL     1      -2.213   0.227  25.905  1.00  0.00     0.115 A 
ATOM      6  C   UNL     1      -0.635   0.036  27.735  1.00  0.00     0.007 A 
ATOM      7  C   UNL     1      -1.288  -0.526  26.634  1.00  0.00     0.046 A 
BRANCH   5   8
ATOM      8  O   UNL     1      -2.854  -0.346  24.809  1.00  0.00    -0.508 OA
ATOM      9  H   UNL     1      -3.766  -0.025  24.502  1.00  0.00     0.293 HD
ENDBRANCH   5   8
ENDBRANCH   1   2
BRANCH   1  10
ATOM     10  C   UNL     1      -0.942   1.836  30.594  1.00  0.00     0.040 C 
BRANCH  10  11
ATOM     11  C   UNL     1      -0.847   3.079  31.441  1.00  0.00    -0.040 A 
ATOM     12  C   UNL     1      -0.426   2.992  32.778  1.00  0.00     0.050 A 
ATOM     13  C   UNL     1      -1.118   4.340  30.885  1.00  0.00     0.050 A 
ATOM     14  C   UNL     1      -0.291   4.148  33.554  1.00  0.00     0.119 A 
ATOM     15  C   UNL     1      -0.982   5.498  31.656  1.00  0.00     0.119 A 
ATOM     16  C   UNL     1      -0.571   5.401  32.993  1.00  0.00     0.092 A 
BRANCH  14  17
ATOM     17  O   UNL     1       0.125   4.042  34.880  1.00  0.00    -0.508 OA
ATOM     18  H   UNL     1      -0.531   3.849  35.627  1.00  0.00     0.293 HD
ENDBRANCH  14  17
BRANCH  15  19
ATOM     19  O   UNL     1      -1.254   6.739  31.086  1.00  0.00    -0.508 OA
ATOM     20  H   UNL     1      -1.226   6.878  30.082  1.00  0.00     0.293 HD
ENDBRANCH  15  19
ENDBRANCH  10  11
ENDBRANCH   1  10
TORSDOF 6
ENDMDL
MODEL 9
REMARK VINA RESULT:    -5.662     12.030     13.109
REMARK INTER + INTRA:          -7.652
REMARK INTER:                  -7.219
REMARK INTRA:                  -0.433
REMARK UNBOUND:                -0.500
REMARK SMILES Oc1ccc(CCc2cc(O)cc(O)c2)cc1
REMARK SMILES IDX 6 1 5 2 4 3 3 4 2 5 16 6 17 7 1 8 7 10 8 11 15 12 9 13 13 14
REMARK SMILES IDX 10 15 12 16 14 17 11 19
REMARK H PARENT 1 9 14 18 11 20
REMARK Flexibility Score: inf
ROOT
ATOM      1  C   UNL     1      -0.165   1.968  29.269  1.00  0.00     0.040 C 
ENDROOT
BRANCH   1   2
ATOM      2  C   UNL     1      -0.911   1.358  28.109  1.00  0.00    -0.047 A 
ATOM      3  C   UNL     1      -1.824   2.131  27.372  1.00  0.00     0.007 A 
ATOM      4  C   UNL     1      -2.482   1.580  26.268  1.00  0.00     0.046 A 
ATOM      5  C   UNL     1      -2.228   0.256  25.885  1.00  0.00     0.115 A 
ATOM      6  C   UNL     1      -0.656   0.034  27.717  1.00  0.00     0.007 A 
ATOM      7  C   UNL     1      -1.314  -0.513  26.612  1.00  0.00     0.046 A 
BRANCH   5   8
ATOM      8  O   UNL     1      -2.875  -0.302  24.785  1.00  0.00    -0.508 OA
ATOM      9  H   UNL     1      -2.854  -1.300  24.609  1.00  0.00     0.293 HD
ENDBRANCH   5   8
ENDBRANCH   1   2
BRANCH   1  10
ATOM     10  C   UNL     1      -0.971   1.879  30.574  1.00  0.00     0.040 C 
BRANCH  10  11
ATOM     11  C   UNL     1      -0.798   3.113  31.422  1.00  0.00    -0.040 A 
ATOM     12  C   UNL     1      -1.103   4.379  30.896  1.00  0.00     0.050 A 
ATOM     13  C   UNL     1      -0.391   3.003  32.761  1.00  0.00     0.050 A 
ATOM     14  C   UNL     1      -0.989   5.523  31.694  1.00  0.00     0.119 A 
ATOM     15  C   UNL     1      -0.279   4.143  33.564  1.00  0.00     0.119 A 
ATOM     16  C   UNL     1      -0.575   5.404  33.028  1.00  0.00     0.092 A 
BRANCH  14  17
ATOM     17  O   UNL     1      -1.294   6.771  31.155  1.00  0.00    -0.508 OA
ATOM     18  H   UNL     1      -1.921   6.868  30.366  1.00  0.00     0.293 HD
ENDBRANCH  14  17
BRANCH  15  19
ATOM     19  O   UNL     1       0.124   4.012  34.890  1.00  0.00    -0.508 OA
ATOM     20  H   UNL     1       0.483   3.136  35.251  1.00  0.00     0.293 HD
ENDBRANCH  15  19
ENDBRANCH  10  11
ENDBRANCH   1  10
TORSDOF 6
ENDMDL
