MODEL 1
REMARK VINA RESULT:    34.743      0.000      0.000
REMARK INTER + INTRA:          45.108
REMARK INTER:                  43.883
REMARK INTRA:                   1.225
REMARK UNBOUND:                 1.225
REMARK SMILES O=C(C=Cc1ccc(O)cc1)c1ccc(O)cc1O
REMARK SMILES IDX 4 1 3 2 5 3 6 4 7 5 8 6 11 7 10 8 9 9 2 11 1 12 12 13 18 14
REMARK SMILES IDX 13 15 17 16 14 17 15 18 19 19 16 21
REMARK H PARENT 9 10 19 20 16 22
REMARK Flexibility Score: inf
ROOT
ATOM      1  C   UNL     1     -42.079  22.571 -17.343  1.00  0.00     0.012 C 
ATOM      2  C   UNL     1     -42.274  23.249 -16.199  1.00  0.00     0.053 C 
ENDROOT
BRANCH   1   3
ATOM      3  C   UNL     1     -40.777  22.379 -18.013  1.00  0.00    -0.025 A 
ATOM      4  C   UNL     1     -40.372  21.085 -18.373  1.00  0.00     0.012 A 
ATOM      5  C   UNL     1     -39.120  20.876 -18.961  1.00  0.00     0.047 A 
ATOM      6  C   UNL     1     -38.253  21.957 -19.173  1.00  0.00     0.115 A 
ATOM      7  C   UNL     1     -39.892  23.455 -18.200  1.00  0.00     0.012 A 
ATOM      8  C   UNL     1     -38.642  23.244 -18.788  1.00  0.00     0.047 A 
BRANCH   6   9
ATOM      9  O   UNL     1     -37.005  21.762 -19.760  1.00  0.00    -0.508 OA
ATOM     10  H   UNL     1     -36.835  21.992 -20.733  1.00  0.00     0.293 HD
ENDBRANCH   6   9
ENDBRANCH   1   3
BRANCH   2  11
ATOM     11  C   UNL     1     -41.258  24.070 -15.495  1.00  0.00     0.189 C 
ATOM     12  O   UNL     1     -40.325  24.627 -16.134  1.00  0.00    -0.289 OA
BRANCH  11  13
ATOM     13  C   UNL     1     -41.323  24.258 -14.031  1.00  0.00     0.064 A 
ATOM     14  C   UNL     1     -40.162  24.455 -13.253  1.00  0.00     0.130 A 
ATOM     15  C   UNL     1     -42.574  24.207 -13.395  1.00  0.00     0.020 A 
ATOM     16  C   UNL     1     -40.275  24.642 -11.867  1.00  0.00     0.093 A 
ATOM     17  C   UNL     1     -42.676  24.388 -12.013  1.00  0.00     0.047 A 
ATOM     18  C   UNL     1     -41.531  24.611 -11.246  1.00  0.00     0.119 A 
BRANCH  14  19
ATOM     19  O   UNL     1     -38.900  24.438 -13.847  1.00  0.00    -0.507 OA
ATOM     20  H   UNL     1     -38.777  24.227 -14.830  1.00  0.00     0.293 HD
ENDBRANCH  14  19
BRANCH  18  21
ATOM     21  O   UNL     1     -41.648  24.794  -9.871  1.00  0.00    -0.508 OA
ATOM     22  H   UNL     1     -42.020  24.068  -9.269  1.00  0.00     0.293 HD
ENDBRANCH  18  21
ENDBRANCH  11  13
ENDBRANCH   2  11
TORSDOF 6
ENDMDL
MODEL 2
REMARK VINA RESULT:    34.966      8.081     10.511
REMARK INTER + INTRA:          45.390
REMARK INTER:                  45.120
REMARK INTRA:                   0.270
REMARK UNBOUND:                 1.225
REMARK SMILES O=C(C=Cc1ccc(O)cc1)c1ccc(O)cc1O
REMARK SMILES IDX 4 1 3 2 5 3 6 4 7 5 8 6 11 7 10 8 9 9 2 11 1 12 12 13 18 14
REMARK SMILES IDX 13 15 17 16 14 17 15 18 19 19 16 21
REMARK H PARENT 9 10 19 20 16 22
REMARK Flexibility Score: inf
ROOT
ATOM      1  C   UNL     1     -40.223  28.886  -6.053  1.00  0.00     0.012 C 
ATOM      2  C   UNL     1     -39.407  28.576  -5.031  1.00  0.00     0.053 C 
ENDROOT
BRANCH   1   3
ATOM      3  C   UNL     1     -39.922  28.680  -7.483  1.00  0.00    -0.025 A 
ATOM      4  C   UNL     1     -38.637  28.264  -7.863  1.00  0.00     0.012 A 
ATOM      5  C   UNL     1     -38.316  28.114  -9.216  1.00  0.00     0.047 A 
ATOM      6  C   UNL     1     -39.271  28.400 -10.202  1.00  0.00     0.115 A 
ATOM      7  C   UNL     1     -40.866  28.994  -8.476  1.00  0.00     0.012 A 
ATOM      8  C   UNL     1     -40.543  28.844  -9.828  1.00  0.00     0.047 A 
BRANCH   6   9
ATOM      9  O   UNL     1     -38.964  28.252 -11.552  1.00  0.00    -0.508 OA
ATOM     10  H   UNL     1     -39.351  28.872 -12.255  1.00  0.00     0.293 HD
ENDBRANCH   6   9
ENDBRANCH   1   3
BRANCH   2  11
ATOM     11  C   UNL     1     -37.995  28.135  -5.154  1.00  0.00     0.189 C 
ATOM     12  O   UNL     1     -37.052  28.969  -5.090  1.00  0.00    -0.289 OA
BRANCH  11  13
ATOM     13  C   UNL     1     -37.665  26.708  -5.347  1.00  0.00     0.064 A 
ATOM     14  C   UNL     1     -36.492  26.298  -6.015  1.00  0.00     0.130 A 
ATOM     15  C   UNL     1     -38.564  25.734  -4.879  1.00  0.00     0.020 A 
ATOM     16  C   UNL     1     -36.214  24.931  -6.163  1.00  0.00     0.093 A 
ATOM     17  C   UNL     1     -38.282  24.375  -5.036  1.00  0.00     0.047 A 
ATOM     18  C   UNL     1     -37.107  23.969  -5.672  1.00  0.00     0.119 A 
BRANCH  14  19
ATOM     19  O   UNL     1     -35.617  27.243  -6.554  1.00  0.00    -0.507 OA
ATOM     20  H   UNL     1     -35.372  28.088  -6.052  1.00  0.00     0.293 HD
ENDBRANCH  14  19
BRANCH  18  21
ATOM     21  O   UNL     1     -36.838  22.610  -5.819  1.00  0.00    -0.508 OA
ATOM     22  H   UNL     1     -37.574  21.942  -6.016  1.00  0.00     0.293 HD
ENDBRANCH  18  21
ENDBRANCH  11  13
ENDBRANCH   2  11
TORSDOF 6
ENDMDL
MODEL 3
REMARK VINA RESULT:    35.730     10.738     11.874
REMARK INTER + INTRA:          46.355
REMARK INTER:                  45.824
REMARK INTRA:                   0.531
REMARK UNBOUND:                 1.225
REMARK SMILES O=C(C=Cc1ccc(O)cc1)c1ccc(O)cc1O
REMARK SMILES IDX 4 1 3 2 5 3 6 4 7 5 8 6 11 7 10 8 9 9 2 11 1 12 12 13 18 14
REMARK SMILES IDX 13 15 17 16 14 17 15 18 19 19 16 21
REMARK H PARENT 9 10 19 20 16 22
REMARK Flexibility Score: inf
ROOT
ATOM      1  C   UNL     1     -32.241  29.275 -16.697  1.00  0.00     0.012 C 
ATOM      2  C   UNL     1     -31.625  28.528 -15.765  1.00  0.00     0.053 C 
ENDROOT
BRANCH   1   3
ATOM      3  C   UNL     1     -31.681  29.630 -18.016  1.00  0.00    -0.025 A 
ATOM      4  C   UNL     1     -32.053  30.841 -18.618  1.00  0.00     0.012 A 
ATOM      5  C   UNL     1     -31.575  31.172 -19.891  1.00  0.00     0.047 A 
ATOM      6  C   UNL     1     -30.739  30.284 -20.582  1.00  0.00     0.115 A 
ATOM      7  C   UNL     1     -30.868  28.730 -18.726  1.00  0.00     0.012 A 
ATOM      8  C   UNL     1     -30.392  29.062 -19.997  1.00  0.00     0.047 A 
BRANCH   6   9
ATOM      9  O   UNL     1     -30.256  30.603 -21.848  1.00  0.00    -0.508 OA
ATOM     10  H   UNL     1     -29.878  31.521 -22.055  1.00  0.00     0.293 HD
ENDBRANCH   6   9
ENDBRANCH   1   3
BRANCH   2  11
ATOM     11  C   UNL     1     -30.214  28.073 -15.814  1.00  0.00     0.189 C 
ATOM     12  O   UNL     1     -29.297  28.855 -16.183  1.00  0.00    -0.289 OA
BRANCH  11  13
ATOM     13  C   UNL     1     -29.852  26.694 -15.425  1.00  0.00     0.064 A 
ATOM     14  C   UNL     1     -30.210  26.156 -14.170  1.00  0.00     0.130 A 
ATOM     15  C   UNL     1     -29.105  25.909 -16.319  1.00  0.00     0.020 A 
ATOM     16  C   UNL     1     -29.856  24.837 -13.850  1.00  0.00     0.093 A 
ATOM     17  C   UNL     1     -28.752  24.598 -15.990  1.00  0.00     0.047 A 
ATOM     18  C   UNL     1     -29.129  24.056 -14.759  1.00  0.00     0.119 A 
BRANCH  14  19
ATOM     19  O   UNL     1     -30.889  26.935 -13.233  1.00  0.00    -0.507 OA
ATOM     20  H   UNL     1     -30.519  27.822 -12.910  1.00  0.00     0.293 HD
ENDBRANCH  14  19
BRANCH  18  21
ATOM     21  O   UNL     1     -28.773  22.747 -14.446  1.00  0.00    -0.508 OA
ATOM     22  H   UNL     1     -29.154  21.958 -14.954  1.00  0.00     0.293 HD
ENDBRANCH  18  21
ENDBRANCH  11  13
ENDBRANCH   2  11
TORSDOF 6
ENDMDL
MODEL 4
REMARK VINA RESULT:    35.789      8.010     11.319
REMARK INTER + INTRA:          46.430
REMARK INTER:                  44.094
REMARK INTRA:                   2.335
REMARK UNBOUND:                 1.225
REMARK SMILES O=C(C=Cc1ccc(O)cc1)c1ccc(O)cc1O
REMARK SMILES IDX 4 1 3 2 5 3 6 4 7 5 8 6 11 7 10 8 9 9 2 11 1 12 12 13 18 14
REMARK SMILES IDX 13 15 17 16 14 17 15 18 19 19 16 21
REMARK H PARENT 9 10 19 20 16 22
REMARK Flexibility Score: inf
ROOT
ATOM      1  C   UNL     1     -39.059  24.515  -5.040  1.00  0.00     0.012 C 
ATOM      2  C   UNL     1     -38.644  23.278  -5.361  1.00  0.00     0.053 C 
ENDROOT
BRANCH   1   3
ATOM      3  C   UNL     1     -38.259  25.748  -5.171  1.00  0.00    -0.025 A 
ATOM      4  C   UNL     1     -38.870  26.992  -4.958  1.00  0.00     0.012 A 
ATOM      5  C   UNL     1     -38.142  28.174  -5.129  1.00  0.00     0.047 A 
ATOM      6  C   UNL     1     -36.802  28.123  -5.537  1.00  0.00     0.115 A 
ATOM      7  C   UNL     1     -36.924  25.703  -5.610  1.00  0.00     0.012 A 
ATOM      8  C   UNL     1     -36.198  26.886  -5.780  1.00  0.00     0.047 A 
BRANCH   6   9
ATOM      9  O   UNL     1     -36.067  29.293  -5.708  1.00  0.00    -0.508 OA
ATOM     10  H   UNL     1     -36.188  30.090  -5.093  1.00  0.00     0.293 HD
ENDBRANCH   6   9
ENDBRANCH   1   3
BRANCH   2  11
ATOM     11  C   UNL     1     -37.259  22.901  -5.739  1.00  0.00     0.189 C 
ATOM     12  O   UNL     1     -36.341  22.872  -4.875  1.00  0.00    -0.289 OA
BRANCH  11  13
ATOM     13  C   UNL     1     -36.929  22.544  -7.134  1.00  0.00     0.064 A 
ATOM     14  C   UNL     1     -36.344  23.471  -8.023  1.00  0.00     0.130 A 
ATOM     15  C   UNL     1     -37.235  21.252  -7.595  1.00  0.00     0.020 A 
ATOM     16  C   UNL     1     -36.037  23.082  -9.334  1.00  0.00     0.093 A 
ATOM     17  C   UNL     1     -36.930  20.875  -8.905  1.00  0.00     0.047 A 
ATOM     18  C   UNL     1     -36.327  21.785  -9.777  1.00  0.00     0.119 A 
BRANCH  14  19
ATOM     19  O   UNL     1     -36.096  24.782  -7.614  1.00  0.00    -0.507 OA
ATOM     20  H   UNL     1     -35.722  25.476  -8.251  1.00  0.00     0.293 HD
ENDBRANCH  14  19
BRANCH  18  21
ATOM     21  O   UNL     1     -36.025  21.394 -11.079  1.00  0.00    -0.508 OA
ATOM     22  H   UNL     1     -36.716  20.951 -11.673  1.00  0.00     0.293 HD
ENDBRANCH  18  21
ENDBRANCH  11  13
ENDBRANCH   2  11
TORSDOF 6
ENDMDL
MODEL 5
REMARK VINA RESULT:    37.112     10.925     12.849
REMARK INTER + INTRA:          48.100
REMARK INTER:                  47.644
REMARK INTRA:                   0.456
REMARK UNBOUND:                 1.225
REMARK SMILES O=C(C=Cc1ccc(O)cc1)c1ccc(O)cc1O
REMARK SMILES IDX 4 1 3 2 5 3 6 4 7 5 8 6 11 7 10 8 9 9 2 11 1 12 12 13 18 14
REMARK SMILES IDX 13 15 17 16 14 17 15 18 19 19 16 21
REMARK H PARENT 9 10 19 20 16 22
REMARK Flexibility Score: inf
ROOT
ATOM      1  C   UNL     1     -31.772  28.342 -15.737  1.00  0.00     0.012 C 
ATOM      2  C   UNL     1     -31.474  29.412 -16.493  1.00  0.00     0.053 C 
ENDROOT
BRANCH   1   3
ATOM      3  C   UNL     1     -30.876  27.196 -15.484  1.00  0.00    -0.025 A 
ATOM      4  C   UNL     1     -30.345  26.484 -16.569  1.00  0.00     0.012 A 
ATOM      5  C   UNL     1     -29.538  25.363 -16.351  1.00  0.00     0.047 A 
ATOM      6  C   UNL     1     -29.273  24.931 -15.043  1.00  0.00     0.115 A 
ATOM      7  C   UNL     1     -30.633  26.741 -14.177  1.00  0.00     0.012 A 
ATOM      8  C   UNL     1     -29.825  25.620 -13.960  1.00  0.00     0.047 A 
BRANCH   6   9
ATOM      9  O   UNL     1     -28.468  23.818 -14.813  1.00  0.00    -0.508 OA
ATOM     10  H   UNL     1     -27.848  23.455 -15.528  1.00  0.00     0.293 HD
ENDBRANCH   6   9
ENDBRANCH   1   3
BRANCH   2  11
ATOM     11  C   UNL     1     -30.270  29.559 -17.349  1.00  0.00     0.189 C 
ATOM     12  O   UNL     1     -29.114  29.427 -16.863  1.00  0.00    -0.289 OA
BRANCH  11  13
ATOM     13  C   UNL     1     -30.401  29.858 -18.790  1.00  0.00     0.064 A 
ATOM     14  C   UNL     1     -31.418  30.700 -19.288  1.00  0.00     0.130 A 
ATOM     15  C   UNL     1     -29.504  29.260 -19.692  1.00  0.00     0.020 A 
ATOM     16  C   UNL     1     -31.495  30.964 -20.663  1.00  0.00     0.093 A 
ATOM     17  C   UNL     1     -29.591  29.525 -21.060  1.00  0.00     0.047 A 
ATOM     18  C   UNL     1     -30.581  30.380 -21.550  1.00  0.00     0.119 A 
BRANCH  14  19
ATOM     19  O   UNL     1     -32.367  31.249 -18.425  1.00  0.00    -0.507 OA
ATOM     20  H   UNL     1     -32.614  32.231 -18.460  1.00  0.00     0.293 HD
ENDBRANCH  14  19
BRANCH  18  21
ATOM     21  O   UNL     1     -30.654  30.637 -22.916  1.00  0.00    -0.508 OA
ATOM     22  H   UNL     1     -30.563  29.896 -23.601  1.00  0.00     0.293 HD
ENDBRANCH  18  21
ENDBRANCH  11  13
ENDBRANCH   2  11
TORSDOF 6
ENDMDL
