MODEL 1
REMARK VINA RESULT:    -3.209      0.000      0.000
REMARK INTER + INTRA:          -5.222
REMARK INTER:                  -4.710
REMARK INTRA:                  -0.512
REMARK UNBOUND:                -0.512
REMARK SMILES O=C([O-])CCCCCCCC(=O)[O-]
REMARK SMILES IDX 7 1 6 2 5 3 4 4 2 5 1 6 3 7 8 8 9 9 10 10 11 11 12 12 13 13
REMARK H PARENT
REMARK Flexibility Score: inf
ROOT
ATOM      1  C   UNL     1      14.082  12.950   8.048  1.00  0.00     0.000 C 
ENDROOT
BRANCH   1   2
ATOM      2  C   UNL     1      15.202  13.419   7.101  1.00  0.00     0.000 C 
BRANCH   2   3
ATOM      3  C   UNL     1      16.414  13.987   7.856  1.00  0.00     0.006 C 
BRANCH   3   4
ATOM      4  C   UNL     1      16.651  15.474   7.562  1.00  0.00     0.053 C 
BRANCH   4   5
ATOM      5  C   UNL     1      15.950  16.325   8.573  1.00  0.00     0.041 C 
ATOM      6  O   UNL     1      15.034  17.111   8.214  1.00  0.00    -0.550 OA
ATOM      7  O   UNL     1      16.274  16.214   9.919  1.00  0.00    -0.550 OA
ENDBRANCH   4   5
ENDBRANCH   3   4
ENDBRANCH   2   3
ENDBRANCH   1   2
BRANCH   1   8
ATOM      8  C   UNL     1      14.461  13.102   9.530  1.00  0.00     0.000 C 
BRANCH   8   9
ATOM      9  C   UNL     1      14.045  11.888  10.376  1.00  0.00     0.006 C 
BRANCH   9  10
ATOM     10  C   UNL     1      14.646  11.969  11.783  1.00  0.00     0.053 C 
BRANCH  10  11
ATOM     11  C   UNL     1      13.917  12.984  12.606  1.00  0.00     0.041 C 
ATOM     12  O   UNL     1      12.697  12.824  12.872  1.00  0.00    -0.550 OA
ATOM     13  O   UNL     1      14.573  14.128  13.040  1.00  0.00    -0.550 OA
ENDBRANCH  10  11
ENDBRANCH   9  10
ENDBRANCH   8   9
ENDBRANCH   1   8
TORSDOF 8
ENDMDL
MODEL 2
REMARK VINA RESULT:    -3.167      0.681      4.778
REMARK INTER + INTRA:          -5.161
REMARK INTER:                  -4.643
REMARK INTRA:                  -0.518
REMARK UNBOUND:                -0.512
REMARK SMILES O=C([O-])CCCCCCCC(=O)[O-]
REMARK SMILES IDX 7 1 6 2 5 3 4 4 2 5 1 6 3 7 8 8 9 9 10 10 11 11 12 12 13 13
REMARK H PARENT
REMARK Flexibility Score: inf
ROOT
ATOM      1  C   UNL     1      14.741  13.530   7.087  1.00  0.00     0.000 C 
ENDROOT
BRANCH   1   2
ATOM      2  C   UNL     1      14.006  12.771   8.206  1.00  0.00     0.000 C 
BRANCH   2   3
ATOM      3  C   UNL     1      14.560  13.097   9.603  1.00  0.00     0.006 C 
BRANCH   3   4
ATOM      4  C   UNL     1      14.019  12.158  10.689  1.00  0.00     0.053 C 
BRANCH   4   5
ATOM      5  C   UNL     1      13.936  12.872  12.001  1.00  0.00     0.041 C 
ATOM      6  O   UNL     1      12.893  12.790  12.702  1.00  0.00    -0.550 OA
ATOM      7  O   UNL     1      15.029  13.589  12.473  1.00  0.00    -0.550 OA
ENDBRANCH   4   5
ENDBRANCH   3   4
ENDBRANCH   2   3
ENDBRANCH   1   2
BRANCH   1   8
ATOM      8  C   UNL     1      16.270  13.429   7.210  1.00  0.00     0.000 C 
BRANCH   8   9
ATOM      9  C   UNL     1      16.937  14.790   7.463  1.00  0.00     0.006 C 
BRANCH   9  10
ATOM     10  C   UNL     1      15.902  15.919   7.443  1.00  0.00     0.053 C 
BRANCH  10  11
ATOM     11  C   UNL     1      15.947  16.695   8.721  1.00  0.00     0.041 C 
ATOM     12  O   UNL     1      16.277  16.126   9.795  1.00  0.00    -0.550 OA
ATOM     13  O   UNL     1      15.578  18.033   8.736  1.00  0.00    -0.550 OA
ENDBRANCH  10  11
ENDBRANCH   9  10
ENDBRANCH   8   9
ENDBRANCH   1   8
TORSDOF 8
ENDMDL
MODEL 3
REMARK VINA RESULT:    -3.146      3.400      4.767
REMARK INTER + INTRA:          -5.129
REMARK INTER:                  -4.808
REMARK INTRA:                  -0.321
REMARK UNBOUND:                -0.512
REMARK SMILES O=C([O-])CCCCCCCC(=O)[O-]
REMARK SMILES IDX 7 1 6 2 5 3 4 4 2 5 1 6 3 7 8 8 9 9 10 10 11 11 12 12 13 13
REMARK H PARENT
REMARK Flexibility Score: inf
ROOT
ATOM      1  C   UNL     1      15.127  16.910   8.345  1.00  0.00     0.000 C 
ENDROOT
BRANCH   1   2
ATOM      2  C   UNL     1      15.895  18.120   8.906  1.00  0.00     0.000 C 
BRANCH   2   3
ATOM      3  C   UNL     1      15.418  18.522  10.311  1.00  0.00     0.006 C 
BRANCH   3   4
ATOM      4  C   UNL     1      15.414  20.041  10.523  1.00  0.00     0.053 C 
BRANCH   4   5
ATOM      5  C   UNL     1      14.253  20.445  11.376  1.00  0.00     0.041 C 
ATOM      6  O   UNL     1      13.980  21.664  11.540  1.00  0.00    -0.550 OA
ATOM      7  O   UNL     1      13.441  19.474  11.950  1.00  0.00    -0.550 OA
ENDBRANCH   4   5
ENDBRANCH   3   4
ENDBRANCH   2   3
ENDBRANCH   1   2
BRANCH   1   8
ATOM      8  C   UNL     1      15.932  16.137   7.288  1.00  0.00     0.000 C 
BRANCH   8   9
ATOM      9  C   UNL     1      15.878  14.616   7.496  1.00  0.00     0.006 C 
BRANCH   9  10
ATOM     10  C   UNL     1      15.172  14.267   8.810  1.00  0.00     0.053 C 
BRANCH  10  11
ATOM     11  C   UNL     1      14.292  13.070   8.630  1.00  0.00     0.041 C 
ATOM     12  O   UNL     1      13.736  12.854   7.521  1.00  0.00    -0.550 OA
ATOM     13  O   UNL     1      14.047  12.220   9.700  1.00  0.00    -0.550 OA
ENDBRANCH  10  11
ENDBRANCH   9  10
ENDBRANCH   8   9
ENDBRANCH   1   8
TORSDOF 8
ENDMDL
MODEL 4
REMARK VINA RESULT:    -3.119      3.682      5.643
REMARK INTER + INTRA:          -5.089
REMARK INTER:                  -4.811
REMARK INTRA:                  -0.278
REMARK UNBOUND:                -0.512
REMARK SMILES O=C([O-])CCCCCCCC(=O)[O-]
REMARK SMILES IDX 7 1 6 2 5 3 4 4 2 5 1 6 3 7 8 8 9 9 10 10 11 11 12 12 13 13
REMARK H PARENT
REMARK Flexibility Score: inf
ROOT
ATOM      1  C   UNL     1      15.318  17.259   8.578  1.00  0.00     0.000 C 
ENDROOT
BRANCH   1   2
ATOM      2  C   UNL     1      16.398  16.276   8.093  1.00  0.00     0.000 C 
BRANCH   2   3
ATOM      3  C   UNL     1      16.261  14.886   8.736  1.00  0.00     0.006 C 
BRANCH   3   4
ATOM      4  C   UNL     1      14.842  14.315   8.618  1.00  0.00     0.053 C 
BRANCH   4   5
ATOM      5  C   UNL     1      14.759  13.358   7.471  1.00  0.00     0.041 C 
ATOM      6  O   UNL     1      15.792  13.068   6.811  1.00  0.00    -0.550 OA
ATOM      7  O   UNL     1      13.550  12.748   7.161  1.00  0.00    -0.550 OA
ENDBRANCH   4   5
ENDBRANCH   3   4
ENDBRANCH   2   3
ENDBRANCH   1   2
BRANCH   1   8
ATOM      8  C   UNL     1      15.915  18.532   9.199  1.00  0.00     0.000 C 
BRANCH   8   9
ATOM      9  C   UNL     1      15.394  18.801  10.620  1.00  0.00     0.006 C 
BRANCH   9  10
ATOM     10  C   UNL     1      15.157  20.298  10.842  1.00  0.00     0.053 C 
BRANCH  10  11
ATOM     11  C   UNL     1      13.863  20.522  11.560  1.00  0.00     0.041 C 
ATOM     12  O   UNL     1      13.249  19.551  12.075  1.00  0.00    -0.550 OA
ATOM     13  O   UNL     1      13.311  21.795  11.618  1.00  0.00    -0.550 OA
ENDBRANCH  10  11
ENDBRANCH   9  10
ENDBRANCH   8   9
ENDBRANCH   1   8
TORSDOF 8
ENDMDL
MODEL 5
REMARK VINA RESULT:    -3.094      1.329      4.908
REMARK INTER + INTRA:          -5.052
REMARK INTER:                  -4.514
REMARK INTRA:                  -0.539
REMARK UNBOUND:                -0.512
REMARK SMILES O=C([O-])CCCCCCCC(=O)[O-]
REMARK SMILES IDX 7 1 6 2 5 3 4 4 2 5 1 6 3 7 8 8 9 9 10 10 11 11 12 12 13 13
REMARK H PARENT
REMARK Flexibility Score: inf
ROOT
ATOM      1  C   UNL     1      14.816  13.595   7.070  1.00  0.00     0.000 C 
ENDROOT
BRANCH   1   2
ATOM      2  C   UNL     1      14.040  12.786   8.125  1.00  0.00     0.000 C 
BRANCH   2   3
ATOM      3  C   UNL     1      14.443  13.151   9.563  1.00  0.00     0.006 C 
BRANCH   3   4
ATOM      4  C   UNL     1      14.040  12.078  10.582  1.00  0.00     0.053 C 
BRANCH   4   5
ATOM      5  C   UNL     1      15.141  11.860  11.572  1.00  0.00     0.041 C 
ATOM      6  O   UNL     1      15.325  12.683  12.507  1.00  0.00    -0.550 OA
ATOM      7  O   UNL     1      15.934  10.722  11.490  1.00  0.00    -0.550 OA
ENDBRANCH   4   5
ENDBRANCH   3   4
ENDBRANCH   2   3
ENDBRANCH   1   2
BRANCH   1   8
ATOM      8  C   UNL     1      16.337  13.548   7.292  1.00  0.00     0.000 C 
BRANCH   8   9
ATOM      9  C   UNL     1      16.955  14.945   7.459  1.00  0.00     0.006 C 
BRANCH   9  10
ATOM     10  C   UNL     1      15.870  16.026   7.482  1.00  0.00     0.053 C 
BRANCH  10  11
ATOM     11  C   UNL     1      15.905  16.776   8.776  1.00  0.00     0.041 C 
ATOM     12  O   UNL     1      15.629  18.004   8.803  1.00  0.00    -0.550 OA
ATOM     13  O   UNL     1      16.290  16.130   9.944  1.00  0.00    -0.550 OA
ENDBRANCH  10  11
ENDBRANCH   9  10
ENDBRANCH   8   9
ENDBRANCH   1   8
TORSDOF 8
ENDMDL
MODEL 6
REMARK VINA RESULT:    -2.913      2.594      5.317
REMARK INTER + INTRA:          -4.788
REMARK INTER:                  -4.186
REMARK INTRA:                  -0.601
REMARK UNBOUND:                -0.512
REMARK SMILES O=C([O-])CCCCCCCC(=O)[O-]
REMARK SMILES IDX 7 1 6 2 5 3 4 4 2 5 1 6 3 7 8 8 9 9 10 10 11 11 12 12 13 13
REMARK H PARENT
REMARK Flexibility Score: inf
ROOT
ATOM      1  C   UNL     1      16.548  15.433  10.979  1.00  0.00     0.000 C 
ENDROOT
BRANCH   1   2
ATOM      2  C   UNL     1      16.518  14.191  11.887  1.00  0.00     0.000 C 
BRANCH   2   3
ATOM      3  C   UNL     1      15.250  14.125  12.753  1.00  0.00     0.006 C 
BRANCH   3   4
ATOM      4  C   UNL     1      14.226  13.110  12.229  1.00  0.00     0.053 C 
BRANCH   4   5
ATOM      5  C   UNL     1      14.863  11.767  12.058  1.00  0.00     0.041 C 
ATOM      6  O   UNL     1      14.838  11.191  10.938  1.00  0.00    -0.550 OA
ATOM      7  O   UNL     1      15.528  11.173  13.123  1.00  0.00    -0.550 OA
ENDBRANCH   4   5
ENDBRANCH   3   4
ENDBRANCH   2   3
ENDBRANCH   1   2
BRANCH   1   8
ATOM      8  C   UNL     1      16.694  15.074   9.491  1.00  0.00     0.000 C 
BRANCH   8   9
ATOM      9  C   UNL     1      15.371  15.193   8.719  1.00  0.00     0.006 C 
BRANCH   9  10
ATOM     10  C   UNL     1      14.657  13.840   8.644  1.00  0.00     0.053 C 
BRANCH  10  11
ATOM     11  C   UNL     1      14.812  13.240   7.282  1.00  0.00     0.041 C 
ATOM     12  O   UNL     1      13.797  12.876   6.632  1.00  0.00    -0.550 OA
ATOM     13  O   UNL     1      16.079  13.040   6.751  1.00  0.00    -0.550 OA
ENDBRANCH  10  11
ENDBRANCH   9  10
ENDBRANCH   8   9
ENDBRANCH   1   8
TORSDOF 8
ENDMDL
MODEL 7
REMARK VINA RESULT:    -2.758      2.678      3.464
REMARK INTER + INTRA:          -4.559
REMARK INTER:                  -3.943
REMARK INTRA:                  -0.616
REMARK UNBOUND:                -0.512
REMARK SMILES O=C([O-])CCCCCCCC(=O)[O-]
REMARK SMILES IDX 7 1 6 2 5 3 4 4 2 5 1 6 3 7 8 8 9 9 10 10 11 11 12 12 13 13
REMARK H PARENT
REMARK Flexibility Score: inf
ROOT
ATOM      1  C   UNL     1      16.434  15.680  11.125  1.00  0.00     0.000 C 
ENDROOT
BRANCH   1   2
ATOM      2  C   UNL     1      16.621  14.803   9.875  1.00  0.00     0.000 C 
BRANCH   2   3
ATOM      3  C   UNL     1      15.463  14.945   8.875  1.00  0.00     0.006 C 
BRANCH   3   4
ATOM      4  C   UNL     1      14.499  13.752   8.911  1.00  0.00     0.053 C 
BRANCH   4   5
ATOM      5  C   UNL     1      14.443  13.087   7.572  1.00  0.00     0.041 C 
ATOM      6  O   UNL     1      13.362  12.593   7.154  1.00  0.00    -0.550 OA
ATOM      7  O   UNL     1      15.573  13.054   6.765  1.00  0.00    -0.550 OA
ENDBRANCH   4   5
ENDBRANCH   3   4
ENDBRANCH   2   3
ENDBRANCH   1   2
BRANCH   1   8
ATOM      8  C   UNL     1      16.920  14.990  12.409  1.00  0.00     0.000 C 
BRANCH   8   9
ATOM      9  C   UNL     1      16.868  13.457  12.316  1.00  0.00     0.006 C 
BRANCH   9  10
ATOM     10  C   UNL     1      15.694  12.898  13.125  1.00  0.00     0.053 C 
BRANCH  10  11
ATOM     11  C   UNL     1      14.696  12.247  12.220  1.00  0.00     0.041 C 
ATOM     12  O   UNL     1      15.052  11.313  11.455  1.00  0.00    -0.550 OA
ATOM     13  O   UNL     1      13.386  12.705  12.186  1.00  0.00    -0.550 OA
ENDBRANCH  10  11
ENDBRANCH   9  10
ENDBRANCH   8   9
ENDBRANCH   1   8
TORSDOF 8
ENDMDL
MODEL 8
REMARK VINA RESULT:    -2.744      2.748      5.066
REMARK INTER + INTRA:          -4.540
REMARK INTER:                  -4.031
REMARK INTRA:                  -0.508
REMARK UNBOUND:                -0.512
REMARK SMILES O=C([O-])CCCCCCCC(=O)[O-]
REMARK SMILES IDX 7 1 6 2 5 3 4 4 2 5 1 6 3 7 8 8 9 9 10 10 11 11 12 12 13 13
REMARK H PARENT
REMARK Flexibility Score: inf
ROOT
ATOM      1  C   UNL     1      16.639  14.578  11.532  1.00  0.00     0.000 C 
ENDROOT
BRANCH   1   2
ATOM      2  C   UNL     1      15.450  13.624  11.320  1.00  0.00     0.000 C 
BRANCH   2   3
ATOM      3  C   UNL     1      15.423  13.021   9.906  1.00  0.00     0.006 C 
BRANCH   3   4
ATOM      4  C   UNL     1      14.547  13.824   8.936  1.00  0.00     0.053 C 
BRANCH   4   5
ATOM      5  C   UNL     1      14.531  13.175   7.588  1.00  0.00     0.041 C 
ATOM      6  O   UNL     1      15.591  13.092   6.912  1.00  0.00    -0.550 OA
ATOM      7  O   UNL     1      13.357  12.617   7.099  1.00  0.00    -0.550 OA
ENDBRANCH   4   5
ENDBRANCH   3   4
ENDBRANCH   2   3
ENDBRANCH   1   2
BRANCH   1   8
ATOM      8  C   UNL     1      16.233  15.878  12.244  1.00  0.00     0.000 C 
BRANCH   8   9
ATOM      9  C   UNL     1      16.524  17.131  11.402  1.00  0.00     0.006 C 
BRANCH   9  10
ATOM     10  C   UNL     1      16.746  16.764   9.932  1.00  0.00     0.053 C 
BRANCH  10  11
ATOM     11  C   UNL     1      15.957  17.670   9.040  1.00  0.00     0.041 C 
ATOM     12  O   UNL     1      16.219  18.900   8.998  1.00  0.00    -0.550 OA
ATOM     13  O   UNL     1      14.902  17.164   8.293  1.00  0.00    -0.550 OA
ENDBRANCH  10  11
ENDBRANCH   9  10
ENDBRANCH   8   9
ENDBRANCH   1   8
TORSDOF 8
ENDMDL
MODEL 9
REMARK VINA RESULT:    -2.684      2.460      4.953
REMARK INTER + INTRA:          -4.451
REMARK INTER:                  -3.954
REMARK INTRA:                  -0.497
REMARK UNBOUND:                -0.512
REMARK SMILES O=C([O-])CCCCCCCC(=O)[O-]
REMARK SMILES IDX 7 1 6 2 5 3 4 4 2 5 1 6 3 7 8 8 9 9 10 10 11 11 12 12 13 13
REMARK H PARENT
REMARK Flexibility Score: inf
ROOT
ATOM      1  C   UNL     1      15.601  16.419   8.064  1.00  0.00     0.000 C 
ENDROOT
BRANCH   1   2
ATOM      2  C   UNL     1      15.593  15.189   7.139  1.00  0.00     0.000 C 
BRANCH   2   3
ATOM      3  C   UNL     1      15.788  13.872   7.907  1.00  0.00     0.006 C 
BRANCH   3   4
ATOM      4  C   UNL     1      14.459  13.208   8.292  1.00  0.00     0.053 C 
BRANCH   4   5
ATOM      5  C   UNL     1      14.448  12.871   9.750  1.00  0.00     0.041 C 
ATOM      6  O   UNL     1      14.900  13.690  10.593  1.00  0.00    -0.550 OA
ATOM      7  O   UNL     1      13.893  11.673  10.182  1.00  0.00    -0.550 OA
ENDBRANCH   4   5
ENDBRANCH   3   4
ENDBRANCH   2   3
ENDBRANCH   1   2
BRANCH   1   8
ATOM      8  C   UNL     1      16.725  16.363   9.111  1.00  0.00     0.000 C 
BRANCH   8   9
ATOM      9  C   UNL     1      16.537  17.389  10.239  1.00  0.00     0.006 C 
BRANCH   9  10
ATOM     10  C   UNL     1      15.541  18.479   9.829  1.00  0.00     0.053 C 
BRANCH  10  11
ATOM     11  C   UNL     1      15.136  19.293  11.017  1.00  0.00     0.041 C 
ATOM     12  O   UNL     1      14.906  18.731  12.120  1.00  0.00    -0.550 OA
ATOM     13  O   UNL     1      14.966  20.665  10.894  1.00  0.00    -0.550 OA
ENDBRANCH  10  11
ENDBRANCH   9  10
ENDBRANCH   8   9
ENDBRANCH   1   8
TORSDOF 8
ENDMDL
