MODEL 1
REMARK VINA RESULT:    65.829      0.000      0.000
REMARK INTER + INTRA:          82.098
REMARK INTER:                  83.146
REMARK INTRA:                  -1.048
REMARK UNBOUND:                -1.048
REMARK SMILES CC(C)[C@@H](C)C=C[C@@H](C)[C@@H]1CC[C@H]2C3=CC=C4C[C@H](O)CC[C@@]4(C)[C@@H]3CC[C@]21C
REMARK SMILES IDX 8 1 9 2 7 3 6 4 4 5 5 6 2 7 1 8 3 9 10 10 11 11 28 12 12 13
REMARK SMILES IDX 13 14 27 15 29 16 14 17 26 18 25 19 15 20 23 21 16 22 17 23
REMARK SMILES IDX 22 24 24 25 18 26 21 27 19 28 20 29
REMARK H PARENT 20 30
REMARK Flexibility Score: inf
ROOT
ATOM      1  C   UNL     1      26.808 -31.894  -3.735  1.00  0.00     0.012 C 
ATOM      2  C   UNL     1      25.951 -33.076  -4.220  1.00  0.00     0.012 C 
ENDROOT
BRANCH   1   3
ATOM      3  C   UNL     1      26.750 -30.768  -4.747  1.00  0.00    -0.028 C 
ATOM      4  C   UNL     1      26.949 -30.959  -6.064  1.00  0.00    -0.028 C 
BRANCH   4   5
ATOM      5  C   UNL     1      26.921 -29.836  -7.084  1.00  0.00     0.011 C 
ATOM      6  C   UNL     1      27.533 -28.535  -6.531  1.00  0.00     0.012 C 
BRANCH   5   7
ATOM      7  C   UNL     1      25.514 -29.671  -7.734  1.00  0.00    -0.011 C 
ATOM      8  C   UNL     1      25.120 -28.212  -8.026  1.00  0.00     0.008 C 
ATOM      9  C   UNL     1      25.375 -30.517  -9.009  1.00  0.00     0.008 C 
ENDBRANCH   5   7
ENDBRANCH   4   5
ENDBRANCH   1   3
BRANCH   1  10
ATOM     10  C   UNL     1      28.291 -32.243  -3.339  1.00  0.00     0.002 C 
ATOM     11  C   UNL     1      28.666 -33.726  -3.338  1.00  0.00     0.005 C 
ATOM     12  C   UNL     1      28.804 -31.707  -1.969  1.00  0.00    -0.023 C 
ATOM     13  C   UNL     1      29.995 -33.807  -2.595  1.00  0.00     0.009 C 
ATOM     14  C   UNL     1      30.061 -32.587  -1.655  1.00  0.00     0.021 C 
ATOM     15  C   UNL     1      29.146 -30.181  -2.032  1.00  0.00     0.008 C 
ATOM     16  C   UNL     1      27.764 -31.923  -0.836  1.00  0.00     0.012 C 
ATOM     17  C   UNL     1      31.348 -31.810  -1.852  1.00  0.00    -0.063 C 
ATOM     18  C   UNL     1      30.382 -29.798  -2.894  1.00  0.00     0.009 C 
ATOM     19  C   UNL     1      31.430 -30.933  -3.073  1.00  0.00     0.025 C 
ATOM     20  C   UNL     1      32.197 -31.620  -0.835  1.00  0.00    -0.000 C 
ATOM     21  C   UNL     1      32.901 -30.462  -3.399  1.00  0.00    -0.005 C 
ATOM     22  C   UNL     1      33.348 -30.715  -0.958  1.00  0.00    -0.000 C 
ATOM     23  C   UNL     1      33.683 -30.142  -2.128  1.00  0.00    -0.061 C 
ATOM     24  C   UNL     1      33.679 -31.621  -4.097  1.00  0.00     0.014 C 
ATOM     25  C   UNL     1      32.855 -29.237  -4.356  1.00  0.00     0.017 C 
ATOM     26  C   UNL     1      35.112 -29.699  -2.311  1.00  0.00     0.063 C 
ATOM     27  C   UNL     1      35.188 -31.327  -4.296  1.00  0.00     0.033 C 
ATOM     28  C   UNL     1      35.883 -30.844  -2.999  1.00  0.00     0.118 C 
BRANCH  28  29
ATOM     29  O   UNL     1      37.209 -30.461  -3.259  1.00  0.00    -0.393 OA
ATOM     30  H   UNL     1      37.257 -29.474  -3.167  1.00  0.00     0.210 HD
ENDBRANCH  28  29
ENDBRANCH   1  10
TORSDOF 5
ENDMDL
MODEL 2
REMARK VINA RESULT:    68.426      2.143      3.191
REMARK INTER + INTRA:          85.379
REMARK INTER:                  84.556
REMARK INTRA:                   0.823
REMARK UNBOUND:                -1.048
REMARK SMILES CC(C)[C@@H](C)C=C[C@@H](C)[C@@H]1CC[C@H]2C3=CC=C4C[C@H](O)CC[C@@]4(C)[C@@H]3CC[C@]21C
REMARK SMILES IDX 8 1 9 2 7 3 6 4 4 5 5 6 2 7 1 8 3 9 10 10 11 11 28 12 12 13
REMARK SMILES IDX 13 14 27 15 29 16 14 17 26 18 25 19 15 20 23 21 16 22 17 23
REMARK SMILES IDX 22 24 24 25 18 26 21 27 19 28 20 29
REMARK H PARENT 20 30
REMARK Flexibility Score: inf
ROOT
ATOM      1  C   UNL     1      26.974 -32.098  -3.865  1.00  0.00     0.012 C 
ATOM      2  C   UNL     1      26.133 -31.210  -2.931  1.00  0.00     0.012 C 
ENDROOT
BRANCH   1   3
ATOM      3  C   UNL     1      26.225 -33.381  -4.168  1.00  0.00    -0.028 C 
ATOM      4  C   UNL     1      26.659 -34.285  -5.065  1.00  0.00    -0.028 C 
BRANCH   4   5
ATOM      5  C   UNL     1      25.906 -35.558  -5.398  1.00  0.00     0.011 C 
ATOM      6  C   UNL     1      25.558 -36.373  -4.138  1.00  0.00     0.012 C 
BRANCH   5   7
ATOM      7  C   UNL     1      26.604 -36.373  -6.529  1.00  0.00    -0.011 C 
ATOM      8  C   UNL     1      26.847 -35.576  -7.823  1.00  0.00     0.008 C 
ATOM      9  C   UNL     1      27.920 -37.003  -6.046  1.00  0.00     0.008 C 
ENDBRANCH   5   7
ENDBRANCH   4   5
ENDBRANCH   1   3
BRANCH   1  10
ATOM     10  C   UNL     1      28.447 -32.385  -3.390  1.00  0.00     0.002 C 
ATOM     11  C   UNL     1      28.847 -33.855  -3.253  1.00  0.00     0.005 C 
ATOM     12  C   UNL     1      28.901 -31.728  -2.052  1.00  0.00    -0.023 C 
ATOM     13  C   UNL     1      30.148 -33.849  -2.461  1.00  0.00     0.009 C 
ATOM     14  C   UNL     1      30.160 -32.556  -1.623  1.00  0.00     0.021 C 
ATOM     15  C   UNL     1      29.221 -30.207  -2.229  1.00  0.00     0.008 C 
ATOM     16  C   UNL     1      27.825 -31.872  -0.942  1.00  0.00     0.012 C 
ATOM     17  C   UNL     1      31.441 -31.773  -1.838  1.00  0.00    -0.063 C 
ATOM     18  C   UNL     1      30.481 -29.872  -3.076  1.00  0.00     0.009 C 
ATOM     19  C   UNL     1      31.553 -30.998  -3.124  1.00  0.00     0.025 C 
ATOM     20  C   UNL     1      32.249 -31.484  -0.812  1.00  0.00    -0.000 C 
ATOM     21  C   UNL     1      33.027 -30.527  -3.437  1.00  0.00    -0.005 C 
ATOM     22  C   UNL     1      33.390 -30.570  -0.969  1.00  0.00    -0.000 C 
ATOM     23  C   UNL     1      33.757 -30.089  -2.170  1.00  0.00    -0.061 C 
ATOM     24  C   UNL     1      33.848 -31.724  -4.009  1.00  0.00     0.014 C 
ATOM     25  C   UNL     1      32.996 -29.385  -4.493  1.00  0.00     0.017 C 
ATOM     26  C   UNL     1      35.185 -29.634  -2.338  1.00  0.00     0.063 C 
ATOM     27  C   UNL     1      35.358 -31.418  -4.179  1.00  0.00     0.033 C 
ATOM     28  C   UNL     1      35.998 -30.817  -2.902  1.00  0.00     0.118 C 
BRANCH  28  29
ATOM     29  O   UNL     1      37.326 -30.431  -3.147  1.00  0.00    -0.393 OA
ATOM     30  H   UNL     1      37.662 -29.984  -2.327  1.00  0.00     0.210 HD
ENDBRANCH  28  29
ENDBRANCH   1  10
TORSDOF 5
ENDMDL
