MODEL 1
REMARK VINA RESULT:     0.178      0.000      0.000
REMARK INTER + INTRA:           2.091
REMARK INTER:                   0.251
REMARK INTRA:                   1.840
REMARK UNBOUND:                 1.840
REMARK SMILES CC1=CCC(=C(C)C)C(=O)CC(C)=CCC1
REMARK SMILES IDX 12 1 14 2 13 3 15 4 16 5 2 6 1 7 3 8 11 10 9 11 10 12 5 13
REMARK SMILES IDX 6 14 7 15 8 16 4 17
REMARK H PARENT
REMARK Flexibility Score: 60.00
ROOT
ATOM      1  C   UNL     1      23.405 -17.854   3.015  1.00  0.00    -0.070 C 
ATOM      2  C   UNL     1      24.444 -17.071   3.381  1.00  0.00    -0.027 C 
ATOM      3  C   UNL     1      22.727 -18.671   4.085  1.00  0.00     0.039 C 
ENDROOT
BRANCH   2   4
ATOM      4  C   UNL     1      25.310 -16.257   2.443  1.00  0.00     0.032 C 
BRANCH   4   5
ATOM      5  C   UNL     1      26.479 -17.035   1.802  1.00  0.00     0.034 C 
BRANCH   5   6
ATOM      6  C   UNL     1      26.029 -18.014   0.732  1.00  0.00    -0.077 C 
ATOM      7  C   UNL     1      26.527 -19.434   0.827  1.00  0.00     0.039 C 
ATOM      8  C   UNL     1      25.265 -17.679  -0.337  1.00  0.00    -0.023 CG0
ATOM      9  G   UNL     1      24.640 -16.328  -0.627  1.00  0.00     0.000 G0
ENDBRANCH   5   6
ENDBRANCH   4   5
ENDBRANCH   2   4
BRANCH   1  10
ATOM     10  C   UNL     1      22.954 -18.019   1.579  1.00  0.00     0.111 C 
BRANCH  10  11
ATOM     11  C   UNL     1      22.643 -16.692   0.938  1.00  0.00     0.163 C 
ATOM     12  O   UNL     1      21.907 -15.885   1.571  1.00  0.00    -0.294 OA
BRANCH  11  13
ATOM     13  C   UNL     1      23.118 -16.330  -0.429  1.00  0.00    -0.002 C 
ATOM     14  C   UNL     1      22.228 -16.088  -1.438  1.00  0.00    -0.069 C 
ATOM     15  C   UNL     1      20.739 -16.025  -1.172  1.00  0.00     0.039 C 
ATOM     16  C   UNL     1      22.675 -15.875  -2.867  1.00  0.00     0.039 C 
BRANCH  13  17
ATOM     17  C   UNL     1      24.619 -16.335  -0.668  1.00  0.00     0.066 CG0
ATOM     18  G   UNL     1      25.255 -17.665  -0.314  1.00  0.00     0.000 G0
ENDBRANCH  13  17
ENDBRANCH  11  13
ENDBRANCH  10  11
ENDBRANCH   1  10
TORSDOF 0
ENDMDL
MODEL 2
REMARK VINA RESULT:     2.571      1.794      4.299
REMARK INTER + INTRA:           5.464
REMARK INTER:                   3.728
REMARK INTRA:                   1.736
REMARK UNBOUND:                 1.840
REMARK SMILES CC1=CCC(=C(C)C)C(=O)CC(C)=CCC1
REMARK SMILES IDX 12 1 14 2 13 3 15 4 16 5 2 6 1 7 3 8 11 10 9 11 10 12 5 13
REMARK SMILES IDX 6 14 7 15 8 16 4 17
REMARK H PARENT
REMARK Flexibility Score: 60.00
ROOT
ATOM      1  C   UNL     1      26.095 -19.961   0.670  1.00  0.00    -0.070 C 
ATOM      2  C   UNL     1      25.213 -20.062  -0.349  1.00  0.00    -0.027 C 
ATOM      3  C   UNL     1      26.997 -21.138   0.942  1.00  0.00     0.039 C 
ENDROOT
BRANCH   2   4
ATOM      4  C   UNL     1      24.165 -19.034  -0.715  1.00  0.00     0.032 C 
BRANCH   4   5
ATOM      5  C   UNL     1      24.707 -17.605  -0.933  1.00  0.00     0.034 C 
BRANCH   5   6
ATOM      6  C   UNL     1      23.723 -16.524  -0.520  1.00  0.00    -0.077 C 
ATOM      7  C   UNL     1      22.727 -16.052  -1.549  1.00  0.00     0.039 C 
ATOM      8  C   UNL     1      23.726 -15.910   0.688  1.00  0.00    -0.023 CG0
ATOM      9  G   UNL     1      24.617 -16.228   1.874  1.00  0.00     0.000 G0
ENDBRANCH   5   6
ENDBRANCH   4   5
ENDBRANCH   2   4
BRANCH   1  10
ATOM     10  C   UNL     1      26.156 -18.768   1.602  1.00  0.00     0.111 C 
BRANCH  10  11
ATOM     11  C   UNL     1      24.940 -18.694   2.488  1.00  0.00     0.163 C 
ATOM     12  O   UNL     1      24.573 -19.745   3.082  1.00  0.00    -0.294 OA
BRANCH  11  13
ATOM     13  C   UNL     1      24.130 -17.449   2.635  1.00  0.00    -0.002 C 
ATOM     14  C   UNL     1      22.959 -17.457   3.342  1.00  0.00    -0.069 C 
ATOM     15  C   UNL     1      22.523 -18.676   4.125  1.00  0.00     0.039 C 
ATOM     16  C   UNL     1      22.038 -16.257   3.377  1.00  0.00     0.039 C 
BRANCH  13  17
ATOM     17  C   UNL     1      24.612 -16.213   1.894  1.00  0.00     0.066 CG0
ATOM     18  G   UNL     1      23.748 -15.888   0.691  1.00  0.00     0.000 G0
ENDBRANCH  13  17
ENDBRANCH  11  13
ENDBRANCH  10  11
ENDBRANCH   1  10
TORSDOF 0
ENDMDL
MODEL 3
REMARK VINA RESULT:     3.084      1.508      2.148
REMARK INTER + INTRA:           6.186
REMARK INTER:                   5.135
REMARK INTRA:                   1.052
REMARK UNBOUND:                 1.840
REMARK SMILES CC1=CCC(=C(C)C)C(=O)CC(C)=CCC1
REMARK SMILES IDX 12 1 14 2 13 3 15 4 16 5 2 6 1 7 3 8 11 10 9 11 10 12 5 13
REMARK SMILES IDX 6 14 7 15 8 16 4 17
REMARK H PARENT
REMARK Flexibility Score: 60.00
ROOT
ATOM      1  C   UNL     1      23.881 -18.684   3.372  1.00  0.00    -0.070 C 
ATOM      2  C   UNL     1      24.936 -19.461   3.042  1.00  0.00    -0.027 C 
ATOM      3  C   UNL     1      22.547 -19.355   3.579  1.00  0.00     0.039 C 
ENDROOT
BRANCH   2   4
ATOM      4  C   UNL     1      26.324 -18.966   2.700  1.00  0.00     0.032 C 
BRANCH   4   5
ATOM      5  C   UNL     1      26.825 -19.360   1.294  1.00  0.00     0.034 C 
BRANCH   5   6
ATOM      6  C   UNL     1      25.698 -19.694   0.332  1.00  0.00    -0.077 C 
ATOM      7  C   UNL     1      25.421 -21.150   0.056  1.00  0.00     0.039 C 
ATOM      8  C   UNL     1      24.971 -18.771  -0.344  1.00  0.00    -0.023 CG0
ATOM      9  G   UNL     1      25.061 -17.263  -0.213  1.00  0.00     0.000 G0
ENDBRANCH   5   6
ENDBRANCH   4   5
ENDBRANCH   2   4
BRANCH   1  10
ATOM     10  C   UNL     1      23.954 -17.173   3.453  1.00  0.00     0.111 C 
BRANCH  10  11
ATOM     11  C   UNL     1      24.636 -16.585   2.245  1.00  0.00     0.163 C 
ATOM     12  O   UNL     1      25.672 -15.888   2.429  1.00  0.00    -0.294 OA
BRANCH  11  13
ATOM     13  C   UNL     1      24.097 -16.745   0.863  1.00  0.00    -0.002 C 
ATOM     14  C   UNL     1      22.780 -16.496   0.592  1.00  0.00    -0.069 C 
ATOM     15  C   UNL     1      21.863 -15.905   1.640  1.00  0.00     0.039 C 
ATOM     16  C   UNL     1      22.170 -16.799  -0.758  1.00  0.00     0.039 C 
BRANCH  13  17
ATOM     17  C   UNL     1      25.047 -17.281  -0.196  1.00  0.00     0.066 CG0
ATOM     18  G   UNL     1      24.956 -18.787  -0.344  1.00  0.00     0.000 G0
ENDBRANCH  13  17
ENDBRANCH  11  13
ENDBRANCH  10  11
ENDBRANCH   1  10
TORSDOF 0
ENDMDL
