MODEL 1
REMARK VINA RESULT:    -4.067      0.000      0.000
REMARK INTER + INTRA:          -4.650
REMARK INTER:                  -4.542
REMARK INTRA:                  -0.108
REMARK UNBOUND:                -0.108
REMARK SMILES COc1cc2ccc(=O)oc2cc1OC
REMARK SMILES IDX 3 1 13 2 12 3 11 4 5 5 4 6 6 7 7 8 8 9 9 10 10 11 2 12 1 13
REMARK SMILES IDX 14 14 15 15
REMARK H PARENT
REMARK Flexibility Score: inf
ROOT
ATOM      1  C   UNL     1       4.937  15.746  50.761  1.00  0.00     0.161 A 
ATOM      2  C   UNL     1       5.267  15.424  52.088  1.00  0.00     0.164 A 
ATOM      3  C   UNL     1       6.298  16.128  52.742  1.00  0.00     0.098 A 
ATOM      4  C   UNL     1       6.992  17.143  52.081  1.00  0.00     0.142 A 
ATOM      5  C   UNL     1       6.661  17.467  50.749  1.00  0.00     0.022 A 
ATOM      6  C   UNL     1       5.638  16.771  50.094  1.00  0.00     0.062 A 
ATOM      7  C   UNL     1       7.375  18.489  50.113  1.00  0.00     0.019 A 
ATOM      8  C   UNL     1       8.385  19.153  50.808  1.00  0.00     0.094 A 
ATOM      9  C   UNL     1       8.659  18.777  52.128  1.00  0.00     0.336 A 
ATOM     10  O   UNL     1       9.567  19.364  52.773  1.00  0.00    -0.246 OA
ATOM     11  O   UNL     1       7.964  17.801  52.708  1.00  0.00    -0.423 OA
ENDROOT
BRANCH   1  12
ATOM     12  O   UNL     1       3.905  15.025  50.139  1.00  0.00    -0.493 OA
ATOM     13  C   UNL     1       3.875  14.687  48.756  1.00  0.00     0.278 C 
ENDBRANCH   1  12
BRANCH   2  14
ATOM     14  O   UNL     1       4.549  14.398  52.722  1.00  0.00    -0.493 OA
ATOM     15  C   UNL     1       5.105  13.486  53.664  1.00  0.00     0.278 C 
ENDBRANCH   2  14
TORSDOF 2
ENDMDL
MODEL 2
REMARK VINA RESULT:    -3.997      2.270      5.951
REMARK INTER + INTRA:          -4.573
REMARK INTER:                  -4.407
REMARK INTRA:                  -0.165
REMARK UNBOUND:                -0.108
REMARK SMILES COc1cc2ccc(=O)oc2cc1OC
REMARK SMILES IDX 3 1 13 2 12 3 11 4 5 5 4 6 6 7 7 8 8 9 9 10 10 11 2 12 1 13
REMARK SMILES IDX 14 14 15 15
REMARK H PARENT
REMARK Flexibility Score: inf
ROOT
ATOM      1  C   UNL     1       5.689  17.618  53.950  1.00  0.00     0.161 A 
ATOM      2  C   UNL     1       6.263  17.022  52.815  1.00  0.00     0.164 A 
ATOM      3  C   UNL     1       6.153  15.630  52.624  1.00  0.00     0.098 A 
ATOM      4  C   UNL     1       5.478  14.840  53.556  1.00  0.00     0.142 A 
ATOM      5  C   UNL     1       4.901  15.436  54.696  1.00  0.00     0.022 A 
ATOM      6  C   UNL     1       5.007  16.820  54.891  1.00  0.00     0.062 A 
ATOM      7  C   UNL     1       4.231  14.618  55.612  1.00  0.00     0.019 A 
ATOM      8  C   UNL     1       4.152  13.246  55.373  1.00  0.00     0.094 A 
ATOM      9  C   UNL     1       4.748  12.724  54.221  1.00  0.00     0.336 A 
ATOM     10  O   UNL     1       4.688  11.488  53.987  1.00  0.00    -0.246 OA
ATOM     11  O   UNL     1       5.380  13.526  53.366  1.00  0.00    -0.423 OA
ENDROOT
BRANCH   1  12
ATOM     12  O   UNL     1       5.818  19.007  54.109  1.00  0.00    -0.493 OA
ATOM     13  C   UNL     1       6.755  19.638  54.976  1.00  0.00     0.278 C 
ENDBRANCH   1  12
BRANCH   2  14
ATOM     14  O   UNL     1       6.936  17.847  51.899  1.00  0.00    -0.493 OA
ATOM     15  C   UNL     1       8.351  17.920  51.766  1.00  0.00     0.278 C 
ENDBRANCH   2  14
TORSDOF 2
ENDMDL
MODEL 3
REMARK VINA RESULT:    -3.898      1.653      4.758
REMARK INTER + INTRA:          -4.462
REMARK INTER:                  -4.348
REMARK INTRA:                  -0.113
REMARK UNBOUND:                -0.108
REMARK SMILES COc1cc2ccc(=O)oc2cc1OC
REMARK SMILES IDX 3 1 13 2 12 3 11 4 5 5 4 6 6 7 7 8 8 9 9 10 10 11 2 12 1 13
REMARK SMILES IDX 14 14 15 15
REMARK H PARENT
REMARK Flexibility Score: inf
ROOT
ATOM      1  C   UNL     1       6.353  17.880  50.313  1.00  0.00     0.161 A 
ATOM      2  C   UNL     1       7.404  17.736  51.234  1.00  0.00     0.164 A 
ATOM      3  C   UNL     1       7.337  16.733  52.221  1.00  0.00     0.098 A 
ATOM      4  C   UNL     1       6.233  15.881  52.289  1.00  0.00     0.142 A 
ATOM      5  C   UNL     1       5.178  16.024  51.366  1.00  0.00     0.022 A 
ATOM      6  C   UNL     1       5.239  17.020  50.383  1.00  0.00     0.062 A 
ATOM      7  C   UNL     1       4.085  15.156  51.461  1.00  0.00     0.019 A 
ATOM      8  C   UNL     1       4.070  14.180  52.457  1.00  0.00     0.094 A 
ATOM      9  C   UNL     1       5.153  14.097  53.339  1.00  0.00     0.336 A 
ATOM     10  O   UNL     1       5.158  13.223  54.245  1.00  0.00    -0.246 OA
ATOM     11  O   UNL     1       6.179  14.936  53.226  1.00  0.00    -0.423 OA
ENDROOT
BRANCH   1  12
ATOM     12  O   UNL     1       6.453  18.891  49.343  1.00  0.00    -0.493 OA
ATOM     13  C   UNL     1       5.363  19.691  48.895  1.00  0.00     0.278 C 
ENDBRANCH   1  12
BRANCH   2  14
ATOM     14  O   UNL     1       8.499  18.610  51.136  1.00  0.00    -0.493 OA
ATOM     15  C   UNL     1       9.093  19.287  52.239  1.00  0.00     0.278 C 
ENDBRANCH   2  14
TORSDOF 2
ENDMDL
MODEL 4
REMARK VINA RESULT:    -3.811      1.126      2.832
REMARK INTER + INTRA:          -4.365
REMARK INTER:                  -4.250
REMARK INTRA:                  -0.115
REMARK UNBOUND:                -0.108
REMARK SMILES COc1cc2ccc(=O)oc2cc1OC
REMARK SMILES IDX 3 1 13 2 12 3 11 4 5 5 4 6 6 7 7 8 8 9 9 10 10 11 2 12 1 13
REMARK SMILES IDX 14 14 15 15
REMARK H PARENT
REMARK Flexibility Score: inf
ROOT
ATOM      1  C   UNL     1       5.383  15.623  51.974  1.00  0.00     0.161 A 
ATOM      2  C   UNL     1       5.025  16.066  50.690  1.00  0.00     0.164 A 
ATOM      3  C   UNL     1       5.811  17.038  50.041  1.00  0.00     0.098 A 
ATOM      4  C   UNL     1       6.943  17.565  50.666  1.00  0.00     0.142 A 
ATOM      5  C   UNL     1       7.304  17.121  51.954  1.00  0.00     0.022 A 
ATOM      6  C   UNL     1       6.525  16.155  52.605  1.00  0.00     0.062 A 
ATOM      7  C   UNL     1       8.443  17.668  52.555  1.00  0.00     0.019 A 
ATOM      8  C   UNL     1       9.186  18.627  51.867  1.00  0.00     0.094 A 
ATOM      9  C   UNL     1       8.768  19.020  50.591  1.00  0.00     0.336 A 
ATOM     10  O   UNL     1       9.424  19.885  49.953  1.00  0.00    -0.246 OA
ATOM     11  O   UNL     1       7.679  18.483  50.044  1.00  0.00    -0.423 OA
ENDROOT
BRANCH   1  12
ATOM     12  O   UNL     1       4.576  14.654  52.592  1.00  0.00    -0.493 OA
ATOM     13  C   UNL     1       4.966  13.878  53.720  1.00  0.00     0.278 C 
ENDBRANCH   1  12
BRANCH   2  14
ATOM     14  O   UNL     1       3.880  15.516  50.091  1.00  0.00    -0.493 OA
ATOM     15  C   UNL     1       3.875  14.806  48.857  1.00  0.00     0.278 C 
ENDBRANCH   2  14
TORSDOF 2
ENDMDL
MODEL 5
REMARK VINA RESULT:    -3.741      2.004      3.095
REMARK INTER + INTRA:          -4.286
REMARK INTER:                  -4.176
REMARK INTRA:                  -0.111
REMARK UNBOUND:                -0.108
REMARK SMILES COc1cc2ccc(=O)oc2cc1OC
REMARK SMILES IDX 3 1 13 2 12 3 11 4 5 5 4 6 6 7 7 8 8 9 9 10 10 11 2 12 1 13
REMARK SMILES IDX 14 14 15 15
REMARK H PARENT
REMARK Flexibility Score: inf
ROOT
ATOM      1  C   UNL     1       5.484  17.116  53.758  1.00  0.00     0.161 A 
ATOM      2  C   UNL     1       5.813  16.157  52.786  1.00  0.00     0.164 A 
ATOM      3  C   UNL     1       6.790  16.451  51.815  1.00  0.00     0.098 A 
ATOM      4  C   UNL     1       7.434  17.690  51.812  1.00  0.00     0.142 A 
ATOM      5  C   UNL     1       7.105  18.654  52.787  1.00  0.00     0.022 A 
ATOM      6  C   UNL     1       6.134  18.367  53.755  1.00  0.00     0.062 A 
ATOM      7  C   UNL     1       7.768  19.886  52.757  1.00  0.00     0.019 A 
ATOM      8  C   UNL     1       8.727  20.124  51.774  1.00  0.00     0.094 A 
ATOM      9  C   UNL     1       9.001  19.121  50.838  1.00  0.00     0.336 A 
ATOM     10  O   UNL     1       9.864  19.317  49.942  1.00  0.00    -0.246 OA
ATOM     11  O   UNL     1       8.356  17.958  50.889  1.00  0.00    -0.423 OA
ENDROOT
BRANCH   1  12
ATOM     12  O   UNL     1       4.505  16.790  54.710  1.00  0.00    -0.493 OA
ATOM     13  C   UNL     1       4.776  16.478  56.073  1.00  0.00     0.278 C 
ENDBRANCH   1  12
BRANCH   2  14
ATOM     14  O   UNL     1       5.145  14.922  52.818  1.00  0.00    -0.493 OA
ATOM     15  C   UNL     1       5.559  13.799  53.590  1.00  0.00     0.278 C 
ENDBRANCH   2  14
TORSDOF 2
ENDMDL
MODEL 6
REMARK VINA RESULT:    -3.732      2.656      4.025
REMARK INTER + INTRA:          -4.277
REMARK INTER:                  -4.122
REMARK INTRA:                  -0.155
REMARK UNBOUND:                -0.108
REMARK SMILES COc1cc2ccc(=O)oc2cc1OC
REMARK SMILES IDX 3 1 13 2 12 3 11 4 5 5 4 6 6 7 7 8 8 9 9 10 10 11 2 12 1 13
REMARK SMILES IDX 14 14 15 15
REMARK H PARENT
REMARK Flexibility Score: inf
ROOT
ATOM      1  C   UNL     1       5.720  17.868  54.046  1.00  0.00     0.161 A 
ATOM      2  C   UNL     1       6.329  19.023  54.563  1.00  0.00     0.164 A 
ATOM      3  C   UNL     1       7.330  19.679  53.820  1.00  0.00     0.098 A 
ATOM      4  C   UNL     1       7.720  19.188  52.572  1.00  0.00     0.142 A 
ATOM      5  C   UNL     1       7.110  18.029  52.051  1.00  0.00     0.022 A 
ATOM      6  C   UNL     1       6.114  17.372  52.786  1.00  0.00     0.062 A 
ATOM      7  C   UNL     1       7.523  17.561  50.799  1.00  0.00     0.019 A 
ATOM      8  C   UNL     1       8.518  18.250  50.106  1.00  0.00     0.094 A 
ATOM      9  C   UNL     1       9.079  19.393  50.685  1.00  0.00     0.336 A 
ATOM     10  O   UNL     1       9.979  20.029  50.075  1.00  0.00    -0.246 OA
ATOM     11  O   UNL     1       8.667  19.815  51.878  1.00  0.00    -0.423 OA
ENDROOT
BRANCH   1  12
ATOM     12  O   UNL     1       4.726  17.239  54.814  1.00  0.00    -0.493 OA
ATOM     13  C   UNL     1       4.846  15.939  55.381  1.00  0.00     0.278 C 
ENDBRANCH   1  12
BRANCH   2  14
ATOM     14  O   UNL     1       5.912  19.488  55.821  1.00  0.00    -0.493 OA
ATOM     15  C   UNL     1       6.633  19.293  57.033  1.00  0.00     0.278 C 
ENDBRANCH   2  14
TORSDOF 2
ENDMDL
MODEL 7
REMARK VINA RESULT:    -3.657      2.785      6.187
REMARK INTER + INTRA:          -4.193
REMARK INTER:                  -4.076
REMARK INTRA:                  -0.116
REMARK UNBOUND:                -0.108
REMARK SMILES COc1cc2ccc(=O)oc2cc1OC
REMARK SMILES IDX 3 1 13 2 12 3 11 4 5 5 4 6 6 7 7 8 8 9 9 10 10 11 2 12 1 13
REMARK SMILES IDX 14 14 15 15
REMARK H PARENT
REMARK Flexibility Score: inf
ROOT
ATOM      1  C   UNL     1       5.349  16.188  53.666  1.00  0.00     0.161 A 
ATOM      2  C   UNL     1       4.961  16.296  55.012  1.00  0.00     0.164 A 
ATOM      3  C   UNL     1       4.591  15.140  55.728  1.00  0.00     0.098 A 
ATOM      4  C   UNL     1       4.608  13.889  55.108  1.00  0.00     0.142 A 
ATOM      5  C   UNL     1       4.998  13.779  53.758  1.00  0.00     0.022 A 
ATOM      6  C   UNL     1       5.366  14.925  53.041  1.00  0.00     0.062 A 
ATOM      7  C   UNL     1       5.004  12.512  53.165  1.00  0.00     0.019 A 
ATOM      8  C   UNL     1       4.629  11.401  53.921  1.00  0.00     0.094 A 
ATOM      9  C   UNL     1       4.253  11.586  55.256  1.00  0.00     0.336 A 
ATOM     10  O   UNL     1       3.911  10.596  55.954  1.00  0.00    -0.246 OA
ATOM     11  O   UNL     1       4.256  12.803  55.794  1.00  0.00    -0.423 OA
ENDROOT
BRANCH   1  12
ATOM     12  O   UNL     1       5.711  17.360  52.982  1.00  0.00    -0.493 OA
ATOM     13  C   UNL     1       7.010  17.624  52.463  1.00  0.00     0.278 C 
ENDBRANCH   1  12
BRANCH   2  14
ATOM     14  O   UNL     1       4.955  17.570  55.602  1.00  0.00    -0.493 OA
ATOM     15  C   UNL     1       4.741  17.816  56.988  1.00  0.00     0.278 C 
ENDBRANCH   2  14
TORSDOF 2
ENDMDL
MODEL 8
REMARK VINA RESULT:    -3.455      3.057      5.926
REMARK INTER + INTRA:          -3.967
REMARK INTER:                  -3.815
REMARK INTRA:                  -0.153
REMARK UNBOUND:                -0.108
REMARK SMILES COc1cc2ccc(=O)oc2cc1OC
REMARK SMILES IDX 3 1 13 2 12 3 11 4 5 5 4 6 6 7 7 8 8 9 9 10 10 11 2 12 1 13
REMARK SMILES IDX 14 14 15 15
REMARK H PARENT
REMARK Flexibility Score: inf
ROOT
ATOM      1  C   UNL     1       5.725  18.059  54.080  1.00  0.00     0.161 A 
ATOM      2  C   UNL     1       5.310  17.992  55.420  1.00  0.00     0.164 A 
ATOM      3  C   UNL     1       4.939  16.752  55.976  1.00  0.00     0.098 A 
ATOM      4  C   UNL     1       4.979  15.590  55.204  1.00  0.00     0.142 A 
ATOM      5  C   UNL     1       5.395  15.656  53.858  1.00  0.00     0.022 A 
ATOM      6  C   UNL     1       5.766  16.886  53.300  1.00  0.00     0.062 A 
ATOM      7  C   UNL     1       5.424  14.474  53.110  1.00  0.00     0.019 A 
ATOM      8  C   UNL     1       5.046  13.273  53.711  1.00  0.00     0.094 A 
ATOM      9  C   UNL     1       4.644  13.284  55.051  1.00  0.00     0.336 A 
ATOM     10  O   UNL     1       4.298  12.211  55.611  1.00  0.00    -0.246 OA
ATOM     11  O   UNL     1       4.625  14.423  55.739  1.00  0.00    -0.423 OA
ENDROOT
BRANCH   1  12
ATOM     12  O   UNL     1       6.088  19.311  53.558  1.00  0.00    -0.493 OA
ATOM     13  C   UNL     1       7.419  19.814  53.516  1.00  0.00     0.278 C 
ENDBRANCH   1  12
BRANCH   2  14
ATOM     14  O   UNL     1       5.281  19.180  56.168  1.00  0.00    -0.493 OA
ATOM     15  C   UNL     1       6.259  19.552  57.134  1.00  0.00     0.278 C 
ENDBRANCH   2  14
TORSDOF 2
ENDMDL
MODEL 9
REMARK VINA RESULT:    -3.428      2.302      3.354
REMARK INTER + INTRA:          -3.937
REMARK INTER:                  -3.832
REMARK INTRA:                  -0.104
REMARK UNBOUND:                -0.108
REMARK SMILES COc1cc2ccc(=O)oc2cc1OC
REMARK SMILES IDX 3 1 13 2 12 3 11 4 5 5 4 6 6 7 7 8 8 9 9 10 10 11 2 12 1 13
REMARK SMILES IDX 14 14 15 15
REMARK H PARENT
REMARK Flexibility Score: inf
ROOT
ATOM      1  C   UNL     1       5.185  15.629  54.171  1.00  0.00     0.161 A 
ATOM      2  C   UNL     1       5.167  16.845  54.874  1.00  0.00     0.164 A 
ATOM      3  C   UNL     1       5.715  18.001  54.284  1.00  0.00     0.098 A 
ATOM      4  C   UNL     1       6.276  17.946  53.007  1.00  0.00     0.142 A 
ATOM      5  C   UNL     1       6.295  16.726  52.301  1.00  0.00     0.022 A 
ATOM      6  C   UNL     1       5.752  15.573  52.882  1.00  0.00     0.062 A 
ATOM      7  C   UNL     1       6.865  16.703  51.023  1.00  0.00     0.019 A 
ATOM      8  C   UNL     1       7.393  17.877  50.488  1.00  0.00     0.094 A 
ATOM      9  C   UNL     1       7.339  19.051  51.247  1.00  0.00     0.336 A 
ATOM     10  O   UNL     1       7.811  20.122  50.781  1.00  0.00    -0.246 OA
ATOM     11  O   UNL     1       6.792  19.045  52.460  1.00  0.00    -0.423 OA
ENDROOT
BRANCH   1  12
ATOM     12  O   UNL     1       4.630  14.495  54.788  1.00  0.00    -0.493 OA
ATOM     13  C   UNL     1       4.926  13.151  54.424  1.00  0.00     0.278 C 
ENDBRANCH   1  12
BRANCH   2  14
ATOM     14  O   UNL     1       4.595  16.864  56.156  1.00  0.00    -0.493 OA
ATOM     15  C   UNL     1       4.991  17.742  57.204  1.00  0.00     0.278 C 
ENDBRANCH   2  14
TORSDOF 2
ENDMDL
