MODEL 1
REMARK VINA RESULT:    -4.214      0.000      0.000
REMARK INTER + INTRA:          -5.836
REMARK INTER:                  -5.692
REMARK INTRA:                  -0.143
REMARK UNBOUND:                -0.143
REMARK SMILES CCCCCCCC(=O)[O-]
REMARK SMILES IDX 5 1 6 2 7 3 8 4 9 5 10 6 4 7 3 8 2 9 1 10
REMARK H PARENT
REMARK Flexibility Score: inf
ROOT
ATOM      1  C   UNL     1      43.390  12.259 -34.066  1.00  0.00     0.000 C 
ENDROOT
BRANCH   1   2
ATOM      2  C   UNL     1      43.365  12.077 -35.591  1.00  0.00     0.006 C 
BRANCH   2   3
ATOM      3  C   UNL     1      41.942  11.887 -36.131  1.00  0.00     0.053 C 
BRANCH   3   4
ATOM      4  C   UNL     1      41.168  13.170 -36.125  1.00  0.00     0.041 C 
ATOM      5  O   UNL     1      41.718  14.243 -36.489  1.00  0.00    -0.550 OA
ATOM      6  O   UNL     1      39.831  13.175 -35.751  1.00  0.00    -0.550 OA
ENDBRANCH   3   4
ENDBRANCH   2   3
ENDBRANCH   1   2
BRANCH   1   7
ATOM      7  C   UNL     1      44.797  12.638 -33.581  1.00  0.00     0.000 C 
BRANCH   7   8
ATOM      8  C   UNL     1      44.918  12.632 -32.050  1.00  0.00    -0.000 C 
BRANCH   8   9
ATOM      9  C   UNL     1      46.229  11.997 -31.563  1.00  0.00    -0.003 C 
ATOM     10  C   UNL     1      46.335  12.053 -30.041  1.00  0.00     0.004 C 
ENDBRANCH   8   9
ENDBRANCH   7   8
ENDBRANCH   1   7
TORSDOF 6
ENDMDL
MODEL 2
REMARK VINA RESULT:    -3.941      1.183      1.873
REMARK INTER + INTRA:          -5.467
REMARK INTER:                  -5.325
REMARK INTRA:                  -0.142
REMARK UNBOUND:                -0.143
REMARK SMILES CCCCCCCC(=O)[O-]
REMARK SMILES IDX 5 1 6 2 7 3 8 4 9 5 10 6 4 7 3 8 2 9 1 10
REMARK H PARENT
REMARK Flexibility Score: inf
ROOT
ATOM      1  C   UNL     1      42.874  11.875 -35.303  1.00  0.00     0.000 C 
ENDROOT
BRANCH   1   2
ATOM      2  C   UNL     1      42.167  12.922 -36.178  1.00  0.00     0.006 C 
BRANCH   2   3
ATOM      3  C   UNL     1      40.676  13.049 -35.841  1.00  0.00     0.053 C 
BRANCH   3   4
ATOM      4  C   UNL     1      40.228  14.479 -35.833  1.00  0.00     0.041 C 
ATOM      5  O   UNL     1      39.002  14.758 -35.753  1.00  0.00    -0.550 OA
ATOM      6  O   UNL     1      41.165  15.503 -35.879  1.00  0.00    -0.550 OA
ENDBRANCH   3   4
ENDBRANCH   2   3
ENDBRANCH   1   2
BRANCH   1   7
ATOM      7  C   UNL     1      44.237  12.393 -34.820  1.00  0.00     0.000 C 
BRANCH   7   8
ATOM      8  C   UNL     1      44.324  12.493 -33.290  1.00  0.00    -0.000 C 
BRANCH   8   9
ATOM      9  C   UNL     1      45.658  13.086 -32.811  1.00  0.00    -0.003 C 
ATOM     10  C   UNL     1      45.819  12.930 -31.302  1.00  0.00     0.004 C 
ENDBRANCH   8   9
ENDBRANCH   7   8
ENDBRANCH   1   7
TORSDOF 6
ENDMDL
MODEL 3
REMARK VINA RESULT:    -3.821      3.723      6.136
REMARK INTER + INTRA:          -5.304
REMARK INTER:                  -5.127
REMARK INTRA:                  -0.177
REMARK UNBOUND:                -0.143
REMARK SMILES CCCCCCCC(=O)[O-]
REMARK SMILES IDX 5 1 6 2 7 3 8 4 9 5 10 6 4 7 3 8 2 9 1 10
REMARK H PARENT
REMARK Flexibility Score: inf
ROOT
ATOM      1  C   UNL     1      44.049  12.324 -33.471  1.00  0.00     0.000 C 
ENDROOT
BRANCH   1   2
ATOM      2  C   UNL     1      45.306  12.939 -32.838  1.00  0.00     0.006 C 
BRANCH   2   3
ATOM      3  C   UNL     1      46.005  11.971 -31.874  1.00  0.00     0.053 C 
BRANCH   3   4
ATOM      4  C   UNL     1      46.028  12.500 -30.473  1.00  0.00     0.041 C 
ATOM      5  O   UNL     1      45.319  13.492 -30.158  1.00  0.00    -0.550 OA
ATOM      6  O   UNL     1      46.807  11.877 -29.506  1.00  0.00    -0.550 OA
ENDBRANCH   3   4
ENDBRANCH   2   3
ENDBRANCH   1   2
BRANCH   1   7
ATOM      7  C   UNL     1      44.126  12.377 -35.004  1.00  0.00     0.000 C 
BRANCH   7   8
ATOM      8  C   UNL     1      42.819  11.930 -35.678  1.00  0.00    -0.000 C 
BRANCH   8   9
ATOM      9  C   UNL     1      41.987  13.112 -36.197  1.00  0.00    -0.003 C 
ATOM     10  C   UNL     1      40.508  12.929 -35.868  1.00  0.00     0.004 C 
ENDBRANCH   8   9
ENDBRANCH   7   8
ENDBRANCH   1   7
TORSDOF 6
ENDMDL
MODEL 4
REMARK VINA RESULT:    -3.422     19.805     20.945
REMARK INTER + INTRA:          -4.766
REMARK INTER:                  -4.596
REMARK INTRA:                  -0.170
REMARK UNBOUND:                -0.143
REMARK SMILES CCCCCCCC(=O)[O-]
REMARK SMILES IDX 5 1 6 2 7 3 8 4 9 5 10 6 4 7 3 8 2 9 1 10
REMARK H PARENT
REMARK Flexibility Score: inf
ROOT
ATOM      1  C   UNL     1      55.658  28.374 -36.259  1.00  0.00     0.000 C 
ENDROOT
BRANCH   1   2
ATOM      2  C   UNL     1      56.640  28.283 -35.082  1.00  0.00     0.006 C 
BRANCH   2   3
ATOM      3  C   UNL     1      56.027  27.577 -33.865  1.00  0.00     0.053 C 
BRANCH   3   4
ATOM      4  C   UNL     1      55.993  28.468 -32.662  1.00  0.00     0.041 C 
ATOM      5  O   UNL     1      55.994  27.971 -31.505  1.00  0.00    -0.550 OA
ATOM      6  O   UNL     1      55.993  29.849 -32.818  1.00  0.00    -0.550 OA
ENDBRANCH   3   4
ENDBRANCH   2   3
ENDBRANCH   1   2
BRANCH   1   7
ATOM      7  C   UNL     1      55.538  29.820 -36.763  1.00  0.00     0.000 C 
BRANCH   7   8
ATOM      8  C   UNL     1      54.758  29.924 -38.083  1.00  0.00    -0.000 C 
BRANCH   8   9
ATOM      9  C   UNL     1      55.003  28.725 -39.011  1.00  0.00    -0.003 C 
ATOM     10  C   UNL     1      53.755  27.854 -39.125  1.00  0.00     0.004 C 
ENDBRANCH   8   9
ENDBRANCH   7   8
ENDBRANCH   1   7
TORSDOF 6
ENDMDL
MODEL 5
REMARK VINA RESULT:    -3.367     20.225     21.266
REMARK INTER + INTRA:          -4.691
REMARK INTER:                  -4.261
REMARK INTRA:                  -0.430
REMARK UNBOUND:                -0.143
REMARK SMILES CCCCCCCC(=O)[O-]
REMARK SMILES IDX 5 1 6 2 7 3 8 4 9 5 10 6 4 7 3 8 2 9 1 10
REMARK H PARENT
REMARK Flexibility Score: inf
ROOT
ATOM      1  C   UNL     1      55.422  30.903 -35.788  1.00  0.00     0.000 C 
ENDROOT
BRANCH   1   2
ATOM      2  C   UNL     1      56.803  30.307 -35.476  1.00  0.00     0.006 C 
BRANCH   2   3
ATOM      3  C   UNL     1      56.894  28.823 -35.855  1.00  0.00     0.053 C 
BRANCH   3   4
ATOM      4  C   UNL     1      56.118  27.958 -34.910  1.00  0.00     0.041 C 
ATOM      5  O   UNL     1      56.090  28.230 -33.680  1.00  0.00    -0.550 OA
ATOM      6  O   UNL     1      55.399  26.872 -35.390  1.00  0.00    -0.550 OA
ENDBRANCH   3   4
ENDBRANCH   2   3
ENDBRANCH   1   2
BRANCH   1   7
ATOM      7  C   UNL     1      55.273  31.187 -37.290  1.00  0.00     0.000 C 
BRANCH   7   8
ATOM      8  C   UNL     1      54.281  30.236 -37.977  1.00  0.00    -0.000 C 
BRANCH   8   9
ATOM      9  C   UNL     1      54.973  29.237 -38.916  1.00  0.00    -0.003 C 
ATOM     10  C   UNL     1      54.274  27.880 -38.886  1.00  0.00     0.004 C 
ENDBRANCH   8   9
ENDBRANCH   7   8
ENDBRANCH   1   7
TORSDOF 6
ENDMDL
MODEL 6
REMARK VINA RESULT:    -3.264     19.886     20.772
REMARK INTER + INTRA:          -4.552
REMARK INTER:                  -4.300
REMARK INTRA:                  -0.252
REMARK UNBOUND:                -0.143
REMARK SMILES CCCCCCCC(=O)[O-]
REMARK SMILES IDX 5 1 6 2 7 3 8 4 9 5 10 6 4 7 3 8 2 9 1 10
REMARK H PARENT
REMARK Flexibility Score: inf
ROOT
ATOM      1  C   UNL     1      55.660  27.196 -34.352  1.00  0.00     0.000 C 
ENDROOT
BRANCH   1   2
ATOM      2  C   UNL     1      55.734  27.837 -35.746  1.00  0.00     0.006 C 
BRANCH   2   3
ATOM      3  C   UNL     1      56.418  29.210 -35.720  1.00  0.00     0.053 C 
BRANCH   3   4
ATOM      4  C   UNL     1      55.669  30.221 -36.532  1.00  0.00     0.041 C 
ATOM      5  O   UNL     1      55.831  31.452 -36.317  1.00  0.00    -0.550 OA
ATOM      6  O   UNL     1      54.819  29.806 -37.549  1.00  0.00    -0.550 OA
ENDBRANCH   3   4
ENDBRANCH   2   3
ENDBRANCH   1   2
BRANCH   1   7
ATOM      7  C   UNL     1      56.587  27.922 -33.365  1.00  0.00     0.000 C 
BRANCH   7   8
ATOM      8  C   UNL     1      55.997  28.004 -31.949  1.00  0.00    -0.000 C 
BRANCH   8   9
ATOM      9  C   UNL     1      55.774  29.451 -31.485  1.00  0.00    -0.003 C 
ATOM     10  C   UNL     1      56.021  29.591 -29.985  1.00  0.00     0.004 C 
ENDBRANCH   8   9
ENDBRANCH   7   8
ENDBRANCH   1   7
TORSDOF 6
ENDMDL
MODEL 7
REMARK VINA RESULT:    -3.145      2.526      3.990
REMARK INTER + INTRA:          -4.392
REMARK INTER:                  -4.214
REMARK INTRA:                  -0.178
REMARK UNBOUND:                -0.143
REMARK SMILES CCCCCCCC(=O)[O-]
REMARK SMILES IDX 5 1 6 2 7 3 8 4 9 5 10 6 4 7 3 8 2 9 1 10
REMARK H PARENT
REMARK Flexibility Score: inf
ROOT
ATOM      1  C   UNL     1      40.530  12.830 -35.845  1.00  0.00     0.000 C 
ENDROOT
BRANCH   1   2
ATOM      2  C   UNL     1      39.891  14.226 -35.807  1.00  0.00     0.006 C 
BRANCH   2   3
ATOM      3  C   UNL     1      38.415  14.202 -36.226  1.00  0.00     0.053 C 
BRANCH   3   4
ATOM      4  C   UNL     1      37.582  13.389 -35.283  1.00  0.00     0.041 C 
ATOM      5  O   UNL     1      37.123  12.273 -35.644  1.00  0.00    -0.550 OA
ATOM      6  O   UNL     1      37.339  13.849 -33.995  1.00  0.00    -0.550 OA
ENDBRANCH   3   4
ENDBRANCH   2   3
ENDBRANCH   1   2
BRANCH   1   7
ATOM      7  C   UNL     1      42.020  12.919 -36.208  1.00  0.00     0.000 C 
BRANCH   7   8
ATOM      8  C   UNL     1      42.872  11.875 -35.471  1.00  0.00    -0.000 C 
BRANCH   8   9
ATOM      9  C   UNL     1      44.248  12.420 -35.059  1.00  0.00    -0.003 C 
ATOM     10  C   UNL     1      44.361  12.536 -33.542  1.00  0.00     0.004 C 
ENDBRANCH   8   9
ENDBRANCH   7   8
ENDBRANCH   1   7
TORSDOF 6
ENDMDL
MODEL 8
REMARK VINA RESULT:    -2.842     20.367     21.122
REMARK INTER + INTRA:          -3.982
REMARK INTER:                  -3.699
REMARK INTRA:                  -0.283
REMARK UNBOUND:                -0.143
REMARK SMILES CCCCCCCC(=O)[O-]
REMARK SMILES IDX 5 1 6 2 7 3 8 4 9 5 10 6 4 7 3 8 2 9 1 10
REMARK H PARENT
REMARK Flexibility Score: inf
ROOT
ATOM      1  C   UNL     1      56.821  28.980 -36.447  1.00  0.00     0.000 C 
ENDROOT
BRANCH   1   2
ATOM      2  C   UNL     1      55.336  29.029 -36.838  1.00  0.00     0.006 C 
BRANCH   2   3
ATOM      3  C   UNL     1      55.043  30.123 -37.874  1.00  0.00     0.053 C 
BRANCH   3   4
ATOM      4  C   UNL     1      54.545  31.380 -37.230  1.00  0.00     0.041 C 
ATOM      5  O   UNL     1      55.334  32.112 -36.576  1.00  0.00    -0.550 OA
ATOM      6  O   UNL     1      53.218  31.761 -37.381  1.00  0.00    -0.550 OA
ENDBRANCH   3   4
ENDBRANCH   2   3
ENDBRANCH   1   2
BRANCH   1   7
ATOM      7  C   UNL     1      56.983  28.811 -34.929  1.00  0.00     0.000 C 
BRANCH   7   8
ATOM      8  C   UNL     1      55.998  27.790 -34.339  1.00  0.00    -0.000 C 
BRANCH   8   9
ATOM      9  C   UNL     1      55.946  27.840 -32.804  1.00  0.00    -0.003 C 
ATOM     10  C   UNL     1      56.036  29.276 -32.297  1.00  0.00     0.004 C 
ENDBRANCH   8   9
ENDBRANCH   7   8
ENDBRANCH   1   7
TORSDOF 6
ENDMDL
MODEL 9
REMARK VINA RESULT:    -2.654     19.883     20.830
REMARK INTER + INTRA:          -3.728
REMARK INTER:                  -3.809
REMARK INTRA:                   0.081
REMARK UNBOUND:                -0.143
REMARK SMILES CCCCCCCC(=O)[O-]
REMARK SMILES IDX 5 1 6 2 7 3 8 4 9 5 10 6 4 7 3 8 2 9 1 10
REMARK H PARENT
REMARK Flexibility Score: inf
ROOT
ATOM      1  C   UNL     1      56.203  29.000 -33.239  1.00  0.00     0.000 C 
ENDROOT
BRANCH   1   2
ATOM      2  C   UNL     1      56.611  29.476 -34.641  1.00  0.00     0.006 C 
BRANCH   2   3
ATOM      3  C   UNL     1      56.069  28.562 -35.747  1.00  0.00     0.053 C 
BRANCH   3   4
ATOM      4  C   UNL     1      56.070  27.123 -35.330  1.00  0.00     0.041 C 
ATOM      5  O   UNL     1      57.124  26.592 -34.890  1.00  0.00    -0.550 OA
ATOM      6  O   UNL     1      54.899  26.378 -35.395  1.00  0.00    -0.550 OA
ENDBRANCH   3   4
ENDBRANCH   2   3
ENDBRANCH   1   2
BRANCH   1   7
ATOM      7  C   UNL     1      56.695  29.978 -32.162  1.00  0.00     0.000 C 
BRANCH   7   8
ATOM      8  C   UNL     1      55.653  30.219 -31.059  1.00  0.00    -0.000 C 
BRANCH   8   9
ATOM      9  C   UNL     1      56.036  29.555 -29.728  1.00  0.00    -0.003 C 
ATOM     10  C   UNL     1      56.449  30.597 -28.693  1.00  0.00     0.004 C 
ENDBRANCH   8   9
ENDBRANCH   7   8
ENDBRANCH   1   7
TORSDOF 6
ENDMDL
