MODEL 1
REMARK VINA RESULT:    -4.212      0.000      0.000
REMARK INTER + INTRA:          -4.840
REMARK INTER:                  -4.705
REMARK INTRA:                  -0.135
REMARK UNBOUND:                -0.135
REMARK SMILES COc1cc2ccc(=O)oc2cc1OC
REMARK SMILES IDX 3 1 13 2 12 3 11 4 5 5 4 6 6 7 7 8 8 9 9 10 10 11 2 12 1 13
REMARK SMILES IDX 14 14 15 15
REMARK H PARENT
REMARK Flexibility Score: inf
ROOT
ATOM      1  C   UNL     1      25.145   7.134  -0.241  1.00  0.00     0.161 A 
ATOM      2  C   UNL     1      24.348   6.940   0.901  1.00  0.00     0.164 A 
ATOM      3  C   UNL     1      24.947   6.922   2.176  1.00  0.00     0.098 A 
ATOM      4  C   UNL     1      26.326   7.094   2.312  1.00  0.00     0.142 A 
ATOM      5  C   UNL     1      27.126   7.287   1.169  1.00  0.00     0.022 A 
ATOM      6  C   UNL     1      26.536   7.306  -0.102  1.00  0.00     0.062 A 
ATOM      7  C   UNL     1      28.504   7.457   1.338  1.00  0.00     0.019 A 
ATOM      8  C   UNL     1      29.044   7.429   2.623  1.00  0.00     0.094 A 
ATOM      9  C   UNL     1      28.189   7.232   3.713  1.00  0.00     0.336 A 
ATOM     10  O   UNL     1      28.656   7.205   4.881  1.00  0.00    -0.246 OA
ATOM     11  O   UNL     1      26.882   7.074   3.523  1.00  0.00    -0.423 OA
ENDROOT
BRANCH   1  12
ATOM     12  O   UNL     1      24.515   7.146  -1.496  1.00  0.00    -0.493 OA
ATOM     13  C   UNL     1      24.181   8.325  -2.220  1.00  0.00     0.278 C 
ENDBRANCH   1  12
BRANCH   2  14
ATOM     14  O   UNL     1      22.966   6.771   0.726  1.00  0.00    -0.493 OA
ATOM     15  C   UNL     1      22.272   5.542   0.917  1.00  0.00     0.278 C 
ENDBRANCH   2  14
TORSDOF 2
ENDMDL
MODEL 2
REMARK VINA RESULT:    -4.134     15.847     16.202
REMARK INTER + INTRA:          -4.753
REMARK INTER:                  -4.623
REMARK INTRA:                  -0.130
REMARK UNBOUND:                -0.135
REMARK SMILES COc1cc2ccc(=O)oc2cc1OC
REMARK SMILES IDX 3 1 13 2 12 3 11 4 5 5 4 6 6 7 7 8 8 9 9 10 10 11 2 12 1 13
REMARK SMILES IDX 14 14 15 15
REMARK H PARENT
REMARK Flexibility Score: inf
ROOT
ATOM      1  C   UNL     1      32.342  -7.891  -4.508  1.00  0.00     0.161 A 
ATOM      2  C   UNL     1      30.959  -8.026  -4.294  1.00  0.00     0.164 A 
ATOM      3  C   UNL     1      30.377  -7.490  -3.129  1.00  0.00     0.098 A 
ATOM      4  C   UNL     1      31.164  -6.827  -2.185  1.00  0.00     0.142 A 
ATOM      5  C   UNL     1      32.550  -6.691  -2.399  1.00  0.00     0.022 A 
ATOM      6  C   UNL     1      33.135  -7.222  -3.555  1.00  0.00     0.062 A 
ATOM      7  C   UNL     1      33.311  -6.021  -1.435  1.00  0.00     0.019 A 
ATOM      8  C   UNL     1      32.684  -5.511  -0.300  1.00  0.00     0.094 A 
ATOM      9  C   UNL     1      31.303  -5.683  -0.155  1.00  0.00     0.336 A 
ATOM     10  O   UNL     1      30.717  -5.229   0.862  1.00  0.00    -0.246 OA
ATOM     11  O   UNL     1      30.603  -6.324  -1.087  1.00  0.00    -0.423 OA
ENDROOT
BRANCH   1  12
ATOM     12  O   UNL     1      32.890  -8.438  -5.680  1.00  0.00    -0.493 OA
ATOM     13  C   UNL     1      33.393  -7.673  -6.770  1.00  0.00     0.278 C 
ENDBRANCH   1  12
BRANCH   2  14
ATOM     14  O   UNL     1      30.199  -8.699  -5.264  1.00  0.00    -0.493 OA
ATOM     15  C   UNL     1      29.822 -10.070  -5.186  1.00  0.00     0.278 C 
ENDBRANCH   2  14
TORSDOF 2
ENDMDL
MODEL 3
REMARK VINA RESULT:    -4.010      1.275      5.154
REMARK INTER + INTRA:          -4.615
REMARK INTER:                  -4.454
REMARK INTRA:                  -0.160
REMARK UNBOUND:                -0.135
REMARK SMILES COc1cc2ccc(=O)oc2cc1OC
REMARK SMILES IDX 3 1 13 2 12 3 11 4 5 5 4 6 6 7 7 8 8 9 9 10 10 11 2 12 1 13
REMARK SMILES IDX 14 14 15 15
REMARK H PARENT
REMARK Flexibility Score: inf
ROOT
ATOM      1  C   UNL     1      28.513   7.571   2.555  1.00  0.00     0.161 A 
ATOM      2  C   UNL     1      27.529   7.498   3.556  1.00  0.00     0.164 A 
ATOM      3  C   UNL     1      26.189   7.250   3.201  1.00  0.00     0.098 A 
ATOM      4  C   UNL     1      25.832   7.079   1.862  1.00  0.00     0.142 A 
ATOM      5  C   UNL     1      26.817   7.153   0.858  1.00  0.00     0.022 A 
ATOM      6  C   UNL     1      28.152   7.398   1.204  1.00  0.00     0.062 A 
ATOM      7  C   UNL     1      26.427   6.976  -0.474  1.00  0.00     0.019 A 
ATOM      8  C   UNL     1      25.086   6.735  -0.769  1.00  0.00     0.094 A 
ATOM      9  C   UNL     1      24.162   6.675   0.280  1.00  0.00     0.336 A 
ATOM     10  O   UNL     1      22.948   6.458   0.035  1.00  0.00    -0.246 OA
ATOM     11  O   UNL     1      24.561   6.846   1.538  1.00  0.00    -0.423 OA
ENDROOT
BRANCH   1  12
ATOM     12  O   UNL     1      29.840   7.819   2.944  1.00  0.00    -0.493 OA
ATOM     13  C   UNL     1      30.893   6.864   2.878  1.00  0.00     0.278 C 
ENDBRANCH   1  12
BRANCH   2  14
ATOM     14  O   UNL     1      27.925   7.675   4.891  1.00  0.00    -0.493 OA
ATOM     15  C   UNL     1      28.150   6.613   5.814  1.00  0.00     0.278 C 
ENDBRANCH   2  14
TORSDOF 2
ENDMDL
MODEL 4
REMARK VINA RESULT:    -3.966     15.394     15.817
REMARK INTER + INTRA:          -4.565
REMARK INTER:                  -4.430
REMARK INTRA:                  -0.135
REMARK UNBOUND:                -0.135
REMARK SMILES COc1cc2ccc(=O)oc2cc1OC
REMARK SMILES IDX 3 1 13 2 12 3 11 4 5 5 4 6 6 7 7 8 8 9 9 10 10 11 2 12 1 13
REMARK SMILES IDX 14 14 15 15
REMARK H PARENT
REMARK Flexibility Score: inf
ROOT
ATOM      1  C   UNL     1      31.472  -8.780  -1.422  1.00  0.00     0.161 A 
ATOM      2  C   UNL     1      30.855  -7.679  -2.040  1.00  0.00     0.164 A 
ATOM      3  C   UNL     1      30.961  -6.401  -1.458  1.00  0.00     0.098 A 
ATOM      4  C   UNL     1      31.674  -6.221  -0.271  1.00  0.00     0.142 A 
ATOM      5  C   UNL     1      32.293  -7.325   0.350  1.00  0.00     0.022 A 
ATOM      6  C   UNL     1      32.191  -8.598  -0.224  1.00  0.00     0.062 A 
ATOM      7  C   UNL     1      33.000  -7.112   1.538  1.00  0.00     0.019 A 
ATOM      8  C   UNL     1      33.073  -5.826   2.071  1.00  0.00     0.094 A 
ATOM      9  C   UNL     1      32.434  -4.778   1.400  1.00  0.00     0.336 A 
ATOM     10  O   UNL     1      32.488  -3.609   1.864  1.00  0.00    -0.246 OA
ATOM     11  O   UNL     1      31.768  -5.008   0.271  1.00  0.00    -0.423 OA
ENDROOT
BRANCH   1  12
ATOM     12  O   UNL     1      31.346 -10.040  -2.029  1.00  0.00    -0.493 OA
ATOM     13  C   UNL     1      30.457 -11.063  -1.591  1.00  0.00     0.278 C 
ENDBRANCH   1  12
BRANCH   2  14
ATOM     14  O   UNL     1      30.147  -7.897  -3.232  1.00  0.00    -0.493 OA
ATOM     15  C   UNL     1      30.664  -7.648  -4.535  1.00  0.00     0.278 C 
ENDBRANCH   2  14
TORSDOF 2
ENDMDL
MODEL 5
REMARK VINA RESULT:    -3.883      6.656      8.383
REMARK INTER + INTRA:          -4.473
REMARK INTER:                  -4.362
REMARK INTRA:                  -0.111
REMARK UNBOUND:                -0.135
REMARK SMILES COc1cc2ccc(=O)oc2cc1OC
REMARK SMILES IDX 3 1 13 2 12 3 11 4 5 5 4 6 6 7 7 8 8 9 9 10 10 11 2 12 1 13
REMARK SMILES IDX 14 14 15 15
REMARK H PARENT
REMARK Flexibility Score: inf
ROOT
ATOM      1  C   UNL     1      23.677   3.506   5.041  1.00  0.00     0.161 A 
ATOM      2  C   UNL     1      24.392   3.875   6.194  1.00  0.00     0.164 A 
ATOM      3  C   UNL     1      24.075   3.284   7.432  1.00  0.00     0.098 A 
ATOM      4  C   UNL     1      23.054   2.336   7.523  1.00  0.00     0.142 A 
ATOM      5  C   UNL     1      22.336   1.965   6.368  1.00  0.00     0.022 A 
ATOM      6  C   UNL     1      22.647   2.549   5.134  1.00  0.00     0.062 A 
ATOM      7  C   UNL     1      21.320   1.012   6.492  1.00  0.00     0.019 A 
ATOM      8  C   UNL     1      21.046   0.460   7.743  1.00  0.00     0.094 A 
ATOM      9  C   UNL     1      21.800   0.876   8.845  1.00  0.00     0.336 A 
ATOM     10  O   UNL     1      21.571   0.390   9.983  1.00  0.00    -0.246 OA
ATOM     11  O   UNL     1      22.762   1.784   8.700  1.00  0.00    -0.423 OA
ENDROOT
BRANCH   1  12
ATOM     12  O   UNL     1      24.019   4.115   3.823  1.00  0.00    -0.493 OA
ATOM     13  C   UNL     1      23.081   4.638   2.890  1.00  0.00     0.278 C 
ENDBRANCH   1  12
BRANCH   2  14
ATOM     14  O   UNL     1      25.411   4.832   6.065  1.00  0.00    -0.493 OA
ATOM     15  C   UNL     1      25.803   5.737   7.093  1.00  0.00     0.278 C 
ENDBRANCH   2  14
TORSDOF 2
ENDMDL
MODEL 6
REMARK VINA RESULT:    -3.882     14.123     14.633
REMARK INTER + INTRA:          -4.471
REMARK INTER:                  -4.313
REMARK INTRA:                  -0.158
REMARK UNBOUND:                -0.135
REMARK SMILES COc1cc2ccc(=O)oc2cc1OC
REMARK SMILES IDX 3 1 13 2 12 3 11 4 5 5 4 6 6 7 7 8 8 9 9 10 10 11 2 12 1 13
REMARK SMILES IDX 14 14 15 15
REMARK H PARENT
REMARK Flexibility Score: inf
ROOT
ATOM      1  C   UNL     1      32.823  -5.971  -1.901  1.00  0.00     0.161 A 
ATOM      2  C   UNL     1      31.541  -6.236  -1.390  1.00  0.00     0.164 A 
ATOM      3  C   UNL     1      31.244  -5.920  -0.050  1.00  0.00     0.098 A 
ATOM      4  C   UNL     1      32.215  -5.347   0.774  1.00  0.00     0.142 A 
ATOM      5  C   UNL     1      33.501  -5.081   0.263  1.00  0.00     0.022 A 
ATOM      6  C   UNL     1      33.803  -5.393  -1.069  1.00  0.00     0.062 A 
ATOM      7  C   UNL     1      34.451  -4.507   1.113  1.00  0.00     0.019 A 
ATOM      8  C   UNL     1      34.104  -4.215   2.431  1.00  0.00     0.094 A 
ATOM      9  C   UNL     1      32.808  -4.506   2.870  1.00  0.00     0.336 A 
ATOM     10  O   UNL     1      32.473  -4.250   4.055  1.00  0.00    -0.246 OA
ATOM     11  O   UNL     1      31.923  -5.053   2.040  1.00  0.00    -0.423 OA
ENDROOT
BRANCH   1  12
ATOM     12  O   UNL     1      33.086  -6.299  -3.242  1.00  0.00    -0.493 OA
ATOM     13  C   UNL     1      33.792  -7.460  -3.666  1.00  0.00     0.278 C 
ENDBRANCH   1  12
BRANCH   2  14
ATOM     14  O   UNL     1      30.590  -6.813  -2.247  1.00  0.00    -0.493 OA
ATOM     15  C   UNL     1      30.302  -8.206  -2.312  1.00  0.00     0.278 C 
ENDBRANCH   2  14
TORSDOF 2
ENDMDL
MODEL 7
REMARK VINA RESULT:    -3.824      6.420      8.554
REMARK INTER + INTRA:          -4.407
REMARK INTER:                  -4.295
REMARK INTRA:                  -0.113
REMARK UNBOUND:                -0.135
REMARK SMILES COc1cc2ccc(=O)oc2cc1OC
REMARK SMILES IDX 3 1 13 2 12 3 11 4 5 5 4 6 6 7 7 8 8 9 9 10 10 11 2 12 1 13
REMARK SMILES IDX 14 14 15 15
REMARK H PARENT
REMARK Flexibility Score: inf
ROOT
ATOM      1  C   UNL     1      24.387   4.297   6.760  1.00  0.00     0.161 A 
ATOM      2  C   UNL     1      24.064   4.094   5.407  1.00  0.00     0.164 A 
ATOM      3  C   UNL     1      23.189   3.051   5.046  1.00  0.00     0.098 A 
ATOM      4  C   UNL     1      22.642   2.217   6.024  1.00  0.00     0.142 A 
ATOM      5  C   UNL     1      22.965   2.419   7.380  1.00  0.00     0.022 A 
ATOM      6  C   UNL     1      23.835   3.455   7.745  1.00  0.00     0.062 A 
ATOM      7  C   UNL     1      22.400   1.567   8.335  1.00  0.00     0.019 A 
ATOM      8  C   UNL     1      21.541   0.550   7.923  1.00  0.00     0.094 A 
ATOM      9  C   UNL     1      21.265   0.408   6.559  1.00  0.00     0.336 A 
ATOM     10  O   UNL     1      20.492  -0.503   6.165  1.00  0.00    -0.246 OA
ATOM     11  O   UNL     1      21.816   1.233   5.671  1.00  0.00    -0.423 OA
ENDROOT
BRANCH   1  12
ATOM     12  O   UNL     1      25.263   5.346   7.084  1.00  0.00    -0.493 OA
ATOM     13  C   UNL     1      25.229   6.079   8.304  1.00  0.00     0.278 C 
ENDBRANCH   1  12
BRANCH   2  14
ATOM     14  O   UNL     1      24.633   4.951   4.452  1.00  0.00    -0.493 OA
ATOM     15  C   UNL     1      23.901   5.617   3.428  1.00  0.00     0.278 C 
ENDBRANCH   2  14
TORSDOF 2
ENDMDL
MODEL 8
REMARK VINA RESULT:    -3.817     14.233     14.883
REMARK INTER + INTRA:          -4.399
REMARK INTER:                  -4.240
REMARK INTRA:                  -0.159
REMARK UNBOUND:                -0.135
REMARK SMILES COc1cc2ccc(=O)oc2cc1OC
REMARK SMILES IDX 3 1 13 2 12 3 11 4 5 5 4 6 6 7 7 8 8 9 9 10 10 11 2 12 1 13
REMARK SMILES IDX 14 14 15 15
REMARK H PARENT
REMARK Flexibility Score: inf
ROOT
ATOM      1  C   UNL     1      31.517  -6.306  -1.504  1.00  0.00     0.161 A 
ATOM      2  C   UNL     1      32.816  -6.103  -2.002  1.00  0.00     0.164 A 
ATOM      3  C   UNL     1      33.793  -5.507  -1.180  1.00  0.00     0.098 A 
ATOM      4  C   UNL     1      33.479  -5.115   0.123  1.00  0.00     0.142 A 
ATOM      5  C   UNL     1      32.177  -5.318   0.622  1.00  0.00     0.022 A 
ATOM      6  C   UNL     1      31.201  -5.911  -0.190  1.00  0.00     0.062 A 
ATOM      7  C   UNL     1      31.894  -4.916   1.932  1.00  0.00     0.019 A 
ATOM      8  C   UNL     1      32.899  -4.330   2.700  1.00  0.00     0.094 A 
ATOM      9  C   UNL     1      34.169  -4.160   2.139  1.00  0.00     0.336 A 
ATOM     10  O   UNL     1      35.090  -3.634   2.815  1.00  0.00    -0.246 OA
ATOM     11  O   UNL     1      34.411  -4.552   0.891  1.00  0.00    -0.423 OA
ENDROOT
BRANCH   1  12
ATOM     12  O   UNL     1      30.568  -6.903  -2.350  1.00  0.00    -0.493 OA
ATOM     13  C   UNL     1      30.233  -8.286  -2.339  1.00  0.00     0.278 C 
ENDBRANCH   1  12
BRANCH   2  14
ATOM     14  O   UNL     1      33.096  -6.509  -3.316  1.00  0.00    -0.493 OA
ATOM     15  C   UNL     1      33.760  -7.720  -3.662  1.00  0.00     0.278 C 
ENDBRANCH   2  14
TORSDOF 2
ENDMDL
MODEL 9
REMARK VINA RESULT:    -3.793      1.198      2.719
REMARK INTER + INTRA:          -4.372
REMARK INTER:                  -4.250
REMARK INTRA:                  -0.123
REMARK UNBOUND:                -0.135
REMARK SMILES COc1cc2ccc(=O)oc2cc1OC
REMARK SMILES IDX 3 1 13 2 12 3 11 4 5 5 4 6 6 7 7 8 8 9 9 10 10 11 2 12 1 13
REMARK SMILES IDX 14 14 15 15
REMARK H PARENT
REMARK Flexibility Score: inf
ROOT
ATOM      1  C   UNL     1      24.100   7.149   0.609  1.00  0.00     0.161 A 
ATOM      2  C   UNL     1      24.898   7.262  -0.543  1.00  0.00     0.164 A 
ATOM      3  C   UNL     1      26.297   7.370  -0.415  1.00  0.00     0.098 A 
ATOM      4  C   UNL     1      26.894   7.367   0.848  1.00  0.00     0.142 A 
ATOM      5  C   UNL     1      26.095   7.254   2.002  1.00  0.00     0.022 A 
ATOM      6  C   UNL     1      24.703   7.146   1.882  1.00  0.00     0.062 A 
ATOM      7  C   UNL     1      26.723   7.254   3.252  1.00  0.00     0.019 A 
ATOM      8  C   UNL     1      28.111   7.365   3.321  1.00  0.00     0.094 A 
ATOM      9  C   UNL     1      28.841   7.474   2.132  1.00  0.00     0.336 A 
ATOM     10  O   UNL     1      30.095   7.574   2.172  1.00  0.00    -0.246 OA
ATOM     11  O   UNL     1      28.218   7.471   0.957  1.00  0.00    -0.423 OA
ENDROOT
BRANCH   1  12
ATOM     12  O   UNL     1      22.709   7.043   0.445  1.00  0.00    -0.493 OA
ATOM     13  C   UNL     1      21.968   5.836   0.592  1.00  0.00     0.278 C 
ENDBRANCH   1  12
BRANCH   2  14
ATOM     14  O   UNL     1      24.263   7.261  -1.794  1.00  0.00    -0.493 OA
ATOM     15  C   UNL     1      23.873   8.434  -2.502  1.00  0.00     0.278 C 
ENDBRANCH   2  14
TORSDOF 2
ENDMDL
