MODEL 1
REMARK VINA RESULT:    -4.245      0.000      0.000
REMARK INTER + INTRA:          -6.203
REMARK INTER:                  -6.479
REMARK INTRA:                   0.276
REMARK UNBOUND:                 0.276
REMARK SMILES CC1=CCC[C@@H](C)C(=O)C[C@@H](C(C)C)C(=O)C1
REMARK SMILES IDX 8 1 9 2 6 3 7 4 5 5 4 6 3 7 2 8 1 9 10 11 11 12 15 13 16 14
REMARK SMILES IDX 17 15 12 17 13 18 14 19
REMARK H PARENT
REMARK Flexibility Score: 70.00
ROOT
ATOM      1  C   UNL     1      -6.380  -9.136  12.080  1.00  0.00     0.136 C 
ATOM      2  O   UNL     1      -5.541 -10.021  12.160  1.00  0.00    -0.299 OA
ENDROOT
BRANCH   1   3
ATOM      3  C   UNL     1      -6.413  -8.272  10.832  1.00  0.00     0.053 C 
ATOM      4  C   UNL     1      -6.602  -9.129   9.573  1.00  0.00     0.016 C 
BRANCH   3   5
ATOM      5  C   UNL     1      -5.153  -7.394  10.721  1.00  0.00     0.015 C 
BRANCH   5   6
ATOM      6  C   UNL     1      -4.699  -6.866  12.095  1.00  0.00     0.028 C 
BRANCH   6   7
ATOM      7  C   UNL     1      -5.196  -5.464  12.330  1.00  0.00    -0.028 C 
ATOM      8  C   UNL     1      -6.236  -5.142  13.134  1.00  0.00    -0.070 CG0
ATOM      9  C   UNL     1      -6.583  -3.684  13.296  1.00  0.00     0.039 C 
ATOM     10  G   UNL     1      -7.067  -6.182  13.871  1.00  0.00     0.000 G0
ENDBRANCH   6   7
ENDBRANCH   5   6
ENDBRANCH   3   5
ENDBRANCH   1   3
BRANCH   1  11
ATOM     11  C   UNL     1      -7.324  -8.925  13.245  1.00  0.00     0.087 C 
BRANCH  11  12
ATOM     12  C   UNL     1      -8.572  -8.090  12.847  1.00  0.00     0.066 C 
BRANCH  12  13
ATOM     13  C   UNL     1      -8.298  -6.618  13.119  1.00  0.00     0.140 C 
ATOM     14  O   UNL     1      -9.029  -5.770  12.622  1.00  0.00    -0.299 OA
BRANCH  13  15
ATOM     15  C   UNL     1      -7.079  -6.184  13.892  1.00  0.00     0.106 CG0
ATOM     16  G   UNL     1      -6.254  -5.153  13.137  1.00  0.00     0.000 G0
ENDBRANCH  13  15
ENDBRANCH  12  13
BRANCH  12  17
ATOM     17  C   UNL     1      -9.867  -8.554  13.591  1.00  0.00    -0.006 C 
ATOM     18  C   UNL     1     -10.096 -10.071  13.430  1.00  0.00     0.008 C 
ATOM     19  C   UNL     1      -9.826  -8.224  15.096  1.00  0.00     0.008 C 
ENDBRANCH  12  17
ENDBRANCH  11  12
ENDBRANCH   1  11
TORSDOF 1
ENDMDL
MODEL 2
REMARK VINA RESULT:    -4.172      1.706      3.900
REMARK INTER + INTRA:          -6.091
REMARK INTER:                  -6.281
REMARK INTRA:                   0.190
REMARK UNBOUND:                 0.276
REMARK SMILES CC1=CCC[C@@H](C)C(=O)C[C@@H](C(C)C)C(=O)C1
REMARK SMILES IDX 8 1 9 2 6 3 7 4 5 5 4 6 3 7 2 8 1 9 10 11 11 12 15 13 16 14
REMARK SMILES IDX 17 15 12 17 13 18 14 19
REMARK H PARENT
REMARK Flexibility Score: 70.00
ROOT
ATOM      1  C   UNL     1      -8.170  -4.874  13.191  1.00  0.00     0.136 C 
ATOM      2  O   UNL     1      -8.849  -3.858  13.146  1.00  0.00    -0.299 OA
ENDROOT
BRANCH   1   3
ATOM      3  C   UNL     1      -6.658  -4.740  13.227  1.00  0.00     0.053 C 
ATOM      4  C   UNL     1      -6.238  -3.406  13.859  1.00  0.00     0.016 C 
BRANCH   3   5
ATOM      5  C   UNL     1      -6.045  -4.907  11.825  1.00  0.00     0.015 C 
BRANCH   5   6
ATOM      6  C   UNL     1      -5.007  -6.045  11.785  1.00  0.00     0.028 C 
BRANCH   6   7
ATOM      7  C   UNL     1      -5.302  -7.011  10.667  1.00  0.00    -0.028 C 
ATOM      8  C   UNL     1      -5.894  -8.217  10.829  1.00  0.00    -0.070 CG0
ATOM      9  C   UNL     1      -6.158  -9.048   9.599  1.00  0.00     0.039 C 
ATOM     10  G   UNL     1      -6.295  -8.767  12.189  1.00  0.00     0.000 G0
ENDBRANCH   6   7
ENDBRANCH   5   6
ENDBRANCH   3   5
ENDBRANCH   1   3
BRANCH   1  11
ATOM     11  C   UNL     1      -8.871  -6.216  13.178  1.00  0.00     0.087 C 
BRANCH  11  12
ATOM     12  C   UNL     1      -7.963  -7.360  13.705  1.00  0.00     0.066 C 
BRANCH  12  13
ATOM     13  C   UNL     1      -7.707  -8.355  12.583  1.00  0.00     0.140 C 
ATOM     14  O   UNL     1      -8.656  -8.909  12.044  1.00  0.00    -0.299 OA
BRANCH  13  15
ATOM     15  C   UNL     1      -6.303  -8.754  12.204  1.00  0.00     0.106 CG0
ATOM     16  G   UNL     1      -5.905  -8.227  10.833  1.00  0.00     0.000 G0
ENDBRANCH  13  15
ENDBRANCH  12  13
BRANCH  12  17
ATOM     17  C   UNL     1      -8.571  -8.083  14.952  1.00  0.00    -0.006 C 
ATOM     18  C   UNL     1     -10.113  -8.041  14.930  1.00  0.00     0.008 C 
ATOM     19  C   UNL     1      -8.125  -9.555  15.049  1.00  0.00     0.008 C 
ENDBRANCH  12  17
ENDBRANCH  11  12
ENDBRANCH   1  11
TORSDOF 1
ENDMDL
MODEL 3
REMARK VINA RESULT:    -4.008      1.669      4.224
REMARK INTER + INTRA:          -5.841
REMARK INTER:                  -5.876
REMARK INTRA:                   0.035
REMARK UNBOUND:                 0.276
REMARK SMILES CC1=CCC[C@@H](C)C(=O)C[C@@H](C(C)C)C(=O)C1
REMARK SMILES IDX 8 1 9 2 6 3 7 4 5 5 4 6 3 7 2 8 1 9 10 11 11 12 15 13 16 14
REMARK SMILES IDX 17 15 12 17 13 18 14 19
REMARK H PARENT
REMARK Flexibility Score: 70.00
ROOT
ATOM      1  C   UNL     1      -4.947  -8.538  11.669  1.00  0.00     0.136 C 
ATOM      2  O   UNL     1      -4.025  -8.602  12.470  1.00  0.00    -0.299 OA
ENDROOT
BRANCH   1   3
ATOM      3  C   UNL     1      -5.770  -9.785  11.403  1.00  0.00     0.053 C 
ATOM      4  C   UNL     1      -6.470  -9.703  10.040  1.00  0.00     0.016 C 
BRANCH   3   5
ATOM      5  C   UNL     1      -6.784 -10.044  12.533  1.00  0.00     0.015 C 
BRANCH   5   6
ATOM      6  C   UNL     1      -8.195  -9.551  12.161  1.00  0.00     0.028 C 
BRANCH   6   7
ATOM      7  C   UNL     1      -8.669  -8.489  13.118  1.00  0.00    -0.028 C 
ATOM      8  C   UNL     1      -8.582  -7.157  12.892  1.00  0.00    -0.070 CG0
ATOM      9  C   UNL     1      -9.143  -6.223  13.935  1.00  0.00     0.039 C 
ATOM     10  G   UNL     1      -7.943  -6.568  11.644  1.00  0.00     0.000 G0
ENDBRANCH   6   7
ENDBRANCH   5   6
ENDBRANCH   3   5
ENDBRANCH   1   3
BRANCH   1  11
ATOM     11  C   UNL     1      -5.201  -7.225  10.959  1.00  0.00     0.087 C 
BRANCH  11  12
ATOM     12  C   UNL     1      -5.356  -6.040  11.952  1.00  0.00     0.066 C 
BRANCH  12  13
ATOM     13  C   UNL     1      -6.811  -5.597  11.980  1.00  0.00     0.140 C 
ATOM     14  O   UNL     1      -7.088  -4.470  12.371  1.00  0.00    -0.299 OA
BRANCH  13  15
ATOM     15  C   UNL     1      -7.923  -6.558  11.644  1.00  0.00     0.106 CG0
ATOM     16  G   UNL     1      -8.572  -7.145  12.889  1.00  0.00     0.000 G0
ENDBRANCH  13  15
ENDBRANCH  12  13
BRANCH  12  17
ATOM     17  C   UNL     1      -4.422  -4.835  11.599  1.00  0.00    -0.006 C 
ATOM     18  C   UNL     1      -2.938  -5.188  11.829  1.00  0.00     0.008 C 
ATOM     19  C   UNL     1      -4.593  -4.371  10.139  1.00  0.00     0.008 C 
ENDBRANCH  12  17
ENDBRANCH  11  12
ENDBRANCH   1  11
TORSDOF 1
ENDMDL
MODEL 4
REMARK VINA RESULT:    -3.990      6.932      9.520
REMARK INTER + INTRA:          -5.813
REMARK INTER:                  -5.358
REMARK INTRA:                  -0.455
REMARK UNBOUND:                 0.276
REMARK SMILES CC1=CCC[C@@H](C)C(=O)C[C@@H](C(C)C)C(=O)C1
REMARK SMILES IDX 8 1 9 2 6 3 7 4 5 5 4 6 3 7 2 8 1 9 10 11 11 12 15 13 16 14
REMARK SMILES IDX 17 15 12 17 13 18 14 19
REMARK H PARENT
REMARK Flexibility Score: 70.00
ROOT
ATOM      1  C   UNL     1       1.802  -5.723   8.298  1.00  0.00     0.136 C 
ATOM      2  O   UNL     1       2.359  -4.711   7.901  1.00  0.00    -0.299 OA
ENDROOT
BRANCH   1   3
ATOM      3  C   UNL     1       0.324  -5.905   8.006  1.00  0.00     0.053 C 
ATOM      4  C   UNL     1       0.071  -6.024   6.497  1.00  0.00     0.016 C 
BRANCH   3   5
ATOM      5  C   UNL     1      -0.517  -4.772   8.622  1.00  0.00     0.015 C 
BRANCH   5   6
ATOM      6  C   UNL     1      -0.403  -4.744  10.158  1.00  0.00     0.028 C 
BRANCH   6   7
ATOM      7  C   UNL     1      -1.140  -5.903  10.778  1.00  0.00    -0.028 C 
ATOM      8  C   UNL     1      -0.552  -6.900  11.479  1.00  0.00    -0.070 CG0
ATOM      9  C   UNL     1      -1.437  -7.968  12.072  1.00  0.00     0.039 C 
ATOM     10  G   UNL     1       0.953  -6.993  11.687  1.00  0.00     0.000 G0
ENDBRANCH   6   7
ENDBRANCH   5   6
ENDBRANCH   3   5
ENDBRANCH   1   3
BRANCH   1  11
ATOM     11  C   UNL     1       2.608  -6.731   9.091  1.00  0.00     0.087 C 
BRANCH  11  12
ATOM     12  C   UNL     1       1.795  -8.015   9.409  1.00  0.00     0.066 C 
BRANCH  12  13
ATOM     13  C   UNL     1       1.589  -8.119  10.913  1.00  0.00     0.140 C 
ATOM     14  O   UNL     1       1.849  -9.171  11.483  1.00  0.00    -0.299 OA
BRANCH  13  15
ATOM     15  C   UNL     1       0.964  -6.990  11.692  1.00  0.00     0.106 CG0
ATOM     16  G   UNL     1      -0.541  -6.910  11.482  1.00  0.00     0.000 G0
ENDBRANCH  13  15
ENDBRANCH  12  13
BRANCH  12  17
ATOM     17  C   UNL     1       2.479  -9.311   8.858  1.00  0.00    -0.006 C 
ATOM     18  C   UNL     1       1.634  -9.962   7.743  1.00  0.00     0.008 C 
ATOM     19  C   UNL     1       3.890  -9.035   8.303  1.00  0.00     0.008 C 
ENDBRANCH  12  17
ENDBRANCH  11  12
ENDBRANCH   1  11
TORSDOF 1
ENDMDL
MODEL 5
REMARK VINA RESULT:    -3.922      6.701      9.151
REMARK INTER + INTRA:          -5.709
REMARK INTER:                  -5.782
REMARK INTRA:                   0.073
REMARK UNBOUND:                 0.276
REMARK SMILES CC1=CCC[C@@H](C)C(=O)C[C@@H](C(C)C)C(=O)C1
REMARK SMILES IDX 8 1 9 2 6 3 7 4 5 5 4 6 3 7 2 8 1 9 10 11 11 12 15 13 16 14
REMARK SMILES IDX 17 15 12 17 13 18 14 19
REMARK H PARENT
REMARK Flexibility Score: 70.00
ROOT
ATOM      1  C   UNL     1       2.127  -7.426   8.610  1.00  0.00     0.136 C 
ATOM      2  O   UNL     1       3.068  -6.726   8.266  1.00  0.00    -0.299 OA
ENDROOT
BRANCH   1   3
ATOM      3  C   UNL     1       2.408  -8.680   9.419  1.00  0.00     0.053 C 
ATOM      4  C   UNL     1       2.728  -9.867   8.501  1.00  0.00     0.016 C 
BRANCH   3   5
ATOM      5  C   UNL     1       1.243  -9.010  10.369  1.00  0.00     0.015 C 
BRANCH   5   6
ATOM      6  C   UNL     1       1.038  -7.912  11.430  1.00  0.00     0.028 C 
BRANCH   6   7
ATOM      7  C   UNL     1      -0.424  -7.593  11.606  1.00  0.00    -0.028 C 
ATOM      8  C   UNL     1      -1.003  -6.421  11.255  1.00  0.00    -0.070 CG0
ATOM      9  C   UNL     1      -2.489  -6.275  11.459  1.00  0.00     0.039 C 
ATOM     10  G   UNL     1      -0.221  -5.252  10.673  1.00  0.00     0.000 G0
ENDBRANCH   6   7
ENDBRANCH   5   6
ENDBRANCH   3   5
ENDBRANCH   1   3
BRANCH   1  11
ATOM     11  C   UNL     1       0.730  -7.024   8.185  1.00  0.00     0.087 C 
BRANCH  11  12
ATOM     12  C   UNL     1       0.548  -5.483   8.145  1.00  0.00     0.066 C 
BRANCH  12  13
ATOM     13  C   UNL     1      -0.475  -5.071   9.193  1.00  0.00     0.140 C 
ATOM     14  O   UNL     1      -1.497  -4.496   8.841  1.00  0.00    -0.299 OA
BRANCH  13  15
ATOM     15  C   UNL     1      -0.198  -5.256  10.663  1.00  0.00     0.106 CG0
ATOM     16  G   UNL     1      -0.984  -6.416  11.256  1.00  0.00     0.000 G0
ENDBRANCH  13  15
ENDBRANCH  12  13
BRANCH  12  17
ATOM     17  C   UNL     1       0.123  -4.965   6.730  1.00  0.00    -0.006 C 
ATOM     18  C   UNL     1       1.212  -4.064   6.111  1.00  0.00     0.008 C 
ATOM     19  C   UNL     1      -0.171  -6.117   5.750  1.00  0.00     0.008 C 
ENDBRANCH  12  17
ENDBRANCH  11  12
ENDBRANCH   1  11
TORSDOF 1
ENDMDL
MODEL 6
REMARK VINA RESULT:    -3.884     11.370     14.201
REMARK INTER + INTRA:          -5.652
REMARK INTER:                  -6.203
REMARK INTRA:                   0.551
REMARK UNBOUND:                 0.276
REMARK SMILES CC1=CCC[C@@H](C)C(=O)C[C@@H](C(C)C)C(=O)C1
REMARK SMILES IDX 8 1 9 2 6 3 7 4 5 5 4 6 3 7 2 8 1 9 10 11 11 12 15 13 16 14
REMARK SMILES IDX 17 15 12 17 13 18 14 19
REMARK H PARENT
REMARK Flexibility Score: 70.00
ROOT
ATOM      1  C   UNL     1       3.398   2.547  14.308  1.00  0.00     0.136 C 
ATOM      2  O   UNL     1       3.573   3.600  14.902  1.00  0.00    -0.299 OA
ENDROOT
BRANCH   1   3
ATOM      3  C   UNL     1       2.980   1.322  15.101  1.00  0.00     0.053 C 
ATOM      4  C   UNL     1       4.018   0.199  14.969  1.00  0.00     0.016 C 
BRANCH   3   5
ATOM      5  C   UNL     1       1.580   0.834  14.689  1.00  0.00     0.015 C 
BRANCH   5   6
ATOM      6  C   UNL     1       1.641  -0.149  13.504  1.00  0.00     0.028 C 
BRANCH   6   7
ATOM      7  C   UNL     1       0.466   0.042  12.580  1.00  0.00    -0.028 C 
ATOM      8  C   UNL     1       0.504   0.744  11.423  1.00  0.00    -0.070 CG0
ATOM      9  C   UNL     1      -0.750   0.805  10.588  1.00  0.00     0.039 C 
ATOM     10  G   UNL     1       1.748   1.475  10.938  1.00  0.00     0.000 G0
ENDBRANCH   6   7
ENDBRANCH   5   6
ENDBRANCH   3   5
ENDBRANCH   1   3
BRANCH   1  11
ATOM     11  C   UNL     1       3.639   2.509  12.813  1.00  0.00     0.087 C 
BRANCH  11  12
ATOM     12  C   UNL     1       2.844   3.612  12.062  1.00  0.00     0.066 C 
BRANCH  12  13
ATOM     13  C   UNL     1       1.732   2.964  11.251  1.00  0.00     0.140 C 
ATOM     14  O   UNL     1       0.753   3.630  10.936  1.00  0.00    -0.299 OA
BRANCH  13  15
ATOM     15  C   UNL     1       1.761   1.492  10.928  1.00  0.00     0.106 CG0
ATOM     16  G   UNL     1       0.521   0.767  11.432  1.00  0.00     0.000 G0
ENDBRANCH  13  15
ENDBRANCH  12  13
BRANCH  12  17
ATOM     17  C   UNL     1       3.757   4.487  11.140  1.00  0.00    -0.006 C 
ATOM     18  C   UNL     1       2.939   5.560  10.393  1.00  0.00     0.008 C 
ATOM     19  C   UNL     1       4.880   5.191  11.928  1.00  0.00     0.008 C 
ENDBRANCH  12  17
ENDBRANCH  11  12
ENDBRANCH   1  11
TORSDOF 1
ENDMDL
MODEL 7
REMARK VINA RESULT:    -3.836     10.573     13.408
REMARK INTER + INTRA:          -5.578
REMARK INTER:                  -5.249
REMARK INTRA:                  -0.329
REMARK UNBOUND:                 0.276
REMARK SMILES CC1=CCC[C@@H](C)C(=O)C[C@@H](C(C)C)C(=O)C1
REMARK SMILES IDX 8 1 9 2 6 3 7 4 5 5 4 6 3 7 2 8 1 9 10 11 11 12 15 13 16 14
REMARK SMILES IDX 17 15 12 17 13 18 14 19
REMARK H PARENT
REMARK Flexibility Score: 70.00
ROOT
ATOM      1  C   UNL     1       3.645   1.605  13.896  1.00  0.00     0.136 C 
ATOM      2  O   UNL     1       4.361   0.697  14.292  1.00  0.00    -0.299 OA
ENDROOT
BRANCH   1   3
ATOM      3  C   UNL     1       2.879   2.428  14.916  1.00  0.00     0.053 C 
ATOM      4  C   UNL     1       3.762   3.538  15.503  1.00  0.00     0.016 C 
BRANCH   3   5
ATOM      5  C   UNL     1       2.289   1.542  16.028  1.00  0.00     0.015 C 
BRANCH   5   6
ATOM      6  C   UNL     1       0.879   1.036  15.670  1.00  0.00     0.028 C 
BRANCH   6   7
ATOM      7  C   UNL     1       0.942  -0.294  14.965  1.00  0.00    -0.028 C 
ATOM      8  C   UNL     1       0.662  -0.484  13.655  1.00  0.00    -0.070 CG0
ATOM      9  C   UNL     1       0.814  -1.873  13.090  1.00  0.00     0.039 C 
ATOM     10  G   UNL     1       0.197   0.637  12.736  1.00  0.00     0.000 G0
ENDBRANCH   6   7
ENDBRANCH   5   6
ENDBRANCH   3   5
ENDBRANCH   1   3
BRANCH   1  11
ATOM     11  C   UNL     1       3.532   1.841  12.405  1.00  0.00     0.087 C 
BRANCH  11  12
ATOM     12  C   UNL     1       2.108   2.298  11.987  1.00  0.00     0.066 C 
BRANCH  12  13
ATOM     13  C   UNL     1       1.240   1.072  11.741  1.00  0.00     0.140 C 
ATOM     14  O   UNL     1       1.329   0.478  10.674  1.00  0.00    -0.299 OA
BRANCH  13  15
ATOM     15  C   UNL     1       0.194   0.648  12.740  1.00  0.00     0.106 CG0
ATOM     16  G   UNL     1       0.680  -0.481  13.638  1.00  0.00     0.000 G0
ENDBRANCH  13  15
ENDBRANCH  12  13
BRANCH  12  17
ATOM     17  C   UNL     1       2.120   3.224  10.726  1.00  0.00    -0.006 C 
ATOM     18  C   UNL     1       0.769   3.947  10.547  1.00  0.00     0.008 C 
ATOM     19  C   UNL     1       3.236   4.285  10.791  1.00  0.00     0.008 C 
ENDBRANCH  12  17
ENDBRANCH  11  12
ENDBRANCH   1  11
TORSDOF 1
ENDMDL
MODEL 8
REMARK VINA RESULT:    -3.779     11.397     14.095
REMARK INTER + INTRA:          -5.491
REMARK INTER:                  -5.436
REMARK INTRA:                  -0.055
REMARK UNBOUND:                 0.276
REMARK SMILES CC1=CCC[C@@H](C)C(=O)C[C@@H](C(C)C)C(=O)C1
REMARK SMILES IDX 8 1 9 2 6 3 7 4 5 5 4 6 3 7 2 8 1 9 10 11 11 12 15 13 16 14
REMARK SMILES IDX 17 15 12 17 13 18 14 19
REMARK H PARENT
REMARK Flexibility Score: 70.00
ROOT
ATOM      1  C   UNL     1       3.340   4.228  12.247  1.00  0.00     0.136 C 
ATOM      2  O   UNL     1       4.490   4.499  12.563  1.00  0.00    -0.299 OA
ENDROOT
BRANCH   1   3
ATOM      3  C   UNL     1       2.851   4.624  10.866  1.00  0.00     0.053 C 
ATOM      4  C   UNL     1       3.052   6.126  10.620  1.00  0.00     0.016 C 
BRANCH   3   5
ATOM      5  C   UNL     1       1.382   4.218  10.650  1.00  0.00     0.015 C 
BRANCH   5   6
ATOM      6  C   UNL     1       1.262   2.880   9.896  1.00  0.00     0.028 C 
BRANCH   6   7
ATOM      7  C   UNL     1       0.095   2.073  10.404  1.00  0.00    -0.028 C 
ATOM      8  C   UNL     1       0.192   1.064  11.301  1.00  0.00    -0.070 CG0
ATOM      9  C   UNL     1      -1.079   0.382  11.740  1.00  0.00     0.039 C 
ATOM     10  G   UNL     1       1.518   0.589  11.874  1.00  0.00     0.000 G0
ENDBRANCH   6   7
ENDBRANCH   5   6
ENDBRANCH   3   5
ENDBRANCH   1   3
BRANCH   1  11
ATOM     11  C   UNL     1       2.452   3.540  13.262  1.00  0.00     0.087 C 
BRANCH  11  12
ATOM     12  C   UNL     1       2.914   2.087  13.559  1.00  0.00     0.066 C 
BRANCH  12  13
ATOM     13  C   UNL     1       1.768   1.128  13.275  1.00  0.00     0.140 C 
ATOM     14  O   UNL     1       1.092   0.708  14.205  1.00  0.00    -0.299 OA
BRANCH  13  15
ATOM     15  C   UNL     1       1.524   0.598  11.884  1.00  0.00     0.106 CG0
ATOM     16  G   UNL     1       0.185   1.051  11.322  1.00  0.00     0.000 G0
ENDBRANCH  13  15
ENDBRANCH  12  13
BRANCH  12  17
ATOM     17  C   UNL     1       3.429   1.909  15.026  1.00  0.00    -0.006 C 
ATOM     18  C   UNL     1       4.769   1.145  15.063  1.00  0.00     0.008 C 
ATOM     19  C   UNL     1       3.616   3.257  15.748  1.00  0.00     0.008 C 
ENDBRANCH  12  17
ENDBRANCH  11  12
ENDBRANCH   1  11
TORSDOF 1
ENDMDL
MODEL 9
REMARK VINA RESULT:    -3.649      2.094      5.416
REMARK INTER + INTRA:          -5.292
REMARK INTER:                  -5.464
REMARK INTRA:                   0.172
REMARK UNBOUND:                 0.276
REMARK SMILES CC1=CCC[C@@H](C)C(=O)C[C@@H](C(C)C)C(=O)C1
REMARK SMILES IDX 8 1 9 2 6 3 7 4 5 5 4 6 3 7 2 8 1 9 10 11 11 12 15 13 16 14
REMARK SMILES IDX 17 15 12 17 13 18 14 19
REMARK H PARENT
REMARK Flexibility Score: 70.00
ROOT
ATOM      1  C   UNL     1      -8.108  -4.498  13.309  1.00  0.00     0.136 C 
ATOM      2  O   UNL     1      -8.525  -3.374  13.071  1.00  0.00    -0.299 OA
ENDROOT
BRANCH   1   3
ATOM      3  C   UNL     1      -9.084  -5.660  13.274  1.00  0.00     0.053 C 
ATOM      4  C   UNL     1     -10.301  -5.385  14.167  1.00  0.00     0.016 C 
BRANCH   3   5
ATOM      5  C   UNL     1      -8.399  -6.983  13.661  1.00  0.00     0.015 C 
BRANCH   5   6
ATOM      6  C   UNL     1      -8.182  -7.896  12.439  1.00  0.00     0.028 C 
BRANCH   6   7
ATOM      7  C   UNL     1      -6.821  -8.540  12.476  1.00  0.00    -0.028 C 
ATOM      8  C   UNL     1      -5.695  -7.987  11.968  1.00  0.00    -0.070 CG0
ATOM      9  C   UNL     1      -4.400  -8.744  12.124  1.00  0.00     0.039 C 
ATOM     10  G   UNL     1      -5.683  -6.648  11.246  1.00  0.00     0.000 G0
ENDBRANCH   6   7
ENDBRANCH   5   6
ENDBRANCH   3   5
ENDBRANCH   1   3
BRANCH   1  11
ATOM     11  C   UNL     1      -6.645  -4.670  13.658  1.00  0.00     0.087 C 
BRANCH  11  12
ATOM     12  C   UNL     1      -5.711  -4.314  12.470  1.00  0.00     0.066 C 
BRANCH  12  13
ATOM     13  C   UNL     1      -4.975  -5.567  12.017  1.00  0.00     0.140 C 
ATOM     14  O   UNL     1      -3.768  -5.654  12.204  1.00  0.00    -0.299 OA
BRANCH  13  15
ATOM     15  C   UNL     1      -5.685  -6.648  11.243  1.00  0.00     0.106 CG0
ATOM     16  G   UNL     1      -5.696  -7.976  11.986  1.00  0.00     0.000 G0
ENDBRANCH  13  15
ENDBRANCH  12  13
BRANCH  12  17
ATOM     17  C   UNL     1      -4.694  -3.178  12.824  1.00  0.00    -0.006 C 
ATOM     18  C   UNL     1      -4.174  -2.472  11.554  1.00  0.00     0.008 C 
ATOM     19  C   UNL     1      -5.308  -2.115  13.756  1.00  0.00     0.008 C 
ENDBRANCH  12  17
ENDBRANCH  11  12
ENDBRANCH   1  11
TORSDOF 1
ENDMDL
