MODEL 1
REMARK VINA RESULT:    -2.925      0.000      0.000
REMARK INTER + INTRA:          -5.096
REMARK INTER:                  -4.464
REMARK INTRA:                  -0.632
REMARK UNBOUND:                -0.632
REMARK SMILES O=C([O-])CCCCCCCCC(=O)[O-]
REMARK SMILES IDX 7 1 6 2 5 3 4 4 2 5 1 6 3 7 8 8 9 9 10 10 11 11 12 12 13 13
REMARK SMILES IDX 14 14
REMARK H PARENT
REMARK Flexibility Score: inf
ROOT
ATOM      1  C   UNL     1       8.269  -3.242  -2.167  1.00  0.00     0.000 C 
ENDROOT
BRANCH   1   2
ATOM      2  C   UNL     1       8.809  -3.660  -0.791  1.00  0.00     0.000 C 
BRANCH   2   3
ATOM      3  C   UNL     1       9.185  -2.457   0.092  1.00  0.00     0.006 C 
BRANCH   3   4
ATOM      4  C   UNL     1       8.623  -2.523   1.520  1.00  0.00     0.053 C 
BRANCH   4   5
ATOM      5  C   UNL     1       8.842  -3.865   2.148  1.00  0.00     0.041 C 
ATOM      6  O   UNL     1       9.997  -4.216   2.509  1.00  0.00    -0.550 OA
ATOM      7  O   UNL     1       7.765  -4.715   2.367  1.00  0.00    -0.550 OA
ENDBRANCH   4   5
ENDBRANCH   3   4
ENDBRANCH   2   3
ENDBRANCH   1   2
BRANCH   1   8
ATOM      8  C   UNL     1       8.465  -1.743  -2.455  1.00  0.00     0.000 C 
BRANCH   8   9
ATOM      9  C   UNL     1       7.195  -1.047  -2.988  1.00  0.00     0.000 C 
BRANCH   9  10
ATOM     10  C   UNL     1       7.166   0.452  -2.645  1.00  0.00     0.006 C 
BRANCH  10  11
ATOM     11  C   UNL     1       8.132   0.808  -1.508  1.00  0.00     0.053 C 
BRANCH  11  12
ATOM     12  C   UNL     1       8.056   2.260  -1.147  1.00  0.00     0.041 C 
ATOM     13  O   UNL     1       8.962   2.788  -0.451  1.00  0.00    -0.550 OA
ATOM     14  O   UNL     1       7.003   3.037  -1.611  1.00  0.00    -0.550 OA
ENDBRANCH  11  12
ENDBRANCH  10  11
ENDBRANCH   9  10
ENDBRANCH   8   9
ENDBRANCH   1   8
TORSDOF 9
ENDMDL
MODEL 2
REMARK VINA RESULT:    -2.894      2.229      3.464
REMARK INTER + INTRA:          -5.049
REMARK INTER:                  -4.639
REMARK INTRA:                  -0.410
REMARK UNBOUND:                -0.632
REMARK SMILES O=C([O-])CCCCCCCCC(=O)[O-]
REMARK SMILES IDX 7 1 6 2 5 3 4 4 2 5 1 6 3 7 8 8 9 9 10 10 11 11 12 12 13 13
REMARK SMILES IDX 14 14
REMARK H PARENT
REMARK Flexibility Score: inf
ROOT
ATOM      1  C   UNL     1       7.618   0.193  -2.115  1.00  0.00     0.000 C 
ENDROOT
BRANCH   1   2
ATOM      2  C   UNL     1       7.144  -0.861  -3.128  1.00  0.00     0.000 C 
BRANCH   2   3
ATOM      3  C   UNL     1       7.634  -2.278  -2.785  1.00  0.00     0.006 C 
BRANCH   3   4
ATOM      4  C   UNL     1       8.564  -2.345  -1.563  1.00  0.00     0.053 C 
BRANCH   4   5
ATOM      5  C   UNL     1       8.749  -3.750  -1.076  1.00  0.00     0.041 C 
ATOM      6  O   UNL     1       9.069  -3.969   0.122  1.00  0.00    -0.550 OA
ATOM      7  O   UNL     1       8.535  -4.819  -1.937  1.00  0.00    -0.550 OA
ENDBRANCH   4   5
ENDBRANCH   3   4
ENDBRANCH   2   3
ENDBRANCH   1   2
BRANCH   1   8
ATOM      8  C   UNL     1       7.195   1.622  -2.498  1.00  0.00     0.000 C 
BRANCH   8   9
ATOM      9  C   UNL     1       7.630   2.689  -1.472  1.00  0.00     0.000 C 
BRANCH   9  10
ATOM     10  C   UNL     1       8.266   2.065  -0.218  1.00  0.00     0.006 C 
BRANCH  10  11
ATOM     11  C   UNL     1       8.652   3.121   0.825  1.00  0.00     0.053 C 
BRANCH  11  12
ATOM     12  C   UNL     1       7.448   3.713   1.491  1.00  0.00     0.041 C 
ATOM     13  O   UNL     1       6.896   3.116   2.451  1.00  0.00    -0.550 OA
ATOM     14  O   UNL     1       6.957   4.944   1.072  1.00  0.00    -0.550 OA
ENDBRANCH  11  12
ENDBRANCH  10  11
ENDBRANCH   9  10
ENDBRANCH   8   9
ENDBRANCH   1   8
TORSDOF 9
ENDMDL
MODEL 3
REMARK VINA RESULT:    -2.880      1.234      5.468
REMARK INTER + INTRA:          -5.027
REMARK INTER:                  -4.481
REMARK INTRA:                  -0.546
REMARK UNBOUND:                -0.632
REMARK SMILES O=C([O-])CCCCCCCCC(=O)[O-]
REMARK SMILES IDX 7 1 6 2 5 3 4 4 2 5 1 6 3 7 8 8 9 9 10 10 11 11 12 12 13 13
REMARK SMILES IDX 14 14
REMARK H PARENT
REMARK Flexibility Score: inf
ROOT
ATOM      1  C   UNL     1       7.468  -1.374  -2.739  1.00  0.00     0.000 C 
ENDROOT
BRANCH   1   2
ATOM      2  C   UNL     1       7.238   0.135  -2.560  1.00  0.00     0.000 C 
BRANCH   2   3
ATOM      3  C   UNL     1       8.462   0.856  -1.969  1.00  0.00     0.006 C 
BRANCH   3   4
ATOM      4  C   UNL     1       8.115   1.968  -0.966  1.00  0.00     0.053 C 
BRANCH   4   5
ATOM      5  C   UNL     1       8.618   1.659   0.410  1.00  0.00     0.041 C 
ATOM      6  O   UNL     1       9.264   0.600   0.627  1.00  0.00    -0.550 OA
ATOM      7  O   UNL     1       8.403   2.557   1.448  1.00  0.00    -0.550 OA
ENDBRANCH   4   5
ENDBRANCH   3   4
ENDBRANCH   2   3
ENDBRANCH   1   2
BRANCH   1   8
ATOM      8  C   UNL     1       8.442  -1.957  -1.701  1.00  0.00     0.000 C 
BRANCH   8   9
ATOM      9  C   UNL     1       8.445  -3.500  -1.658  1.00  0.00     0.000 C 
BRANCH   9  10
ATOM     10  C   UNL     1       9.048  -4.044  -0.351  1.00  0.00     0.006 C 
BRANCH  10  11
ATOM     11  C   UNL     1       8.996  -3.015   0.786  1.00  0.00     0.053 C 
BRANCH  11  12
ATOM     12  C   UNL     1       8.672  -3.655   2.101  1.00  0.00     0.041 C 
ATOM     13  O   UNL     1       7.776  -4.536   2.174  1.00  0.00    -0.550 OA
ATOM     14  O   UNL     1       9.385  -3.302   3.240  1.00  0.00    -0.550 OA
ENDBRANCH  11  12
ENDBRANCH  10  11
ENDBRANCH   9  10
ENDBRANCH   8   9
ENDBRANCH   1   8
TORSDOF 9
ENDMDL
MODEL 4
REMARK VINA RESULT:    -2.875      2.741      3.506
REMARK INTER + INTRA:          -5.020
REMARK INTER:                  -4.670
REMARK INTRA:                  -0.350
REMARK UNBOUND:                -0.632
REMARK SMILES O=C([O-])CCCCCCCCC(=O)[O-]
REMARK SMILES IDX 7 1 6 2 5 3 4 4 2 5 1 6 3 7 8 8 9 9 10 10 11 11 12 12 13 13
REMARK SMILES IDX 14 14
REMARK H PARENT
REMARK Flexibility Score: inf
ROOT
ATOM      1  C   UNL     1       7.886  -2.665  -2.679  1.00  0.00     0.000 C 
ENDROOT
BRANCH   1   2
ATOM      2  C   UNL     1       8.493  -3.835  -1.890  1.00  0.00     0.000 C 
BRANCH   2   3
ATOM      3  C   UNL     1       9.078  -3.399  -0.535  1.00  0.00     0.006 C 
BRANCH   3   4
ATOM      4  C   UNL     1       9.094  -4.506   0.530  1.00  0.00     0.053 C 
BRANCH   4   5
ATOM      5  C   UNL     1       8.466  -4.057   1.814  1.00  0.00     0.041 C 
ATOM      6  O   UNL     1       7.798  -4.866   2.511  1.00  0.00    -0.550 OA
ATOM      7  O   UNL     1       8.647  -2.754   2.259  1.00  0.00    -0.550 OA
ENDBRANCH   4   5
ENDBRANCH   3   4
ENDBRANCH   2   3
ENDBRANCH   1   2
BRANCH   1   8
ATOM      8  C   UNL     1       8.126  -1.303  -2.006  1.00  0.00     0.000 C 
BRANCH   8   9
ATOM      9  C   UNL     1       7.277  -0.161  -2.605  1.00  0.00     0.000 C 
BRANCH   9  10
ATOM     10  C   UNL     1       6.500  -0.609  -3.855  1.00  0.00     0.006 C 
BRANCH  10  11
ATOM     11  C   UNL     1       5.610   0.507  -4.417  1.00  0.00     0.053 C 
BRANCH  11  12
ATOM     12  C   UNL     1       4.557  -0.031  -5.337  1.00  0.00     0.041 C 
ATOM     13  O   UNL     1       4.841  -0.308  -6.532  1.00  0.00    -0.550 OA
ATOM     14  O   UNL     1       3.271  -0.260  -4.864  1.00  0.00    -0.550 OA
ENDBRANCH  11  12
ENDBRANCH  10  11
ENDBRANCH   9  10
ENDBRANCH   8   9
ENDBRANCH   1   8
TORSDOF 9
ENDMDL
MODEL 5
REMARK VINA RESULT:    -2.870      1.795      2.539
REMARK INTER + INTRA:          -5.012
REMARK INTER:                  -4.604
REMARK INTRA:                  -0.408
REMARK UNBOUND:                -0.632
REMARK SMILES O=C([O-])CCCCCCCCC(=O)[O-]
REMARK SMILES IDX 7 1 6 2 5 3 4 4 2 5 1 6 3 7 8 8 9 9 10 10 11 11 12 12 13 13
REMARK SMILES IDX 14 14
REMARK H PARENT
REMARK Flexibility Score: inf
ROOT
ATOM      1  C   UNL     1       7.604  -0.972  -2.469  1.00  0.00     0.000 C 
ENDROOT
BRANCH   1   2
ATOM      2  C   UNL     1       8.923  -1.631  -2.034  1.00  0.00     0.000 C 
BRANCH   2   3
ATOM      3  C   UNL     1       8.704  -2.918  -1.219  1.00  0.00     0.006 C 
BRANCH   3   4
ATOM      4  C   UNL     1       9.057  -2.788   0.271  1.00  0.00     0.053 C 
BRANCH   4   5
ATOM      5  C   UNL     1       8.776  -4.052   1.025  1.00  0.00     0.041 C 
ATOM      6  O   UNL     1       8.151  -4.013   2.118  1.00  0.00    -0.550 OA
ATOM      7  O   UNL     1       9.174  -5.276   0.504  1.00  0.00    -0.550 OA
ENDBRANCH   4   5
ENDBRANCH   3   4
ENDBRANCH   2   3
ENDBRANCH   1   2
BRANCH   1   8
ATOM      8  C   UNL     1       7.558   0.533  -2.156  1.00  0.00     0.000 C 
BRANCH   8   9
ATOM      9  C   UNL     1       8.386   0.931  -0.916  1.00  0.00     0.000 C 
BRANCH   9  10
ATOM     10  C   UNL     1       8.201   2.412  -0.542  1.00  0.00     0.006 C 
BRANCH  10  11
ATOM     11  C   UNL     1       8.207   2.634   0.975  1.00  0.00     0.053 C 
BRANCH  11  12
ATOM     12  C   UNL     1       7.173   3.634   1.395  1.00  0.00     0.041 C 
ATOM     13  O   UNL     1       7.017   3.911   2.613  1.00  0.00    -0.550 OA
ATOM     14  O   UNL     1       6.407   4.285   0.437  1.00  0.00    -0.550 OA
ENDBRANCH  11  12
ENDBRANCH  10  11
ENDBRANCH   9  10
ENDBRANCH   8   9
ENDBRANCH   1   8
TORSDOF 9
ENDMDL
MODEL 6
REMARK VINA RESULT:    -2.845      3.570      5.212
REMARK INTER + INTRA:          -4.975
REMARK INTER:                  -4.538
REMARK INTRA:                  -0.436
REMARK UNBOUND:                -0.632
REMARK SMILES O=C([O-])CCCCCCCCC(=O)[O-]
REMARK SMILES IDX 7 1 6 2 5 3 4 4 2 5 1 6 3 7 8 8 9 9 10 10 11 11 12 12 13 13
REMARK SMILES IDX 14 14
REMARK H PARENT
REMARK Flexibility Score: inf
ROOT
ATOM      1  C   UNL     1       7.989   0.548  -1.751  1.00  0.00     0.000 C 
ENDROOT
BRANCH   1   2
ATOM      2  C   UNL     1       8.421  -0.886  -1.408  1.00  0.00     0.000 C 
BRANCH   2   3
ATOM      3  C   UNL     1       7.824  -1.933  -2.365  1.00  0.00     0.006 C 
BRANCH   3   4
ATOM      4  C   UNL     1       6.980  -1.338  -3.503  1.00  0.00     0.053 C 
BRANCH   4   5
ATOM      5  C   UNL     1       6.433  -2.398  -4.408  1.00  0.00     0.041 C 
ATOM      6  O   UNL     1       5.663  -2.089  -5.355  1.00  0.00    -0.550 OA
ATOM      7  O   UNL     1       6.802  -3.725  -4.229  1.00  0.00    -0.550 OA
ENDBRANCH   4   5
ENDBRANCH   3   4
ENDBRANCH   2   3
ENDBRANCH   1   2
BRANCH   1   8
ATOM      8  C   UNL     1       8.385   1.566  -0.668  1.00  0.00     0.000 C 
BRANCH   8   9
ATOM      9  C   UNL     1       9.077   0.927   0.554  1.00  0.00     0.000 C 
BRANCH   9  10
ATOM     10  C   UNL     1       9.136   1.885   1.756  1.00  0.00     0.006 C 
BRANCH  10  11
ATOM     11  C   UNL     1       7.908   1.754   2.666  1.00  0.00     0.053 C 
BRANCH  11  12
ATOM     12  C   UNL     1       7.191   3.059   2.825  1.00  0.00     0.041 C 
ATOM     13  O   UNL     1       6.795   3.693   1.812  1.00  0.00    -0.550 OA
ATOM     14  O   UNL     1       6.928   3.558   4.095  1.00  0.00    -0.550 OA
ENDBRANCH  11  12
ENDBRANCH  10  11
ENDBRANCH   9  10
ENDBRANCH   8   9
ENDBRANCH   1   8
TORSDOF 9
ENDMDL
MODEL 7
REMARK VINA RESULT:    -2.827      3.000      6.200
REMARK INTER + INTRA:          -4.947
REMARK INTER:                  -4.656
REMARK INTRA:                  -0.291
REMARK UNBOUND:                -0.632
REMARK SMILES O=C([O-])CCCCCCCCC(=O)[O-]
REMARK SMILES IDX 7 1 6 2 5 3 4 4 2 5 1 6 3 7 8 8 9 9 10 10 11 11 12 12 13 13
REMARK SMILES IDX 14 14
REMARK H PARENT
REMARK Flexibility Score: inf
ROOT
ATOM      1  C   UNL     1       8.405  -0.010  -1.216  1.00  0.00     0.000 C 
ENDROOT
BRANCH   1   2
ATOM      2  C   UNL     1       9.138   1.198  -0.612  1.00  0.00     0.000 C 
BRANCH   2   3
ATOM      3  C   UNL     1       8.534   1.648   0.730  1.00  0.00     0.006 C 
BRANCH   3   4
ATOM      4  C   UNL     1       8.554   3.169   0.951  1.00  0.00     0.053 C 
BRANCH   4   5
ATOM      5  C   UNL     1       7.217   3.690   1.382  1.00  0.00     0.041 C 
ATOM      6  O   UNL     1       6.880   3.650   2.595  1.00  0.00    -0.550 OA
ATOM      7  O   UNL     1       6.356   4.253   0.448  1.00  0.00    -0.550 OA
ENDBRANCH   4   5
ENDBRANCH   3   4
ENDBRANCH   2   3
ENDBRANCH   1   2
BRANCH   1   8
ATOM      8  C   UNL     1       7.386   0.390  -2.297  1.00  0.00     0.000 C 
BRANCH   8   9
ATOM      9  C   UNL     1       6.941  -0.788  -3.191  1.00  0.00     0.000 C 
BRANCH   9  10
ATOM     10  C   UNL     1       7.581  -2.119  -2.759  1.00  0.00     0.006 C 
BRANCH  10  11
ATOM     11  C   UNL     1       7.386  -3.224  -3.805  1.00  0.00     0.053 C 
BRANCH  11  12
ATOM     12  C   UNL     1       7.461  -4.589  -3.192  1.00  0.00     0.041 C 
ATOM     13  O   UNL     1       6.672  -5.496  -3.566  1.00  0.00    -0.550 OA
ATOM     14  O   UNL     1       8.427  -4.869  -2.233  1.00  0.00    -0.550 OA
ENDBRANCH  11  12
ENDBRANCH  10  11
ENDBRANCH   9  10
ENDBRANCH   8   9
ENDBRANCH   1   8
TORSDOF 9
ENDMDL
MODEL 8
REMARK VINA RESULT:    -2.801      0.834      5.962
REMARK INTER + INTRA:          -4.907
REMARK INTER:                  -4.430
REMARK INTRA:                  -0.477
REMARK UNBOUND:                -0.632
REMARK SMILES O=C([O-])CCCCCCCCC(=O)[O-]
REMARK SMILES IDX 7 1 6 2 5 3 4 4 2 5 1 6 3 7 8 8 9 9 10 10 11 11 12 12 13 13
REMARK SMILES IDX 14 14
REMARK H PARENT
REMARK Flexibility Score: inf
ROOT
ATOM      1  C   UNL     1       7.490  -2.116  -2.817  1.00  0.00     0.000 C 
ENDROOT
BRANCH   1   2
ATOM      2  C   UNL     1       7.160  -0.618  -2.911  1.00  0.00     0.000 C 
BRANCH   2   3
ATOM      3  C   UNL     1       7.892   0.220  -1.848  1.00  0.00     0.006 C 
BRANCH   3   4
ATOM      4  C   UNL     1       7.594   1.726  -1.917  1.00  0.00     0.053 C 
BRANCH   4   5
ATOM      5  C   UNL     1       8.244   2.478  -0.796  1.00  0.00     0.041 C 
ATOM      6  O   UNL     1       8.638   3.661  -0.971  1.00  0.00    -0.550 OA
ATOM      7  O   UNL     1       8.382   1.884   0.452  1.00  0.00    -0.550 OA
ENDBRANCH   4   5
ENDBRANCH   3   4
ENDBRANCH   2   3
ENDBRANCH   1   2
BRANCH   1   8
ATOM      8  C   UNL     1       8.839  -2.388  -2.130  1.00  0.00     0.000 C 
BRANCH   8   9
ATOM      9  C   UNL     1       8.743  -3.388  -0.958  1.00  0.00     0.000 C 
BRANCH   9  10
ATOM     10  C   UNL     1       9.578  -2.944   0.255  1.00  0.00     0.006 C 
BRANCH  10  11
ATOM     11  C   UNL     1       8.720  -2.748   1.511  1.00  0.00     0.053 C 
BRANCH  11  12
ATOM     12  C   UNL     1       8.721  -3.967   2.381  1.00  0.00     0.041 C 
ATOM     13  O   UNL     1       7.783  -4.803   2.303  1.00  0.00    -0.550 OA
ATOM     14  O   UNL     1       9.778  -4.198   3.254  1.00  0.00    -0.550 OA
ENDBRANCH  11  12
ENDBRANCH  10  11
ENDBRANCH   9  10
ENDBRANCH   8   9
ENDBRANCH   1   8
TORSDOF 9
ENDMDL
MODEL 9
REMARK VINA RESULT:    -2.722      3.670      5.779
REMARK INTER + INTRA:          -4.786
REMARK INTER:                  -4.391
REMARK INTRA:                  -0.395
REMARK UNBOUND:                -0.632
REMARK SMILES O=C([O-])CCCCCCCCC(=O)[O-]
REMARK SMILES IDX 7 1 6 2 5 3 4 4 2 5 1 6 3 7 8 8 9 9 10 10 11 11 12 12 13 13
REMARK SMILES IDX 14 14
REMARK H PARENT
REMARK Flexibility Score: inf
ROOT
ATOM      1  C   UNL     1       7.525   1.315  -2.218  1.00  0.00     0.000 C 
ENDROOT
BRANCH   1   2
ATOM      2  C   UNL     1       8.374   1.255  -0.938  1.00  0.00     0.000 C 
BRANCH   2   3
ATOM      3  C   UNL     1       8.118   2.448   0.001  1.00  0.00     0.006 C 
BRANCH   3   4
ATOM      4  C   UNL     1       8.421   2.161   1.480  1.00  0.00     0.053 C 
BRANCH   4   5
ATOM      5  C   UNL     1       7.460   2.859   2.393  1.00  0.00     0.041 C 
ATOM      6  O   UNL     1       6.870   3.905   2.015  1.00  0.00    -0.550 OA
ATOM      7  O   UNL     1       7.189   2.333   3.651  1.00  0.00    -0.550 OA
ENDBRANCH   4   5
ENDBRANCH   3   4
ENDBRANCH   2   3
ENDBRANCH   1   2
BRANCH   1   8
ATOM      8  C   UNL     1       7.216  -0.077  -2.795  1.00  0.00     0.000 C 
BRANCH   8   9
ATOM      9  C   UNL     1       7.958  -1.222  -2.073  1.00  0.00     0.000 C 
BRANCH   9  10
ATOM     10  C   UNL     1       7.713  -2.586  -2.740  1.00  0.00     0.006 C 
BRANCH  10  11
ATOM     11  C   UNL     1       6.913  -2.461  -4.043  1.00  0.00     0.053 C 
BRANCH  11  12
ATOM     12  C   UNL     1       7.736  -2.827  -5.239  1.00  0.00     0.041 C 
ATOM     13  O   UNL     1       7.205  -3.408  -6.221  1.00  0.00    -0.550 OA
ATOM     14  O   UNL     1       9.084  -2.492  -5.284  1.00  0.00    -0.550 OA
ENDBRANCH  11  12
ENDBRANCH  10  11
ENDBRANCH   9  10
ENDBRANCH   8   9
ENDBRANCH   1   8
TORSDOF 9
ENDMDL
