MODEL 1
REMARK VINA RESULT:    -3.402      0.000      0.000
REMARK INTER + INTRA:          -4.477
REMARK INTER:                  -4.794
REMARK INTRA:                   0.317
REMARK UNBOUND:                 0.317
REMARK SMILES CC1=CCC(=C(C)C)C(=O)CC(C)=CCC1
REMARK SMILES IDX 12 1 14 2 13 3 15 4 16 5 2 6 1 7 3 8 11 10 9 11 10 12 5 13
REMARK SMILES IDX 6 14 7 15 8 16 4 17
REMARK H PARENT
REMARK Flexibility Score: 60.00
ROOT
ATOM      1  C   UNL     1      -4.419  68.613  27.739  1.00  0.00    -0.070 C 
ATOM      2  C   UNL     1      -4.514  69.964  27.758  1.00  0.00    -0.027 C 
ATOM      3  C   UNL     1      -4.397  67.886  29.060  1.00  0.00     0.039 C 
ENDROOT
BRANCH   2   4
ATOM      4  C   UNL     1      -4.488  70.855  26.537  1.00  0.00     0.032 C 
BRANCH   4   5
ATOM      5  C   UNL     1      -5.902  71.113  25.995  1.00  0.00     0.034 C 
BRANCH   5   6
ATOM      6  C   UNL     1      -6.047  70.819  24.509  1.00  0.00    -0.077 C 
ATOM      7  C   UNL     1      -5.456  71.788  23.515  1.00  0.00     0.039 C 
ATOM      8  C   UNL     1      -6.698  69.737  24.024  1.00  0.00    -0.023 CG0
ATOM      9  G   UNL     1      -7.291  68.625  24.858  1.00  0.00     0.000 G0
ENDBRANCH   5   6
ENDBRANCH   4   5
ENDBRANCH   2   4
BRANCH   1  10
ATOM     10  C   UNL     1      -4.335  67.809  26.457  1.00  0.00     0.111 C 
BRANCH  10  11
ATOM     11  C   UNL     1      -5.631  67.104  26.173  1.00  0.00     0.163 C 
ATOM     12  O   UNL     1      -6.069  66.259  26.998  1.00  0.00    -0.294 OA
BRANCH  11  13
ATOM     13  C   UNL     1      -6.394  67.366  24.926  1.00  0.00    -0.002 C 
ATOM     14  C   UNL     1      -6.288  66.519  23.866  1.00  0.00    -0.069 C 
ATOM     15  C   UNL     1      -7.095  66.740  22.607  1.00  0.00     0.039 C 
ATOM     16  C   UNL     1      -5.329  65.349  23.892  1.00  0.00     0.039 C 
BRANCH  13  17
ATOM     17  C   UNL     1      -7.294  68.595  24.849  1.00  0.00     0.066 CG0
ATOM     18  G   UNL     1      -6.703  69.731  24.045  1.00  0.00     0.000 G0
ENDBRANCH  13  17
ENDBRANCH  11  13
ENDBRANCH  10  11
ENDBRANCH   1  10
TORSDOF 0
ENDMDL
MODEL 2
REMARK VINA RESULT:    -3.365      1.492      3.806
REMARK INTER + INTRA:          -4.425
REMARK INTER:                  -4.792
REMARK INTRA:                   0.367
REMARK UNBOUND:                 0.317
REMARK SMILES CC1=CCC(=C(C)C)C(=O)CC(C)=CCC1
REMARK SMILES IDX 12 1 14 2 13 3 15 4 16 5 2 6 1 7 3 8 11 10 9 11 10 12 5 13
REMARK SMILES IDX 6 14 7 15 8 16 4 17
REMARK H PARENT
REMARK Flexibility Score: 60.00
ROOT
ATOM      1  C   UNL     1      -4.652  67.492  27.424  1.00  0.00    -0.070 C 
ATOM      2  C   UNL     1      -5.524  66.578  26.936  1.00  0.00    -0.027 C 
ATOM      3  C   UNL     1      -4.352  67.467  28.901  1.00  0.00     0.039 C 
ENDROOT
BRANCH   2   4
ATOM      4  C   UNL     1      -5.985  66.496  25.498  1.00  0.00     0.032 C 
BRANCH   4   5
ATOM      5  C   UNL     1      -7.099  67.511  25.202  1.00  0.00     0.034 C 
BRANCH   5   6
ATOM      6  C   UNL     1      -6.855  68.332  23.944  1.00  0.00    -0.077 C 
ATOM      7  C   UNL     1      -6.957  67.653  22.602  1.00  0.00     0.039 C 
ATOM      8  C   UNL     1      -6.533  69.646  23.963  1.00  0.00    -0.023 CG0
ATOM      9  G   UNL     1      -6.454  70.511  25.200  1.00  0.00     0.000 G0
ENDBRANCH   5   6
ENDBRANCH   4   5
ENDBRANCH   2   4
BRANCH   1  10
ATOM     10  C   UNL     1      -3.969  68.529  26.554  1.00  0.00     0.111 C 
BRANCH  10  11
ATOM     11  C   UNL     1      -4.520  69.903  26.813  1.00  0.00     0.163 C 
ATOM     12  O   UNL     1      -4.573  70.334  27.996  1.00  0.00    -0.294 OA
BRANCH  11  13
ATOM     13  C   UNL     1      -5.026  70.753  25.705  1.00  0.00    -0.002 C 
ATOM     14  C   UNL     1      -4.233  71.718  25.164  1.00  0.00    -0.069 C 
ATOM     15  C   UNL     1      -4.711  72.558  24.002  1.00  0.00     0.039 C 
ATOM     16  C   UNL     1      -2.862  72.013  25.730  1.00  0.00     0.039 C 
BRANCH  13  17
ATOM     17  C   UNL     1      -6.442  70.531  25.186  1.00  0.00     0.066 CG0
ATOM     18  G   UNL     1      -6.510  69.643  23.966  1.00  0.00     0.000 G0
ENDBRANCH  13  17
ENDBRANCH  11  13
ENDBRANCH  10  11
ENDBRANCH   1  10
TORSDOF 0
ENDMDL
MODEL 3
REMARK VINA RESULT:    -3.254      2.680      4.905
REMARK INTER + INTRA:          -4.268
REMARK INTER:                  -4.705
REMARK INTRA:                   0.437
REMARK UNBOUND:                 0.317
REMARK SMILES CC1=CCC(=C(C)C)C(=O)CC(C)=CCC1
REMARK SMILES IDX 12 1 14 2 13 3 15 4 16 5 2 6 1 7 3 8 11 10 9 11 10 12 5 13
REMARK SMILES IDX 6 14 7 15 8 16 4 17
REMARK H PARENT
REMARK Flexibility Score: 60.00
ROOT
ATOM      1  C   UNL     1      -3.681  71.749  24.836  1.00  0.00    -0.070 C 
ATOM      2  C   UNL     1      -3.751  70.703  25.694  1.00  0.00    -0.027 C 
ATOM      3  C   UNL     1      -2.477  71.847  23.934  1.00  0.00     0.039 C 
ENDROOT
BRANCH   2   4
ATOM      4  C   UNL     1      -4.851  70.481  26.707  1.00  0.00     0.032 C 
BRANCH   4   5
ATOM      5  C   UNL     1      -5.519  69.110  26.525  1.00  0.00     0.034 C 
BRANCH   5   6
ATOM      6  C   UNL     1      -5.973  68.839  25.098  1.00  0.00    -0.077 C 
ATOM      7  C   UNL     1      -5.424  67.633  24.377  1.00  0.00     0.039 C 
ATOM      8  C   UNL     1      -6.835  69.636  24.427  1.00  0.00    -0.023 CG0
ATOM      9  G   UNL     1      -7.540  70.843  25.002  1.00  0.00     0.000 G0
ENDBRANCH   5   6
ENDBRANCH   4   5
ENDBRANCH   2   4
BRANCH   1  10
ATOM     10  C   UNL     1      -4.756  72.814  24.744  1.00  0.00     0.111 C 
BRANCH  10  11
ATOM     11  C   UNL     1      -5.847  72.404  23.795  1.00  0.00     0.163 C 
ATOM     12  O   UNL     1      -5.587  72.286  22.568  1.00  0.00    -0.294 OA
BRANCH  11  13
ATOM     13  C   UNL     1      -7.232  72.159  24.272  1.00  0.00    -0.002 C 
ATOM     14  C   UNL     1      -8.200  73.095  24.077  1.00  0.00    -0.069 C 
ATOM     15  C   UNL     1      -9.626  72.843  24.509  1.00  0.00     0.039 C 
ATOM     16  C   UNL     1      -7.878  74.437  23.458  1.00  0.00     0.039 C 
BRANCH  13  17
ATOM     17  C   UNL     1      -7.552  70.849  24.985  1.00  0.00     0.066 CG0
ATOM     18  G   UNL     1      -6.824  69.654  24.416  1.00  0.00     0.000 G0
ENDBRANCH  13  17
ENDBRANCH  11  13
ENDBRANCH  10  11
ENDBRANCH   1  10
TORSDOF 0
ENDMDL
MODEL 4
REMARK VINA RESULT:    -3.013      9.194     12.309
REMARK INTER + INTRA:          -3.928
REMARK INTER:                  -4.217
REMARK INTRA:                   0.289
REMARK UNBOUND:                 0.317
REMARK SMILES CC1=CCC(=C(C)C)C(=O)CC(C)=CCC1
REMARK SMILES IDX 12 1 14 2 13 3 15 4 16 5 2 6 1 7 3 8 11 10 9 11 10 12 5 13
REMARK SMILES IDX 6 14 7 15 8 16 4 17
REMARK H PARENT
REMARK Flexibility Score: 60.00
ROOT
ATOM      1  C   UNL     1      -5.657  68.206  34.270  1.00  0.00    -0.070 C 
ATOM      2  C   UNL     1      -4.329  68.467  34.337  1.00  0.00    -0.027 C 
ATOM      3  C   UNL     1      -6.165  67.419  33.089  1.00  0.00     0.039 C 
ENDROOT
BRANCH   2   4
ATOM      4  C   UNL     1      -3.658  69.291  35.413  1.00  0.00     0.032 C 
BRANCH   4   5
ATOM      5  C   UNL     1      -3.333  68.445  36.653  1.00  0.00     0.034 C 
BRANCH   5   6
ATOM      6  C   UNL     1      -3.786  69.082  37.959  1.00  0.00    -0.077 C 
ATOM      7  C   UNL     1      -3.114  70.350  38.421  1.00  0.00     0.039 C 
ATOM      8  C   UNL     1      -4.755  68.559  38.746  1.00  0.00    -0.023 CG0
ATOM      9  G   UNL     1      -5.587  67.340  38.418  1.00  0.00     0.000 G0
ENDBRANCH   5   6
ENDBRANCH   4   5
ENDBRANCH   2   4
BRANCH   1  10
ATOM     10  C   UNL     1      -6.643  68.667  35.325  1.00  0.00     0.111 C 
BRANCH  10  11
ATOM     11  C   UNL     1      -7.027  67.539  36.239  1.00  0.00     0.163 C 
ATOM     12  O   UNL     1      -7.465  66.465  35.746  1.00  0.00    -0.294 OA
BRANCH  11  13
ATOM     13  C   UNL     1      -6.923  67.673  37.715  1.00  0.00    -0.002 C 
ATOM     14  C   UNL     1      -7.993  68.097  38.442  1.00  0.00    -0.069 C 
ATOM     15  C   UNL     1      -7.924  68.191  39.949  1.00  0.00     0.039 C 
ATOM     16  C   UNL     1      -9.276  68.529  37.767  1.00  0.00     0.039 C 
BRANCH  13  17
ATOM     17  C   UNL     1      -5.605  67.333  38.402  1.00  0.00     0.066 CG0
ATOM     18  G   UNL     1      -4.768  68.543  38.743  1.00  0.00     0.000 G0
ENDBRANCH  13  17
ENDBRANCH  11  13
ENDBRANCH  10  11
ENDBRANCH   1  10
TORSDOF 0
ENDMDL
MODEL 5
REMARK VINA RESULT:    -2.963      1.966      4.049
REMARK INTER + INTRA:          -3.859
REMARK INTER:                  -4.357
REMARK INTRA:                   0.498
REMARK UNBOUND:                 0.317
REMARK SMILES CC1=CCC(=C(C)C)C(=O)CC(C)=CCC1
REMARK SMILES IDX 12 1 14 2 13 3 15 4 16 5 2 6 1 7 3 8 11 10 9 11 10 12 5 13
REMARK SMILES IDX 6 14 7 15 8 16 4 17
REMARK H PARENT
REMARK Flexibility Score: 60.00
ROOT
ATOM      1  C   UNL     1      -6.819  68.940  24.230  1.00  0.00    -0.070 C 
ATOM      2  C   UNL     1      -7.094  70.264  24.156  1.00  0.00    -0.027 C 
ATOM      3  C   UNL     1      -6.904  68.127  22.963  1.00  0.00     0.039 C 
ENDROOT
BRANCH   2   4
ATOM      4  C   UNL     1      -7.118  71.215  25.331  1.00  0.00     0.032 C 
BRANCH   4   5
ATOM      5  C   UNL     1      -6.108  72.359  25.153  1.00  0.00     0.034 C 
BRANCH   5   6
ATOM      6  C   UNL     1      -4.739  71.893  24.676  1.00  0.00    -0.077 C 
ATOM      7  C   UNL     1      -4.256  72.330  23.317  1.00  0.00     0.039 C 
ATOM      8  C   UNL     1      -3.932  71.087  25.404  1.00  0.00    -0.023 CG0
ATOM      9  G   UNL     1      -4.211  70.606  26.809  1.00  0.00     0.000 G0
ENDBRANCH   5   6
ENDBRANCH   4   5
ENDBRANCH   2   4
BRANCH   1  10
ATOM     10  C   UNL     1      -6.431  68.249  25.522  1.00  0.00     0.111 C 
BRANCH  10  11
ATOM     11  C   UNL     1      -4.953  68.360  25.773  1.00  0.00     0.163 C 
ATOM     12  O   UNL     1      -4.148  67.790  24.990  1.00  0.00    -0.294 OA
BRANCH  11  13
ATOM     13  C   UNL     1      -4.424  69.108  26.943  1.00  0.00    -0.002 C 
ATOM     14  C   UNL     1      -4.142  68.455  28.104  1.00  0.00    -0.069 C 
ATOM     15  C   UNL     1      -3.555  69.189  29.287  1.00  0.00     0.039 C 
ATOM     16  C   UNL     1      -4.442  66.982  28.266  1.00  0.00     0.039 C 
BRANCH  13  17
ATOM     17  C   UNL     1      -4.206  70.612  26.826  1.00  0.00     0.066 CG0
ATOM     18  G   UNL     1      -3.946  71.081  25.414  1.00  0.00     0.000 G0
ENDBRANCH  13  17
ENDBRANCH  11  13
ENDBRANCH  10  11
ENDBRANCH   1  10
TORSDOF 0
ENDMDL
MODEL 6
REMARK VINA RESULT:    -2.932      1.710      3.992
REMARK INTER + INTRA:          -3.815
REMARK INTER:                  -4.328
REMARK INTRA:                   0.514
REMARK UNBOUND:                 0.317
REMARK SMILES CC1=CCC(=C(C)C)C(=O)CC(C)=CCC1
REMARK SMILES IDX 12 1 14 2 13 3 15 4 16 5 2 6 1 7 3 8 11 10 9 11 10 12 5 13
REMARK SMILES IDX 6 14 7 15 8 16 4 17
REMARK H PARENT
REMARK Flexibility Score: 60.00
ROOT
ATOM      1  C   UNL     1      -6.972  66.862  24.409  1.00  0.00    -0.070 C 
ATOM      2  C   UNL     1      -7.137  68.096  23.876  1.00  0.00    -0.027 C 
ATOM      3  C   UNL     1      -7.086  65.672  23.490  1.00  0.00     0.039 C 
ENDROOT
BRANCH   2   4
ATOM      4  C   UNL     1      -7.117  69.391  24.657  1.00  0.00     0.032 C 
BRANCH   4   5
ATOM      5  C   UNL     1      -6.042  70.353  24.129  1.00  0.00     0.034 C 
BRANCH   5   6
ATOM      6  C   UNL     1      -4.679  69.700  23.947  1.00  0.00    -0.077 C 
ATOM      7  C   UNL     1      -4.085  69.630  22.563  1.00  0.00     0.039 C 
ATOM      8  C   UNL     1      -3.971  69.160  24.965  1.00  0.00    -0.023 CG0
ATOM      9  G   UNL     1      -4.366  69.195  26.423  1.00  0.00     0.000 G0
ENDBRANCH   5   6
ENDBRANCH   4   5
ENDBRANCH   2   4
BRANCH   1  10
ATOM     10  C   UNL     1      -6.677  66.630  25.877  1.00  0.00     0.111 C 
BRANCH  10  11
ATOM     11  C   UNL     1      -5.209  66.778  26.166  1.00  0.00     0.163 C 
ATOM     12  O   UNL     1      -4.395  65.955  25.668  1.00  0.00    -0.294 OA
BRANCH  11  13
ATOM     13  C   UNL     1      -4.702  67.861  27.047  1.00  0.00    -0.002 C 
ATOM     14  C   UNL     1      -4.551  67.645  28.382  1.00  0.00    -0.069 C 
ATOM     15  C   UNL     1      -3.988  68.717  29.287  1.00  0.00     0.039 C 
ATOM     16  C   UNL     1      -4.977  66.339  29.017  1.00  0.00     0.039 C 
BRANCH  13  17
ATOM     17  C   UNL     1      -4.358  69.215  26.437  1.00  0.00     0.066 CG0
ATOM     18  G   UNL     1      -3.985  69.146  24.974  1.00  0.00     0.000 G0
ENDBRANCH  13  17
ENDBRANCH  11  13
ENDBRANCH  10  11
ENDBRANCH   1  10
TORSDOF 0
ENDMDL
MODEL 7
REMARK VINA RESULT:    -2.897      2.148      4.375
REMARK INTER + INTRA:          -3.766
REMARK INTER:                  -4.270
REMARK INTRA:                   0.505
REMARK UNBOUND:                 0.317
REMARK SMILES CC1=CCC(=C(C)C)C(=O)CC(C)=CCC1
REMARK SMILES IDX 12 1 14 2 13 3 15 4 16 5 2 6 1 7 3 8 11 10 9 11 10 12 5 13
REMARK SMILES IDX 6 14 7 15 8 16 4 17
REMARK H PARENT
REMARK Flexibility Score: 60.00
ROOT
ATOM      1  C   UNL     1      -3.351  67.945  24.570  1.00  0.00    -0.070 C 
ATOM      2  C   UNL     1      -4.089  66.927  25.074  1.00  0.00    -0.027 C 
ATOM      3  C   UNL     1      -2.198  67.601  23.661  1.00  0.00     0.039 C 
ENDROOT
BRANCH   2   4
ATOM      4  C   UNL     1      -5.238  67.083  26.046  1.00  0.00     0.032 C 
BRANCH   4   5
ATOM      5  C   UNL     1      -6.522  66.429  25.513  1.00  0.00     0.034 C 
BRANCH   5   6
ATOM      6  C   UNL     1      -6.917  66.910  24.124  1.00  0.00    -0.077 C 
ATOM      7  C   UNL     1      -7.092  65.892  23.025  1.00  0.00     0.039 C 
ATOM      8  C   UNL     1      -7.105  68.213  23.812  1.00  0.00    -0.023 CG0
ATOM      9  G   UNL     1      -7.044  69.364  24.788  1.00  0.00     0.000 G0
ENDBRANCH   5   6
ENDBRANCH   4   5
ENDBRANCH   2   4
BRANCH   1  10
ATOM     10  C   UNL     1      -3.634  69.401  24.879  1.00  0.00     0.111 C 
BRANCH  10  11
ATOM     11  C   UNL     1      -4.654  69.968  23.931  1.00  0.00     0.163 C 
ATOM     12  O   UNL     1      -4.364  70.087  22.711  1.00  0.00    -0.294 OA
BRANCH  11  13
ATOM     13  C   UNL     1      -5.987  70.414  24.410  1.00  0.00    -0.002 C 
ATOM     14  C   UNL     1      -6.264  71.742  24.529  1.00  0.00    -0.069 C 
ATOM     15  C   UNL     1      -7.631  72.217  24.964  1.00  0.00     0.039 C 
ATOM     16  C   UNL     1      -5.204  72.789  24.269  1.00  0.00     0.039 C 
BRANCH  13  17
ATOM     17  C   UNL     1      -7.037  69.368  24.768  1.00  0.00     0.066 CG0
ATOM     18  G   UNL     1      -7.097  68.211  23.799  1.00  0.00     0.000 G0
ENDBRANCH  13  17
ENDBRANCH  11  13
ENDBRANCH  10  11
ENDBRANCH   1  10
TORSDOF 0
ENDMDL
MODEL 8
REMARK VINA RESULT:    -2.876      2.098      3.900
REMARK INTER + INTRA:          -3.737
REMARK INTER:                  -3.993
REMARK INTRA:                   0.256
REMARK UNBOUND:                 0.317
REMARK SMILES CC1=CCC(=C(C)C)C(=O)CC(C)=CCC1
REMARK SMILES IDX 12 1 14 2 13 3 15 4 16 5 2 6 1 7 3 8 11 10 9 11 10 12 5 13
REMARK SMILES IDX 6 14 7 15 8 16 4 17
REMARK H PARENT
REMARK Flexibility Score: 60.00
ROOT
ATOM      1  C   UNL     1      -4.628  71.014  25.623  1.00  0.00    -0.070 C 
ATOM      2  C   UNL     1      -4.087  70.848  26.854  1.00  0.00    -0.027 C 
ATOM      3  C   UNL     1      -4.133  72.162  24.780  1.00  0.00     0.039 C 
ENDROOT
BRANCH   2   4
ATOM      4  C   UNL     1      -4.505  69.793  27.853  1.00  0.00     0.032 C 
BRANCH   4   5
ATOM      5  C   UNL     1      -3.674  68.511  27.702  1.00  0.00     0.034 C 
BRANCH   5   6
ATOM      6  C   UNL     1      -4.515  67.244  27.640  1.00  0.00    -0.077 C 
ATOM      7  C   UNL     1      -5.142  66.724  28.909  1.00  0.00     0.039 C 
ATOM      8  C   UNL     1      -4.720  66.542  26.501  1.00  0.00    -0.023 CG0
ATOM      9  G   UNL     1      -4.235  66.941  25.127  1.00  0.00     0.000 G0
ENDBRANCH   5   6
ENDBRANCH   4   5
ENDBRANCH   2   4
BRANCH   1  10
ATOM     10  C   UNL     1      -5.700  70.100  25.063  1.00  0.00     0.111 C 
BRANCH  10  11
ATOM     11  C   UNL     1      -5.122  69.131  24.071  1.00  0.00     0.163 C 
ATOM     12  O   UNL     1      -4.527  69.570  23.051  1.00  0.00    -0.294 OA
BRANCH  11  13
ATOM     13  C   UNL     1      -5.260  67.663  24.257  1.00  0.00    -0.002 C 
ATOM     14  C   UNL     1      -6.294  66.993  23.680  1.00  0.00    -0.069 C 
ATOM     15  C   UNL     1      -6.423  65.493  23.814  1.00  0.00     0.039 C 
ATOM     16  C   UNL     1      -7.373  67.728  22.916  1.00  0.00     0.039 C 
BRANCH  13  17
ATOM     17  C   UNL     1      -4.232  66.922  25.105  1.00  0.00     0.066 CG0
ATOM     18  G   UNL     1      -4.731  66.557  26.484  1.00  0.00     0.000 G0
ENDBRANCH  13  17
ENDBRANCH  11  13
ENDBRANCH  10  11
ENDBRANCH   1  10
TORSDOF 0
ENDMDL
MODEL 9
REMARK VINA RESULT:    -2.828     10.177     12.390
REMARK INTER + INTRA:          -3.668
REMARK INTER:                  -4.185
REMARK INTRA:                   0.517
REMARK UNBOUND:                 0.317
REMARK SMILES CC1=CCC(=C(C)C)C(=O)CC(C)=CCC1
REMARK SMILES IDX 12 1 14 2 13 3 15 4 16 5 2 6 1 7 3 8 11 10 9 11 10 12 5 13
REMARK SMILES IDX 6 14 7 15 8 16 4 17
REMARK H PARENT
REMARK Flexibility Score: 60.00
ROOT
ATOM      1  C   UNL     1      -7.585  69.706  36.392  1.00  0.00    -0.070 C 
ATOM      2  C   UNL     1      -7.711  68.792  35.400  1.00  0.00    -0.027 C 
ATOM      3  C   UNL     1      -8.842  70.234  37.034  1.00  0.00     0.039 C 
ENDROOT
BRANCH   2   4
ATOM      4  C   UNL     1      -6.566  68.204  34.608  1.00  0.00     0.032 C 
BRANCH   4   5
ATOM      5  C   UNL     1      -6.534  66.672  34.712  1.00  0.00     0.034 C 
BRANCH   5   6
ATOM      6  C   UNL     1      -6.628  66.157  36.141  1.00  0.00    -0.077 C 
ATOM      7  C   UNL     1      -7.809  65.304  36.531  1.00  0.00     0.039 C 
ATOM      8  C   UNL     1      -5.711  66.439  37.096  1.00  0.00    -0.023 CG0
ATOM      9  G   UNL     1      -4.432  67.214  36.880  1.00  0.00     0.000 G0
ENDBRANCH   5   6
ENDBRANCH   4   5
ENDBRANCH   2   4
BRANCH   1  10
ATOM     10  C   UNL     1      -6.242  70.213  36.881  1.00  0.00     0.111 C 
BRANCH  10  11
ATOM     11  C   UNL     1      -5.636  69.268  37.880  1.00  0.00     0.163 C 
ATOM     12  O   UNL     1      -6.203  69.096  38.991  1.00  0.00    -0.294 OA
BRANCH  11  13
ATOM     13  C   UNL     1      -4.367  68.552  37.591  1.00  0.00    -0.002 C 
ATOM     14  C   UNL     1      -3.173  69.099  37.948  1.00  0.00    -0.069 C 
ATOM     15  C   UNL     1      -1.875  68.363  37.711  1.00  0.00     0.039 C 
ATOM     16  C   UNL     1      -3.098  70.481  38.559  1.00  0.00     0.039 C 
BRANCH  13  17
ATOM     17  C   UNL     1      -4.420  67.199  36.889  1.00  0.00     0.066 CG0
ATOM     18  G   UNL     1      -5.717  66.454  37.102  1.00  0.00     0.000 G0
ENDBRANCH  13  17
ENDBRANCH  11  13
ENDBRANCH  10  11
ENDBRANCH   1  10
TORSDOF 0
ENDMDL
