MODEL 1
REMARK VINA RESULT:    -8.211      0.000      0.000
REMARK INTER + INTRA:          -9.963
REMARK INTER:                  -9.891
REMARK INTRA:                  -0.072
REMARK UNBOUND:                -0.072
REMARK SMILES O=c1c(O)c(-c2ccc(O)c(O)c2)oc2cc(O)cc(O)c12
REMARK SMILES IDX 5 1 3 2 2 3 1 4 22 5 20 6 19 7 17 8 16 9 15 10 14 11 6 12
REMARK SMILES IDX 7 13 8 14 9 15 13 16 11 17 10 18 12 20 4 22 21 24 18 26
REMARK H PARENT 10 19 12 21 4 23 21 25 18 27
REMARK Flexibility Score: inf
ROOT
ATOM      1  C   UNL     1      19.101  -2.447  11.960  1.00  0.00     0.180 A 
ATOM      2  C   UNL     1      17.740  -2.795  12.004  1.00  0.00     0.208 A 
ATOM      3  C   UNL     1      17.031  -2.931  10.800  1.00  0.00     0.238 A 
ATOM      4  O   UNL     1      15.801  -3.189  10.848  1.00  0.00    -0.285 OA
ATOM      5  C   UNL     1      17.697  -2.734   9.566  1.00  0.00     0.111 A 
ATOM      6  C   UNL     1      17.088  -2.886   8.283  1.00  0.00     0.134 A 
ATOM      7  C   UNL     1      17.807  -2.539   7.133  1.00  0.00     0.093 A 
ATOM      8  C   UNL     1      19.133  -2.108   7.214  1.00  0.00     0.123 A 
ATOM      9  C   UNL     1      19.754  -2.014   8.457  1.00  0.00     0.094 A 
ATOM     10  C   UNL     1      19.052  -2.318   9.625  1.00  0.00     0.146 A 
ATOM     11  O   UNL     1      19.680  -2.204  10.790  1.00  0.00    -0.452 OA
ENDROOT
BRANCH   1  12
ATOM     12  C   UNL     1      19.919  -2.309  13.187  1.00  0.00     0.025 A 
ATOM     13  C   UNL     1      20.678  -1.145  13.384  1.00  0.00     0.016 A 
ATOM     14  C   UNL     1      21.474  -1.003  14.523  1.00  0.00     0.051 A 
ATOM     15  C   UNL     1      21.534  -2.029  15.474  1.00  0.00     0.157 A 
ATOM     16  C   UNL     1      19.999  -3.346  14.134  1.00  0.00     0.062 A 
ATOM     17  C   UNL     1      20.798  -3.204  15.277  1.00  0.00     0.158 A 
BRANCH  15  18
ATOM     18  O   UNL     1      22.325  -1.891  16.614  1.00  0.00    -0.504 OA
ATOM     19  H   UNL     1      23.321  -2.077  16.593  1.00  0.00     0.293 HD
ENDBRANCH  15  18
BRANCH  17  20
ATOM     20  O   UNL     1      20.872  -4.230  16.219  1.00  0.00    -0.504 OA
ATOM     21  H   UNL     1      21.513  -5.006  16.108  1.00  0.00     0.293 HD
ENDBRANCH  17  20
ENDBRANCH   1  12
BRANCH   2  22
ATOM     22  O   UNL     1      17.097  -2.963  13.234  1.00  0.00    -0.502 OA
ATOM     23  H   UNL     1      17.293  -2.373  14.035  1.00  0.00     0.293 HD
ENDBRANCH   2  22
BRANCH   6  24
ATOM     24  O   UNL     1      15.801  -3.395   8.086  1.00  0.00    -0.507 OA
ATOM     25  H   UNL     1      15.012  -3.211   8.687  1.00  0.00     0.293 HD
ENDBRANCH   6  24
BRANCH   8  26
ATOM     26  O   UNL     1      19.845  -1.779   6.062  1.00  0.00    -0.508 OA
ATOM     27  H   UNL     1      19.937  -2.431   5.292  1.00  0.00     0.293 HD
ENDBRANCH   8  26
TORSDOF 6
ENDMDL
MODEL 2
REMARK VINA RESULT:    -8.180     15.877     16.498
REMARK INTER + INTRA:          -9.926
REMARK INTER:                  -9.706
REMARK INTRA:                  -0.219
REMARK UNBOUND:                -0.072
REMARK SMILES O=c1c(O)c(-c2ccc(O)c(O)c2)oc2cc(O)cc(O)c12
REMARK SMILES IDX 5 1 3 2 2 3 1 4 22 5 20 6 19 7 17 8 16 9 15 10 14 11 6 12
REMARK SMILES IDX 7 13 8 14 9 15 13 16 11 17 10 18 12 20 4 22 21 24 18 26
REMARK H PARENT 10 19 12 21 4 23 21 25 18 27
REMARK Flexibility Score: inf
ROOT
ATOM      1  C   UNL     1      22.106 -17.675   6.857  1.00  0.00     0.180 A 
ATOM      2  C   UNL     1      21.098 -16.773   7.242  1.00  0.00     0.208 A 
ATOM      3  C   UNL     1      20.061 -16.485   6.341  1.00  0.00     0.238 A 
ATOM      4  O   UNL     1      19.192 -15.636   6.670  1.00  0.00    -0.285 OA
ATOM      5  C   UNL     1      20.034 -17.114   5.073  1.00  0.00     0.111 A 
ATOM      6  C   UNL     1      19.009 -16.928   4.096  1.00  0.00     0.134 A 
ATOM      7  C   UNL     1      19.153 -17.501   2.827  1.00  0.00     0.093 A 
ATOM      8  C   UNL     1      20.252 -18.306   2.520  1.00  0.00     0.123 A 
ATOM      9  C   UNL     1      21.228 -18.542   3.486  1.00  0.00     0.094 A 
ATOM     10  C   UNL     1      21.131 -17.955   4.750  1.00  0.00     0.146 A 
ATOM     11  O   UNL     1      22.088 -18.198   5.637  1.00  0.00    -0.452 OA
ENDROOT
BRANCH   1  12
ATOM     12  C   UNL     1      23.218 -18.047   7.761  1.00  0.00     0.025 A 
ATOM     13  C   UNL     1      24.231 -17.114   8.031  1.00  0.00     0.016 A 
ATOM     14  C   UNL     1      25.300 -17.451   8.864  1.00  0.00     0.051 A 
ATOM     15  C   UNL     1      25.379 -18.731   9.427  1.00  0.00     0.157 A 
ATOM     16  C   UNL     1      23.312 -19.338   8.312  1.00  0.00     0.062 A 
ATOM     17  C   UNL     1      24.386 -19.678   9.148  1.00  0.00     0.158 A 
BRANCH  15  18
ATOM     18  O   UNL     1      26.444 -19.071  10.261  1.00  0.00    -0.504 OA
ATOM     19  H   UNL     1      26.925 -19.959  10.171  1.00  0.00     0.293 HD
ENDBRANCH  15  18
BRANCH  17  20
ATOM     20  O   UNL     1      24.476 -20.955   9.698  1.00  0.00    -0.504 OA
ATOM     21  H   UNL     1      24.842 -21.736   9.167  1.00  0.00     0.293 HD
ENDBRANCH  17  20
ENDBRANCH   1  12
BRANCH   2  22
ATOM     22  O   UNL     1      21.156 -16.146   8.490  1.00  0.00    -0.502 OA
ATOM     23  H   UNL     1      22.021 -16.047   9.009  1.00  0.00     0.293 HD
ENDBRANCH   2  22
BRANCH   6  24
ATOM     24  O   UNL     1      17.827 -16.219   4.332  1.00  0.00    -0.507 OA
ATOM     25  H   UNL     1      17.776 -15.222   4.481  1.00  0.00     0.293 HD
ENDBRANCH   6  24
BRANCH   8  26
ATOM     26  O   UNL     1      20.379 -18.884   1.259  1.00  0.00    -0.508 OA
ATOM     27  H   UNL     1      19.825 -18.567   0.472  1.00  0.00     0.293 HD
ENDBRANCH   8  26
TORSDOF 6
ENDMDL
MODEL 3
REMARK VINA RESULT:    -8.050      3.166      6.519
REMARK INTER + INTRA:          -9.769
REMARK INTER:                 -10.235
REMARK INTRA:                   0.466
REMARK UNBOUND:                -0.072
REMARK SMILES O=c1c(O)c(-c2ccc(O)c(O)c2)oc2cc(O)cc(O)c12
REMARK SMILES IDX 5 1 3 2 2 3 1 4 22 5 20 6 19 7 17 8 16 9 15 10 14 11 6 12
REMARK SMILES IDX 7 13 8 14 9 15 13 16 11 17 10 18 12 20 4 22 21 24 18 26
REMARK H PARENT 10 19 12 21 4 23 21 25 18 27
REMARK Flexibility Score: inf
ROOT
ATOM      1  C   UNL     1      15.742  -3.712   9.811  1.00  0.00     0.180 A 
ATOM      2  C   UNL     1      16.489  -3.430  10.968  1.00  0.00     0.208 A 
ATOM      3  C   UNL     1      17.754  -2.836  10.835  1.00  0.00     0.238 A 
ATOM      4  O   UNL     1      18.441  -2.637  11.870  1.00  0.00    -0.285 OA
ATOM      5  C   UNL     1      18.249  -2.515   9.548  1.00  0.00     0.111 A 
ATOM      6  C   UNL     1      19.500  -1.874   9.297  1.00  0.00     0.134 A 
ATOM      7  C   UNL     1      19.946  -1.723   7.978  1.00  0.00     0.093 A 
ATOM      8  C   UNL     1      19.158  -2.131   6.900  1.00  0.00     0.123 A 
ATOM      9  C   UNL     1      17.909  -2.704   7.133  1.00  0.00     0.094 A 
ATOM     10  C   UNL     1      17.453  -2.900   8.438  1.00  0.00     0.146 A 
ATOM     11  O   UNL     1      16.261  -3.460   8.615  1.00  0.00    -0.452 OA
ENDROOT
BRANCH   1  12
ATOM     12  C   UNL     1      14.391  -4.315   9.873  1.00  0.00     0.025 A 
ATOM     13  C   UNL     1      13.594  -4.346   8.717  1.00  0.00     0.016 A 
ATOM     14  C   UNL     1      12.309  -4.890   8.757  1.00  0.00     0.051 A 
ATOM     15  C   UNL     1      11.795  -5.398   9.957  1.00  0.00     0.157 A 
ATOM     16  C   UNL     1      13.863  -4.807  11.080  1.00  0.00     0.062 A 
ATOM     17  C   UNL     1      12.572  -5.353  11.122  1.00  0.00     0.158 A 
BRANCH  15  18
ATOM     18  O   UNL     1      10.514  -5.945  10.002  1.00  0.00    -0.504 OA
ATOM     19  H   UNL     1       9.704  -5.379  10.229  1.00  0.00     0.293 HD
ENDBRANCH  15  18
BRANCH  17  20
ATOM     20  O   UNL     1      12.052  -5.846  12.317  1.00  0.00    -0.504 OA
ATOM     21  H   UNL     1      12.487  -6.621  12.805  1.00  0.00     0.293 HD
ENDBRANCH  17  20
ENDBRANCH   1  12
BRANCH   2  22
ATOM     22  O   UNL     1      15.991  -3.776  12.228  1.00  0.00    -0.502 OA
ATOM     23  H   UNL     1      15.418  -4.599  12.379  1.00  0.00     0.293 HD
ENDBRANCH   2  22
BRANCH   6  24
ATOM     24  O   UNL     1      20.321  -1.347  10.298  1.00  0.00    -0.507 OA
ATOM     25  H   UNL     1      20.292  -0.391  10.621  1.00  0.00     0.293 HD
ENDBRANCH   6  24
BRANCH   8  26
ATOM     26  O   UNL     1      19.603  -1.963   5.590  1.00  0.00    -0.508 OA
ATOM     27  H   UNL     1      19.552  -2.715   4.912  1.00  0.00     0.293 HD
ENDBRANCH   8  26
TORSDOF 6
ENDMDL
MODEL 4
REMARK VINA RESULT:    -8.037      2.989      4.900
REMARK INTER + INTRA:          -9.753
REMARK INTER:                  -9.562
REMARK INTRA:                  -0.191
REMARK UNBOUND:                -0.072
REMARK SMILES O=c1c(O)c(-c2ccc(O)c(O)c2)oc2cc(O)cc(O)c12
REMARK SMILES IDX 5 1 3 2 2 3 1 4 22 5 20 6 19 7 17 8 16 9 15 10 14 11 6 12
REMARK SMILES IDX 7 13 8 14 9 15 13 16 11 17 10 18 12 20 4 22 21 24 18 26
REMARK H PARENT 10 19 12 21 4 23 21 25 18 27
REMARK Flexibility Score: inf
ROOT
ATOM      1  C   UNL     1      17.181  -3.634  12.818  1.00  0.00     0.180 A 
ATOM      2  C   UNL     1      18.350  -3.002  13.275  1.00  0.00     0.208 A 
ATOM      3  C   UNL     1      19.195  -2.375  12.345  1.00  0.00     0.238 A 
ATOM      4  O   UNL     1      20.267  -1.859  12.753  1.00  0.00    -0.285 OA
ATOM      5  C   UNL     1      18.853  -2.375  10.971  1.00  0.00     0.111 A 
ATOM      6  C   UNL     1      19.614  -1.736   9.946  1.00  0.00     0.134 A 
ATOM      7  C   UNL     1      19.249  -1.911   8.605  1.00  0.00     0.093 A 
ATOM      8  C   UNL     1      18.114  -2.647   8.257  1.00  0.00     0.123 A 
ATOM      9  C   UNL     1      17.332  -3.224   9.254  1.00  0.00     0.094 A 
ATOM     10  C   UNL     1      17.690  -3.098  10.598  1.00  0.00     0.146 A 
ATOM     11  O   UNL     1      16.921  -3.673  11.516  1.00  0.00    -0.452 OA
ENDROOT
BRANCH   1  12
ATOM     12  C   UNL     1      16.229  -4.293  13.740  1.00  0.00     0.025 A 
ATOM     13  C   UNL     1      15.995  -5.672  13.622  1.00  0.00     0.016 A 
ATOM     14  C   UNL     1      15.086  -6.311  14.469  1.00  0.00     0.051 A 
ATOM     15  C   UNL     1      14.386  -5.577  15.435  1.00  0.00     0.157 A 
ATOM     16  C   UNL     1      15.509  -3.556  14.698  1.00  0.00     0.062 A 
ATOM     17  C   UNL     1      14.595  -4.197  15.547  1.00  0.00     0.158 A 
BRANCH  15  18
ATOM     18  O   UNL     1      13.479  -6.211  16.283  1.00  0.00    -0.504 OA
ATOM     19  H   UNL     1      13.597  -6.197  17.290  1.00  0.00     0.293 HD
ENDBRANCH  15  18
BRANCH  17  20
ATOM     20  O   UNL     1      13.886  -3.467  16.500  1.00  0.00    -0.504 OA
ATOM     21  H   UNL     1      13.502  -2.554  16.290  1.00  0.00     0.293 HD
ENDBRANCH  17  20
ENDBRANCH   1  12
BRANCH   2  22
ATOM     22  O   UNL     1      18.681  -3.034  14.633  1.00  0.00    -0.502 OA
ATOM     23  H   UNL     1      19.221  -3.787  15.043  1.00  0.00     0.293 HD
ENDBRANCH   2  22
BRANCH   6  24
ATOM     24  O   UNL     1      20.710  -0.904  10.191  1.00  0.00    -0.507 OA
ATOM     25  H   UNL     1      20.859  -0.388  11.045  1.00  0.00     0.293 HD
ENDBRANCH   6  24
BRANCH   8  26
ATOM     26  O   UNL     1      17.750  -2.803   6.921  1.00  0.00    -0.508 OA
ATOM     27  H   UNL     1      16.850  -3.186   6.658  1.00  0.00     0.293 HD
ENDBRANCH   8  26
TORSDOF 6
ENDMDL
MODEL 5
REMARK VINA RESULT:    -8.026      3.775      6.453
REMARK INTER + INTRA:          -9.741
REMARK INTER:                  -9.742
REMARK INTRA:                   0.001
REMARK UNBOUND:                -0.072
REMARK SMILES O=c1c(O)c(-c2ccc(O)c(O)c2)oc2cc(O)cc(O)c12
REMARK SMILES IDX 5 1 3 2 2 3 1 4 22 5 20 6 19 7 17 8 16 9 15 10 14 11 6 12
REMARK SMILES IDX 7 13 8 14 9 15 13 16 11 17 10 18 12 20 4 22 21 24 18 26
REMARK H PARENT 10 19 12 21 4 23 21 25 18 27
REMARK Flexibility Score: inf
ROOT
ATOM      1  C   UNL     1      15.735  -3.497   9.167  1.00  0.00     0.180 A 
ATOM      2  C   UNL     1      15.526  -4.423  10.204  1.00  0.00     0.208 A 
ATOM      3  C   UNL     1      14.245  -4.968  10.384  1.00  0.00     0.238 A 
ATOM      4  O   UNL     1      14.051  -5.754  11.347  1.00  0.00    -0.285 OA
ATOM      5  C   UNL     1      13.192  -4.593   9.515  1.00  0.00     0.111 A 
ATOM      6  C   UNL     1      11.863  -5.112   9.578  1.00  0.00     0.134 A 
ATOM      7  C   UNL     1      10.871  -4.573   8.751  1.00  0.00     0.093 A 
ATOM      8  C   UNL     1      11.173  -3.579   7.817  1.00  0.00     0.123 A 
ATOM      9  C   UNL     1      12.479  -3.108   7.706  1.00  0.00     0.094 A 
ATOM     10  C   UNL     1      13.484  -3.601   8.543  1.00  0.00     0.146 A 
ATOM     11  O   UNL     1      14.713  -3.116   8.410  1.00  0.00    -0.452 OA
ENDROOT
BRANCH   1  12
ATOM     12  C   UNL     1      17.063  -2.899   8.901  1.00  0.00     0.025 A 
ATOM     13  C   UNL     1      17.750  -2.251   9.939  1.00  0.00     0.016 A 
ATOM     14  C   UNL     1      18.995  -1.662   9.705  1.00  0.00     0.051 A 
ATOM     15  C   UNL     1      19.563  -1.699   8.425  1.00  0.00     0.157 A 
ATOM     16  C   UNL     1      17.628  -2.917   7.612  1.00  0.00     0.062 A 
ATOM     17  C   UNL     1      18.877  -2.324   7.376  1.00  0.00     0.158 A 
BRANCH  15  18
ATOM     18  O   UNL     1      20.806  -1.114   8.187  1.00  0.00    -0.504 OA
ATOM     19  H   UNL     1      20.888  -0.160   7.852  1.00  0.00     0.293 HD
ENDBRANCH  15  18
BRANCH  17  20
ATOM     20  O   UNL     1      19.439  -2.347   6.101  1.00  0.00    -0.504 OA
ATOM     21  H   UNL     1      19.783  -1.502   5.658  1.00  0.00     0.293 HD
ENDBRANCH  17  20
ENDBRANCH   1  12
BRANCH   2  22
ATOM     22  O   UNL     1      16.574  -4.763  11.065  1.00  0.00    -0.502 OA
ATOM     23  H   UNL     1      17.534  -4.491  10.887  1.00  0.00     0.293 HD
ENDBRANCH   2  22
BRANCH   6  24
ATOM     24  O   UNL     1      11.477  -6.167  10.410  1.00  0.00    -0.507 OA
ATOM     25  H   UNL     1      10.669  -6.156  11.014  1.00  0.00     0.293 HD
ENDBRANCH   6  24
BRANCH   8  26
ATOM     26  O   UNL     1      10.182  -3.059   6.987  1.00  0.00    -0.508 OA
ATOM     27  H   UNL     1       9.589  -3.661   6.428  1.00  0.00     0.293 HD
ENDBRANCH   8  26
TORSDOF 6
ENDMDL
MODEL 6
REMARK VINA RESULT:    -8.001      5.704      8.574
REMARK INTER + INTRA:          -9.711
REMARK INTER:                  -9.420
REMARK INTRA:                  -0.291
REMARK UNBOUND:                -0.072
REMARK SMILES O=c1c(O)c(-c2ccc(O)c(O)c2)oc2cc(O)cc(O)c12
REMARK SMILES IDX 5 1 3 2 2 3 1 4 22 5 20 6 19 7 17 8 16 9 15 10 14 11 6 12
REMARK SMILES IDX 7 13 8 14 9 15 13 16 11 17 10 18 12 20 4 22 21 24 18 26
REMARK H PARENT 10 19 12 21 4 23 21 25 18 27
REMARK Flexibility Score: inf
ROOT
ATOM      1  C   UNL     1      14.494  -5.572  13.403  1.00  0.00     0.180 A 
ATOM      2  C   UNL     1      13.183  -5.142  13.676  1.00  0.00     0.208 A 
ATOM      3  C   UNL     1      12.428  -5.828  14.641  1.00  0.00     0.238 A 
ATOM      4  O   UNL     1      11.238  -5.473  14.841  1.00  0.00    -0.285 OA
ATOM      5  C   UNL     1      12.998  -6.924  15.332  1.00  0.00     0.111 A 
ATOM      6  C   UNL     1      12.339  -7.667  16.358  1.00  0.00     0.134 A 
ATOM      7  C   UNL     1      12.950  -8.812  16.882  1.00  0.00     0.093 A 
ATOM      8  C   UNL     1      14.223  -9.205  16.464  1.00  0.00     0.123 A 
ATOM      9  C   UNL     1      14.899  -8.453  15.507  1.00  0.00     0.094 A 
ATOM     10  C   UNL     1      14.301  -7.325  14.939  1.00  0.00     0.146 A 
ATOM     11  O   UNL     1      14.976  -6.643  14.021  1.00  0.00    -0.452 OA
ENDROOT
BRANCH   1  12
ATOM     12  C   UNL     1      15.359  -4.885  12.418  1.00  0.00     0.025 A 
ATOM     13  C   UNL     1      16.307  -3.950  12.864  1.00  0.00     0.016 A 
ATOM     14  C   UNL     1      17.120  -3.275  11.951  1.00  0.00     0.051 A 
ATOM     15  C   UNL     1      16.986  -3.513  10.577  1.00  0.00     0.157 A 
ATOM     16  C   UNL     1      15.214  -5.106  11.036  1.00  0.00     0.062 A 
ATOM     17  C   UNL     1      16.029  -4.427  10.119  1.00  0.00     0.158 A 
BRANCH  15  18
ATOM     18  O   UNL     1      17.797  -2.843   9.661  1.00  0.00    -0.504 OA
ATOM     19  H   UNL     1      17.424  -2.475   8.793  1.00  0.00     0.293 HD
ENDBRANCH  15  18
BRANCH  17  20
ATOM     20  O   UNL     1      15.889  -4.651   8.750  1.00  0.00    -0.504 OA
ATOM     21  H   UNL     1      15.063  -4.350   8.246  1.00  0.00     0.293 HD
ENDBRANCH  17  20
ENDBRANCH   1  12
BRANCH   2  22
ATOM     22  O   UNL     1      12.632  -4.072  12.965  1.00  0.00    -0.502 OA
ATOM     23  H   UNL     1      12.268  -4.174  12.025  1.00  0.00     0.293 HD
ENDBRANCH   2  22
BRANCH   6  24
ATOM     24  O   UNL     1      11.106  -7.307  16.912  1.00  0.00    -0.507 OA
ATOM     25  H   UNL     1      10.832  -6.363  17.139  1.00  0.00     0.293 HD
ENDBRANCH   6  24
BRANCH   8  26
ATOM     26  O   UNL     1      14.830 -10.338  17.003  1.00  0.00    -0.508 OA
ATOM     27  H   UNL     1      14.340 -10.944  17.650  1.00  0.00     0.293 HD
ENDBRANCH   8  26
TORSDOF 6
ENDMDL
MODEL 7
REMARK VINA RESULT:    -7.968     15.577     17.020
REMARK INTER + INTRA:          -9.670
REMARK INTER:                  -9.402
REMARK INTRA:                  -0.268
REMARK UNBOUND:                -0.072
REMARK SMILES O=c1c(O)c(-c2ccc(O)c(O)c2)oc2cc(O)cc(O)c12
REMARK SMILES IDX 5 1 3 2 2 3 1 4 22 5 20 6 19 7 17 8 16 9 15 10 14 11 6 12
REMARK SMILES IDX 7 13 8 14 9 15 13 16 11 17 10 18 12 20 4 22 21 24 18 26
REMARK H PARENT 10 19 12 21 4 23 21 25 18 27
REMARK Flexibility Score: inf
ROOT
ATOM      1  C   UNL     1      19.647 -17.771   7.995  1.00  0.00     0.180 A 
ATOM      2  C   UNL     1      20.291 -16.552   7.721  1.00  0.00     0.208 A 
ATOM      3  C   UNL     1      21.689 -16.481   7.826  1.00  0.00     0.238 A 
ATOM      4  O   UNL     1      22.255 -15.374   7.633  1.00  0.00    -0.285 OA
ATOM      5  C   UNL     1      22.427 -17.633   8.189  1.00  0.00     0.111 A 
ATOM      6  C   UNL     1      23.851 -17.687   8.286  1.00  0.00     0.134 A 
ATOM      7  C   UNL     1      24.466 -18.845   8.779  1.00  0.00     0.093 A 
ATOM      8  C   UNL     1      23.714 -19.972   9.116  1.00  0.00     0.123 A 
ATOM      9  C   UNL     1      22.329 -19.950   8.968  1.00  0.00     0.094 A 
ATOM     10  C   UNL     1      21.684 -18.797   8.513  1.00  0.00     0.146 A 
ATOM     11  O   UNL     1      20.361 -18.816   8.397  1.00  0.00    -0.452 OA
ENDROOT
BRANCH   1  12
ATOM     12  C   UNL     1      18.179 -17.929   7.882  1.00  0.00     0.025 A 
ATOM     13  C   UNL     1      17.589 -18.012   6.611  1.00  0.00     0.016 A 
ATOM     14  C   UNL     1      16.205 -18.141   6.480  1.00  0.00     0.051 A 
ATOM     15  C   UNL     1      15.389 -18.174   7.617  1.00  0.00     0.157 A 
ATOM     16  C   UNL     1      17.354 -17.941   9.021  1.00  0.00     0.062 A 
ATOM     17  C   UNL     1      15.964 -18.069   8.890  1.00  0.00     0.158 A 
BRANCH  15  18
ATOM     18  O   UNL     1      14.006 -18.305   7.492  1.00  0.00    -0.504 OA
ATOM     19  H   UNL     1      13.566 -18.430   6.587  1.00  0.00     0.293 HD
ENDBRANCH  15  18
BRANCH  17  20
ATOM     20  O   UNL     1      15.147 -18.087  10.020  1.00  0.00    -0.504 OA
ATOM     21  H   UNL     1      15.364 -17.533  10.839  1.00  0.00     0.293 HD
ENDBRANCH  17  20
ENDBRANCH   1  12
BRANCH   2  22
ATOM     22  O   UNL     1      19.542 -15.420   7.387  1.00  0.00    -0.502 OA
ATOM     23  H   UNL     1      18.534 -15.448   7.276  1.00  0.00     0.293 HD
ENDBRANCH   2  22
BRANCH   6  24
ATOM     24  O   UNL     1      24.700 -16.650   7.889  1.00  0.00    -0.507 OA
ATOM     25  H   UNL     1      24.952 -16.448   6.933  1.00  0.00     0.293 HD
ENDBRANCH   6  24
BRANCH   8  26
ATOM     26  O   UNL     1      24.336 -21.125   9.592  1.00  0.00    -0.508 OA
ATOM     27  H   UNL     1      23.876 -22.027   9.559  1.00  0.00     0.293 HD
ENDBRANCH   8  26
TORSDOF 6
ENDMDL
MODEL 8
REMARK VINA RESULT:    -7.957      3.284      6.116
REMARK INTER + INTRA:          -9.657
REMARK INTER:                  -9.334
REMARK INTRA:                  -0.323
REMARK UNBOUND:                -0.072
REMARK SMILES O=c1c(O)c(-c2ccc(O)c(O)c2)oc2cc(O)cc(O)c12
REMARK SMILES IDX 5 1 3 2 2 3 1 4 22 5 20 6 19 7 17 8 16 9 15 10 14 11 6 12
REMARK SMILES IDX 7 13 8 14 9 15 13 16 11 17 10 18 12 20 4 22 21 24 18 26
REMARK H PARENT 10 19 12 21 4 23 21 25 18 27
REMARK Flexibility Score: inf
ROOT
ATOM      1  C   UNL     1      16.697  -3.689  13.308  1.00  0.00     0.180 A 
ATOM      2  C   UNL     1      16.648  -3.352  11.945  1.00  0.00     0.208 A 
ATOM      3  C   UNL     1      17.769  -2.750  11.351  1.00  0.00     0.238 A 
ATOM      4  O   UNL     1      17.700  -2.401  10.144  1.00  0.00    -0.285 OA
ATOM      5  C   UNL     1      18.930  -2.507  12.124  1.00  0.00     0.111 A 
ATOM      6  C   UNL     1      20.138  -1.940  11.616  1.00  0.00     0.134 A 
ATOM      7  C   UNL     1      21.177  -1.625  12.500  1.00  0.00     0.093 A 
ATOM      8  C   UNL     1      21.078  -1.918  13.862  1.00  0.00     0.123 A 
ATOM      9  C   UNL     1      19.927  -2.526  14.357  1.00  0.00     0.094 A 
ATOM     10  C   UNL     1      18.859  -2.819  13.506  1.00  0.00     0.146 A 
ATOM     11  O   UNL     1      17.776  -3.389  14.022  1.00  0.00    -0.452 OA
ENDROOT
BRANCH   1  12
ATOM     12  C   UNL     1      15.565  -4.349  13.998  1.00  0.00     0.025 A 
ATOM     13  C   UNL     1      15.466  -5.749  13.982  1.00  0.00     0.016 A 
ATOM     14  C   UNL     1      14.396  -6.391  14.608  1.00  0.00     0.051 A 
ATOM     15  C   UNL     1      13.400  -5.642  15.246  1.00  0.00     0.157 A 
ATOM     16  C   UNL     1      14.552  -3.599  14.623  1.00  0.00     0.062 A 
ATOM     17  C   UNL     1      13.476  -4.243  15.251  1.00  0.00     0.158 A 
BRANCH  15  18
ATOM     18  O   UNL     1      12.330  -6.278  15.875  1.00  0.00    -0.504 OA
ATOM     19  H   UNL     1      11.412  -6.319  15.446  1.00  0.00     0.293 HD
ENDBRANCH  15  18
BRANCH  17  20
ATOM     20  O   UNL     1      12.475  -3.500  15.875  1.00  0.00    -0.504 OA
ATOM     21  H   UNL     1      11.972  -3.858  16.678  1.00  0.00     0.293 HD
ENDBRANCH  17  20
ENDBRANCH   1  12
BRANCH   2  22
ATOM     22  O   UNL     1      15.484  -3.580  11.206  1.00  0.00    -0.502 OA
ATOM     23  H   UNL     1      15.395  -4.351  10.554  1.00  0.00     0.293 HD
ENDBRANCH   2  22
BRANCH   6  24
ATOM     24  O   UNL     1      20.375  -1.694  10.260  1.00  0.00    -0.507 OA
ATOM     25  H   UNL     1      21.241  -1.895   9.783  1.00  0.00     0.293 HD
ENDBRANCH   6  24
BRANCH   8  26
ATOM     26  O   UNL     1      22.124  -1.615  14.732  1.00  0.00    -0.508 OA
ATOM     27  H   UNL     1      22.133  -0.758  15.272  1.00  0.00     0.293 HD
ENDBRANCH   8  26
TORSDOF 6
ENDMDL
MODEL 9
REMARK VINA RESULT:    -7.835      3.345      5.635
REMARK INTER + INTRA:          -9.511
REMARK INTER:                  -9.271
REMARK INTRA:                  -0.240
REMARK UNBOUND:                -0.072
REMARK SMILES O=c1c(O)c(-c2ccc(O)c(O)c2)oc2cc(O)cc(O)c12
REMARK SMILES IDX 5 1 3 2 2 3 1 4 22 5 20 6 19 7 17 8 16 9 15 10 14 11 6 12
REMARK SMILES IDX 7 13 8 14 9 15 13 16 11 17 10 18 12 20 4 22 21 24 18 26
REMARK H PARENT 10 19 12 21 4 23 21 25 18 27
REMARK Flexibility Score: inf
ROOT
ATOM      1  C   UNL     1      15.726  -3.922  11.980  1.00  0.00     0.180 A 
ATOM      2  C   UNL     1      15.338  -3.808  10.634  1.00  0.00     0.208 A 
ATOM      3  C   UNL     1      16.239  -3.257   9.709  1.00  0.00     0.238 A 
ATOM      4  O   UNL     1      15.867  -3.107   8.516  1.00  0.00    -0.285 OA
ATOM      5  C   UNL     1      17.523  -2.841  10.138  1.00  0.00     0.111 A 
ATOM      6  C   UNL     1      18.531  -2.306   9.281  1.00  0.00     0.134 A 
ATOM      7  C   UNL     1      19.716  -1.808   9.836  1.00  0.00     0.093 A 
ATOM      8  C   UNL     1      19.957  -1.884  11.209  1.00  0.00     0.123 A 
ATOM      9  C   UNL     1      19.004  -2.459  12.047  1.00  0.00     0.094 A 
ATOM     10  C   UNL     1      17.796  -2.932  11.528  1.00  0.00     0.146 A 
ATOM     11  O   UNL     1      16.911  -3.463  12.364  1.00  0.00    -0.452 OA
ENDROOT
BRANCH   1  12
ATOM     12  C   UNL     1      14.840  -4.515  13.008  1.00  0.00     0.025 A 
ATOM     13  C   UNL     1      14.605  -5.899  13.002  1.00  0.00     0.016 A 
ATOM     14  C   UNL     1      13.756  -6.476  13.950  1.00  0.00     0.051 A 
ATOM     15  C   UNL     1      13.120  -5.676  14.907  1.00  0.00     0.157 A 
ATOM     16  C   UNL     1      14.183  -3.713  13.958  1.00  0.00     0.062 A 
ATOM     17  C   UNL     1      13.330  -4.292  14.909  1.00  0.00     0.158 A 
BRANCH  15  18
ATOM     18  O   UNL     1      12.274  -6.249  15.856  1.00  0.00    -0.504 OA
ATOM     19  H   UNL     1      11.287  -6.392  15.669  1.00  0.00     0.293 HD
ENDBRANCH  15  18
BRANCH  17  20
ATOM     20  O   UNL     1      12.683  -3.497  15.854  1.00  0.00    -0.504 OA
ATOM     21  H   UNL     1      12.783  -2.489  15.857  1.00  0.00     0.293 HD
ENDBRANCH  17  20
ENDBRANCH   1  12
BRANCH   2  22
ATOM     22  O   UNL     1      14.058  -4.204  10.235  1.00  0.00    -0.502 OA
ATOM     23  H   UNL     1      13.554  -3.741   9.487  1.00  0.00     0.293 HD
ENDBRANCH   2  22
BRANCH   6  24
ATOM     24  O   UNL     1      18.430  -2.268   7.887  1.00  0.00    -0.507 OA
ATOM     25  H   UNL     1      19.097  -2.680   7.251  1.00  0.00     0.293 HD
ENDBRANCH   6  24
BRANCH   8  26
ATOM     26  O   UNL     1      21.146  -1.400  11.751  1.00  0.00    -0.508 OA
ATOM     27  H   UNL     1      21.943  -2.005  11.906  1.00  0.00     0.293 HD
ENDBRANCH   8  26
TORSDOF 6
ENDMDL
