MODEL 1
REMARK VINA RESULT:     5.945      0.000      0.000
REMARK INTER + INTRA:           7.818
REMARK INTER:                   8.551
REMARK INTRA:                  -0.733
REMARK UNBOUND:                -0.733
REMARK SMILES CC(C)=CCCC(C)=CCCC(C)=CCO
REMARK SMILES IDX 10 1 9 2 7 3 8 4 6 5 5 6 4 7 1 8 2 9 3 10 11 11 12 12 14 13
REMARK SMILES IDX 13 14 15 15 16 16
REMARK H PARENT 16 17
REMARK Flexibility Score: inf
ROOT
ATOM      1  C   UNL     1     -38.839   6.565 -52.683  1.00  0.00     0.032 C 
ENDROOT
BRANCH   1   2
ATOM      2  C   UNL     1     -39.766   6.640 -53.869  1.00  0.00    -0.028 C 
ATOM      3  C   UNL     1     -40.144   5.583 -54.624  1.00  0.00    -0.077 C 
ATOM      4  C   UNL     1     -41.125   5.819 -55.743  1.00  0.00     0.039 C 
BRANCH   3   5
ATOM      5  C   UNL     1     -39.599   4.181 -54.412  1.00  0.00     0.034 C 
BRANCH   5   6
ATOM      6  C   UNL     1     -40.659   3.243 -53.814  1.00  0.00     0.032 C 
BRANCH   6   7
ATOM      7  C   UNL     1     -40.591   3.206 -52.306  1.00  0.00    -0.028 C 
ATOM      8  C   UNL     1     -40.240   0.728 -52.211  1.00  0.00     0.039 C 
ATOM      9  C   UNL     1     -40.375   2.091 -51.575  1.00  0.00    -0.080 C 
ATOM     10  C   UNL     1     -40.288   2.222 -50.076  1.00  0.00     0.039 C 
ENDBRANCH   6   7
ENDBRANCH   5   6
ENDBRANCH   3   5
ENDBRANCH   1   2
BRANCH   1  11
ATOM     11  C   UNL     1     -37.744   7.635 -52.779  1.00  0.00     0.034 C 
BRANCH  11  12
ATOM     12  C   UNL     1     -36.842   7.373 -53.964  1.00  0.00    -0.075 C 
ATOM     13  C   UNL     1     -35.740   6.608 -53.798  1.00  0.00    -0.000 C 
ATOM     14  C   UNL     1     -37.184   7.992 -55.298  1.00  0.00     0.039 C 
BRANCH  13  15
ATOM     15  C   UNL     1     -34.761   6.298 -54.897  1.00  0.00     0.183 C 
BRANCH  15  16
ATOM     16  O   UNL     1     -34.002   7.437 -55.194  1.00  0.00    -0.392 OA
ATOM     17  H   UNL     1     -34.438   7.862 -55.976  1.00  0.00     0.210 HD
ENDBRANCH  15  16
ENDBRANCH  13  15
ENDBRANCH  11  12
ENDBRANCH   1  11
TORSDOF 8
ENDMDL
MODEL 2
REMARK VINA RESULT:     7.177      7.527      9.188
REMARK INTER + INTRA:           9.590
REMARK INTER:                   9.786
REMARK INTRA:                  -0.196
REMARK UNBOUND:                -0.733
REMARK SMILES CC(C)=CCCC(C)=CCCC(C)=CCO
REMARK SMILES IDX 10 1 9 2 7 3 8 4 6 5 5 6 4 7 1 8 2 9 3 10 11 11 12 12 14 13
REMARK SMILES IDX 13 14 15 15 16 16
REMARK H PARENT 16 17
REMARK Flexibility Score: inf
ROOT
ATOM      1  C   UNL     1     -35.494  -1.220 -54.994  1.00  0.00     0.032 C 
ENDROOT
BRANCH   1   2
ATOM      2  C   UNL     1     -36.692  -1.487 -55.869  1.00  0.00    -0.028 C 
ATOM      3  C   UNL     1     -37.290  -2.692 -56.016  1.00  0.00    -0.077 C 
ATOM      4  C   UNL     1     -38.517  -2.780 -56.886  1.00  0.00     0.039 C 
BRANCH   3   5
ATOM      5  C   UNL     1     -36.761  -3.960 -55.367  1.00  0.00     0.034 C 
BRANCH   5   6
ATOM      6  C   UNL     1     -35.312  -4.252 -55.785  1.00  0.00     0.032 C 
BRANCH   6   7
ATOM      7  C   UNL     1     -35.098  -4.038 -57.264  1.00  0.00    -0.028 C 
ATOM      8  C   UNL     1     -32.835  -5.111 -57.266  1.00  0.00     0.039 C 
ATOM      9  C   UNL     1     -34.005  -4.444 -57.948  1.00  0.00    -0.080 C 
ATOM     10  C   UNL     1     -33.957  -4.198 -59.434  1.00  0.00     0.039 C 
ENDBRANCH   6   7
ENDBRANCH   5   6
ENDBRANCH   3   5
ENDBRANCH   1   2
BRANCH   1  11
ATOM     11  C   UNL     1     -35.087   0.257 -55.066  1.00  0.00     0.034 C 
BRANCH  11  12
ATOM     12  C   UNL     1     -34.029   0.570 -54.031  1.00  0.00    -0.075 C 
ATOM     13  C   UNL     1     -34.301   0.357 -52.724  1.00  0.00    -0.000 C 
ATOM     14  C   UNL     1     -32.703   1.134 -54.483  1.00  0.00     0.039 C 
BRANCH  13  15
ATOM     15  C   UNL     1     -33.335   0.652 -51.608  1.00  0.00     0.183 C 
BRANCH  15  16
ATOM     16  O   UNL     1     -33.656  -0.120 -50.484  1.00  0.00    -0.392 OA
ATOM     17  H   UNL     1     -33.002   0.133 -49.783  1.00  0.00     0.210 HD
ENDBRANCH  15  16
ENDBRANCH  13  15
ENDBRANCH  11  12
ENDBRANCH   1  11
TORSDOF 8
ENDMDL
MODEL 3
REMARK VINA RESULT:     7.287      1.493      3.004
REMARK INTER + INTRA:           9.750
REMARK INTER:                  10.410
REMARK INTRA:                  -0.661
REMARK UNBOUND:                -0.733
REMARK SMILES CC(C)=CCCC(C)=CCCC(C)=CCO
REMARK SMILES IDX 10 1 9 2 7 3 8 4 6 5 5 6 4 7 1 8 2 9 3 10 11 11 12 12 14 13
REMARK SMILES IDX 13 14 15 15 16 16
REMARK H PARENT 16 17
REMARK Flexibility Score: inf
ROOT
ATOM      1  C   UNL     1     -40.178   5.329 -53.711  1.00  0.00     0.032 C 
ENDROOT
BRANCH   1   2
ATOM      2  C   UNL     1     -40.614   3.915 -53.999  1.00  0.00    -0.028 C 
ATOM      3  C   UNL     1     -40.596   2.902 -53.103  1.00  0.00    -0.077 C 
ATOM      4  C   UNL     1     -41.119   1.557 -53.534  1.00  0.00     0.039 C 
BRANCH   3   5
ATOM      5  C   UNL     1     -40.043   3.055 -51.696  1.00  0.00     0.034 C 
BRANCH   5   6
ATOM      6  C   UNL     1     -40.550   1.947 -50.760  1.00  0.00     0.032 C 
BRANCH   6   7
ATOM      7  C   UNL     1     -41.120   2.508 -49.480  1.00  0.00    -0.028 C 
ATOM      8  C   UNL     1     -38.915   2.492 -48.291  1.00  0.00     0.039 C 
ATOM      9  C   UNL     1     -40.394   2.785 -48.374  1.00  0.00    -0.080 C 
ATOM     10  C   UNL     1     -41.100   3.387 -47.186  1.00  0.00     0.039 C 
ENDBRANCH   6   7
ENDBRANCH   5   6
ENDBRANCH   3   5
ENDBRANCH   1   2
BRANCH   1  11
ATOM     11  C   UNL     1     -39.282   5.863 -54.835  1.00  0.00     0.034 C 
BRANCH  11  12
ATOM     12  C   UNL     1     -38.045   6.521 -54.267  1.00  0.00    -0.075 C 
ATOM     13  C   UNL     1     -37.050   6.890 -55.104  1.00  0.00    -0.000 C 
ATOM     14  C   UNL     1     -37.944   6.730 -52.775  1.00  0.00     0.039 C 
BRANCH  13  15
ATOM     15  C   UNL     1     -35.767   7.532 -54.650  1.00  0.00     0.183 C 
BRANCH  15  16
ATOM     16  O   UNL     1     -34.873   6.549 -54.207  1.00  0.00    -0.392 OA
ATOM     17  H   UNL     1     -34.054   7.031 -53.924  1.00  0.00     0.210 HD
ENDBRANCH  15  16
ENDBRANCH  13  15
ENDBRANCH  11  12
ENDBRANCH   1  11
TORSDOF 8
ENDMDL
MODEL 4
REMARK VINA RESULT:     7.441      7.589      9.221
REMARK INTER + INTRA:           9.970
REMARK INTER:                  10.184
REMARK INTRA:                  -0.214
REMARK UNBOUND:                -0.733
REMARK SMILES CC(C)=CCCC(C)=CCCC(C)=CCO
REMARK SMILES IDX 10 1 9 2 7 3 8 4 6 5 5 6 4 7 1 8 2 9 3 10 11 11 12 12 14 13
REMARK SMILES IDX 13 14 15 15 16 16
REMARK H PARENT 16 17
REMARK Flexibility Score: inf
ROOT
ATOM      1  C   UNL     1     -35.402  -0.334 -55.087  1.00  0.00     0.032 C 
ENDROOT
BRANCH   1   2
ATOM      2  C   UNL     1     -36.625  -1.196 -55.271  1.00  0.00    -0.028 C 
ATOM      3  C   UNL     1     -36.630  -2.415 -55.857  1.00  0.00    -0.077 C 
ATOM      4  C   UNL     1     -37.930  -3.175 -55.912  1.00  0.00     0.039 C 
BRANCH   3   5
ATOM      5  C   UNL     1     -35.394  -3.034 -56.486  1.00  0.00     0.034 C 
BRANCH   5   6
ATOM      6  C   UNL     1     -35.275  -4.530 -56.158  1.00  0.00     0.032 C 
BRANCH   6   7
ATOM      7  C   UNL     1     -33.881  -5.053 -56.408  1.00  0.00    -0.028 C 
ATOM      8  C   UNL     1     -33.981  -4.630 -58.875  1.00  0.00     0.039 C 
ATOM      9  C   UNL     1     -33.276  -5.077 -57.616  1.00  0.00    -0.080 C 
ATOM     10  C   UNL     1     -31.861  -5.587 -57.699  1.00  0.00     0.039 C 
ENDBRANCH   6   7
ENDBRANCH   5   6
ENDBRANCH   3   5
ENDBRANCH   1   2
BRANCH   1  11
ATOM     11  C   UNL     1     -35.168  -0.032 -53.601  1.00  0.00     0.034 C 
BRANCH  11  12
ATOM     12  C   UNL     1     -33.872   0.722 -53.406  1.00  0.00    -0.075 C 
ATOM     13  C   UNL     1     -33.138   1.064 -54.489  1.00  0.00    -0.000 C 
ATOM     14  C   UNL     1     -33.420   1.057 -52.005  1.00  0.00     0.039 C 
BRANCH  13  15
ATOM     15  C   UNL     1     -31.825   1.795 -54.415  1.00  0.00     0.183 C 
BRANCH  15  16
ATOM     16  O   UNL     1     -30.854   0.972 -53.830  1.00  0.00    -0.392 OA
ATOM     17  H   UNL     1     -31.232   0.675 -52.963  1.00  0.00     0.210 HD
ENDBRANCH  15  16
ENDBRANCH  13  15
ENDBRANCH  11  12
ENDBRANCH   1  11
TORSDOF 8
ENDMDL
MODEL 5
REMARK VINA RESULT:     8.486      9.060     11.046
REMARK INTER + INTRA:          11.474
REMARK INTER:                  12.104
REMARK INTRA:                  -0.630
REMARK UNBOUND:                -0.733
REMARK SMILES CC(C)=CCCC(C)=CCCC(C)=CCO
REMARK SMILES IDX 10 1 9 2 7 3 8 4 6 5 5 6 4 7 1 8 2 9 3 10 11 11 12 12 14 13
REMARK SMILES IDX 13 14 15 15 16 16
REMARK H PARENT 16 17
REMARK Flexibility Score: inf
ROOT
ATOM      1  C   UNL     1     -34.428  -3.511 -56.679  1.00  0.00     0.032 C 
ENDROOT
BRANCH   1   2
ATOM      2  C   UNL     1     -35.814  -3.701 -56.116  1.00  0.00    -0.028 C 
ATOM      3  C   UNL     1     -36.658  -2.698 -55.784  1.00  0.00    -0.077 C 
ATOM      4  C   UNL     1     -38.034  -3.057 -55.287  1.00  0.00     0.039 C 
BRANCH   3   5
ATOM      5  C   UNL     1     -36.268  -1.231 -55.860  1.00  0.00     0.034 C 
BRANCH   5   6
ATOM      6  C   UNL     1     -35.694  -0.724 -54.529  1.00  0.00     0.032 C 
BRANCH   6   7
ATOM      7  C   UNL     1     -34.512   0.193 -54.738  1.00  0.00    -0.028 C 
ATOM      8  C   UNL     1     -33.998   0.367 -52.292  1.00  0.00     0.039 C 
ATOM      9  C   UNL     1     -33.725   0.666 -53.747  1.00  0.00    -0.080 C 
ATOM     10  C   UNL     1     -32.551   1.536 -54.118  1.00  0.00     0.039 C 
ENDBRANCH   6   7
ENDBRANCH   5   6
ENDBRANCH   3   5
ENDBRANCH   1   2
BRANCH   1  11
ATOM     11  C   UNL     1     -33.590  -4.783 -56.501  1.00  0.00     0.034 C 
BRANCH  11  12
ATOM     12  C   UNL     1     -33.061  -5.265 -57.833  1.00  0.00    -0.075 C 
ATOM     13  C   UNL     1     -32.019  -6.126 -57.857  1.00  0.00    -0.000 C 
ATOM     14  C   UNL     1     -33.696  -4.754 -59.105  1.00  0.00     0.039 C 
BRANCH  13  15
ATOM     15  C   UNL     1     -31.397  -6.655 -59.121  1.00  0.00     0.183 C 
BRANCH  15  16
ATOM     16  O   UNL     1     -31.365  -8.055 -59.087  1.00  0.00    -0.392 OA
ATOM     17  H   UNL     1     -31.737  -8.316 -58.206  1.00  0.00     0.210 HD
ENDBRANCH  15  16
ENDBRANCH  13  15
ENDBRANCH  11  12
ENDBRANCH   1  11
TORSDOF 8
ENDMDL
MODEL 6
REMARK VINA RESULT:     8.555      7.866     10.091
REMARK INTER + INTRA:          11.573
REMARK INTER:                  11.208
REMARK INTRA:                   0.366
REMARK UNBOUND:                -0.733
REMARK SMILES CC(C)=CCCC(C)=CCCC(C)=CCO
REMARK SMILES IDX 10 1 9 2 7 3 8 4 6 5 5 6 4 7 1 8 2 9 3 10 11 11 12 12 14 13
REMARK SMILES IDX 13 14 15 15 16 16
REMARK H PARENT 16 17
REMARK Flexibility Score: inf
ROOT
ATOM      1  C   UNL     1     -36.027  -4.399 -55.795  1.00  0.00     0.032 C 
ENDROOT
BRANCH   1   2
ATOM      2  C   UNL     1     -37.029  -3.273 -55.769  1.00  0.00    -0.028 C 
ATOM      3  C   UNL     1     -36.720  -1.967 -55.602  1.00  0.00    -0.077 C 
ATOM      4  C   UNL     1     -37.837  -0.956 -55.657  1.00  0.00     0.039 C 
BRANCH   3   5
ATOM      5  C   UNL     1     -35.306  -1.480 -55.331  1.00  0.00     0.034 C 
BRANCH   5   6
ATOM      6  C   UNL     1     -35.298  -0.144 -54.573  1.00  0.00     0.032 C 
BRANCH   6   7
ATOM      7  C   UNL     1     -33.951   0.534 -54.643  1.00  0.00    -0.028 C 
ATOM      8  C   UNL     1     -33.681   0.631 -52.154  1.00  0.00     0.039 C 
ATOM      9  C   UNL     1     -33.201   0.861 -53.567  1.00  0.00    -0.080 C 
ATOM     10  C   UNL     1     -31.853   1.494 -53.799  1.00  0.00     0.039 C 
ENDBRANCH   6   7
ENDBRANCH   5   6
ENDBRANCH   3   5
ENDBRANCH   1   2
BRANCH   1  11
ATOM     11  C   UNL     1     -34.601  -3.855 -55.955  1.00  0.00     0.034 C 
BRANCH  11  12
ATOM     12  C   UNL     1     -33.990  -4.331 -57.253  1.00  0.00    -0.075 C 
ATOM     13  C   UNL     1     -34.503  -3.892 -58.425  1.00  0.00    -0.000 C 
ATOM     14  C   UNL     1     -32.835  -5.303 -57.209  1.00  0.00     0.039 C 
BRANCH  13  15
ATOM     15  C   UNL     1     -33.991  -4.314 -59.775  1.00  0.00     0.183 C 
BRANCH  15  16
ATOM     16  O   UNL     1     -34.041  -3.232 -60.664  1.00  0.00    -0.392 OA
ATOM     17  H   UNL     1     -33.198  -3.266 -61.185  1.00  0.00     0.210 HD
ENDBRANCH  15  16
ENDBRANCH  13  15
ENDBRANCH  11  12
ENDBRANCH   1  11
TORSDOF 8
ENDMDL
