MODEL 1
REMARK VINA RESULT:    -5.255      0.000      0.000
REMARK INTER + INTRA:          -6.234
REMARK INTER:                  -6.023
REMARK INTRA:                  -0.211
REMARK UNBOUND:                -0.211
REMARK SMILES CC=Cc1ccc(O)c(OC)c1
REMARK SMILES IDX 4 1 12 2 9 3 7 4 6 5 5 6 3 7 1 8 2 9 10 10 11 11 8 12
REMARK H PARENT 8 13
REMARK Flexibility Score: inf
ROOT
ATOM      1  C   UNL     1      -7.932  63.745   4.133  1.00  0.00    -0.022 A 
ATOM      2  C   UNL     1      -7.688  62.426   3.712  1.00  0.00     0.058 A 
ATOM      3  C   UNL     1      -6.376  61.913   3.693  1.00  0.00     0.161 A 
ATOM      4  C   UNL     1      -5.310  62.739   4.077  1.00  0.00     0.157 A 
ATOM      5  C   UNL     1      -5.550  64.063   4.466  1.00  0.00     0.051 A 
ATOM      6  C   UNL     1      -6.853  64.565   4.485  1.00  0.00     0.012 A 
ENDROOT
BRANCH   1   7
ATOM      7  C   UNL     1      -9.298  64.311   4.139  1.00  0.00     0.003 C 
ATOM      8  C   UNL     1      -9.115  65.329   1.852  1.00  0.00     0.035 C 
ATOM      9  C   UNL     1      -9.824  65.034   3.140  1.00  0.00    -0.030 C 
ENDBRANCH   1   7
BRANCH   3  10
ATOM     10  O   UNL     1      -6.094  60.596   3.296  1.00  0.00    -0.493 OA
ATOM     11  C   UNL     1      -6.817  59.883   2.299  1.00  0.00     0.278 C 
ENDBRANCH   3  10
BRANCH   4  12
ATOM     12  O   UNL     1      -4.009  62.235   4.064  1.00  0.00    -0.504 OA
ATOM     13  H   UNL     1      -3.271  62.688   3.538  1.00  0.00     0.293 HD
ENDBRANCH   4  12
TORSDOF 3
ENDMDL
MODEL 2
REMARK VINA RESULT:    -5.118     11.493     14.365
REMARK INTER + INTRA:          -6.077
REMARK INTER:                  -6.468
REMARK INTRA:                   0.391
REMARK UNBOUND:                -0.211
REMARK SMILES CC=Cc1ccc(O)c(OC)c1
REMARK SMILES IDX 4 1 12 2 9 3 7 4 6 5 5 6 3 7 1 8 2 9 10 10 11 11 8 12
REMARK H PARENT 8 13
REMARK Flexibility Score: inf
ROOT
ATOM      1  C   UNL     1       0.197  54.628  -5.366  1.00  0.00    -0.022 A 
ATOM      2  C   UNL     1      -0.272  55.635  -4.506  1.00  0.00     0.058 A 
ATOM      3  C   UNL     1      -0.382  56.966  -4.957  1.00  0.00     0.161 A 
ATOM      4  C   UNL     1       0.002  57.281  -6.268  1.00  0.00     0.157 A 
ATOM      5  C   UNL     1       0.499  56.281  -7.115  1.00  0.00     0.051 A 
ATOM      6  C   UNL     1       0.604  54.964  -6.663  1.00  0.00     0.012 A 
ENDROOT
BRANCH   1   7
ATOM      7  C   UNL     1       0.343  53.230  -4.907  1.00  0.00     0.003 C 
ATOM      8  C   UNL     1      -0.249  52.216  -7.125  1.00  0.00     0.035 C 
ATOM      9  C   UNL     1       0.125  52.153  -5.674  1.00  0.00    -0.030 C 
ENDBRANCH   1   7
BRANCH   3  10
ATOM     10  O   UNL     1      -0.863  57.997  -4.134  1.00  0.00    -0.493 OA
ATOM     11  C   UNL     1      -2.134  57.991  -3.495  1.00  0.00     0.278 C 
ENDBRANCH   3  10
BRANCH   4  12
ATOM     12  O   UNL     1      -0.110  58.595  -6.722  1.00  0.00    -0.504 OA
ATOM     13  H   UNL     1       0.252  58.876  -7.626  1.00  0.00     0.293 HD
ENDBRANCH   4  12
TORSDOF 3
ENDMDL
MODEL 3
REMARK VINA RESULT:    -5.065      2.313      4.747
REMARK INTER + INTRA:          -6.016
REMARK INTER:                  -5.798
REMARK INTRA:                  -0.218
REMARK UNBOUND:                -0.211
REMARK SMILES CC=Cc1ccc(O)c(OC)c1
REMARK SMILES IDX 4 1 12 2 9 3 7 4 6 5 5 6 3 7 1 8 2 9 10 10 11 11 8 12
REMARK H PARENT 8 13
REMARK Flexibility Score: inf
ROOT
ATOM      1  C   UNL     1      -5.267  61.382   3.892  1.00  0.00    -0.022 A 
ATOM      2  C   UNL     1      -6.435  62.063   3.508  1.00  0.00     0.058 A 
ATOM      3  C   UNL     1      -7.402  61.427   2.705  1.00  0.00     0.161 A 
ATOM      4  C   UNL     1      -7.178  60.113   2.270  1.00  0.00     0.157 A 
ATOM      5  C   UNL     1      -5.999  59.446   2.627  1.00  0.00     0.051 A 
ATOM      6  C   UNL     1      -5.045  60.080   3.426  1.00  0.00     0.012 A 
ENDROOT
BRANCH   1   7
ATOM      7  C   UNL     1      -4.229  62.038   4.716  1.00  0.00     0.003 C 
ATOM      8  C   UNL     1      -5.353  61.543   6.905  1.00  0.00     0.035 C 
ATOM      9  C   UNL     1      -4.269  62.134   6.052  1.00  0.00    -0.030 C 
ENDBRANCH   1   7
BRANCH   3  10
ATOM     10  O   UNL     1      -8.589  62.068   2.315  1.00  0.00    -0.493 OA
ATOM     11  C   UNL     1      -9.012  63.340   2.792  1.00  0.00     0.278 C 
ENDBRANCH   3  10
BRANCH   4  12
ATOM     12  O   UNL     1      -8.133  59.477   1.478  1.00  0.00    -0.504 OA
ATOM     13  H   UNL     1      -8.074  59.487   0.466  1.00  0.00     0.293 HD
ENDBRANCH   4  12
TORSDOF 3
ENDMDL
MODEL 4
REMARK VINA RESULT:    -5.023      1.087      2.832
REMARK INTER + INTRA:          -5.967
REMARK INTER:                  -5.800
REMARK INTRA:                  -0.167
REMARK UNBOUND:                -0.211
REMARK SMILES CC=Cc1ccc(O)c(OC)c1
REMARK SMILES IDX 4 1 12 2 9 3 7 4 6 5 5 6 3 7 1 8 2 9 10 10 11 11 8 12
REMARK H PARENT 8 13
REMARK Flexibility Score: inf
ROOT
ATOM      1  C   UNL     1      -7.992  63.296   3.904  1.00  0.00    -0.022 A 
ATOM      2  C   UNL     1      -7.034  64.143   4.485  1.00  0.00     0.058 A 
ATOM      3  C   UNL     1      -5.677  63.764   4.527  1.00  0.00     0.161 A 
ATOM      4  C   UNL     1      -5.294  62.521   4.004  1.00  0.00     0.157 A 
ATOM      5  C   UNL     1      -6.255  61.663   3.454  1.00  0.00     0.051 A 
ATOM      6  C   UNL     1      -7.598  62.045   3.413  1.00  0.00     0.012 A 
ENDROOT
BRANCH   1   7
ATOM      7  C   UNL     1      -9.424  63.663   3.870  1.00  0.00     0.003 C 
ATOM      8  C   UNL     1      -9.181  65.283   1.968  1.00  0.00     0.035 C 
ATOM      9  C   UNL     1      -9.957  64.560   3.028  1.00  0.00    -0.030 C 
ENDBRANCH   1   7
BRANCH   3  10
ATOM     10  O   UNL     1      -4.687  64.590   5.083  1.00  0.00    -0.493 OA
ATOM     11  C   UNL     1      -4.909  65.510   6.147  1.00  0.00     0.278 C 
ENDBRANCH   3  10
BRANCH   4  12
ATOM     12  O   UNL     1      -3.952  62.142   4.040  1.00  0.00    -0.504 OA
ATOM     13  H   UNL     1      -3.669  61.181   3.890  1.00  0.00     0.293 HD
ENDBRANCH   4  12
TORSDOF 3
ENDMDL
MODEL 5
REMARK VINA RESULT:    -4.962     11.954     14.283
REMARK INTER + INTRA:          -5.898
REMARK INTER:                  -6.482
REMARK INTRA:                   0.584
REMARK UNBOUND:                -0.211
REMARK SMILES CC=Cc1ccc(O)c(OC)c1
REMARK SMILES IDX 4 1 12 2 9 3 7 4 6 5 5 6 3 7 1 8 2 9 10 10 11 11 8 12
REMARK H PARENT 8 13
REMARK Flexibility Score: inf
ROOT
ATOM      1  C   UNL     1       0.076  55.651  -6.124  1.00  0.00    -0.022 A 
ATOM      2  C   UNL     1       0.095  55.254  -4.777  1.00  0.00     0.058 A 
ATOM      3  C   UNL     1      -0.007  53.892  -4.432  1.00  0.00     0.161 A 
ATOM      4  C   UNL     1      -0.152  52.935  -5.446  1.00  0.00     0.157 A 
ATOM      5  C   UNL     1      -0.203  53.335  -6.788  1.00  0.00     0.051 A 
ATOM      6  C   UNL     1      -0.099  54.686  -7.124  1.00  0.00     0.012 A 
ENDROOT
BRANCH   1   7
ATOM      7  C   UNL     1       0.159  57.077  -6.508  1.00  0.00     0.003 C 
ATOM      8  C   UNL     1      -0.665  57.939  -4.300  1.00  0.00     0.035 C 
ATOM      9  C   UNL     1      -0.189  58.098  -5.713  1.00  0.00    -0.030 C 
ENDBRANCH   1   7
BRANCH   3  10
ATOM     10  O   UNL     1       0.026  53.454  -3.098  1.00  0.00    -0.493 OA
ATOM     11  C   UNL     1       0.999  53.858  -2.141  1.00  0.00     0.278 C 
ENDBRANCH   3  10
BRANCH   4  12
ATOM     12  O   UNL     1      -0.250  51.585  -5.111  1.00  0.00    -0.504 OA
ATOM     13  H   UNL     1      -0.469  51.288  -4.167  1.00  0.00     0.293 HD
ENDBRANCH   4  12
TORSDOF 3
ENDMDL
MODEL 6
REMARK VINA RESULT:    -4.959     13.621     15.774
REMARK INTER + INTRA:          -5.894
REMARK INTER:                  -5.799
REMARK INTRA:                  -0.095
REMARK UNBOUND:                -0.211
REMARK SMILES CC=Cc1ccc(O)c(OC)c1
REMARK SMILES IDX 4 1 12 2 9 3 7 4 6 5 5 6 3 7 1 8 2 9 10 10 11 11 8 12
REMARK H PARENT 8 13
REMARK Flexibility Score: inf
ROOT
ATOM      1  C   UNL     1       4.401  52.521   6.786  1.00  0.00    -0.022 A 
ATOM      2  C   UNL     1       5.188  53.096   5.773  1.00  0.00     0.058 A 
ATOM      3  C   UNL     1       4.633  54.038   4.885  1.00  0.00     0.161 A 
ATOM      4  C   UNL     1       3.280  54.382   5.005  1.00  0.00     0.157 A 
ATOM      5  C   UNL     1       2.488  53.786   5.995  1.00  0.00     0.051 A 
ATOM      6  C   UNL     1       3.043  52.854   6.874  1.00  0.00     0.012 A 
ENDROOT
BRANCH   1   7
ATOM      7  C   UNL     1       4.956  51.514   7.714  1.00  0.00     0.003 C 
ATOM      8  C   UNL     1       4.786  52.980   9.744  1.00  0.00     0.035 C 
ATOM      9  C   UNL     1       5.152  51.715   9.025  1.00  0.00    -0.030 C 
ENDBRANCH   1   7
BRANCH   3  10
ATOM     10  O   UNL     1       5.391  54.647   3.872  1.00  0.00    -0.493 OA
ATOM     11  C   UNL     1       6.736  54.304   3.555  1.00  0.00     0.278 C 
ENDBRANCH   3  10
BRANCH   4  12
ATOM     12  O   UNL     1       2.726  55.318   4.131  1.00  0.00    -0.504 OA
ATOM     13  H   UNL     1       1.763  55.620   4.220  1.00  0.00     0.293 HD
ENDBRANCH   4  12
TORSDOF 3
ENDMDL
MODEL 7
REMARK VINA RESULT:    -4.945     13.536     14.780
REMARK INTER + INTRA:          -5.878
REMARK INTER:                  -5.670
REMARK INTRA:                  -0.208
REMARK UNBOUND:                -0.211
REMARK SMILES CC=Cc1ccc(O)c(OC)c1
REMARK SMILES IDX 4 1 12 2 9 3 7 4 6 5 5 6 3 7 1 8 2 9 10 10 11 11 8 12
REMARK H PARENT 8 13
REMARK Flexibility Score: inf
ROOT
ATOM      1  C   UNL     1       2.489  53.601   6.197  1.00  0.00    -0.022 A 
ATOM      2  C   UNL     1       3.656  52.872   6.481  1.00  0.00     0.058 A 
ATOM      3  C   UNL     1       4.867  53.180   5.830  1.00  0.00     0.161 A 
ATOM      4  C   UNL     1       4.893  54.207   4.876  1.00  0.00     0.157 A 
ATOM      5  C   UNL     1       3.721  54.912   4.570  1.00  0.00     0.051 A 
ATOM      6  C   UNL     1       2.524  54.604   5.220  1.00  0.00     0.012 A 
ENDROOT
BRANCH   1   7
ATOM      7  C   UNL     1       1.203  53.280   6.851  1.00  0.00     0.003 C 
ATOM      8  C   UNL     1       1.703  54.572   8.944  1.00  0.00     0.035 C 
ATOM      9  C   UNL     1       0.854  53.688   8.080  1.00  0.00    -0.030 C 
ENDBRANCH   1   7
BRANCH   3  10
ATOM     10  O   UNL     1       6.058  52.487   6.099  1.00  0.00    -0.493 OA
ATOM     11  C   UNL     1       6.397  51.929   7.364  1.00  0.00     0.278 C 
ENDBRANCH   3  10
BRANCH   4  12
ATOM     12  O   UNL     1       6.089  54.519   4.231  1.00  0.00    -0.504 OA
ATOM     13  H   UNL     1       6.926  54.755   4.751  1.00  0.00     0.293 HD
ENDBRANCH   4  12
TORSDOF 3
ENDMDL
MODEL 8
REMARK VINA RESULT:    -4.734      2.388      4.927
REMARK INTER + INTRA:          -5.637
REMARK INTER:                  -5.437
REMARK INTRA:                  -0.200
REMARK UNBOUND:                -0.211
REMARK SMILES CC=Cc1ccc(O)c(OC)c1
REMARK SMILES IDX 4 1 12 2 9 3 7 4 6 5 5 6 3 7 1 8 2 9 10 10 11 11 8 12
REMARK H PARENT 8 13
REMARK Flexibility Score: inf
ROOT
ATOM      1  C   UNL     1      -5.731  62.366   4.042  1.00  0.00    -0.022 A 
ATOM      2  C   UNL     1      -6.286  63.643   4.227  1.00  0.00     0.058 A 
ATOM      3  C   UNL     1      -7.607  63.913   3.819  1.00  0.00     0.161 A 
ATOM      4  C   UNL     1      -8.358  62.901   3.205  1.00  0.00     0.157 A 
ATOM      5  C   UNL     1      -7.792  61.637   2.992  1.00  0.00     0.051 A 
ATOM      6  C   UNL     1      -6.483  61.374   3.401  1.00  0.00     0.012 A 
ENDROOT
BRANCH   1   7
ATOM      7  C   UNL     1      -4.339  62.066   4.442  1.00  0.00     0.003 C 
ATOM      8  C   UNL     1      -4.896  61.652   6.854  1.00  0.00     0.035 C 
ATOM      9  C   UNL     1      -3.955  61.770   5.692  1.00  0.00    -0.030 C 
ENDBRANCH   1   7
BRANCH   3  10
ATOM     10  O   UNL     1      -8.204  65.171   4.002  1.00  0.00    -0.493 OA
ATOM     11  C   UNL     1      -8.161  66.230   3.051  1.00  0.00     0.278 C 
ENDBRANCH   3  10
BRANCH   4  12
ATOM     12  O   UNL     1      -9.668  63.161   2.802  1.00  0.00    -0.504 OA
ATOM     13  H   UNL     1      -9.924  63.196   1.822  1.00  0.00     0.293 HD
ENDBRANCH   4  12
TORSDOF 3
ENDMDL
MODEL 9
REMARK VINA RESULT:    -4.682      1.520      2.819
REMARK INTER + INTRA:          -5.577
REMARK INTER:                  -5.356
REMARK INTRA:                  -0.221
REMARK UNBOUND:                -0.211
REMARK SMILES CC=Cc1ccc(O)c(OC)c1
REMARK SMILES IDX 4 1 12 2 9 3 7 4 6 5 5 6 3 7 1 8 2 9 10 10 11 11 8 12
REMARK H PARENT 8 13
REMARK Flexibility Score: inf
ROOT
ATOM      1  C   UNL     1      -8.083  64.817   3.475  1.00  0.00    -0.022 A 
ATOM      2  C   UNL     1      -7.033  64.295   4.249  1.00  0.00     0.058 A 
ATOM      3  C   UNL     1      -6.737  62.917   4.214  1.00  0.00     0.161 A 
ATOM      4  C   UNL     1      -7.515  62.067   3.416  1.00  0.00     0.157 A 
ATOM      5  C   UNL     1      -8.582  62.585   2.669  1.00  0.00     0.051 A 
ATOM      6  C   UNL     1      -8.869  63.950   2.706  1.00  0.00     0.012 A 
ENDROOT
BRANCH   1   7
ATOM      7  C   UNL     1      -8.426  66.255   3.514  1.00  0.00     0.003 C 
ATOM      8  C   UNL     1      -9.973  66.051   5.479  1.00  0.00     0.035 C 
ATOM      9  C   UNL     1      -9.281  66.808   4.385  1.00  0.00    -0.030 C 
ENDBRANCH   1   7
BRANCH   3  10
ATOM     10  O   UNL     1      -5.686  62.360   4.959  1.00  0.00    -0.493 OA
ATOM     11  C   UNL     1      -4.342  62.253   4.502  1.00  0.00     0.278 C 
ENDBRANCH   3  10
BRANCH   4  12
ATOM     12  O   UNL     1      -7.224  60.704   3.374  1.00  0.00    -0.504 OA
ATOM     13  H   UNL     1      -7.487  60.130   2.582  1.00  0.00     0.293 HD
ENDBRANCH   4  12
TORSDOF 3
ENDMDL
