MODEL 1
REMARK VINA RESULT:    -3.442      0.000      0.000
REMARK INTER + INTRA:          -4.609
REMARK INTER:                  -4.448
REMARK INTRA:                  -0.161
REMARK UNBOUND:                -0.161
REMARK SMILES CCCCCCC(=O)[O-]
REMARK SMILES IDX 5 1 6 2 7 3 8 4 9 5 4 6 3 7 2 8 1 9
REMARK H PARENT
REMARK Flexibility Score: inf
ROOT
ATOM      1  C   UNL     1      12.552 -22.660  39.434  1.00  0.00     0.006 C 
ENDROOT
BRANCH   1   2
ATOM      2  C   UNL     1      13.706 -22.037  38.636  1.00  0.00     0.053 C 
BRANCH   2   3
ATOM      3  C   UNL     1      13.873 -22.740  37.326  1.00  0.00     0.041 C 
ATOM      4  O   UNL     1      14.078 -22.079  36.273  1.00  0.00    -0.550 OA
ATOM      5  O   UNL     1      13.753 -24.122  37.258  1.00  0.00    -0.550 OA
ENDBRANCH   2   3
ENDBRANCH   1   2
BRANCH   1   6
ATOM      6  C   UNL     1      12.172 -21.832  40.672  1.00  0.00     0.000 C 
BRANCH   6   7
ATOM      7  C   UNL     1      10.930 -22.383  41.393  1.00  0.00    -0.000 C 
BRANCH   7   8
ATOM      8  C   UNL     1       9.871 -22.914  40.415  1.00  0.00    -0.003 C 
ATOM      9  C   UNL     1       9.458 -24.355  40.711  1.00  0.00     0.004 C 
ENDBRANCH   7   8
ENDBRANCH   6   7
ENDBRANCH   1   6
TORSDOF 5
ENDMDL
MODEL 2
REMARK VINA RESULT:    -3.415     10.712     12.454
REMARK INTER + INTRA:          -4.574
REMARK INTER:                  -4.478
REMARK INTRA:                  -0.096
REMARK UNBOUND:                -0.161
REMARK SMILES CCCCCCC(=O)[O-]
REMARK SMILES IDX 5 1 6 2 7 3 8 4 9 5 4 6 3 7 2 8 1 9
REMARK H PARENT
REMARK Flexibility Score: inf
ROOT
ATOM      1  C   UNL     1       1.900 -29.470  39.319  1.00  0.00     0.006 C 
ENDROOT
BRANCH   1   2
ATOM      2  C   UNL     1       2.793 -30.691  39.057  1.00  0.00     0.053 C 
BRANCH   2   3
ATOM      3  C   UNL     1       1.963 -31.865  38.645  1.00  0.00     0.041 C 
ATOM      4  O   UNL     1       2.067 -32.339  37.482  1.00  0.00    -0.550 OA
ATOM      5  O   UNL     1       1.036 -32.406  39.527  1.00  0.00    -0.550 OA
ENDBRANCH   2   3
ENDBRANCH   1   2
BRANCH   1   6
ATOM      6  C   UNL     1       2.709 -28.195  39.608  1.00  0.00     0.000 C 
BRANCH   6   7
ATOM      7  C   UNL     1       2.026 -27.285  40.643  1.00  0.00    -0.000 C 
BRANCH   7   8
ATOM      8  C   UNL     1       2.899 -26.084  41.036  1.00  0.00    -0.003 C 
ATOM      9  C   UNL     1       4.115 -26.481  41.871  1.00  0.00     0.004 C 
ENDBRANCH   7   8
ENDBRANCH   6   7
ENDBRANCH   1   6
TORSDOF 5
ENDMDL
MODEL 3
REMARK VINA RESULT:    -3.410      1.279      1.688
REMARK INTER + INTRA:          -4.568
REMARK INTER:                  -4.451
REMARK INTRA:                  -0.116
REMARK UNBOUND:                -0.161
REMARK SMILES CCCCCCC(=O)[O-]
REMARK SMILES IDX 5 1 6 2 7 3 8 4 9 5 4 6 3 7 2 8 1 9
REMARK H PARENT
REMARK Flexibility Score: inf
ROOT
ATOM      1  C   UNL     1      13.790 -22.095  39.040  1.00  0.00     0.006 C 
ENDROOT
BRANCH   1   2
ATOM      2  C   UNL     1      13.712 -21.052  37.917  1.00  0.00     0.053 C 
BRANCH   2   3
ATOM      3  C   UNL     1      14.475 -21.519  36.718  1.00  0.00     0.041 C 
ATOM      4  O   UNL     1      13.885 -21.694  35.618  1.00  0.00    -0.550 OA
ATOM      5  O   UNL     1      15.829 -21.811  36.825  1.00  0.00    -0.550 OA
ENDBRANCH   2   3
ENDBRANCH   1   2
BRANCH   1   6
ATOM      6  C   UNL     1      12.411 -22.439  39.627  1.00  0.00     0.000 C 
BRANCH   6   7
ATOM      7  C   UNL     1      12.140 -21.719  40.958  1.00  0.00    -0.000 C 
BRANCH   7   8
ATOM      8  C   UNL     1      10.947 -22.319  41.718  1.00  0.00    -0.003 C 
ATOM      9  C   UNL     1       9.820 -22.773  40.791  1.00  0.00     0.004 C 
ENDBRANCH   7   8
ENDBRANCH   6   7
ENDBRANCH   1   6
TORSDOF 5
ENDMDL
MODEL 4
REMARK VINA RESULT:    -3.307      2.368      4.129
REMARK INTER + INTRA:          -4.435
REMARK INTER:                  -4.175
REMARK INTRA:                  -0.260
REMARK UNBOUND:                -0.161
REMARK SMILES CCCCCCC(=O)[O-]
REMARK SMILES IDX 5 1 6 2 7 3 8 4 9 5 4 6 3 7 2 8 1 9
REMARK H PARENT
REMARK Flexibility Score: inf
ROOT
ATOM      1  C   UNL     1      10.038 -22.612  40.791  1.00  0.00     0.006 C 
ENDROOT
BRANCH   1   2
ATOM      2  C   UNL     1       9.445 -24.015  40.599  1.00  0.00     0.053 C 
BRANCH   2   3
ATOM      3  C   UNL     1       9.843 -24.572  39.268  1.00  0.00     0.041 C 
ATOM      4  O   UNL     1      11.061 -24.707  38.975  1.00  0.00    -0.550 OA
ATOM      5  O   UNL     1       8.870 -24.894  38.331  1.00  0.00    -0.550 OA
ENDBRANCH   2   3
ENDBRANCH   1   2
BRANCH   1   6
ATOM      6  C   UNL     1      11.054 -22.550  41.943  1.00  0.00     0.000 C 
BRANCH   6   7
ATOM      7  C   UNL     1      12.257 -21.648  41.621  1.00  0.00    -0.000 C 
BRANCH   7   8
ATOM      8  C   UNL     1      12.658 -21.709  40.139  1.00  0.00    -0.003 C 
ATOM      9  C   UNL     1      13.489 -20.505  39.698  1.00  0.00     0.004 C 
ENDBRANCH   7   8
ENDBRANCH   6   7
ENDBRANCH   1   6
TORSDOF 5
ENDMDL
MODEL 5
REMARK VINA RESULT:    -3.306      2.909      4.003
REMARK INTER + INTRA:          -4.434
REMARK INTER:                  -4.174
REMARK INTRA:                  -0.260
REMARK UNBOUND:                -0.161
REMARK SMILES CCCCCCC(=O)[O-]
REMARK SMILES IDX 5 1 6 2 7 3 8 4 9 5 4 6 3 7 2 8 1 9
REMARK H PARENT
REMARK Flexibility Score: inf
ROOT
ATOM      1  C   UNL     1       9.939 -22.648  40.918  1.00  0.00     0.006 C 
ENDROOT
BRANCH   1   2
ATOM      2  C   UNL     1      11.066 -22.612  41.959  1.00  0.00     0.053 C 
BRANCH   2   3
ATOM      3  C   UNL     1      12.158 -21.692  41.515  1.00  0.00     0.041 C 
ATOM      4  O   UNL     1      12.410 -21.553  40.288  1.00  0.00    -0.550 OA
ATOM      5  O   UNL     1      12.932 -21.026  42.456  1.00  0.00    -0.550 OA
ENDBRANCH   2   3
ENDBRANCH   1   2
BRANCH   1   6
ATOM      6  C   UNL     1       9.573 -24.078  40.489  1.00  0.00     0.000 C 
BRANCH   6   7
ATOM      7  C   UNL     1      10.471 -25.140  41.145  1.00  0.00    -0.000 C 
BRANCH   7   8
ATOM      8  C   UNL     1       9.667 -26.314  41.723  1.00  0.00    -0.003 C 
ATOM      9  C   UNL     1       8.229 -26.360  41.209  1.00  0.00     0.004 C 
ENDBRANCH   7   8
ENDBRANCH   6   7
ENDBRANCH   1   6
TORSDOF 5
ENDMDL
MODEL 6
REMARK VINA RESULT:    -3.245      4.538      6.231
REMARK INTER + INTRA:          -4.354
REMARK INTER:                  -4.228
REMARK INTRA:                  -0.126
REMARK UNBOUND:                -0.161
REMARK SMILES CCCCCCC(=O)[O-]
REMARK SMILES IDX 5 1 6 2 7 3 8 4 9 5 4 6 3 7 2 8 1 9
REMARK H PARENT
REMARK Flexibility Score: inf
ROOT
ATOM      1  C   UNL     1       8.811 -25.442  40.964  1.00  0.00     0.006 C 
ENDROOT
BRANCH   1   2
ATOM      2  C   UNL     1       9.409 -26.631  41.728  1.00  0.00     0.053 C 
BRANCH   2   3
ATOM      3  C   UNL     1       8.494 -27.812  41.654  1.00  0.00     0.041 C 
ATOM      4  O   UNL     1       7.727 -27.960  40.666  1.00  0.00    -0.550 OA
ATOM      5  O   UNL     1       8.450 -28.724  42.701  1.00  0.00    -0.550 OA
ENDBRANCH   2   3
ENDBRANCH   1   2
BRANCH   1   6
ATOM      6  C   UNL     1       9.885 -24.517  40.370  1.00  0.00     0.000 C 
BRANCH   6   7
ATOM      7  C   UNL     1       9.665 -23.041  40.741  1.00  0.00    -0.000 C 
BRANCH   7   8
ATOM      8  C   UNL     1      10.778 -22.489  41.645  1.00  0.00    -0.003 C 
ATOM      9  C   UNL     1      11.949 -21.905  40.855  1.00  0.00     0.004 C 
ENDBRANCH   7   8
ENDBRANCH   6   7
ENDBRANCH   1   6
TORSDOF 5
ENDMDL
MODEL 7
REMARK VINA RESULT:    -3.234      3.790      4.688
REMARK INTER + INTRA:          -4.340
REMARK INTER:                  -4.190
REMARK INTRA:                  -0.150
REMARK UNBOUND:                -0.161
REMARK SMILES CCCCCCC(=O)[O-]
REMARK SMILES IDX 5 1 6 2 7 3 8 4 9 5 4 6 3 7 2 8 1 9
REMARK H PARENT
REMARK Flexibility Score: inf
ROOT
ATOM      1  C   UNL     1      11.335 -22.082  41.474  1.00  0.00     0.006 C 
ENDROOT
BRANCH   1   2
ATOM      2  C   UNL     1      11.572 -22.594  42.901  1.00  0.00     0.053 C 
BRANCH   2   3
ATOM      3  C   UNL     1      12.795 -21.961  43.485  1.00  0.00     0.041 C 
ATOM      4  O   UNL     1      13.213 -22.316  44.620  1.00  0.00    -0.550 OA
ATOM      5  O   UNL     1      13.447 -20.944  42.801  1.00  0.00    -0.550 OA
ENDBRANCH   2   3
ENDBRANCH   1   2
BRANCH   1   6
ATOM      6  C   UNL     1      10.051 -22.649  40.846  1.00  0.00     0.000 C 
BRANCH   6   7
ATOM      7  C   UNL     1      10.311 -23.912  40.009  1.00  0.00    -0.000 C 
BRANCH   7   8
ATOM      8  C   UNL     1      10.140 -25.203  40.825  1.00  0.00    -0.003 C 
ATOM      9  C   UNL     1       8.684 -25.654  40.925  1.00  0.00     0.004 C 
ENDBRANCH   7   8
ENDBRANCH   6   7
ENDBRANCH   1   6
TORSDOF 5
ENDMDL
MODEL 8
REMARK VINA RESULT:    -3.230      1.295      2.258
REMARK INTER + INTRA:          -4.335
REMARK INTER:                  -4.131
REMARK INTRA:                  -0.203
REMARK UNBOUND:                -0.161
REMARK SMILES CCCCCCC(=O)[O-]
REMARK SMILES IDX 5 1 6 2 7 3 8 4 9 5 4 6 3 7 2 8 1 9
REMARK H PARENT
REMARK Flexibility Score: inf
ROOT
ATOM      1  C   UNL     1      13.043 -22.669  39.657  1.00  0.00     0.006 C 
ENDROOT
BRANCH   1   2
ATOM      2  C   UNL     1      13.507 -21.749  38.519  1.00  0.00     0.053 C 
BRANCH   2   3
ATOM      3  C   UNL     1      13.827 -22.551  37.298  1.00  0.00     0.041 C 
ATOM      4  O   UNL     1      14.112 -21.972  36.215  1.00  0.00    -0.550 OA
ATOM      5  O   UNL     1      13.761 -23.938  37.339  1.00  0.00    -0.550 OA
ENDBRANCH   2   3
ENDBRANCH   1   2
BRANCH   1   6
ATOM      6  C   UNL     1      11.644 -22.307  40.180  1.00  0.00     0.000 C 
BRANCH   6   7
ATOM      7  C   UNL     1      11.617 -22.107  41.705  1.00  0.00    -0.000 C 
BRANCH   7   8
ATOM      8  C   UNL     1      12.886 -21.421  42.230  1.00  0.00    -0.003 C 
ATOM      9  C   UNL     1      13.225 -21.817  43.667  1.00  0.00     0.004 C 
ENDBRANCH   7   8
ENDBRANCH   6   7
ENDBRANCH   1   6
TORSDOF 5
ENDMDL
MODEL 9
REMARK VINA RESULT:    -3.212      4.484      5.668
REMARK INTER + INTRA:          -4.313
REMARK INTER:                  -4.226
REMARK INTRA:                  -0.087
REMARK UNBOUND:                -0.161
REMARK SMILES CCCCCCC(=O)[O-]
REMARK SMILES IDX 5 1 6 2 7 3 8 4 9 5 4 6 3 7 2 8 1 9
REMARK H PARENT
REMARK Flexibility Score: inf
ROOT
ATOM      1  C   UNL     1      14.213 -19.441  38.072  1.00  0.00     0.006 C 
ENDROOT
BRANCH   1   2
ATOM      2  C   UNL     1      14.240 -19.231  36.552  1.00  0.00     0.053 C 
BRANCH   2   3
ATOM      3  C   UNL     1      14.366 -20.544  35.846  1.00  0.00     0.041 C 
ATOM      4  O   UNL     1      13.467 -20.925  35.050  1.00  0.00    -0.550 OA
ATOM      5  O   UNL     1      15.452 -21.371  36.104  1.00  0.00    -0.550 OA
ENDBRANCH   2   3
ENDBRANCH   1   2
BRANCH   1   6
ATOM      6  C   UNL     1      15.075 -18.417  38.827  1.00  0.00     0.000 C 
BRANCH   6   7
ATOM      7  C   UNL     1      14.230 -17.380  39.586  1.00  0.00    -0.000 C 
BRANCH   7   8
ATOM      8  C   UNL     1      14.913 -16.894  40.874  1.00  0.00    -0.003 C 
ATOM      9  C   UNL     1      15.448 -15.467  40.761  1.00  0.00     0.004 C 
ENDBRANCH   7   8
ENDBRANCH   6   7
ENDBRANCH   1   6
TORSDOF 5
ENDMDL
