MODEL 1
REMARK VINA RESULT:    -3.747      0.000      0.000
REMARK INTER + INTRA:          -3.747
REMARK INTER:                  -3.747
REMARK INTRA:                   0.000
REMARK UNBOUND:                 0.000
REMARK SMILES CC1=CC[C@]23C[C@H]1C(C)(C)[C@H]2CC[C@H]3C
REMARK SMILES IDX 15 1 14 2 13 3 12 4 11 5 5 6 4 7 3 8 2 9 7 10 6 11 8 12 9 13
REMARK SMILES IDX 10 14 1 15
REMARK H PARENT
REMARK Flexibility Score: inf
ROOT
ATOM      1  C   UNL     1     145.200 142.611 134.125  1.00  0.00     0.008 C 
ATOM      2  C   UNL     1     146.137 143.473 133.267  1.00  0.00    -0.007 C 
ATOM      3  C   UNL     1     147.156 144.238 134.103  1.00  0.00     0.004 C 
ATOM      4  C   UNL     1     147.636 145.374 133.206  1.00  0.00     0.005 C 
ATOM      5  C   UNL     1     146.498 145.660 132.199  1.00  0.00     0.002 C 
ATOM      6  C   UNL     1     145.440 144.552 132.415  1.00  0.00    -0.020 C 
ATOM      7  C   UNL     1     144.917 144.012 131.051  1.00  0.00     0.035 C 
ATOM      8  C   UNL     1     144.090 145.055 130.312  1.00  0.00    -0.027 C 
ATOM      9  C   UNL     1     143.706 146.213 130.907  1.00  0.00    -0.074 C 
ATOM     10  C   UNL     1     144.223 146.564 132.308  1.00  0.00     0.021 C 
ATOM     11  C   UNL     1     144.276 145.272 133.111  1.00  0.00     0.016 C 
ATOM     12  C   UNL     1     145.713 147.020 132.293  1.00  0.00    -0.025 C 
ATOM     13  C   UNL     1     146.043 147.936 131.087  1.00  0.00     0.012 C 
ATOM     14  C   UNL     1     146.001 147.839 133.581  1.00  0.00     0.012 C 
ATOM     15  C   UNL     1     142.802 147.162 130.173  1.00  0.00     0.039 C 
ENDROOT
TORSDOF 0
ENDMDL
MODEL 2
REMARK VINA RESULT:    -3.636      1.451      4.017
REMARK INTER + INTRA:          -3.636
REMARK INTER:                  -3.636
REMARK INTRA:                   0.000
REMARK UNBOUND:                 0.000
REMARK SMILES CC1=CC[C@]23C[C@H]1C(C)(C)[C@H]2CC[C@H]3C
REMARK SMILES IDX 15 1 14 2 13 3 12 4 11 5 5 6 4 7 3 8 2 9 7 10 6 11 8 12 9 13
REMARK SMILES IDX 10 14 1 15
REMARK H PARENT
REMARK Flexibility Score: inf
ROOT
ATOM      1  C   UNL     1     145.435 148.163 134.125  1.00  0.00     0.008 C 
ATOM      2  C   UNL     1     144.512 147.278 133.273  1.00  0.00    -0.007 C 
ATOM      3  C   UNL     1     143.523 146.483 134.117  1.00  0.00     0.004 C 
ATOM      4  C   UNL     1     143.064 145.338 133.221  1.00  0.00     0.005 C 
ATOM      5  C   UNL     1     144.199 145.087 132.200  1.00  0.00     0.002 C 
ATOM      6  C   UNL     1     145.228 146.223 132.409  1.00  0.00    -0.020 C 
ATOM      7  C   UNL     1     145.722 146.782 131.042  1.00  0.00     0.035 C 
ATOM      8  C   UNL     1     146.568 145.765 130.290  1.00  0.00    -0.027 C 
ATOM      9  C   UNL     1     146.990 144.616 130.875  1.00  0.00    -0.074 C 
ATOM     10  C   UNL     1     146.499 144.245 132.280  1.00  0.00     0.021 C 
ATOM     11  C   UNL     1     146.420 145.532 133.090  1.00  0.00     0.016 C 
ATOM     12  C   UNL     1     145.021 143.748 132.280  1.00  0.00    -0.025 C 
ATOM     13  C   UNL     1     144.704 142.829 131.074  1.00  0.00     0.012 C 
ATOM     14  C   UNL     1     144.770 142.917 133.567  1.00  0.00     0.012 C 
ATOM     15  C   UNL     1     147.912 143.694 130.128  1.00  0.00     0.039 C 
ENDROOT
TORSDOF 0
ENDMDL
MODEL 3
REMARK VINA RESULT:    -3.331      1.486      2.865
REMARK INTER + INTRA:          -3.331
REMARK INTER:                  -3.331
REMARK INTRA:                   0.000
REMARK UNBOUND:                 0.000
REMARK SMILES CC1=CC[C@]23C[C@H]1C(C)(C)[C@H]2CC[C@H]3C
REMARK SMILES IDX 15 1 14 2 13 3 12 4 11 5 5 6 4 7 3 8 2 9 7 10 6 11 8 12 9 13
REMARK SMILES IDX 10 14 1 15
REMARK H PARENT
REMARK Flexibility Score: inf
ROOT
ATOM      1  C   UNL     1     143.876 142.695 130.163  1.00  0.00     0.008 C 
ATOM      2  C   UNL     1     144.518 143.102 131.498  1.00  0.00    -0.007 C 
ATOM      3  C   UNL     1     143.514 143.134 132.644  1.00  0.00     0.004 C 
ATOM      4  C   UNL     1     144.159 144.006 133.715  1.00  0.00     0.005 C 
ATOM      5  C   UNL     1     145.134 144.961 132.988  1.00  0.00     0.002 C 
ATOM      6  C   UNL     1     145.173 144.497 131.512  1.00  0.00    -0.020 C 
ATOM      7  C   UNL     1     146.633 144.495 130.971  1.00  0.00     0.035 C 
ATOM      8  C   UNL     1     147.188 145.906 130.842  1.00  0.00    -0.027 C 
ATOM      9  C   UNL     1     146.398 147.000 130.984  1.00  0.00    -0.074 C 
ATOM     10  C   UNL     1     144.937 146.838 131.425  1.00  0.00     0.021 C 
ATOM     11  C   UNL     1     144.395 145.584 130.754  1.00  0.00     0.016 C 
ATOM     12  C   UNL     1     144.809 146.499 132.941  1.00  0.00    -0.025 C 
ATOM     13  C   UNL     1     145.805 147.303 133.816  1.00  0.00     0.012 C 
ATOM     14  C   UNL     1     143.379 146.868 133.420  1.00  0.00     0.012 C 
ATOM     15  C   UNL     1     146.969 148.368 130.742  1.00  0.00     0.039 C 
ENDROOT
TORSDOF 0
ENDMDL
MODEL 4
REMARK VINA RESULT:    -3.259      1.133      3.663
REMARK INTER + INTRA:          -3.259
REMARK INTER:                  -3.259
REMARK INTRA:                   0.000
REMARK UNBOUND:                 0.000
REMARK SMILES CC1=CC[C@]23C[C@H]1C(C)(C)[C@H]2CC[C@H]3C
REMARK SMILES IDX 15 1 14 2 13 3 12 4 11 5 5 6 4 7 3 8 2 9 7 10 6 11 8 12 9 13
REMARK SMILES IDX 10 14 1 15
REMARK H PARENT
REMARK Flexibility Score: inf
ROOT
ATOM      1  C   UNL     1     146.875 148.000 130.129  1.00  0.00     0.008 C 
ATOM      2  C   UNL     1     146.199 147.627 131.457  1.00  0.00    -0.007 C 
ATOM      3  C   UNL     1     147.178 147.606 132.625  1.00  0.00     0.004 C 
ATOM      4  C   UNL     1     146.500 146.763 133.699  1.00  0.00     0.005 C 
ATOM      5  C   UNL     1     145.529 145.805 132.969  1.00  0.00     0.002 C 
ATOM      6  C   UNL     1     145.528 146.240 131.484  1.00  0.00    -0.020 C 
ATOM      7  C   UNL     1     144.079 146.249 130.911  1.00  0.00     0.035 C 
ATOM      8  C   UNL     1     143.509 144.843 130.797  1.00  0.00    -0.027 C 
ATOM      9  C   UNL     1     144.283 143.743 130.978  1.00  0.00    -0.074 C 
ATOM     10  C   UNL     1     145.736 143.896 131.447  1.00  0.00     0.021 C 
ATOM     11  C   UNL     1     146.308 145.130 130.765  1.00  0.00     0.016 C 
ATOM     12  C   UNL     1     145.835 144.263 132.959  1.00  0.00    -0.025 C 
ATOM     13  C   UNL     1     144.812 143.488 133.827  1.00  0.00     0.012 C 
ATOM     14  C   UNL     1     147.250 143.886 133.476  1.00  0.00     0.012 C 
ATOM     15  C   UNL     1     143.701 142.377 130.750  1.00  0.00     0.039 C 
ENDROOT
TORSDOF 0
ENDMDL
MODEL 5
REMARK VINA RESULT:    -3.045      1.173      2.802
REMARK INTER + INTRA:          -3.045
REMARK INTER:                  -3.045
REMARK INTRA:                   0.000
REMARK UNBOUND:                 0.000
REMARK SMILES CC1=CC[C@]23C[C@H]1C(C)(C)[C@H]2CC[C@H]3C
REMARK SMILES IDX 15 1 14 2 13 3 12 4 11 5 5 6 4 7 3 8 2 9 7 10 6 11 8 12 9 13
REMARK SMILES IDX 10 14 1 15
REMARK H PARENT
REMARK Flexibility Score: inf
ROOT
ATOM      1  C   UNL     1     148.107 145.047 134.125  1.00  0.00     0.008 C 
ATOM      2  C   UNL     1     147.318 145.993 133.206  1.00  0.00    -0.007 C 
ATOM      3  C   UNL     1     146.597 147.091 133.978  1.00  0.00     0.004 C 
ATOM      4  C   UNL     1     145.510 147.595 133.036  1.00  0.00     0.005 C 
ATOM      5  C   UNL     1     145.178 146.430 132.074  1.00  0.00     0.002 C 
ATOM      6  C   UNL     1     146.218 145.321 132.362  1.00  0.00    -0.020 C 
ATOM      7  C   UNL     1     146.753 144.705 131.036  1.00  0.00     0.035 C 
ATOM      8  C   UNL     1     145.679 143.907 130.311  1.00  0.00    -0.027 C 
ATOM      9  C   UNL     1     144.489 143.618 130.895  1.00  0.00    -0.074 C 
ATOM     10  C   UNL     1     144.141 144.218 132.264  1.00  0.00     0.021 C 
ATOM     11  C   UNL     1     145.417 144.233 133.093  1.00  0.00     0.016 C 
ATOM     12  C   UNL     1     143.773 145.730 132.172  1.00  0.00    -0.025 C 
ATOM     13  C   UNL     1     142.903 146.056 130.933  1.00  0.00     0.012 C 
ATOM     14  C   UNL     1     142.946 146.124 133.427  1.00  0.00     0.012 C 
ATOM     15  C   UNL     1     143.503 142.737 130.182  1.00  0.00     0.039 C 
ENDROOT
TORSDOF 0
ENDMDL
MODEL 6
REMARK VINA RESULT:    -2.941      1.221      2.928
REMARK INTER + INTRA:          -2.941
REMARK INTER:                  -2.941
REMARK INTRA:                   0.000
REMARK UNBOUND:                 0.000
REMARK SMILES CC1=CC[C@]23C[C@H]1C(C)(C)[C@H]2CC[C@H]3C
REMARK SMILES IDX 15 1 14 2 13 3 12 4 11 5 5 6 4 7 3 8 2 9 7 10 6 11 8 12 9 13
REMARK SMILES IDX 10 14 1 15
REMARK H PARENT
REMARK Flexibility Score: inf
ROOT
ATOM      1  C   UNL     1     142.544 145.754 134.125  1.00  0.00     0.008 C 
ATOM      2  C   UNL     1     143.314 144.804 133.194  1.00  0.00    -0.007 C 
ATOM      3  C   UNL     1     144.026 143.691 133.954  1.00  0.00     0.004 C 
ATOM      4  C   UNL     1     145.100 143.180 133.001  1.00  0.00     0.005 C 
ATOM      5  C   UNL     1     145.440 144.347 132.044  1.00  0.00     0.002 C 
ATOM      6  C   UNL     1     144.417 145.468 132.347  1.00  0.00    -0.020 C 
ATOM      7  C   UNL     1     143.881 146.099 131.029  1.00  0.00     0.035 C 
ATOM      8  C   UNL     1     144.960 146.888 130.301  1.00  0.00    -0.027 C 
ATOM      9  C   UNL     1     146.158 147.157 130.879  1.00  0.00    -0.074 C 
ATOM     10  C   UNL     1     146.508 146.544 132.241  1.00  0.00     0.021 C 
ATOM     11  C   UNL     1     145.237 146.540 133.080  1.00  0.00     0.016 C 
ATOM     12  C   UNL     1     146.855 145.028 132.137  1.00  0.00    -0.025 C 
ATOM     13  C   UNL     1     147.712 144.699 130.889  1.00  0.00     0.012 C 
ATOM     14  C   UNL     1     147.685 144.615 133.383  1.00  0.00     0.012 C 
ATOM     15  C   UNL     1     147.150 148.030 130.165  1.00  0.00     0.039 C 
ENDROOT
TORSDOF 0
ENDMDL
MODEL 7
REMARK VINA RESULT:    -2.868      1.369      2.934
REMARK INTER + INTRA:          -2.868
REMARK INTER:                  -2.868
REMARK INTRA:                   0.000
REMARK UNBOUND:                 0.000
REMARK SMILES CC1=CC[C@]23C[C@H]1C(C)(C)[C@H]2CC[C@H]3C
REMARK SMILES IDX 15 1 14 2 13 3 12 4 11 5 5 6 4 7 3 8 2 9 7 10 6 11 8 12 9 13
REMARK SMILES IDX 10 14 1 15
REMARK H PARENT
REMARK Flexibility Score: inf
ROOT
ATOM      1  C   UNL     1     148.203 143.858 130.375  1.00  0.00     0.008 C 
ATOM      2  C   UNL     1     147.584 144.290 131.713  1.00  0.00    -0.007 C 
ATOM      3  C   UNL     1     147.316 143.111 132.640  1.00  0.00     0.004 C 
ATOM      4  C   UNL     1     146.287 143.618 133.644  1.00  0.00     0.005 C 
ATOM      5  C   UNL     1     145.510 144.760 132.949  1.00  0.00     0.002 C 
ATOM      6  C   UNL     1     146.231 145.019 131.605  1.00  0.00    -0.020 C 
ATOM      7  C   UNL     1     146.377 146.546 131.339  1.00  0.00     0.035 C 
ATOM      8  C   UNL     1     145.031 147.204 131.072  1.00  0.00    -0.027 C 
ATOM      9  C   UNL     1     143.905 146.471 130.883  1.00  0.00    -0.074 C 
ATOM     10  C   UNL     1     143.938 144.949 131.079  1.00  0.00     0.021 C 
ATOM     11  C   UNL     1     145.273 144.450 130.547  1.00  0.00     0.016 C 
ATOM     12  C   UNL     1     143.995 144.546 132.583  1.00  0.00    -0.025 C 
ATOM     13  C   UNL     1     143.080 145.428 133.470  1.00  0.00     0.012 C 
ATOM     14  C   UNL     1     143.500 143.082 132.731  1.00  0.00     0.012 C 
ATOM     15  C   UNL     1     142.621 147.159 130.515  1.00  0.00     0.039 C 
ENDROOT
TORSDOF 0
ENDMDL
MODEL 8
REMARK VINA RESULT:    -2.847      1.487      3.688
REMARK INTER + INTRA:          -2.847
REMARK INTER:                  -2.847
REMARK INTRA:                   0.000
REMARK UNBOUND:                 0.000
REMARK SMILES CC1=CC[C@]23C[C@H]1C(C)(C)[C@H]2CC[C@H]3C
REMARK SMILES IDX 15 1 14 2 13 3 12 4 11 5 5 6 4 7 3 8 2 9 7 10 6 11 8 12 9 13
REMARK SMILES IDX 10 14 1 15
REMARK H PARENT
REMARK Flexibility Score: inf
ROOT
ATOM      1  C   UNL     1     142.506 146.892 130.389  1.00  0.00     0.008 C 
ATOM      2  C   UNL     1     143.131 146.500 131.736  1.00  0.00    -0.007 C 
ATOM      3  C   UNL     1     143.415 147.707 132.622  1.00  0.00     0.004 C 
ATOM      4  C   UNL     1     144.447 147.225 133.635  1.00  0.00     0.005 C 
ATOM      5  C   UNL     1     145.210 146.054 132.973  1.00  0.00     0.002 C 
ATOM      6  C   UNL     1     144.477 145.756 131.643  1.00  0.00    -0.020 C 
ATOM      7  C   UNL     1     144.317 144.222 131.430  1.00  0.00     0.035 C 
ATOM      8  C   UNL     1     145.656 143.545 131.176  1.00  0.00    -0.027 C 
ATOM      9  C   UNL     1     146.787 144.262 130.955  1.00  0.00    -0.074 C 
ATOM     10  C   UNL     1     146.767 145.789 131.100  1.00  0.00     0.021 C 
ATOM     11  C   UNL     1     145.432 146.282 130.560  1.00  0.00     0.016 C 
ATOM     12  C   UNL     1     146.724 146.243 132.590  1.00  0.00    -0.025 C 
ATOM     13  C   UNL     1     147.638 145.384 133.500  1.00  0.00     0.012 C 
ATOM     14  C   UNL     1     147.232 147.707 132.685  1.00  0.00     0.012 C 
ATOM     15  C   UNL     1     148.062 143.551 130.602  1.00  0.00     0.039 C 
ENDROOT
TORSDOF 0
ENDMDL
MODEL 9
REMARK VINA RESULT:    -1.937      1.095      4.070
REMARK INTER + INTRA:          -1.937
REMARK INTER:                  -1.937
REMARK INTRA:                   0.000
REMARK UNBOUND:                 0.000
REMARK SMILES CC1=CC[C@]23C[C@H]1C(C)(C)[C@H]2CC[C@H]3C
REMARK SMILES IDX 15 1 14 2 13 3 12 4 11 5 5 6 4 7 3 8 2 9 7 10 6 11 8 12 9 13
REMARK SMILES IDX 10 14 1 15
REMARK H PARENT
REMARK Flexibility Score: inf
ROOT
ATOM      1  C   UNL     1     142.994 146.847 130.415  1.00  0.00     0.008 C 
ATOM      2  C   UNL     1     144.247 147.020 131.287  1.00  0.00    -0.007 C 
ATOM      3  C   UNL     1     145.477 147.404 130.472  1.00  0.00     0.004 C 
ATOM      4  C   UNL     1     146.668 147.046 131.354  1.00  0.00     0.005 C 
ATOM      5  C   UNL     1     146.198 145.918 132.304  1.00  0.00     0.002 C 
ATOM      6  C   UNL     1     144.675 145.767 132.075  1.00  0.00    -0.020 C 
ATOM      7  C   UNL     1     143.925 145.611 133.431  1.00  0.00     0.035 C 
ATOM      8  C   UNL     1     144.246 144.283 134.103  1.00  0.00    -0.027 C 
ATOM      9  C   UNL     1     144.931 143.305 133.459  1.00  0.00    -0.074 C 
ATOM     10  C   UNL     1     145.527 143.573 132.071  1.00  0.00     0.021 C 
ATOM     11  C   UNL     1     144.538 144.443 131.309  1.00  0.00     0.016 C 
ATOM     12  C   UNL     1     146.798 144.474 132.136  1.00  0.00    -0.025 C 
ATOM     13  C   UNL     1     147.721 144.115 133.327  1.00  0.00     0.012 C 
ATOM     14  C   UNL     1     147.626 144.270 130.838  1.00  0.00     0.012 C 
ATOM     15  C   UNL     1     145.130 141.973 134.125  1.00  0.00     0.039 C 
ENDROOT
TORSDOF 0
ENDMDL
