MODEL 1
REMARK VINA RESULT:    -2.308      0.000      0.000
REMARK INTER + INTRA:          -2.308
REMARK INTER:                  -2.308
REMARK INTRA:                   0.000
REMARK UNBOUND:                 0.000
REMARK SMILES CC(=O)[O-]
REMARK SMILES IDX 1 1 2 2 3 3 4 4
REMARK H PARENT
REMARK Flexibility Score: inf
ROOT
ATOM      1  C   UNL     1      -7.001 -11.041  15.569  1.00  0.00     0.063 C 
ATOM      2  C   UNL     1      -6.318 -10.982  14.245  1.00  0.00     0.038 C 
ATOM      3  O   UNL     1      -5.935 -12.042  13.685  1.00  0.00    -0.550 OA
ATOM      4  O   UNL     1      -6.052  -9.754  13.654  1.00  0.00    -0.550 OA
ENDROOT
TORSDOF 0
ENDMDL
MODEL 2
REMARK VINA RESULT:    -2.269      9.534      9.829
REMARK INTER + INTRA:          -2.269
REMARK INTER:                  -2.269
REMARK INTRA:                   0.000
REMARK UNBOUND:                 0.000
REMARK SMILES CC(=O)[O-]
REMARK SMILES IDX 1 1 2 2 3 3 4 4
REMARK H PARENT
REMARK Flexibility Score: inf
ROOT
ATOM      1  C   UNL     1     -10.914  -1.973  10.650  1.00  0.00     0.063 C 
ATOM      2  C   UNL     1      -9.527  -2.520  10.684  1.00  0.00     0.038 C 
ATOM      3  O   UNL     1      -9.033  -3.052   9.655  1.00  0.00    -0.550 OA
ATOM      4  O   UNL     1      -8.798  -2.494  11.865  1.00  0.00    -0.550 OA
ENDROOT
TORSDOF 0
ENDMDL
MODEL 3
REMARK VINA RESULT:    -2.263      1.731      1.731
REMARK INTER + INTRA:          -2.263
REMARK INTER:                  -2.263
REMARK INTRA:                   0.000
REMARK UNBOUND:                 0.000
REMARK SMILES CC(=O)[O-]
REMARK SMILES IDX 1 1 2 2 3 3 4 4
REMARK H PARENT
REMARK Flexibility Score: inf
ROOT
ATOM      1  C   UNL     1      -8.548 -10.467  14.046  1.00  0.00     0.063 C 
ATOM      2  C   UNL     1      -7.142 -10.520  14.539  1.00  0.00     0.038 C 
ATOM      3  O   UNL     1      -6.887 -11.015  15.668  1.00  0.00    -0.550 OA
ATOM      4  O   UNL     1      -6.116  -9.973  13.779  1.00  0.00    -0.550 OA
ENDROOT
TORSDOF 0
ENDMDL
MODEL 4
REMARK VINA RESULT:    -2.251      1.066      1.593
REMARK INTER + INTRA:          -2.251
REMARK INTER:                  -2.251
REMARK INTRA:                   0.000
REMARK UNBOUND:                 0.000
REMARK SMILES CC(=O)[O-]
REMARK SMILES IDX 1 1 2 2 3 3 4 4
REMARK H PARENT
REMARK Flexibility Score: inf
ROOT
ATOM      1  C   UNL     1      -7.025 -10.952  15.209  1.00  0.00     0.063 C 
ATOM      2  C   UNL     1      -6.448 -11.562  13.976  1.00  0.00     0.038 C 
ATOM      3  O   UNL     1      -5.270 -11.287  13.627  1.00  0.00    -0.550 OA
ATOM      4  O   UNL     1      -7.227 -12.393  13.181  1.00  0.00    -0.550 OA
ENDROOT
TORSDOF 0
ENDMDL
MODEL 5
REMARK VINA RESULT:    -2.250      1.662      2.034
REMARK INTER + INTRA:          -2.250
REMARK INTER:                  -2.250
REMARK INTRA:                   0.000
REMARK UNBOUND:                 0.000
REMARK SMILES CC(=O)[O-]
REMARK SMILES IDX 1 1 2 2 3 3 4 4
REMARK H PARENT
REMARK Flexibility Score: inf
ROOT
ATOM      1  C   UNL     1      -8.410 -10.320  13.876  1.00  0.00     0.063 C 
ATOM      2  C   UNL     1      -7.018 -10.439  14.397  1.00  0.00     0.038 C 
ATOM      3  O   UNL     1      -6.053  -9.982  13.731  1.00  0.00    -0.550 OA
ATOM      4  O   UNL     1      -6.777 -11.105  15.593  1.00  0.00    -0.550 OA
ENDROOT
TORSDOF 0
ENDMDL
MODEL 6
REMARK VINA RESULT:    -2.213     10.739     11.075
REMARK INTER + INTRA:          -2.213
REMARK INTER:                  -2.213
REMARK INTRA:                   0.000
REMARK UNBOUND:                 0.000
REMARK SMILES CC(=O)[O-]
REMARK SMILES IDX 1 1 2 2 3 3 4 4
REMARK H PARENT
REMARK Flexibility Score: inf
ROOT
ATOM      1  C   UNL     1     -16.285 -13.690  16.155  1.00  0.00     0.063 C 
ATOM      2  C   UNL     1     -16.888 -13.687  14.791  1.00  0.00     0.038 C 
ATOM      3  O   UNL     1     -16.882 -12.634  14.101  1.00  0.00    -0.550 OA
ATOM      4  O   UNL     1     -17.506 -14.830  14.301  1.00  0.00    -0.550 OA
ENDROOT
TORSDOF 0
ENDMDL
MODEL 7
REMARK VINA RESULT:    -2.193     10.765     10.973
REMARK INTER + INTRA:          -2.193
REMARK INTER:                  -2.193
REMARK INTRA:                   0.000
REMARK UNBOUND:                 0.000
REMARK SMILES CC(=O)[O-]
REMARK SMILES IDX 1 1 2 2 3 3 4 4
REMARK H PARENT
REMARK Flexibility Score: inf
ROOT
ATOM      1  C   UNL     1     -17.507 -14.663  13.873  1.00  0.00     0.063 C 
ATOM      2  C   UNL     1     -16.819 -13.629  14.698  1.00  0.00     0.038 C 
ATOM      3  O   UNL     1     -16.561 -13.856  15.909  1.00  0.00    -0.550 OA
ATOM      4  O   UNL     1     -16.509 -12.392  14.147  1.00  0.00    -0.550 OA
ENDROOT
TORSDOF 0
ENDMDL
MODEL 8
REMARK VINA RESULT:    -2.153     10.079     10.437
REMARK INTER + INTRA:          -2.153
REMARK INTER:                  -2.153
REMARK INTRA:                   0.000
REMARK UNBOUND:                 0.000
REMARK SMILES CC(=O)[O-]
REMARK SMILES IDX 1 1 2 2 3 3 4 4
REMARK H PARENT
REMARK Flexibility Score: inf
ROOT
ATOM      1  C   UNL     1      -9.207  -2.234  11.507  1.00  0.00     0.063 C 
ATOM      2  C   UNL     1     -10.023  -2.151  10.262  1.00  0.00     0.038 C 
ATOM      3  O   UNL     1     -11.262  -1.936  10.333  1.00  0.00    -0.550 OA
ATOM      4  O   UNL     1      -9.430  -2.365   9.025  1.00  0.00    -0.550 OA
ENDROOT
TORSDOF 0
ENDMDL
MODEL 9
REMARK VINA RESULT:    -2.115     16.098     16.391
REMARK INTER + INTRA:          -2.115
REMARK INTER:                  -2.115
REMARK INTRA:                   0.000
REMARK UNBOUND:                 0.000
REMARK SMILES CC(=O)[O-]
REMARK SMILES IDX 1 1 2 2 3 3 4 4
REMARK H PARENT
REMARK Flexibility Score: inf
ROOT
ATOM      1  C   UNL     1     -20.570 -10.156  20.889  1.00  0.00     0.063 C 
ATOM      2  C   UNL     1     -20.639 -11.026  22.098  1.00  0.00     0.038 C 
ATOM      3  O   UNL     1     -21.665 -11.722  22.317  1.00  0.00    -0.550 OA
ATOM      4  O   UNL     1     -19.595 -11.030  23.014  1.00  0.00    -0.550 OA
ENDROOT
TORSDOF 0
ENDMDL
