MODEL 1
REMARK VINA RESULT:    -6.953      0.000      0.000
REMARK INTER + INTRA:          -8.460
REMARK INTER:                  -8.173
REMARK INTRA:                  -0.288
REMARK UNBOUND:                -0.288
REMARK SMILES O=c1cc(-c2ccc(O)c(O)c2)oc2cc(O)cc(O)c12
REMARK SMILES IDX 4 1 3 2 2 3 1 4 21 5 19 6 18 7 16 8 15 9 14 10 13 11 5 12
REMARK SMILES IDX 6 13 7 14 8 15 12 16 10 17 9 18 11 20 20 22 17 24
REMARK H PARENT 9 19 11 21 20 23 17 25
REMARK Flexibility Score: inf
ROOT
ATOM      1  C   UNL     1     128.286 115.769 101.827  1.00  0.00     0.138 A 
ATOM      2  C   UNL     1     128.187 114.546 101.150  1.00  0.00     0.100 A 
ATOM      3  C   UNL     1     129.321 113.993 100.553  1.00  0.00     0.197 A 
ATOM      4  O   UNL     1     129.211 112.868 100.000  1.00  0.00    -0.289 OA
ATOM      5  C   UNL     1     130.553 114.686 100.605  1.00  0.00     0.107 A 
ATOM      6  C   UNL     1     131.768 114.237 100.005  1.00  0.00     0.134 A 
ATOM      7  C   UNL     1     132.949 114.962 100.207  1.00  0.00     0.093 A 
ATOM      8  C   UNL     1     132.948 116.151 100.941  1.00  0.00     0.123 A 
ATOM      9  C   UNL     1     131.758 116.625 101.490  1.00  0.00     0.094 A 
ATOM     10  C   UNL     1     130.570 115.907 101.334  1.00  0.00     0.146 A 
ATOM     11  O   UNL     1     129.462 116.385 101.889  1.00  0.00    -0.456 OA
ENDROOT
BRANCH   1  12
ATOM     12  C   UNL     1     127.112 116.404 102.477  1.00  0.00     0.021 A 
ATOM     13  C   UNL     1     125.923 116.568 101.746  1.00  0.00     0.016 A 
ATOM     14  C   UNL     1     124.806 117.169 102.331  1.00  0.00     0.051 A 
ATOM     15  C   UNL     1     124.860 117.625 103.654  1.00  0.00     0.157 A 
ATOM     16  C   UNL     1     127.164 116.876 103.803  1.00  0.00     0.062 A 
ATOM     17  C   UNL     1     126.047 117.481 104.391  1.00  0.00     0.158 A 
BRANCH  15  18
ATOM     18  O   UNL     1     123.742 118.222 104.235  1.00  0.00    -0.504 OA
ATOM     19  H   UNL     1     123.226 117.770 104.980  1.00  0.00     0.293 HD
ENDBRANCH  15  18
BRANCH  17  20
ATOM     20  O   UNL     1     126.137 117.935 105.706  1.00  0.00    -0.504 OA
ATOM     21  H   UNL     1     125.984 117.324 106.499  1.00  0.00     0.293 HD
ENDBRANCH  17  20
ENDBRANCH   1  12
BRANCH   6  22
ATOM     22  O   UNL     1     131.865 113.106  99.187  1.00  0.00    -0.507 OA
ATOM     23  H   UNL     1     131.737 113.101  98.187  1.00  0.00     0.293 HD
ENDBRANCH   6  22
BRANCH   8  24
ATOM     24  O   UNL     1     134.125 116.874 101.125  1.00  0.00    -0.508 OA
ATOM     25  H   UNL     1     134.277 117.763 100.665  1.00  0.00     0.293 HD
ENDBRANCH   8  24
TORSDOF 5
ENDMDL
MODEL 2
REMARK VINA RESULT:    -6.744      1.765      2.158
REMARK INTER + INTRA:          -8.215
REMARK INTER:                  -7.926
REMARK INTRA:                  -0.289
REMARK UNBOUND:                -0.288
REMARK SMILES O=c1cc(-c2ccc(O)c(O)c2)oc2cc(O)cc(O)c12
REMARK SMILES IDX 4 1 3 2 2 3 1 4 21 5 19 6 18 7 16 8 15 9 14 10 13 11 5 12
REMARK SMILES IDX 6 13 7 14 8 15 12 16 10 17 9 18 11 20 20 22 17 24
REMARK H PARENT 9 19 11 21 20 23 17 25
REMARK Flexibility Score: inf
ROOT
ATOM      1  C   UNL     1     128.113 114.638 100.928  1.00  0.00     0.138 A 
ATOM      2  C   UNL     1     127.680 113.316 100.758  1.00  0.00     0.100 A 
ATOM      3  C   UNL     1     128.524 112.386 100.148  1.00  0.00     0.197 A 
ATOM      4  O   UNL     1     128.128 111.195 100.059  1.00  0.00    -0.289 OA
ATOM      5  C   UNL     1     129.794 112.793  99.673  1.00  0.00     0.107 A 
ATOM      6  C   UNL     1     130.725 111.942  99.005  1.00  0.00     0.134 A 
ATOM      7  C   UNL     1     131.993 112.434  98.669  1.00  0.00     0.093 A 
ATOM      8  C   UNL     1     132.342 113.762  98.925  1.00  0.00     0.123 A 
ATOM      9  C   UNL     1     131.422 114.614  99.532  1.00  0.00     0.094 A 
ATOM     10  C   UNL     1     130.162 114.145  99.910  1.00  0.00     0.146 A 
ATOM     11  O   UNL     1     129.323 114.987 100.503  1.00  0.00    -0.456 OA
ENDROOT
BRANCH   1  12
ATOM     12  C   UNL     1     127.257 115.668 101.568  1.00  0.00     0.021 A 
ATOM     13  C   UNL     1     125.928 115.825 101.138  1.00  0.00     0.016 A 
ATOM     14  C   UNL     1     125.102 116.791 101.719  1.00  0.00     0.051 A 
ATOM     15  C   UNL     1     125.592 117.624 102.731  1.00  0.00     0.157 A 
ATOM     16  C   UNL     1     127.748 116.517 102.579  1.00  0.00     0.062 A 
ATOM     17  C   UNL     1     126.923 117.488 103.160  1.00  0.00     0.158 A 
BRANCH  15  18
ATOM     18  O   UNL     1     124.765 118.586 103.309  1.00  0.00    -0.504 OA
ATOM     19  H   UNL     1     124.141 119.155 102.750  1.00  0.00     0.293 HD
ENDBRANCH  15  18
BRANCH  17  20
ATOM     20  O   UNL     1     127.445 118.309 104.158  1.00  0.00    -0.504 OA
ATOM     21  H   UNL     1     127.252 118.153 105.141  1.00  0.00     0.293 HD
ENDBRANCH  17  20
ENDBRANCH   1  12
BRANCH   6  22
ATOM     22  O   UNL     1     130.451 110.623  98.630  1.00  0.00    -0.507 OA
ATOM     23  H   UNL     1     131.112 109.862  98.659  1.00  0.00     0.293 HD
ENDBRANCH   6  22
BRANCH   8  24
ATOM     24  O   UNL     1     133.600 114.247  98.574  1.00  0.00    -0.508 OA
ATOM     25  H   UNL     1     133.729 115.198  98.251  1.00  0.00     0.293 HD
ENDBRANCH   8  24
TORSDOF 5
ENDMDL
MODEL 3
REMARK VINA RESULT:    -6.589      4.555      7.634
REMARK INTER + INTRA:          -8.032
REMARK INTER:                  -7.748
REMARK INTRA:                  -0.284
REMARK UNBOUND:                -0.288
REMARK SMILES O=c1cc(-c2ccc(O)c(O)c2)oc2cc(O)cc(O)c12
REMARK SMILES IDX 4 1 3 2 2 3 1 4 21 5 19 6 18 7 16 8 15 9 14 10 13 11 5 12
REMARK SMILES IDX 6 13 7 14 8 15 12 16 10 17 9 18 11 20 20 22 17 24
REMARK H PARENT 9 19 11 21 20 23 17 25
REMARK Flexibility Score: inf
ROOT
ATOM      1  C   UNL     1     124.481 117.444 101.120  1.00  0.00     0.138 A 
ATOM      2  C   UNL     1     125.860 117.480 101.367  1.00  0.00     0.100 A 
ATOM      3  C   UNL     1     126.324 117.575 102.680  1.00  0.00     0.197 A 
ATOM      4  O   UNL     1     127.567 117.550 102.872  1.00  0.00    -0.289 OA
ATOM      5  C   UNL     1     125.401 117.672 103.748  1.00  0.00     0.107 A 
ATOM      6  C   UNL     1     125.758 117.807 105.123  1.00  0.00     0.134 A 
ATOM      7  C   UNL     1     124.756 117.794 106.101  1.00  0.00     0.093 A 
ATOM      8  C   UNL     1     123.407 117.708 105.750  1.00  0.00     0.123 A 
ATOM      9  C   UNL     1     123.045 117.625 104.407  1.00  0.00     0.094 A 
ATOM     10  C   UNL     1     124.022 117.602 103.410  1.00  0.00     0.146 A 
ATOM     11  O   UNL     1     123.635 117.504 102.144  1.00  0.00    -0.456 OA
ENDROOT
BRANCH   1  12
ATOM     12  C   UNL     1     123.931 117.346  99.744  1.00  0.00     0.021 A 
ATOM     13  C   UNL     1     124.374 116.316  98.896  1.00  0.00     0.016 A 
ATOM     14  C   UNL     1     123.878 116.204  97.595  1.00  0.00     0.051 A 
ATOM     15  C   UNL     1     122.940 117.125  97.115  1.00  0.00     0.157 A 
ATOM     16  C   UNL     1     122.996 118.276  99.251  1.00  0.00     0.062 A 
ATOM     17  C   UNL     1     122.500 118.168  97.947  1.00  0.00     0.158 A 
BRANCH  15  18
ATOM     18  O   UNL     1     122.446 117.009  95.816  1.00  0.00    -0.504 OA
ATOM     19  H   UNL     1     122.762 116.278  95.191  1.00  0.00     0.293 HD
ENDBRANCH  15  18
BRANCH  17  20
ATOM     20  O   UNL     1     121.574 119.107  97.494  1.00  0.00    -0.504 OA
ATOM     21  H   UNL     1     120.612 118.862  97.293  1.00  0.00     0.293 HD
ENDBRANCH  17  20
ENDBRANCH   1  12
BRANCH   6  22
ATOM     22  O   UNL     1     127.069 117.980 105.579  1.00  0.00    -0.507 OA
ATOM     23  H   UNL     1     127.840 117.362 105.376  1.00  0.00     0.293 HD
ENDBRANCH   6  22
BRANCH   8  24
ATOM     24  O   UNL     1     122.415 117.710 106.730  1.00  0.00    -0.508 OA
ATOM     25  H   UNL     1     122.626 117.932 107.695  1.00  0.00     0.293 HD
ENDBRANCH   8  24
TORSDOF 5
ENDMDL
MODEL 4
REMARK VINA RESULT:    -6.398      3.766      6.685
REMARK INTER + INTRA:          -7.808
REMARK INTER:                  -7.526
REMARK INTRA:                  -0.282
REMARK UNBOUND:                -0.288
REMARK SMILES O=c1cc(-c2ccc(O)c(O)c2)oc2cc(O)cc(O)c12
REMARK SMILES IDX 4 1 3 2 2 3 1 4 21 5 19 6 18 7 16 8 15 9 14 10 13 11 5 12
REMARK SMILES IDX 6 13 7 14 8 15 12 16 10 17 9 18 11 20 20 22 17 24
REMARK H PARENT 9 19 11 21 20 23 17 25
REMARK Flexibility Score: inf
ROOT
ATOM      1  C   UNL     1     123.544 117.270 101.133  1.00  0.00     0.138 A 
ATOM      2  C   UNL     1     123.210 117.710 102.421  1.00  0.00     0.100 A 
ATOM      3  C   UNL     1     124.166 117.662 103.437  1.00  0.00     0.197 A 
ATOM      4  O   UNL     1     123.852 118.115 104.568  1.00  0.00    -0.289 OA
ATOM      5  C   UNL     1     125.452 117.136 103.170  1.00  0.00     0.107 A 
ATOM      6  C   UNL     1     126.496 117.006 104.135  1.00  0.00     0.134 A 
ATOM      7  C   UNL     1     127.760 116.561 103.728  1.00  0.00     0.093 A 
ATOM      8  C   UNL     1     128.003 116.189 102.404  1.00  0.00     0.123 A 
ATOM      9  C   UNL     1     126.977 116.265 101.465  1.00  0.00     0.094 A 
ATOM     10  C   UNL     1     125.714 116.736 101.831  1.00  0.00     0.146 A 
ATOM     11  O   UNL     1     124.770 116.811 100.900  1.00  0.00    -0.456 OA
ENDROOT
BRANCH   1  12
ATOM     12  C   UNL     1     122.567 117.297 100.016  1.00  0.00     0.021 A 
ATOM     13  C   UNL     1     121.344 116.618 100.152  1.00  0.00     0.016 A 
ATOM     14  C   UNL     1     120.409 116.621  99.114  1.00  0.00     0.051 A 
ATOM     15  C   UNL     1     120.684 117.294  97.918  1.00  0.00     0.157 A 
ATOM     16  C   UNL     1     122.843 117.961  98.805  1.00  0.00     0.062 A 
ATOM     17  C   UNL     1     121.909 117.964  97.762  1.00  0.00     0.158 A 
BRANCH  15  18
ATOM     18  O   UNL     1     119.748 117.297  96.884  1.00  0.00    -0.504 OA
ATOM     19  H   UNL     1     120.032 117.326  95.912  1.00  0.00     0.293 HD
ENDBRANCH  15  18
BRANCH  17  20
ATOM     20  O   UNL     1     122.218 118.634  96.579  1.00  0.00    -0.504 OA
ATOM     21  H   UNL     1     122.723 118.187  95.822  1.00  0.00     0.293 HD
ENDBRANCH  17  20
ENDBRANCH   1  12
BRANCH   6  22
ATOM     22  O   UNL     1     126.340 117.274 105.498  1.00  0.00    -0.507 OA
ATOM     23  H   UNL     1     125.564 117.772 105.907  1.00  0.00     0.293 HD
ENDBRANCH   6  22
BRANCH   8  24
ATOM     24  O   UNL     1     129.260 115.734 102.012  1.00  0.00    -0.508 OA
ATOM     25  H   UNL     1     129.621 115.912 101.083  1.00  0.00     0.293 HD
ENDBRANCH   8  24
TORSDOF 5
ENDMDL
MODEL 5
REMARK VINA RESULT:    -6.265      1.671      7.124
REMARK INTER + INTRA:          -7.652
REMARK INTER:                  -7.340
REMARK INTRA:                  -0.312
REMARK UNBOUND:                -0.288
REMARK SMILES O=c1cc(-c2ccc(O)c(O)c2)oc2cc(O)cc(O)c12
REMARK SMILES IDX 4 1 3 2 2 3 1 4 21 5 19 6 18 7 16 8 15 9 14 10 13 11 5 12
REMARK SMILES IDX 6 13 7 14 8 15 12 16 10 17 9 18 11 20 20 22 17 24
REMARK H PARENT 9 19 11 21 20 23 17 25
REMARK Flexibility Score: inf
ROOT
ATOM      1  C   UNL     1     126.972 115.822 101.559  1.00  0.00     0.138 A 
ATOM      2  C   UNL     1     125.792 115.982 100.820  1.00  0.00     0.100 A 
ATOM      3  C   UNL     1     124.683 116.590 101.413  1.00  0.00     0.197 A 
ATOM      4  O   UNL     1     123.657 116.767 100.706  1.00  0.00    -0.289 OA
ATOM      5  C   UNL     1     124.746 117.006 102.764  1.00  0.00     0.107 A 
ATOM      6  C   UNL     1     123.669 117.606 103.483  1.00  0.00     0.134 A 
ATOM      7  C   UNL     1     123.881 118.067 104.788  1.00  0.00     0.093 A 
ATOM      8  C   UNL     1     125.116 117.898 105.420  1.00  0.00     0.123 A 
ATOM      9  C   UNL     1     126.159 117.269 104.744  1.00  0.00     0.094 A 
ATOM     10  C   UNL     1     125.989 116.829 103.430  1.00  0.00     0.146 A 
ATOM     11  O   UNL     1     127.016 116.251 102.817  1.00  0.00    -0.456 OA
ENDROOT
BRANCH   1  12
ATOM     12  C   UNL     1     128.180 115.181 100.981  1.00  0.00     0.021 A 
ATOM     13  C   UNL     1     128.044 114.321  99.877  1.00  0.00     0.016 A 
ATOM     14  C   UNL     1     129.163 113.700  99.317  1.00  0.00     0.051 A 
ATOM     15  C   UNL     1     130.436 113.919  99.856  1.00  0.00     0.157 A 
ATOM     16  C   UNL     1     129.462 115.388 101.526  1.00  0.00     0.062 A 
ATOM     17  C   UNL     1     130.584 114.764 100.969  1.00  0.00     0.158 A 
BRANCH  15  18
ATOM     18  O   UNL     1     131.551 113.299  99.295  1.00  0.00    -0.504 OA
ATOM     19  H   UNL     1     132.425 113.219  99.800  1.00  0.00     0.293 HD
ENDBRANCH  15  18
BRANCH  17  20
ATOM     20  O   UNL     1     131.837 114.993 101.536  1.00  0.00    -0.504 OA
ATOM     21  H   UNL     1     132.696 114.711 101.078  1.00  0.00     0.293 HD
ENDBRANCH  17  20
ENDBRANCH   1  12
BRANCH   6  22
ATOM     22  O   UNL     1     122.374 117.751 102.976  1.00  0.00    -0.507 OA
ATOM     23  H   UNL     1     121.940 117.134 102.307  1.00  0.00     0.293 HD
ENDBRANCH   6  22
BRANCH   8  24
ATOM     24  O   UNL     1     125.314 118.347 106.725  1.00  0.00    -0.508 OA
ATOM     25  H   UNL     1     125.804 119.212 106.918  1.00  0.00     0.293 HD
ENDBRANCH   8  24
TORSDOF 5
ENDMDL
MODEL 6
REMARK VINA RESULT:    -6.240      1.544      3.217
REMARK INTER + INTRA:          -7.622
REMARK INTER:                  -7.346
REMARK INTRA:                  -0.275
REMARK UNBOUND:                -0.288
REMARK SMILES O=c1cc(-c2ccc(O)c(O)c2)oc2cc(O)cc(O)c12
REMARK SMILES IDX 4 1 3 2 2 3 1 4 21 5 19 6 18 7 16 8 15 9 14 10 13 11 5 12
REMARK SMILES IDX 6 13 7 14 8 15 12 16 10 17 9 18 11 20 20 22 17 24
REMARK H PARENT 9 19 11 21 20 23 17 25
REMARK Flexibility Score: inf
ROOT
ATOM      1  C   UNL     1     128.134 115.389 101.591  1.00  0.00     0.138 A 
ATOM      2  C   UNL     1     129.467 115.819 101.538  1.00  0.00     0.100 A 
ATOM      3  C   UNL     1     130.401 115.083 100.807  1.00  0.00     0.197 A 
ATOM      4  O   UNL     1     131.577 115.524 100.735  1.00  0.00    -0.289 OA
ATOM      5  C   UNL     1     130.005 113.892 100.154  1.00  0.00     0.107 A 
ATOM      6  C   UNL     1     130.876 113.043  99.408  1.00  0.00     0.134 A 
ATOM      7  C   UNL     1     130.348 111.942  98.723  1.00  0.00     0.093 A 
ATOM      8  C   UNL     1     128.990 111.626  98.804  1.00  0.00     0.123 A 
ATOM      9  C   UNL     1     128.139 112.420  99.570  1.00  0.00     0.094 A 
ATOM     10  C   UNL     1     128.629 113.545 100.238  1.00  0.00     0.146 A 
ATOM     11  O   UNL     1     127.780 114.285 100.942  1.00  0.00    -0.456 OA
ENDROOT
BRANCH   1  12
ATOM     12  C   UNL     1     127.100 116.131 102.355  1.00  0.00     0.021 A 
ATOM     13  C   UNL     1     125.880 116.452 101.734  1.00  0.00     0.016 A 
ATOM     14  C   UNL     1     124.892 117.155 102.428  1.00  0.00     0.051 A 
ATOM     15  C   UNL     1     125.109 117.557 103.751  1.00  0.00     0.157 A 
ATOM     16  C   UNL     1     127.316 116.549 103.682  1.00  0.00     0.062 A 
ATOM     17  C   UNL     1     126.329 117.256 104.379  1.00  0.00     0.158 A 
BRANCH  15  18
ATOM     18  O   UNL     1     124.120 118.257 104.442  1.00  0.00    -0.504 OA
ATOM     19  H   UNL     1     123.323 117.785 104.851  1.00  0.00     0.293 HD
ENDBRANCH  15  18
BRANCH  17  20
ATOM     20  O   UNL     1     126.580 117.653 105.692  1.00  0.00    -0.504 OA
ATOM     21  H   UNL     1     127.417 117.374 106.189  1.00  0.00     0.293 HD
ENDBRANCH  17  20
ENDBRANCH   1  12
BRANCH   6  22
ATOM     22  O   UNL     1     132.261 113.220  99.325  1.00  0.00    -0.507 OA
ATOM     23  H   UNL     1     132.866 112.762  98.661  1.00  0.00     0.293 HD
ENDBRANCH   6  22
BRANCH   8  24
ATOM     24  O   UNL     1     128.475 110.519  98.131  1.00  0.00    -0.508 OA
ATOM     25  H   UNL     1     128.253 109.660  98.619  1.00  0.00     0.293 HD
ENDBRANCH   8  24
TORSDOF 5
ENDMDL
MODEL 7
REMARK VINA RESULT:    -6.155      3.399      8.045
REMARK INTER + INTRA:          -7.522
REMARK INTER:                  -7.223
REMARK INTRA:                  -0.300
REMARK UNBOUND:                -0.288
REMARK SMILES O=c1cc(-c2ccc(O)c(O)c2)oc2cc(O)cc(O)c12
REMARK SMILES IDX 4 1 3 2 2 3 1 4 21 5 19 6 18 7 16 8 15 9 14 10 13 11 5 12
REMARK SMILES IDX 6 13 7 14 8 15 12 16 10 17 9 18 11 20 20 22 17 24
REMARK H PARENT 9 19 11 21 20 23 17 25
REMARK Flexibility Score: inf
ROOT
ATOM      1  C   UNL     1     125.753 116.659 102.229  1.00  0.00     0.138 A 
ATOM      2  C   UNL     1     126.572 116.885 103.343  1.00  0.00     0.100 A 
ATOM      3  C   UNL     1     126.015 117.398 104.516  1.00  0.00     0.197 A 
ATOM      4  O   UNL     1     126.766 117.539 105.516  1.00  0.00    -0.289 OA
ATOM      5  C   UNL     1     124.638 117.720 104.560  1.00  0.00     0.107 A 
ATOM      6  C   UNL     1     123.968 118.280 105.689  1.00  0.00     0.134 A 
ATOM      7  C   UNL     1     122.580 118.465 105.647  1.00  0.00     0.093 A 
ATOM      8  C   UNL     1     121.847 118.162 104.497  1.00  0.00     0.123 A 
ATOM      9  C   UNL     1     122.499 117.661 103.372  1.00  0.00     0.094 A 
ATOM     10  C   UNL     1     123.877 117.435 103.394  1.00  0.00     0.146 A 
ATOM     11  O   UNL     1     124.456 116.939 102.306  1.00  0.00    -0.456 OA
ENDROOT
BRANCH   1  12
ATOM     12  C   UNL     1     126.292 116.117 100.956  1.00  0.00     0.021 A 
ATOM     13  C   UNL     1     127.308 115.147 100.994  1.00  0.00     0.016 A 
ATOM     14  C   UNL     1     127.837 114.625  99.811  1.00  0.00     0.051 A 
ATOM     15  C   UNL     1     127.368 115.070  98.570  1.00  0.00     0.157 A 
ATOM     16  C   UNL     1     125.832 116.569  99.704  1.00  0.00     0.062 A 
ATOM     17  C   UNL     1     126.363 116.050  98.517  1.00  0.00     0.158 A 
BRANCH  15  18
ATOM     18  O   UNL     1     127.897 114.546  97.391  1.00  0.00    -0.504 OA
ATOM     19  H   UNL     1     128.465 115.108  96.769  1.00  0.00     0.293 HD
ENDBRANCH  15  18
BRANCH  17  20
ATOM     20  O   UNL     1     125.882 116.522  97.297  1.00  0.00    -0.504 OA
ATOM     21  H   UNL     1     126.476 117.005  96.633  1.00  0.00     0.293 HD
ENDBRANCH  17  20
ENDBRANCH   1  12
BRANCH   6  22
ATOM     22  O   UNL     1     124.614 118.692 106.859  1.00  0.00    -0.507 OA
ATOM     23  H   UNL     1     124.549 118.227 107.751  1.00  0.00     0.293 HD
ENDBRANCH   6  22
BRANCH   8  24
ATOM     24  O   UNL     1     120.468 118.363 104.459  1.00  0.00    -0.508 OA
ATOM     25  H   UNL     1     120.038 119.164 104.904  1.00  0.00     0.293 HD
ENDBRANCH   8  24
TORSDOF 5
ENDMDL
MODEL 8
REMARK VINA RESULT:    -6.127      8.312     13.255
REMARK INTER + INTRA:          -7.489
REMARK INTER:                  -7.199
REMARK INTRA:                  -0.291
REMARK UNBOUND:                -0.288
REMARK SMILES O=c1cc(-c2ccc(O)c(O)c2)oc2cc(O)cc(O)c12
REMARK SMILES IDX 4 1 3 2 2 3 1 4 21 5 19 6 18 7 16 8 15 9 14 10 13 11 5 12
REMARK SMILES IDX 6 13 7 14 8 15 12 16 10 17 9 18 11 20 20 22 17 24
REMARK H PARENT 9 19 11 21 20 23 17 25
REMARK Flexibility Score: inf
ROOT
ATOM      1  C   UNL     1     119.144 116.324 107.507  1.00  0.00     0.138 A 
ATOM      2  C   UNL     1     117.982 117.107 107.521  1.00  0.00     0.100 A 
ATOM      3  C   UNL     1     116.766 116.532 107.894  1.00  0.00     0.197 A 
ATOM      4  O   UNL     1     115.752 117.274 107.949  1.00  0.00    -0.289 OA
ATOM      5  C   UNL     1     116.709 115.156 108.220  1.00  0.00     0.107 A 
ATOM      6  C   UNL     1     115.520 114.453 108.582  1.00  0.00     0.134 A 
ATOM      7  C   UNL     1     115.604 113.113 108.980  1.00  0.00     0.093 A 
ATOM      8  C   UNL     1     116.825 112.434 108.974  1.00  0.00     0.123 A 
ATOM      9  C   UNL     1     117.983 113.097 108.575  1.00  0.00     0.094 A 
ATOM     10  C   UNL     1     117.938 114.443 108.205  1.00  0.00     0.146 A 
ATOM     11  O   UNL     1     119.069 115.042 107.849  1.00  0.00    -0.456 OA
ENDROOT
BRANCH   1  12
ATOM     12  C   UNL     1     120.463 116.883 107.116  1.00  0.00     0.021 A 
ATOM     13  C   UNL     1     120.566 117.657 105.947  1.00  0.00     0.016 A 
ATOM     14  C   UNL     1     121.796 118.189 105.553  1.00  0.00     0.051 A 
ATOM     15  C   UNL     1     122.946 117.949 106.314  1.00  0.00     0.157 A 
ATOM     16  C   UNL     1     121.626 116.635 107.870  1.00  0.00     0.062 A 
ATOM     17  C   UNL     1     122.860 117.164 107.476  1.00  0.00     0.158 A 
BRANCH  15  18
ATOM     18  O   UNL     1     124.172 118.483 105.918  1.00  0.00    -0.504 OA
ATOM     19  H   UNL     1     124.662 119.165 106.485  1.00  0.00     0.293 HD
ENDBRANCH  15  18
BRANCH  17  20
ATOM     20  O   UNL     1     123.990 116.898 108.248  1.00  0.00    -0.504 OA
ATOM     21  H   UNL     1     124.097 116.034 108.767  1.00  0.00     0.293 HD
ENDBRANCH  17  20
ENDBRANCH   1  12
BRANCH   6  22
ATOM     22  O   UNL     1     114.239 115.012 108.547  1.00  0.00    -0.507 OA
ATOM     23  H   UNL     1     113.593 115.032 109.321  1.00  0.00     0.293 HD
ENDBRANCH   6  22
BRANCH   8  24
ATOM     24  O   UNL     1     116.896 111.096 109.357  1.00  0.00    -0.508 OA
ATOM     25  H   UNL     1     117.340 110.817 110.224  1.00  0.00     0.293 HD
ENDBRANCH   8  24
TORSDOF 5
ENDMDL
MODEL 9
REMARK VINA RESULT:    -6.054      1.922      7.046
REMARK INTER + INTRA:          -7.404
REMARK INTER:                  -7.132
REMARK INTRA:                  -0.272
REMARK UNBOUND:                -0.288
REMARK SMILES O=c1cc(-c2ccc(O)c(O)c2)oc2cc(O)cc(O)c12
REMARK SMILES IDX 4 1 3 2 2 3 1 4 21 5 19 6 18 7 16 8 15 9 14 10 13 11 5 12
REMARK SMILES IDX 6 13 7 14 8 15 12 16 10 17 9 18 11 20 20 22 17 24
REMARK H PARENT 9 19 11 21 20 23 17 25
REMARK Flexibility Score: inf
ROOT
ATOM      1  C   UNL     1     127.890 115.000 100.712  1.00  0.00     0.138 A 
ATOM      2  C   UNL     1     126.689 115.186 100.014  1.00  0.00     0.100 A 
ATOM      3  C   UNL     1     125.670 115.951 100.585  1.00  0.00     0.197 A 
ATOM      4  O   UNL     1     124.626 116.144  99.910  1.00  0.00    -0.289 OA
ATOM      5  C   UNL     1     125.843 116.502 101.877  1.00  0.00     0.107 A 
ATOM      6  C   UNL     1     124.861 117.270 102.573  1.00  0.00     0.134 A 
ATOM      7  C   UNL     1     125.183 117.846 103.808  1.00  0.00     0.093 A 
ATOM      8  C   UNL     1     126.432 117.636 104.398  1.00  0.00     0.123 A 
ATOM      9  C   UNL     1     127.379 116.847 103.750  1.00  0.00     0.094 A 
ATOM     10  C   UNL     1     127.101 116.285 102.502  1.00  0.00     0.146 A 
ATOM     11  O   UNL     1     128.039 115.555 101.910  1.00  0.00    -0.456 OA
ENDROOT
BRANCH   1  12
ATOM     12  C   UNL     1     129.006 114.194 100.154  1.00  0.00     0.021 A 
ATOM     13  C   UNL     1     130.291 114.759 100.072  1.00  0.00     0.016 A 
ATOM     14  C   UNL     1     131.357 114.026  99.545  1.00  0.00     0.051 A 
ATOM     15  C   UNL     1     131.156 112.720  99.083  1.00  0.00     0.157 A 
ATOM     16  C   UNL     1     128.808 112.885  99.676  1.00  0.00     0.062 A 
ATOM     17  C   UNL     1     129.874 112.149  99.146  1.00  0.00     0.158 A 
BRANCH  15  18
ATOM     18  O   UNL     1     132.223 111.990  98.559  1.00  0.00    -0.504 OA
ATOM     19  H   UNL     1     132.863 111.482  99.158  1.00  0.00     0.293 HD
ENDBRANCH  15  18
BRANCH  17  20
ATOM     20  O   UNL     1     129.640 110.855  98.683  1.00  0.00    -0.504 OA
ATOM     21  H   UNL     1     129.391 110.663  97.719  1.00  0.00     0.293 HD
ENDBRANCH  17  20
ENDBRANCH   1  12
BRANCH   6  22
ATOM     22  O   UNL     1     123.557 117.476 102.112  1.00  0.00    -0.507 OA
ATOM     23  H   UNL     1     122.767 116.885 102.321  1.00  0.00     0.293 HD
ENDBRANCH   6  22
BRANCH   8  24
ATOM     24  O   UNL     1     126.738 118.202 105.634  1.00  0.00    -0.508 OA
ATOM     25  H   UNL     1     126.622 117.684 106.496  1.00  0.00     0.293 HD
ENDBRANCH   8  24
TORSDOF 5
ENDMDL
