MODEL 1
REMARK VINA RESULT:    -3.940      0.000      0.000
REMARK INTER + INTRA:          -9.510
REMARK INTER:                  -7.165
REMARK INTRA:                  -2.345
REMARK UNBOUND:                -2.345
REMARK SMILES CCCCCCCCCCCCCC[C@@H](C)C(=O)[O-]
REMARK SMILES IDX 9 1 10 2 11 3 12 4 13 5 14 6 15 7 16 8 17 9 18 10 19 11 8 12
REMARK SMILES IDX 7 13 6 14 5 15 4 16 3 17 2 18 1 19
REMARK H PARENT
REMARK Flexibility Score: inf
ROOT
ATOM      1  C   UNL     1       9.741 -22.679  40.643  1.00  0.00     0.000 C 
ENDROOT
BRANCH   1   2
ATOM      2  C   UNL     1       9.662 -24.133  40.146  1.00  0.00     0.000 C 
BRANCH   2   3
ATOM      3  C   UNL     1      10.210 -25.139  41.171  1.00  0.00     0.000 C 
BRANCH   3   4
ATOM      4  C   UNL     1      10.766 -26.412  40.515  1.00  0.00     0.000 C 
BRANCH   4   5
ATOM      5  C   UNL     1      11.639 -26.070  39.302  1.00  0.00     0.001 C 
BRANCH   5   6
ATOM      6  C   UNL     1      13.016 -26.743  39.406  1.00  0.00     0.009 C 
BRANCH   6   7
ATOM      7  C   UNL     1      13.491 -27.341  38.062  1.00  0.00     0.032 C 
ATOM      8  C   UNL     1      12.348 -28.010  37.286  1.00  0.00     0.014 C 
BRANCH   7   9
ATOM      9  C   UNL     1      14.119 -26.268  37.214  1.00  0.00     0.044 C 
ATOM     10  O   UNL     1      13.521 -25.824  36.198  1.00  0.00    -0.550 OA
ATOM     11  O   UNL     1      15.374 -25.772  37.542  1.00  0.00    -0.550 OA
ENDBRANCH   7   9
ENDBRANCH   6   7
ENDBRANCH   5   6
ENDBRANCH   4   5
ENDBRANCH   3   4
ENDBRANCH   2   3
ENDBRANCH   1   2
BRANCH   1  12
ATOM     12  C   UNL     1      10.848 -22.472  41.690  1.00  0.00     0.000 C 
BRANCH  12  13
ATOM     13  C   UNL     1      12.157 -21.946  41.074  1.00  0.00    -0.000 C 
BRANCH  13  14
ATOM     14  C   UNL     1      13.298 -22.972  41.161  1.00  0.00    -0.000 C 
BRANCH  14  15
ATOM     15  C   UNL     1      13.991 -23.253  39.806  1.00  0.00    -0.000 C 
BRANCH  15  16
ATOM     16  C   UNL     1      13.165 -22.802  38.588  1.00  0.00    -0.000 C 
BRANCH  16  17
ATOM     17  C   UNL     1      14.001 -22.485  37.334  1.00  0.00    -0.000 C 
BRANCH  17  18
ATOM     18  C   UNL     1      14.048 -20.981  36.984  1.00  0.00    -0.003 C 
ATOM     19  C   UNL     1      13.774 -20.076  38.185  1.00  0.00     0.004 C 
ENDBRANCH  17  18
ENDBRANCH  16  17
ENDBRANCH  15  16
ENDBRANCH  14  15
ENDBRANCH  13  14
ENDBRANCH  12  13
ENDBRANCH   1  12
TORSDOF 14
ENDMDL
MODEL 2
REMARK VINA RESULT:    -3.912      1.901      4.545
REMARK INTER + INTRA:          -9.458
REMARK INTER:                  -7.251
REMARK INTRA:                  -2.207
REMARK UNBOUND:                -2.345
REMARK SMILES CCCCCCCCCCCCCC[C@@H](C)C(=O)[O-]
REMARK SMILES IDX 9 1 10 2 11 3 12 4 13 5 14 6 15 7 16 8 17 9 18 10 19 11 8 12
REMARK SMILES IDX 7 13 6 14 5 15 4 16 3 17 2 18 1 19
REMARK H PARENT
REMARK Flexibility Score: inf
ROOT
ATOM      1  C   UNL     1      11.383 -26.150  40.732  1.00  0.00     0.000 C 
ENDROOT
BRANCH   1   2
ATOM      2  C   UNL     1      11.296 -26.118  39.197  1.00  0.00     0.000 C 
BRANCH   2   3
ATOM      3  C   UNL     1      12.665 -25.907  38.532  1.00  0.00     0.000 C 
BRANCH   3   4
ATOM      4  C   UNL     1      13.481 -24.785  39.193  1.00  0.00     0.000 C 
BRANCH   4   5
ATOM      5  C   UNL     1      14.357 -24.061  38.163  1.00  0.00     0.001 C 
BRANCH   5   6
ATOM      6  C   UNL     1      14.628 -22.611  38.592  1.00  0.00     0.009 C 
BRANCH   6   7
ATOM      7  C   UNL     1      13.798 -21.586  37.787  1.00  0.00     0.032 C 
ATOM      8  C   UNL     1      13.699 -20.229  38.498  1.00  0.00     0.014 C 
BRANCH   7   9
ATOM      9  C   UNL     1      14.397 -21.398  36.420  1.00  0.00     0.044 C 
ATOM     10  O   UNL     1      13.658 -21.186  35.421  1.00  0.00    -0.550 OA
ATOM     11  O   UNL     1      15.773 -21.472  36.249  1.00  0.00    -0.550 OA
ENDBRANCH   7   9
ENDBRANCH   6   7
ENDBRANCH   5   6
ENDBRANCH   4   5
ENDBRANCH   3   4
ENDBRANCH   2   3
ENDBRANCH   1   2
BRANCH   1  12
ATOM     12  C   UNL     1      10.362 -25.214  41.402  1.00  0.00     0.000 C 
BRANCH  12  13
ATOM     13  C   UNL     1       9.430 -24.529  40.386  1.00  0.00    -0.000 C 
BRANCH  13  14
ATOM     14  C   UNL     1       9.520 -22.995  40.451  1.00  0.00    -0.000 C 
BRANCH  14  15
ATOM     15  C   UNL     1      10.969 -22.452  40.417  1.00  0.00    -0.000 C 
BRANCH  15  16
ATOM     16  C   UNL     1      11.465 -21.938  41.780  1.00  0.00    -0.000 C 
BRANCH  16  17
ATOM     17  C   UNL     1      12.954 -21.546  41.809  1.00  0.00    -0.000 C 
BRANCH  17  18
ATOM     18  C   UNL     1      13.772 -22.293  42.886  1.00  0.00    -0.003 C 
ATOM     19  C   UNL     1      14.798 -23.260  42.296  1.00  0.00     0.004 C 
ENDBRANCH  17  18
ENDBRANCH  16  17
ENDBRANCH  15  16
ENDBRANCH  14  15
ENDBRANCH  13  14
ENDBRANCH  12  13
ENDBRANCH   1  12
TORSDOF 14
ENDMDL
MODEL 3
REMARK VINA RESULT:    -3.791      2.199      4.874
REMARK INTER + INTRA:          -9.239
REMARK INTER:                  -6.857
REMARK INTRA:                  -2.382
REMARK UNBOUND:                -2.345
REMARK SMILES CCCCCCCCCCCCCC[C@@H](C)C(=O)[O-]
REMARK SMILES IDX 9 1 10 2 11 3 12 4 13 5 14 6 15 7 16 8 17 9 18 10 19 11 8 12
REMARK SMILES IDX 7 13 6 14 5 15 4 16 3 17 2 18 1 19
REMARK H PARENT
REMARK Flexibility Score: inf
ROOT
ATOM      1  C   UNL     1      12.091 -22.691  40.425  1.00  0.00     0.000 C 
ENDROOT
BRANCH   1   2
ATOM      2  C   UNL     1      13.154 -23.470  41.217  1.00  0.00     0.000 C 
BRANCH   2   3
ATOM      3  C   UNL     1      13.800 -24.595  40.393  1.00  0.00     0.000 C 
BRANCH   3   4
ATOM      4  C   UNL     1      13.140 -24.778  39.017  1.00  0.00     0.000 C 
BRANCH   4   5
ATOM      5  C   UNL     1      12.660 -26.222  38.826  1.00  0.00     0.001 C 
BRANCH   5   6
ATOM      6  C   UNL     1      13.012 -27.087  40.046  1.00  0.00     0.009 C 
BRANCH   6   7
ATOM      7  C   UNL     1      13.543 -28.484  39.653  1.00  0.00     0.032 C 
ATOM      8  C   UNL     1      12.702 -29.138  38.549  1.00  0.00     0.014 C 
BRANCH   7   9
ATOM      9  C   UNL     1      14.976 -28.384  39.206  1.00  0.00     0.044 C 
ATOM     10  O   UNL     1      15.773 -27.594  39.780  1.00  0.00    -0.550 OA
ATOM     11  O   UNL     1      15.425 -29.155  38.142  1.00  0.00    -0.550 OA
ENDBRANCH   7   9
ENDBRANCH   6   7
ENDBRANCH   5   6
ENDBRANCH   4   5
ENDBRANCH   3   4
ENDBRANCH   2   3
ENDBRANCH   1   2
BRANCH   1  12
ATOM     12  C   UNL     1      10.938 -22.193  41.313  1.00  0.00     0.000 C 
BRANCH  12  13
ATOM     13  C   UNL     1       9.571 -22.750  40.878  1.00  0.00    -0.000 C 
BRANCH  13  14
ATOM     14  C   UNL     1       9.703 -23.955  39.932  1.00  0.00    -0.000 C 
BRANCH  14  15
ATOM     15  C   UNL     1       9.034 -25.245  40.465  1.00  0.00    -0.000 C 
BRANCH  15  16
ATOM     16  C   UNL     1       9.904 -26.017  41.473  1.00  0.00    -0.000 C 
BRANCH  16  17
ATOM     17  C   UNL     1       9.292 -27.345  41.955  1.00  0.00    -0.000 C 
BRANCH  17  18
ATOM     18  C   UNL     1      10.263 -28.544  41.869  1.00  0.00    -0.003 C 
ATOM     19  C   UNL     1       9.834 -29.591  40.842  1.00  0.00     0.004 C 
ENDBRANCH  17  18
ENDBRANCH  16  17
ENDBRANCH  15  16
ENDBRANCH  14  15
ENDBRANCH  13  14
ENDBRANCH  12  13
ENDBRANCH   1  12
TORSDOF 14
ENDMDL
MODEL 4
REMARK VINA RESULT:    -3.731      1.473      3.852
REMARK INTER + INTRA:          -9.130
REMARK INTER:                  -6.992
REMARK INTRA:                  -2.137
REMARK UNBOUND:                -2.345
REMARK SMILES CCCCCCCCCCCCCC[C@@H](C)C(=O)[O-]
REMARK SMILES IDX 9 1 10 2 11 3 12 4 13 5 14 6 15 7 16 8 17 9 18 10 19 11 8 12
REMARK SMILES IDX 7 13 6 14 5 15 4 16 3 17 2 18 1 19
REMARK H PARENT
REMARK Flexibility Score: inf
ROOT
ATOM      1  C   UNL     1      10.680 -27.993  41.677  1.00  0.00     0.000 C 
ENDROOT
BRANCH   1   2
ATOM      2  C   UNL     1      11.050 -29.145  40.727  1.00  0.00     0.000 C 
BRANCH   2   3
ATOM      3  C   UNL     1      10.339 -29.041  39.368  1.00  0.00     0.000 C 
BRANCH   3   4
ATOM      4  C   UNL     1      11.161 -28.270  38.324  1.00  0.00     0.000 C 
BRANCH   4   5
ATOM      5  C   UNL     1      12.506 -28.960  38.064  1.00  0.00     0.001 C 
BRANCH   5   6
ATOM      6  C   UNL     1      13.678 -28.010  38.356  1.00  0.00     0.009 C 
BRANCH   6   7
ATOM      7  C   UNL     1      13.223 -26.549  38.569  1.00  0.00     0.032 C 
ATOM      8  C   UNL     1      13.629 -26.007  39.946  1.00  0.00     0.014 C 
BRANCH   7   9
ATOM      9  C   UNL     1      13.794 -25.669  37.491  1.00  0.00     0.044 C 
ATOM     10  O   UNL     1      14.514 -24.678  37.787  1.00  0.00    -0.550 OA
ATOM     11  O   UNL     1      13.516 -25.938  36.157  1.00  0.00    -0.550 OA
ENDBRANCH   7   9
ENDBRANCH   6   7
ENDBRANCH   5   6
ENDBRANCH   4   5
ENDBRANCH   3   4
ENDBRANCH   2   3
ENDBRANCH   1   2
BRANCH   1  12
ATOM     12  C   UNL     1       9.168 -27.713  41.708  1.00  0.00     0.000 C 
BRANCH  12  13
ATOM     13  C   UNL     1       8.828 -26.252  41.364  1.00  0.00    -0.000 C 
BRANCH  13  14
ATOM     14  C   UNL     1      10.083 -25.373  41.237  1.00  0.00    -0.000 C 
BRANCH  14  15
ATOM     15  C   UNL     1      10.009 -24.338  40.088  1.00  0.00    -0.000 C 
BRANCH  15  16
ATOM     16  C   UNL     1       9.753 -22.900  40.572  1.00  0.00    -0.000 C 
BRANCH  16  17
ATOM     17  C   UNL     1      10.946 -22.253  41.300  1.00  0.00    -0.000 C 
BRANCH  17  18
ATOM     18  C   UNL     1      12.319 -22.643  40.710  1.00  0.00    -0.003 C 
ATOM     19  C   UNL     1      12.747 -21.752  39.544  1.00  0.00     0.004 C 
ENDBRANCH  17  18
ENDBRANCH  16  17
ENDBRANCH  15  16
ENDBRANCH  14  15
ENDBRANCH  13  14
ENDBRANCH  12  13
ENDBRANCH   1  12
TORSDOF 14
ENDMDL
MODEL 5
REMARK VINA RESULT:    -3.718      2.109      5.062
REMARK INTER + INTRA:          -9.105
REMARK INTER:                  -7.145
REMARK INTRA:                  -1.961
REMARK UNBOUND:                -2.345
REMARK SMILES CCCCCCCCCCCCCC[C@@H](C)C(=O)[O-]
REMARK SMILES IDX 9 1 10 2 11 3 12 4 13 5 14 6 15 7 16 8 17 9 18 10 19 11 8 12
REMARK SMILES IDX 7 13 6 14 5 15 4 16 3 17 2 18 1 19
REMARK H PARENT
REMARK Flexibility Score: inf
ROOT
ATOM      1  C   UNL     1      13.026 -27.442  40.417  1.00  0.00     0.000 C 
ENDROOT
BRANCH   1   2
ATOM      2  C   UNL     1      13.927 -26.203  40.554  1.00  0.00     0.000 C 
BRANCH   2   3
ATOM      3  C   UNL     1      13.263 -24.926  40.016  1.00  0.00     0.000 C 
BRANCH   3   4
ATOM      4  C   UNL     1      13.697 -24.590  38.581  1.00  0.00     0.000 C 
BRANCH   4   5
ATOM      5  C   UNL     1      15.148 -24.095  38.546  1.00  0.00     0.001 C 
BRANCH   5   6
ATOM      6  C   UNL     1      15.208 -22.560  38.603  1.00  0.00     0.009 C 
BRANCH   6   7
ATOM      7  C   UNL     1      14.058 -21.889  37.819  1.00  0.00     0.032 C 
ATOM      8  C   UNL     1      13.500 -20.656  38.542  1.00  0.00     0.014 C 
BRANCH   7   9
ATOM      9  C   UNL     1      14.532 -21.499  36.445  1.00  0.00     0.044 C 
ATOM     10  O   UNL     1      15.762 -21.487  36.170  1.00  0.00    -0.550 OA
ATOM     11  O   UNL     1      13.610 -21.133  35.472  1.00  0.00    -0.550 OA
ENDBRANCH   7   9
ENDBRANCH   6   7
ENDBRANCH   5   6
ENDBRANCH   4   5
ENDBRANCH   3   4
ENDBRANCH   2   3
ENDBRANCH   1   2
BRANCH   1  12
ATOM     12  C   UNL     1      11.550 -27.077  40.189  1.00  0.00     0.000 C 
BRANCH  12  13
ATOM     13  C   UNL     1      10.691 -27.260  41.453  1.00  0.00    -0.000 C 
BRANCH  13  14
ATOM     14  C   UNL     1       9.547 -26.236  41.537  1.00  0.00    -0.000 C 
BRANCH  14  15
ATOM     15  C   UNL     1       9.565 -25.183  40.403  1.00  0.00    -0.000 C 
BRANCH  15  16
ATOM     16  C   UNL     1       9.541 -23.731  40.912  1.00  0.00    -0.000 C 
BRANCH  16  17
ATOM     17  C   UNL     1      10.623 -22.824  40.297  1.00  0.00    -0.000 C 
BRANCH  17  18
ATOM     18  C   UNL     1      11.350 -21.936  41.332  1.00  0.00    -0.003 C 
ATOM     19  C   UNL     1      11.602 -22.648  42.661  1.00  0.00     0.004 C 
ENDBRANCH  17  18
ENDBRANCH  16  17
ENDBRANCH  15  16
ENDBRANCH  14  15
ENDBRANCH  13  14
ENDBRANCH  12  13
ENDBRANCH   1  12
TORSDOF 14
ENDMDL
MODEL 6
REMARK VINA RESULT:    -3.692      1.871      2.966
REMARK INTER + INTRA:          -9.058
REMARK INTER:                  -6.576
REMARK INTRA:                  -2.482
REMARK UNBOUND:                -2.345
REMARK SMILES CCCCCCCCCCCCCC[C@@H](C)C(=O)[O-]
REMARK SMILES IDX 9 1 10 2 11 3 12 4 13 5 14 6 15 7 16 8 17 9 18 10 19 11 8 12
REMARK SMILES IDX 7 13 6 14 5 15 4 16 3 17 2 18 1 19
REMARK H PARENT
REMARK Flexibility Score: inf
ROOT
ATOM      1  C   UNL     1       9.404 -25.297  39.576  1.00  0.00     0.000 C 
ENDROOT
BRANCH   1   2
ATOM      2  C   UNL     1       8.913 -25.698  40.977  1.00  0.00     0.000 C 
BRANCH   2   3
ATOM      3  C   UNL     1       9.921 -26.583  41.727  1.00  0.00     0.000 C 
BRANCH   3   4
ATOM      4  C   UNL     1      11.144 -26.947  40.871  1.00  0.00     0.000 C 
BRANCH   4   5
ATOM      5  C   UNL     1      11.251 -28.465  40.682  1.00  0.00     0.001 C 
BRANCH   5   6
ATOM      6  C   UNL     1      12.720 -28.914  40.649  1.00  0.00     0.009 C 
BRANCH   6   7
ATOM      7  C   UNL     1      13.617 -27.962  39.827  1.00  0.00     0.032 C 
ATOM      8  C   UNL     1      14.920 -27.611  40.558  1.00  0.00     0.014 C 
BRANCH   7   9
ATOM      9  C   UNL     1      13.937 -28.579  38.492  1.00  0.00     0.044 C 
ATOM     10  O   UNL     1      15.046 -29.144  38.297  1.00  0.00    -0.550 OA
ATOM     11  O   UNL     1      13.010 -28.517  37.460  1.00  0.00    -0.550 OA
ENDBRANCH   7   9
ENDBRANCH   6   7
ENDBRANCH   5   6
ENDBRANCH   4   5
ENDBRANCH   3   4
ENDBRANCH   2   3
ENDBRANCH   1   2
BRANCH   1  12
ATOM     12  C   UNL     1       9.577 -23.777  39.422  1.00  0.00     0.000 C 
BRANCH  12  13
ATOM     13  C   UNL     1       9.373 -23.020  40.747  1.00  0.00    -0.000 C 
BRANCH  13  14
ATOM     14  C   UNL     1      10.639 -22.269  41.193  1.00  0.00    -0.000 C 
BRANCH  14  15
ATOM     15  C   UNL     1      11.655 -23.154  41.955  1.00  0.00    -0.000 C 
BRANCH  15  16
ATOM     16  C   UNL     1      12.887 -23.536  41.117  1.00  0.00    -0.000 C 
BRANCH  16  17
ATOM     17  C   UNL     1      13.236 -22.530  40.004  1.00  0.00    -0.000 C 
BRANCH  17  18
ATOM     18  C   UNL     1      13.135 -23.120  38.580  1.00  0.00    -0.003 C 
ATOM     19  C   UNL     1      13.152 -24.649  38.561  1.00  0.00     0.004 C 
ENDBRANCH  17  18
ENDBRANCH  16  17
ENDBRANCH  15  16
ENDBRANCH  14  15
ENDBRANCH  13  14
ENDBRANCH  12  13
ENDBRANCH   1  12
TORSDOF 14
ENDMDL
MODEL 7
REMARK VINA RESULT:    -3.676      1.619      4.958
REMARK INTER + INTRA:          -9.030
REMARK INTER:                  -6.860
REMARK INTRA:                  -2.170
REMARK UNBOUND:                -2.345
REMARK SMILES CCCCCCCCCCCCCC[C@@H](C)C(=O)[O-]
REMARK SMILES IDX 9 1 10 2 11 3 12 4 13 5 14 6 15 7 16 8 17 9 18 10 19 11 8 12
REMARK SMILES IDX 7 13 6 14 5 15 4 16 3 17 2 18 1 19
REMARK H PARENT
REMARK Flexibility Score: inf
ROOT
ATOM      1  C   UNL     1      11.095 -22.975  42.126  1.00  0.00     0.000 C 
ENDROOT
BRANCH   1   2
ATOM      2  C   UNL     1      12.384 -22.160  41.924  1.00  0.00     0.000 C 
BRANCH   2   3
ATOM      3  C   UNL     1      12.404 -21.407  40.585  1.00  0.00     0.000 C 
BRANCH   3   4
ATOM      4  C   UNL     1      13.709 -21.619  39.802  1.00  0.00     0.000 C 
BRANCH   4   5
ATOM      5  C   UNL     1      13.441 -22.328  38.469  1.00  0.00     0.001 C 
BRANCH   5   6
ATOM      6  C   UNL     1      12.870 -23.736  38.699  1.00  0.00     0.009 C 
BRANCH   6   7
ATOM      7  C   UNL     1      13.970 -24.814  38.820  1.00  0.00     0.032 C 
ATOM      8  C   UNL     1      14.021 -25.440  40.221  1.00  0.00     0.014 C 
BRANCH   7   9
ATOM      9  C   UNL     1      13.753 -25.890  37.793  1.00  0.00     0.044 C 
ATOM     10  O   UNL     1      13.671 -27.100  38.139  1.00  0.00    -0.550 OA
ATOM     11  O   UNL     1      13.656 -25.556  36.448  1.00  0.00    -0.550 OA
ENDBRANCH   7   9
ENDBRANCH   6   7
ENDBRANCH   5   6
ENDBRANCH   4   5
ENDBRANCH   3   4
ENDBRANCH   2   3
ENDBRANCH   1   2
BRANCH   1  12
ATOM     12  C   UNL     1      10.083 -22.773  40.986  1.00  0.00     0.000 C 
BRANCH  12  13
ATOM     13  C   UNL     1       9.435 -24.091  40.527  1.00  0.00    -0.000 C 
BRANCH  13  14
ATOM     14  C   UNL     1      10.293 -25.318  40.877  1.00  0.00    -0.000 C 
BRANCH  14  15
ATOM     15  C   UNL     1       9.563 -26.361  41.758  1.00  0.00    -0.000 C 
BRANCH  15  16
ATOM     16  C   UNL     1      10.203 -27.760  41.712  1.00  0.00    -0.000 C 
BRANCH  16  17
ATOM     17  C   UNL     1      11.419 -27.872  40.774  1.00  0.00    -0.000 C 
BRANCH  17  18
ATOM     18  C   UNL     1      12.294 -29.118  41.038  1.00  0.00    -0.003 C 
ATOM     19  C   UNL     1      13.152 -28.993  42.297  1.00  0.00     0.004 C 
ENDBRANCH  17  18
ENDBRANCH  16  17
ENDBRANCH  15  16
ENDBRANCH  14  15
ENDBRANCH  13  14
ENDBRANCH  12  13
ENDBRANCH   1  12
TORSDOF 14
ENDMDL
MODEL 8
REMARK VINA RESULT:    -3.647      2.144      5.589
REMARK INTER + INTRA:          -8.977
REMARK INTER:                  -7.041
REMARK INTRA:                  -1.936
REMARK UNBOUND:                -2.345
REMARK SMILES CCCCCCCCCCCCCC[C@@H](C)C(=O)[O-]
REMARK SMILES IDX 9 1 10 2 11 3 12 4 13 5 14 6 15 7 16 8 17 9 18 10 19 11 8 12
REMARK SMILES IDX 7 13 6 14 5 15 4 16 3 17 2 18 1 19
REMARK H PARENT
REMARK Flexibility Score: inf
ROOT
ATOM      1  C   UNL     1      11.262 -22.799  42.008  1.00  0.00     0.000 C 
ENDROOT
BRANCH   1   2
ATOM      2  C   UNL     1      12.401 -21.777  42.163  1.00  0.00     0.000 C 
BRANCH   2   3
ATOM      3  C   UNL     1      13.792 -22.427  42.084  1.00  0.00     0.000 C 
BRANCH   3   4
ATOM      4  C   UNL     1      13.836 -23.622  41.120  1.00  0.00     0.000 C 
BRANCH   4   5
ATOM      5  C   UNL     1      14.634 -23.280  39.856  1.00  0.00     0.001 C 
BRANCH   5   6
ATOM      6  C   UNL     1      13.699 -22.851  38.714  1.00  0.00     0.009 C 
BRANCH   6   7
ATOM      7  C   UNL     1      13.779 -21.337  38.415  1.00  0.00     0.032 C 
ATOM      8  C   UNL     1      14.971 -20.667  39.113  1.00  0.00     0.014 C 
BRANCH   7   9
ATOM      9  C   UNL     1      13.869 -21.109  36.930  1.00  0.00     0.044 C 
ATOM     10  O   UNL     1      13.885 -19.939  36.462  1.00  0.00    -0.550 OA
ATOM     11  O   UNL     1      13.919 -22.193  36.064  1.00  0.00    -0.550 OA
ENDBRANCH   7   9
ENDBRANCH   6   7
ENDBRANCH   5   6
ENDBRANCH   4   5
ENDBRANCH   3   4
ENDBRANCH   2   3
ENDBRANCH   1   2
BRANCH   1  12
ATOM     12  C   UNL     1      10.414 -22.554  40.748  1.00  0.00     0.000 C 
BRANCH  12  13
ATOM     13  C   UNL     1       9.369 -23.658  40.512  1.00  0.00    -0.000 C 
BRANCH  13  14
ATOM     14  C   UNL     1       9.810 -24.661  39.433  1.00  0.00    -0.000 C 
BRANCH  14  15
ATOM     15  C   UNL     1      11.003 -25.551  39.856  1.00  0.00    -0.000 C 
BRANCH  15  16
ATOM     16  C   UNL     1      10.596 -26.987  40.230  1.00  0.00    -0.000 C 
BRANCH  16  17
ATOM     17  C   UNL     1      10.187 -27.169  41.703  1.00  0.00    -0.000 C 
BRANCH  17  18
ATOM     18  C   UNL     1       8.816 -27.858  41.886  1.00  0.00    -0.003 C 
ATOM     19  C   UNL     1       7.645 -26.999  41.410  1.00  0.00     0.004 C 
ENDBRANCH  17  18
ENDBRANCH  16  17
ENDBRANCH  15  16
ENDBRANCH  14  15
ENDBRANCH  13  14
ENDBRANCH  12  13
ENDBRANCH   1  12
TORSDOF 14
ENDMDL
MODEL 9
REMARK VINA RESULT:    -3.645      1.834      3.913
REMARK INTER + INTRA:          -8.972
REMARK INTER:                  -6.498
REMARK INTRA:                  -2.473
REMARK UNBOUND:                -2.345
REMARK SMILES CCCCCCCCCCCCCC[C@@H](C)C(=O)[O-]
REMARK SMILES IDX 9 1 10 2 11 3 12 4 13 5 14 6 15 7 16 8 17 9 18 10 19 11 8 12
REMARK SMILES IDX 7 13 6 14 5 15 4 16 3 17 2 18 1 19
REMARK H PARENT
REMARK Flexibility Score: inf
ROOT
ATOM      1  C   UNL     1      14.112 -23.921  39.593  1.00  0.00     0.000 C 
ENDROOT
BRANCH   1   2
ATOM      2  C   UNL     1      14.558 -24.384  40.991  1.00  0.00     0.000 C 
BRANCH   2   3
ATOM      3  C   UNL     1      15.690 -25.422  40.937  1.00  0.00     0.000 C 
BRANCH   3   4
ATOM      4  C   UNL     1      15.366 -26.697  41.731  1.00  0.00     0.000 C 
BRANCH   4   5
ATOM      5  C   UNL     1      15.033 -27.861  40.790  1.00  0.00     0.001 C 
BRANCH   5   6
ATOM      6  C   UNL     1      15.384 -27.511  39.335  1.00  0.00     0.009 C 
BRANCH   6   7
ATOM      7  C   UNL     1      14.278 -27.926  38.338  1.00  0.00     0.032 C 
ATOM      8  C   UNL     1      12.957 -28.267  39.042  1.00  0.00     0.014 C 
BRANCH   7   9
ATOM      9  C   UNL     1      14.049 -26.828  37.336  1.00  0.00     0.044 C 
ATOM     10  O   UNL     1      14.975 -26.025  37.042  1.00  0.00    -0.550 OA
ATOM     11  O   UNL     1      12.804 -26.684  36.738  1.00  0.00    -0.550 OA
ENDBRANCH   7   9
ENDBRANCH   6   7
ENDBRANCH   5   6
ENDBRANCH   4   5
ENDBRANCH   3   4
ENDBRANCH   2   3
ENDBRANCH   1   2
BRANCH   1  12
ATOM     12  C   UNL     1      12.627 -24.212  39.319  1.00  0.00     0.000 C 
BRANCH  12  13
ATOM     13  C   UNL     1      11.955 -24.993  40.462  1.00  0.00    -0.000 C 
BRANCH  13  14
ATOM     14  C   UNL     1      10.589 -24.402  40.851  1.00  0.00    -0.000 C 
BRANCH  14  15
ATOM     15  C   UNL     1      10.542 -22.855  40.808  1.00  0.00    -0.000 C 
BRANCH  15  16
ATOM     16  C   UNL     1      11.247 -22.186  42.001  1.00  0.00    -0.000 C 
BRANCH  16  17
ATOM     17  C   UNL     1      12.502 -21.376  41.625  1.00  0.00    -0.000 C 
BRANCH  17  18
ATOM     18  C   UNL     1      13.387 -21.005  42.836  1.00  0.00    -0.003 C 
ATOM     19  C   UNL     1      13.564 -22.156  43.826  1.00  0.00     0.004 C 
ENDBRANCH  17  18
ENDBRANCH  16  17
ENDBRANCH  15  16
ENDBRANCH  14  15
ENDBRANCH  13  14
ENDBRANCH  12  13
ENDBRANCH   1  12
TORSDOF 14
ENDMDL
