MODEL 1
REMARK VINA RESULT:    -5.134      0.000      0.000
REMARK INTER + INTRA:          -9.720
REMARK INTER:                  -9.036
REMARK INTRA:                  -0.684
REMARK UNBOUND:                -0.684
REMARK SMILES CCCCCCCCCCCCCCC(=O)[O-]
REMARK SMILES IDX 9 1 10 2 11 3 12 4 13 5 14 6 15 7 16 8 17 9 8 10 7 11 6 12
REMARK SMILES IDX 5 13 4 14 3 15 2 16 1 17
REMARK H PARENT
REMARK Flexibility Score: inf
ROOT
ATOM      1  C   UNL     1      45.666  35.016  12.543  1.00  0.00     0.000 C 
ENDROOT
BRANCH   1   2
ATOM      2  C   UNL     1      47.136  35.430  12.706  1.00  0.00     0.000 C 
BRANCH   2   3
ATOM      3  C   UNL     1      48.059  34.207  12.668  1.00  0.00     0.000 C 
BRANCH   3   4
ATOM      4  C   UNL     1      48.876  34.092  13.963  1.00  0.00     0.000 C 
BRANCH   4   5
ATOM      5  C   UNL     1      48.030  33.624  15.158  1.00  0.00     0.006 C 
BRANCH   5   6
ATOM      6  C   UNL     1      48.613  34.068  16.505  1.00  0.00     0.053 C 
BRANCH   6   7
ATOM      7  C   UNL     1      48.942  32.877  17.350  1.00  0.00     0.041 C 
ATOM      8  O   UNL     1      50.119  32.699  17.761  1.00  0.00    -0.550 OA
ATOM      9  O   UNL     1      47.941  31.991  17.724  1.00  0.00    -0.550 OA
ENDBRANCH   6   7
ENDBRANCH   5   6
ENDBRANCH   4   5
ENDBRANCH   3   4
ENDBRANCH   2   3
ENDBRANCH   1   2
BRANCH   1  10
ATOM     10  C   UNL     1      44.686  36.098  13.020  1.00  0.00     0.000 C 
BRANCH  10  11
ATOM     11  C   UNL     1      43.424  36.183  12.142  1.00  0.00    -0.000 C 
BRANCH  11  12
ATOM     12  C   UNL     1      43.209  37.588  11.556  1.00  0.00    -0.000 C 
BRANCH  12  13
ATOM     13  C   UNL     1      42.075  37.623  10.516  1.00  0.00    -0.000 C 
BRANCH  13  14
ATOM     14  C   UNL     1      41.755  36.235   9.932  1.00  0.00    -0.000 C 
BRANCH  14  15
ATOM     15  C   UNL     1      40.287  35.794  10.067  1.00  0.00    -0.000 C 
BRANCH  15  16
ATOM     16  C   UNL     1      40.109  34.579  10.990  1.00  0.00    -0.003 C 
ATOM     17  C   UNL     1      38.723  34.572  11.628  1.00  0.00     0.004 C 
ENDBRANCH  15  16
ENDBRANCH  14  15
ENDBRANCH  13  14
ENDBRANCH  12  13
ENDBRANCH  11  12
ENDBRANCH  10  11
ENDBRANCH   1  10
TORSDOF 13
ENDMDL
MODEL 2
REMARK VINA RESULT:    -5.069      1.279      1.741
REMARK INTER + INTRA:          -9.604
REMARK INTER:                  -8.965
REMARK INTRA:                  -0.639
REMARK UNBOUND:                -0.684
REMARK SMILES CCCCCCCCCCCCCCC(=O)[O-]
REMARK SMILES IDX 9 1 10 2 11 3 12 4 13 5 14 6 15 7 16 8 17 9 8 10 7 11 6 12
REMARK SMILES IDX 5 13 4 14 3 15 2 16 1 17
REMARK H PARENT
REMARK Flexibility Score: inf
ROOT
ATOM      1  C   UNL     1      47.150  34.749  12.335  1.00  0.00     0.000 C 
ENDROOT
BRANCH   1   2
ATOM      2  C   UNL     1      48.407  34.637  13.211  1.00  0.00     0.000 C 
BRANCH   2   3
ATOM      3  C   UNL     1      48.215  33.589  14.314  1.00  0.00     0.000 C 
BRANCH   3   4
ATOM      4  C   UNL     1      48.627  34.150  15.684  1.00  0.00     0.000 C 
BRANCH   4   5
ATOM      5  C   UNL     1      47.791  33.572  16.836  1.00  0.00     0.006 C 
BRANCH   5   6
ATOM      6  C   UNL     1      48.523  32.459  17.596  1.00  0.00     0.053 C 
BRANCH   6   7
ATOM      7  C   UNL     1      47.826  31.148  17.404  1.00  0.00     0.041 C 
ATOM      8  O   UNL     1      47.662  30.370  18.379  1.00  0.00    -0.550 OA
ATOM      9  O   UNL     1      47.315  30.809  16.158  1.00  0.00    -0.550 OA
ENDBRANCH   6   7
ENDBRANCH   5   6
ENDBRANCH   4   5
ENDBRANCH   3   4
ENDBRANCH   2   3
ENDBRANCH   1   2
BRANCH   1  10
ATOM     10  C   UNL     1      46.168  35.819  12.837  1.00  0.00     0.000 C 
BRANCH  10  11
ATOM     11  C   UNL     1      44.698  35.441  12.581  1.00  0.00    -0.000 C 
BRANCH  11  12
ATOM     12  C   UNL     1      43.782  36.672  12.488  1.00  0.00    -0.000 C 
BRANCH  12  13
ATOM     13  C   UNL     1      42.320  36.295  12.190  1.00  0.00    -0.000 C 
BRANCH  13  14
ATOM     14  C   UNL     1      42.065  36.024  10.696  1.00  0.00    -0.000 C 
BRANCH  14  15
ATOM     15  C   UNL     1      40.860  35.114  10.396  1.00  0.00    -0.000 C 
BRANCH  15  16
ATOM     16  C   UNL     1      40.150  34.623  11.666  1.00  0.00    -0.003 C 
ATOM     17  C   UNL     1      38.661  34.957  11.626  1.00  0.00     0.004 C 
ENDBRANCH  15  16
ENDBRANCH  14  15
ENDBRANCH  13  14
ENDBRANCH  12  13
ENDBRANCH  11  12
ENDBRANCH  10  11
ENDBRANCH   1  10
TORSDOF 13
ENDMDL
MODEL 3
REMARK VINA RESULT:    -5.041     11.004     13.970
REMARK INTER + INTRA:          -9.556
REMARK INTER:                  -8.192
REMARK INTRA:                  -1.364
REMARK UNBOUND:                -0.684
REMARK SMILES CCCCCCCCCCCCCCC(=O)[O-]
REMARK SMILES IDX 9 1 10 2 11 3 12 4 13 5 14 6 15 7 16 8 17 9 8 10 7 11 6 12
REMARK SMILES IDX 5 13 4 14 3 15 2 16 1 17
REMARK H PARENT
REMARK Flexibility Score: inf
ROOT
ATOM      1  C   UNL     1      48.505  26.071  19.255  1.00  0.00     0.000 C 
ENDROOT
BRANCH   1   2
ATOM      2  C   UNL     1      49.339  24.907  18.698  1.00  0.00     0.000 C 
BRANCH   2   3
ATOM      3  C   UNL     1      49.512  25.032  17.180  1.00  0.00     0.000 C 
BRANCH   3   4
ATOM      4  C   UNL     1      48.251  25.620  16.529  1.00  0.00     0.000 C 
BRANCH   4   5
ATOM      5  C   UNL     1      48.324  25.623  14.994  1.00  0.00     0.006 C 
BRANCH   5   6
ATOM      6  C   UNL     1      49.712  25.238  14.468  1.00  0.00     0.053 C 
BRANCH   6   7
ATOM      7  C   UNL     1      49.833  25.576  13.015  1.00  0.00     0.041 C 
ATOM      8  O   UNL     1      50.932  25.426  12.419  1.00  0.00    -0.550 OA
ATOM      9  O   UNL     1      48.720  26.010  12.307  1.00  0.00    -0.550 OA
ENDBRANCH   6   7
ENDBRANCH   5   6
ENDBRANCH   4   5
ENDBRANCH   3   4
ENDBRANCH   2   3
ENDBRANCH   1   2
BRANCH   1  10
ATOM     10  C   UNL     1      48.418  26.060  20.789  1.00  0.00     0.000 C 
BRANCH  10  11
ATOM     11  C   UNL     1      49.271  24.947  21.423  1.00  0.00    -0.000 C 
BRANCH  11  12
ATOM     12  C   UNL     1      49.980  25.409  22.707  1.00  0.00    -0.000 C 
BRANCH  12  13
ATOM     13  C   UNL     1      50.262  26.922  22.710  1.00  0.00    -0.000 C 
BRANCH  13  14
ATOM     14  C   UNL     1      51.727  27.258  22.375  1.00  0.00    -0.000 C 
BRANCH  14  15
ATOM     15  C   UNL     1      52.679  26.050  22.329  1.00  0.00    -0.000 C 
BRANCH  15  16
ATOM     16  C   UNL     1      53.389  25.897  20.976  1.00  0.00    -0.003 C 
ATOM     17  C   UNL     1      52.535  26.456  19.841  1.00  0.00     0.004 C 
ENDBRANCH  15  16
ENDBRANCH  14  15
ENDBRANCH  13  14
ENDBRANCH  12  13
ENDBRANCH  11  12
ENDBRANCH  10  11
ENDBRANCH   1  10
TORSDOF 13
ENDMDL
MODEL 4
REMARK VINA RESULT:    -5.026      5.180      9.308
REMARK INTER + INTRA:          -9.530
REMARK INTER:                  -8.500
REMARK INTRA:                  -1.029
REMARK UNBOUND:                -0.684
REMARK SMILES CCCCCCCCCCCCCCC(=O)[O-]
REMARK SMILES IDX 9 1 10 2 11 3 12 4 13 5 14 6 15 7 16 8 17 9 8 10 7 11 6 12
REMARK SMILES IDX 5 13 4 14 3 15 2 16 1 17
REMARK H PARENT
REMARK Flexibility Score: inf
ROOT
ATOM      1  C   UNL     1      47.779  31.237  17.880  1.00  0.00     0.000 C 
ENDROOT
BRANCH   1   2
ATOM      2  C   UNL     1      48.737  32.436  17.816  1.00  0.00     0.000 C 
BRANCH   2   3
ATOM      3  C   UNL     1      48.032  33.673  17.250  1.00  0.00     0.000 C 
BRANCH   3   4
ATOM      4  C   UNL     1      48.770  34.211  16.014  1.00  0.00     0.000 C 
BRANCH   4   5
ATOM      5  C   UNL     1      48.254  33.597  14.703  1.00  0.00     0.006 C 
BRANCH   5   6
ATOM      6  C   UNL     1      48.832  34.287  13.461  1.00  0.00     0.053 C 
BRANCH   6   7
ATOM      7  C   UNL     1      47.781  34.426  12.404  1.00  0.00     0.041 C 
ATOM      8  O   UNL     1      47.879  33.783  11.326  1.00  0.00    -0.550 OA
ATOM      9  O   UNL     1      46.669  35.227  12.630  1.00  0.00    -0.550 OA
ENDBRANCH   6   7
ENDBRANCH   5   6
ENDBRANCH   4   5
ENDBRANCH   3   4
ENDBRANCH   2   3
ENDBRANCH   1   2
BRANCH   1  10
ATOM     10  C   UNL     1      47.961  30.265  16.704  1.00  0.00     0.000 C 
BRANCH  10  11
ATOM     11  C   UNL     1      49.380  30.313  16.110  1.00  0.00    -0.000 C 
BRANCH  11  12
ATOM     12  C   UNL     1      49.820  28.960  15.530  1.00  0.00    -0.000 C 
BRANCH  12  13
ATOM     13  C   UNL     1      48.626  28.077  15.126  1.00  0.00    -0.000 C 
BRANCH  13  14
ATOM     14  C   UNL     1      48.974  26.577  15.092  1.00  0.00    -0.000 C 
BRANCH  14  15
ATOM     15  C   UNL     1      48.214  25.709  16.110  1.00  0.00    -0.000 C 
BRANCH  15  16
ATOM     16  C   UNL     1      49.098  25.234  17.272  1.00  0.00    -0.003 C 
ATOM     17  C   UNL     1      48.448  25.542  18.619  1.00  0.00     0.004 C 
ENDBRANCH  15  16
ENDBRANCH  14  15
ENDBRANCH  13  14
ENDBRANCH  12  13
ENDBRANCH  11  12
ENDBRANCH  10  11
ENDBRANCH   1  10
TORSDOF 13
ENDMDL
MODEL 5
REMARK VINA RESULT:    -4.995      3.514      5.892
REMARK INTER + INTRA:          -9.475
REMARK INTER:                  -7.315
REMARK INTRA:                  -2.160
REMARK UNBOUND:                -0.684
REMARK SMILES CCCCCCCCCCCCCCC(=O)[O-]
REMARK SMILES IDX 9 1 10 2 11 3 12 4 13 5 14 6 15 7 16 8 17 9 8 10 7 11 6 12
REMARK SMILES IDX 5 13 4 14 3 15 2 16 1 17
REMARK H PARENT
REMARK Flexibility Score: inf
ROOT
ATOM      1  C   UNL     1      39.679  39.533  11.166  1.00  0.00     0.000 C 
ENDROOT
BRANCH   1   2
ATOM      2  C   UNL     1      40.452  38.647  10.177  1.00  0.00     0.000 C 
BRANCH   2   3
ATOM      3  C   UNL     1      41.963  38.758  10.406  1.00  0.00     0.000 C 
BRANCH   3   4
ATOM      4  C   UNL     1      42.589  37.373  10.634  1.00  0.00     0.000 C 
BRANCH   4   5
ATOM      5  C   UNL     1      43.612  37.367  11.781  1.00  0.00     0.006 C 
BRANCH   5   6
ATOM      6  C   UNL     1      43.553  36.084  12.619  1.00  0.00     0.053 C 
BRANCH   6   7
ATOM      7  C   UNL     1      44.892  35.789  13.217  1.00  0.00     0.041 C 
ATOM      8  O   UNL     1      44.975  35.315  14.381  1.00  0.00    -0.550 OA
ATOM      9  O   UNL     1      46.047  35.990  12.473  1.00  0.00    -0.550 OA
ENDBRANCH   6   7
ENDBRANCH   5   6
ENDBRANCH   4   5
ENDBRANCH   3   4
ENDBRANCH   2   3
ENDBRANCH   1   2
BRANCH   1  10
ATOM     10  C   UNL     1      40.090  39.294  12.627  1.00  0.00     0.000 C 
BRANCH  10  11
ATOM     11  C   UNL     1      38.895  38.930  13.527  1.00  0.00    -0.000 C 
BRANCH  11  12
ATOM     12  C   UNL     1      38.844  37.431  13.859  1.00  0.00    -0.000 C 
BRANCH  12  13
ATOM     13  C   UNL     1      40.108  36.684  13.399  1.00  0.00    -0.000 C 
BRANCH  13  14
ATOM     14  C   UNL     1      39.793  35.457  12.521  1.00  0.00    -0.000 C 
BRANCH  14  15
ATOM     15  C   UNL     1      38.663  35.662  11.497  1.00  0.00    -0.000 C 
BRANCH  15  16
ATOM     16  C   UNL     1      38.998  35.089  10.113  1.00  0.00    -0.003 C 
ATOM     17  C   UNL     1      40.461  34.661  10.034  1.00  0.00     0.004 C 
ENDBRANCH  15  16
ENDBRANCH  14  15
ENDBRANCH  13  14
ENDBRANCH  12  13
ENDBRANCH  11  12
ENDBRANCH  10  11
ENDBRANCH   1  10
TORSDOF 13
ENDMDL
MODEL 6
REMARK VINA RESULT:    -4.959      4.186      8.699
REMARK INTER + INTRA:          -9.411
REMARK INTER:                  -8.732
REMARK INTRA:                  -0.679
REMARK UNBOUND:                -0.684
REMARK SMILES CCCCCCCCCCCCCCC(=O)[O-]
REMARK SMILES IDX 9 1 10 2 11 3 12 4 13 5 14 6 15 7 16 8 17 9 8 10 7 11 6 12
REMARK SMILES IDX 5 13 4 14 3 15 2 16 1 17
REMARK H PARENT
REMARK Flexibility Score: inf
ROOT
ATOM      1  C   UNL     1      45.131  35.387  12.882  1.00  0.00     0.000 C 
ENDROOT
BRANCH   1   2
ATOM      2  C   UNL     1      44.176  36.557  12.600  1.00  0.00     0.000 C 
BRANCH   2   3
ATOM      3  C   UNL     1      42.996  36.105  11.734  1.00  0.00     0.000 C 
BRANCH   3   4
ATOM      4  C   UNL     1      42.152  37.306  11.282  1.00  0.00     0.000 C 
BRANCH   4   5
ATOM      5  C   UNL     1      40.649  37.102  11.531  1.00  0.00     0.006 C 
BRANCH   5   6
ATOM      6  C   UNL     1      40.346  35.795  12.275  1.00  0.00     0.053 C 
BRANCH   6   7
ATOM      7  C   UNL     1      39.687  34.813  11.359  1.00  0.00     0.041 C 
ATOM      8  O   UNL     1      38.626  34.233  11.711  1.00  0.00    -0.550 OA
ATOM      9  O   UNL     1      40.217  34.574  10.098  1.00  0.00    -0.550 OA
ENDBRANCH   6   7
ENDBRANCH   5   6
ENDBRANCH   4   5
ENDBRANCH   3   4
ENDBRANCH   2   3
ENDBRANCH   1   2
BRANCH   1  10
ATOM     10  C   UNL     1      46.595  35.722  12.557  1.00  0.00     0.000 C 
BRANCH  10  11
ATOM     11  C   UNL     1      47.466  34.464  12.387  1.00  0.00    -0.000 C 
BRANCH  11  12
ATOM     12  C   UNL     1      48.645  34.428  13.373  1.00  0.00    -0.000 C 
BRANCH  12  13
ATOM     13  C   UNL     1      48.492  33.320  14.430  1.00  0.00    -0.000 C 
BRANCH  13  14
ATOM     14  C   UNL     1      47.677  33.771  15.657  1.00  0.00    -0.000 C 
BRANCH  14  15
ATOM     15  C   UNL     1      48.502  34.018  16.932  1.00  0.00    -0.000 C 
BRANCH  15  16
ATOM     16  C   UNL     1      49.104  32.731  17.515  1.00  0.00    -0.003 C 
ATOM     17  C   UNL     1      48.012  31.732  17.886  1.00  0.00     0.004 C 
ENDBRANCH  15  16
ENDBRANCH  14  15
ENDBRANCH  13  14
ENDBRANCH  12  13
ENDBRANCH  11  12
ENDBRANCH  10  11
ENDBRANCH   1  10
TORSDOF 13
ENDMDL
MODEL 7
REMARK VINA RESULT:    -4.941      4.196      8.563
REMARK INTER + INTRA:          -9.380
REMARK INTER:                  -8.520
REMARK INTRA:                  -0.860
REMARK UNBOUND:                -0.684
REMARK SMILES CCCCCCCCCCCCCCC(=O)[O-]
REMARK SMILES IDX 9 1 10 2 11 3 12 4 13 5 14 6 15 7 16 8 17 9 8 10 7 11 6 12
REMARK SMILES IDX 5 13 4 14 3 15 2 16 1 17
REMARK H PARENT
REMARK Flexibility Score: inf
ROOT
ATOM      1  C   UNL     1      48.501  33.719  12.373  1.00  0.00     0.000 C 
ENDROOT
BRANCH   1   2
ATOM      2  C   UNL     1      47.211  34.263  11.742  1.00  0.00     0.000 C 
BRANCH   2   3
ATOM      3  C   UNL     1      46.714  35.505  12.491  1.00  0.00     0.000 C 
BRANCH   3   4
ATOM      4  C   UNL     1      45.232  35.365  12.868  1.00  0.00     0.000 C 
BRANCH   4   5
ATOM      5  C   UNL     1      44.389  36.569  12.417  1.00  0.00     0.006 C 
BRANCH   5   6
ATOM      6  C   UNL     1      42.954  36.178  12.042  1.00  0.00     0.053 C 
BRANCH   6   7
ATOM      7  C   UNL     1      42.381  37.162  11.072  1.00  0.00     0.041 C 
ATOM      8  O   UNL     1      42.135  36.813   9.887  1.00  0.00    -0.550 OA
ATOM      9  O   UNL     1      42.073  38.451  11.488  1.00  0.00    -0.550 OA
ENDBRANCH   6   7
ENDBRANCH   5   6
ENDBRANCH   4   5
ENDBRANCH   3   4
ENDBRANCH   2   3
ENDBRANCH   1   2
BRANCH   1  10
ATOM     10  C   UNL     1      48.819  34.367  13.730  1.00  0.00     0.000 C 
BRANCH  10  11
ATOM     11  C   UNL     1      48.355  33.508  14.920  1.00  0.00    -0.000 C 
BRANCH  11  12
ATOM     12  C   UNL     1      48.684  34.154  16.275  1.00  0.00    -0.000 C 
BRANCH  12  13
ATOM     13  C   UNL     1      48.001  33.434  17.451  1.00  0.00    -0.000 C 
BRANCH  13  14
ATOM     14  C   UNL     1      48.658  32.082  17.788  1.00  0.00    -0.000 C 
BRANCH  14  15
ATOM     15  C   UNL     1      47.776  30.847  17.532  1.00  0.00    -0.000 C 
BRANCH  15  16
ATOM     16  C   UNL     1      48.308  29.954  16.402  1.00  0.00    -0.003 C 
ATOM     17  C   UNL     1      49.823  30.081  16.269  1.00  0.00     0.004 C 
ENDBRANCH  15  16
ENDBRANCH  14  15
ENDBRANCH  13  14
ENDBRANCH  12  13
ENDBRANCH  11  12
ENDBRANCH  10  11
ENDBRANCH   1  10
TORSDOF 13
ENDMDL
MODEL 8
REMARK VINA RESULT:    -4.925      7.679     12.929
REMARK INTER + INTRA:          -9.352
REMARK INTER:                  -7.968
REMARK INTRA:                  -1.384
REMARK UNBOUND:                -0.684
REMARK SMILES CCCCCCCCCCCCCCC(=O)[O-]
REMARK SMILES IDX 9 1 10 2 11 3 12 4 13 5 14 6 15 7 16 8 17 9 8 10 7 11 6 12
REMARK SMILES IDX 5 13 4 14 3 15 2 16 1 17
REMARK H PARENT
REMARK Flexibility Score: inf
ROOT
ATOM      1  C   UNL     1      49.721  25.162  18.831  1.00  0.00     0.000 C 
ENDROOT
BRANCH   1   2
ATOM      2  C   UNL     1      49.703  25.013  17.302  1.00  0.00     0.000 C 
BRANCH   2   3
ATOM      3  C   UNL     1      48.390  25.540  16.714  1.00  0.00     0.000 C 
BRANCH   3   4
ATOM      4  C   UNL     1      48.633  26.788  15.851  1.00  0.00     0.000 C 
BRANCH   4   5
ATOM      5  C   UNL     1      48.810  28.063  16.691  1.00  0.00     0.006 C 
BRANCH   5   6
ATOM      6  C   UNL     1      47.730  29.114  16.404  1.00  0.00     0.053 C 
BRANCH   6   7
ATOM      7  C   UNL     1      48.353  30.455  16.175  1.00  0.00     0.041 C 
ATOM      8  O   UNL     1      48.204  31.375  17.022  1.00  0.00    -0.550 OA
ATOM      9  O   UNL     1      49.139  30.674  15.052  1.00  0.00    -0.550 OA
ENDBRANCH   6   7
ENDBRANCH   5   6
ENDBRANCH   4   5
ENDBRANCH   3   4
ENDBRANCH   2   3
ENDBRANCH   1   2
BRANCH   1  10
ATOM     10  C   UNL     1      48.376  25.640  19.398  1.00  0.00     0.000 C 
BRANCH  10  11
ATOM     11  C   UNL     1      48.279  25.459  20.924  1.00  0.00    -0.000 C 
BRANCH  11  12
ATOM     12  C   UNL     1      48.305  26.799  21.677  1.00  0.00    -0.000 C 
BRANCH  12  13
ATOM     13  C   UNL     1      49.523  26.925  22.609  1.00  0.00    -0.000 C 
BRANCH  13  14
ATOM     14  C   UNL     1      50.345  25.626  22.699  1.00  0.00    -0.000 C 
BRANCH  14  15
ATOM     15  C   UNL     1      51.845  25.782  22.390  1.00  0.00    -0.000 C 
BRANCH  15  16
ATOM     16  C   UNL     1      52.202  27.169  21.838  1.00  0.00    -0.003 C 
ATOM     17  C   UNL     1      52.643  27.084  20.380  1.00  0.00     0.004 C 
ENDBRANCH  15  16
ENDBRANCH  14  15
ENDBRANCH  13  14
ENDBRANCH  12  13
ENDBRANCH  11  12
ENDBRANCH  10  11
ENDBRANCH   1  10
TORSDOF 13
ENDMDL
MODEL 9
REMARK VINA RESULT:    -4.893      8.953     13.354
REMARK INTER + INTRA:          -9.295
REMARK INTER:                  -7.463
REMARK INTRA:                  -1.832
REMARK UNBOUND:                -0.684
REMARK SMILES CCCCCCCCCCCCCCC(=O)[O-]
REMARK SMILES IDX 9 1 10 2 11 3 12 4 13 5 14 6 15 7 16 8 17 9 8 10 7 11 6 12
REMARK SMILES IDX 5 13 4 14 3 15 2 16 1 17
REMARK H PARENT
REMARK Flexibility Score: inf
ROOT
ATOM      1  C   UNL     1      48.507  26.186  19.996  1.00  0.00     0.000 C 
ENDROOT
BRANCH   1   2
ATOM      2  C   UNL     1      49.291  24.925  19.603  1.00  0.00     0.000 C 
BRANCH   2   3
ATOM      3  C   UNL     1      49.627  24.931  18.108  1.00  0.00     0.000 C 
BRANCH   3   4
ATOM      4  C   UNL     1      48.542  25.659  17.301  1.00  0.00     0.000 C 
BRANCH   4   5
ATOM      5  C   UNL     1      49.123  26.519  16.168  1.00  0.00     0.006 C 
BRANCH   5   6
ATOM      6  C   UNL     1      49.441  27.951  16.616  1.00  0.00     0.053 C 
BRANCH   6   7
ATOM      7  C   UNL     1      48.179  28.734  16.800  1.00  0.00     0.041 C 
ATOM      8  O   UNL     1      47.431  28.968  15.814  1.00  0.00    -0.550 OA
ATOM      9  O   UNL     1      47.805  29.162  18.066  1.00  0.00    -0.550 OA
ENDBRANCH   6   7
ENDBRANCH   5   6
ENDBRANCH   4   5
ENDBRANCH   3   4
ENDBRANCH   2   3
ENDBRANCH   1   2
BRANCH   1  10
ATOM     10  C   UNL     1      48.415  26.382  21.517  1.00  0.00     0.000 C 
BRANCH  10  11
ATOM     11  C   UNL     1      49.691  25.932  22.250  1.00  0.00    -0.000 C 
BRANCH  11  12
ATOM     12  C   UNL     1      50.534  27.119  22.744  1.00  0.00    -0.000 C 
BRANCH  12  13
ATOM     13  C   UNL     1      52.034  26.935  22.454  1.00  0.00    -0.000 C 
BRANCH  13  14
ATOM     14  C   UNL     1      52.325  25.729  21.542  1.00  0.00    -0.000 C 
BRANCH  14  15
ATOM     15  C   UNL     1      53.126  26.052  20.269  1.00  0.00    -0.000 C 
BRANCH  15  16
ATOM     16  C   UNL     1      52.486  27.163  19.424  1.00  0.00    -0.003 C 
ATOM     17  C   UNL     1      53.458  28.322  19.213  1.00  0.00     0.004 C 
ENDBRANCH  15  16
ENDBRANCH  14  15
ENDBRANCH  13  14
ENDBRANCH  12  13
ENDBRANCH  11  12
ENDBRANCH  10  11
ENDBRANCH   1  10
TORSDOF 13
ENDMDL
