MODEL 1
REMARK VINA RESULT:    -6.371      0.000      0.000
REMARK INTER + INTRA:         -10.270
REMARK INTER:                  -9.165
REMARK INTRA:                  -1.105
REMARK UNBOUND:                -1.105
REMARK SMILES O=c1c(O[C@@H]2O[C@@H](CO)[C@H](O)[C@@H](O)[C@H]2O)c(-c2ccc(O)cc2)oc2cc(O)cc(O)c12
REMARK SMILES IDX 4 1 3 2 16 3 24 4 2 5 25 6 1 7 32 8 26 9 30 10 27 11 29 12
REMARK SMILES IDX 17 13 18 14 19 15 20 16 23 17 22 18 21 19 31 21 28 23 5 25
REMARK SMILES IDX 14 26 6 27 12 28 7 29 10 30 15 31 13 33 8 35 9 36 11 38
REMARK H PARENT 21 20 31 22 28 24 15 32 13 34 9 37 11 39
REMARK Flexibility Score: inf
ROOT
ATOM      1  O   UNL     1      16.733  43.634  73.398  1.00  0.00    -0.454 OA
ENDROOT
BRANCH   1   2
ATOM      2  C   UNL     1      17.425  42.819  74.317  1.00  0.00     0.214 A 
ATOM      3  C   UNL     1      18.507  43.382  75.008  1.00  0.00     0.180 A 
ATOM      4  O   UNL     1      19.160  42.684  75.928  1.00  0.00    -0.452 OA
ATOM      5  C   UNL     1      17.062  41.488  74.611  1.00  0.00     0.239 A 
ATOM      6  C   UNL     1      18.869  41.424  76.223  1.00  0.00     0.146 A 
ATOM      7  O   UNL     1      16.038  40.990  74.082  1.00  0.00    -0.285 OA
ATOM      8  C   UNL     1      17.821  40.743  75.548  1.00  0.00     0.111 A 
ATOM      9  C   UNL     1      19.613  40.779  77.214  1.00  0.00     0.094 A 
ATOM     10  C   UNL     1      17.580  39.376  75.875  1.00  0.00     0.134 A 
ATOM     11  C   UNL     1      19.327  39.461  77.568  1.00  0.00     0.123 A 
ATOM     12  C   UNL     1      18.303  38.772  76.909  1.00  0.00     0.093 A 
BRANCH   3  13
ATOM     13  C   UNL     1      18.962  44.746  74.706  1.00  0.00     0.021 A 
ATOM     14  C   UNL     1      18.803  45.763  75.656  1.00  0.00     0.016 A 
ATOM     15  C   UNL     1      19.197  47.072  75.359  1.00  0.00     0.047 A 
ATOM     16  C   UNL     1      19.741  47.374  74.106  1.00  0.00     0.115 A 
ATOM     17  C   UNL     1      19.501  45.049  73.448  1.00  0.00     0.016 A 
ATOM     18  C   UNL     1      19.898  46.358  73.156  1.00  0.00     0.047 A 
BRANCH  16  19
ATOM     19  O   UNL     1      20.125  48.683  73.822  1.00  0.00    -0.508 OA
ATOM     20  H   UNL     1      20.333  48.975  72.878  1.00  0.00     0.293 HD
ENDBRANCH  16  19
ENDBRANCH   3  13
BRANCH  10  21
ATOM     21  O   UNL     1      16.672  38.565  75.192  1.00  0.00    -0.507 OA
ATOM     22  H   UNL     1      15.739  38.844  74.933  1.00  0.00     0.293 HD
ENDBRANCH  10  21
BRANCH  11  23
ATOM     23  O   UNL     1      20.070  38.844  78.574  1.00  0.00    -0.508 OA
ATOM     24  H   UNL     1      20.595  37.993  78.398  1.00  0.00     0.293 HD
ENDBRANCH  11  23
ENDBRANCH   1   2
BRANCH   1  25
ATOM     25  C   UNL     1      15.608  44.482  73.657  1.00  0.00     0.339 C 
ATOM     26  C   UNL     1      14.696  43.899  74.772  1.00  0.00     0.214 C 
ATOM     27  O   UNL     1      16.035  45.794  73.967  1.00  0.00    -0.332 OA
ATOM     28  C   UNL     1      13.845  45.009  75.445  1.00  0.00     0.180 C 
ATOM     29  C   UNL     1      14.963  46.735  73.969  1.00  0.00     0.179 C 
ATOM     30  C   UNL     1      13.599  46.162  74.457  1.00  0.00     0.177 C 
BRANCH  26  31
ATOM     31  O   UNL     1      13.891  42.874  74.238  1.00  0.00    -0.384 OA
ATOM     32  H   UNL     1      14.422  42.032  74.257  1.00  0.00     0.211 HD
ENDBRANCH  26  31
BRANCH  28  33
ATOM     33  O   UNL     1      12.629  44.475  75.908  1.00  0.00    -0.387 OA
ATOM     34  H   UNL     1      12.807  43.536  76.172  1.00  0.00     0.211 HD
ENDBRANCH  28  33
BRANCH  29  35
ATOM     35  C   UNL     1      14.837  47.409  72.590  1.00  0.00     0.191 C 
BRANCH  35  36
ATOM     36  O   UNL     1      13.700  48.228  72.538  1.00  0.00    -0.394 OA
ATOM     37  H   UNL     1      12.974  47.675  72.143  1.00  0.00     0.210 HD
ENDBRANCH  35  36
ENDBRANCH  29  35
BRANCH  30  38
ATOM     38  O   UNL     1      12.869  47.188  75.083  1.00  0.00    -0.387 OA
ATOM     39  H   UNL     1      11.906  46.930  75.033  1.00  0.00     0.211 HD
ENDBRANCH  30  38
ENDBRANCH   1  25
TORSDOF 11
ENDMDL
MODEL 2
REMARK VINA RESULT:    -6.219     15.419     18.539
REMARK INTER + INTRA:         -10.051
REMARK INTER:                  -8.401
REMARK INTRA:                  -1.651
REMARK UNBOUND:                -1.105
REMARK SMILES O=c1c(O[C@@H]2O[C@@H](CO)[C@H](O)[C@@H](O)[C@H]2O)c(-c2ccc(O)cc2)oc2cc(O)cc(O)c12
REMARK SMILES IDX 4 1 3 2 16 3 24 4 2 5 25 6 1 7 32 8 26 9 30 10 27 11 29 12
REMARK SMILES IDX 17 13 18 14 19 15 20 16 23 17 22 18 21 19 31 21 28 23 5 25
REMARK SMILES IDX 14 26 6 27 12 28 7 29 10 30 15 31 13 33 8 35 9 36 11 38
REMARK H PARENT 21 20 31 22 28 24 15 32 13 34 9 37 11 39
REMARK Flexibility Score: inf
ROOT
ATOM      1  O   UNL     1       4.641  31.443  69.798  1.00  0.00    -0.454 OA
ENDROOT
BRANCH   1   2
ATOM      2  C   UNL     1       3.988  32.476  69.094  1.00  0.00     0.214 A 
ATOM      3  C   UNL     1       4.687  33.105  68.054  1.00  0.00     0.180 A 
ATOM      4  O   UNL     1       4.105  34.042  67.318  1.00  0.00    -0.452 OA
ATOM      5  C   UNL     1       2.660  32.879  69.348  1.00  0.00     0.239 A 
ATOM      6  C   UNL     1       2.868  34.468  67.533  1.00  0.00     0.146 A 
ATOM      7  O   UNL     1       1.977  32.266  70.206  1.00  0.00    -0.285 OA
ATOM      8  C   UNL     1       2.088  33.932  68.591  1.00  0.00     0.111 A 
ATOM      9  C   UNL     1       2.344  35.457  66.695  1.00  0.00     0.094 A 
ATOM     10  C   UNL     1       0.780  34.457  68.803  1.00  0.00     0.134 A 
ATOM     11  C   UNL     1       1.041  35.918  66.874  1.00  0.00     0.123 A 
ATOM     12  C   UNL     1       0.260  35.406  67.917  1.00  0.00     0.093 A 
BRANCH   3  13
ATOM     13  C   UNL     1       6.089  32.762  67.778  1.00  0.00     0.021 A 
ATOM     14  C   UNL     1       7.119  33.560  68.294  1.00  0.00     0.016 A 
ATOM     15  C   UNL     1       8.453  33.262  68.002  1.00  0.00     0.047 A 
ATOM     16  C   UNL     1       8.767  32.171  67.183  1.00  0.00     0.115 A 
ATOM     17  C   UNL     1       6.401  31.673  66.953  1.00  0.00     0.016 A 
ATOM     18  C   UNL     1       7.737  31.376  66.666  1.00  0.00     0.047 A 
BRANCH  16  19
ATOM     19  O   UNL     1      10.100  31.889  66.897  1.00  0.00    -0.508 OA
ATOM     20  H   UNL     1      10.648  32.494  66.302  1.00  0.00     0.293 HD
ENDBRANCH  16  19
ENDBRANCH   3  13
BRANCH  10  21
ATOM     21  O   UNL     1      -0.030  34.107  69.886  1.00  0.00    -0.507 OA
ATOM     22  H   UNL     1      -0.706  33.360  69.876  1.00  0.00     0.293 HD
ENDBRANCH  10  21
BRANCH  11  23
ATOM     23  O   UNL     1       0.533  36.891  66.013  1.00  0.00    -0.508 OA
ATOM     24  H   UNL     1       0.655  36.823  65.007  1.00  0.00     0.293 HD
ENDBRANCH  11  23
ENDBRANCH   1   2
BRANCH   1  25
ATOM     25  C   UNL     1       5.180  31.495  71.123  1.00  0.00     0.339 C 
ATOM     26  C   UNL     1       4.438  30.524  72.083  1.00  0.00     0.214 C 
ATOM     27  O   UNL     1       6.572  31.246  71.105  1.00  0.00    -0.332 OA
ATOM     28  C   UNL     1       5.322  30.146  73.301  1.00  0.00     0.180 C 
ATOM     29  C   UNL     1       7.202  31.549  72.348  1.00  0.00     0.179 C 
ATOM     30  C   UNL     1       6.320  31.277  73.604  1.00  0.00     0.177 C 
BRANCH  26  31
ATOM     31  O   UNL     1       3.213  31.094  72.481  1.00  0.00    -0.384 OA
ATOM     32  H   UNL     1       2.912  30.621  73.302  1.00  0.00     0.211 HD
ENDBRANCH  26  31
BRANCH  28  33
ATOM     33  O   UNL     1       4.515  29.875  74.421  1.00  0.00    -0.387 OA
ATOM     34  H   UNL     1       4.129  28.971  74.288  1.00  0.00     0.211 HD
ENDBRANCH  28  33
BRANCH  29  35
ATOM     35  C   UNL     1       7.749  32.988  72.337  1.00  0.00     0.191 C 
BRANCH  35  36
ATOM     36  O   UNL     1       8.499  33.244  73.494  1.00  0.00    -0.394 OA
ATOM     37  H   UNL     1       8.255  32.537  74.149  1.00  0.00     0.210 HD
ENDBRANCH  35  36
ENDBRANCH  29  35
BRANCH  30  38
ATOM     38  O   UNL     1       7.152  30.914  74.678  1.00  0.00    -0.387 OA
ATOM     39  H   UNL     1       8.090  30.925  74.335  1.00  0.00     0.211 HD
ENDBRANCH  30  38
ENDBRANCH   1  25
TORSDOF 11
ENDMDL
MODEL 3
REMARK VINA RESULT:    -5.746      2.909      4.775
REMARK INTER + INTRA:          -9.370
REMARK INTER:                  -8.016
REMARK INTRA:                  -1.354
REMARK UNBOUND:                -1.105
REMARK SMILES O=c1c(O[C@@H]2O[C@@H](CO)[C@H](O)[C@@H](O)[C@H]2O)c(-c2ccc(O)cc2)oc2cc(O)cc(O)c12
REMARK SMILES IDX 4 1 3 2 16 3 24 4 2 5 25 6 1 7 32 8 26 9 30 10 27 11 29 12
REMARK SMILES IDX 17 13 18 14 19 15 20 16 23 17 22 18 21 19 31 21 28 23 5 25
REMARK SMILES IDX 14 26 6 27 12 28 7 29 10 30 15 31 13 33 8 35 9 36 11 38
REMARK H PARENT 21 20 31 22 28 24 15 32 13 34 9 37 11 39
REMARK Flexibility Score: inf
ROOT
ATOM      1  O   UNL     1      17.708  42.712  76.298  1.00  0.00    -0.454 OA
ENDROOT
BRANCH   1   2
ATOM      2  C   UNL     1      18.212  41.487  76.780  1.00  0.00     0.214 A 
ATOM      3  C   UNL     1      18.706  41.451  78.091  1.00  0.00     0.180 A 
ATOM      4  O   UNL     1      19.138  40.314  78.620  1.00  0.00    -0.452 OA
ATOM      5  C   UNL     1      18.207  40.290  76.033  1.00  0.00     0.239 A 
ATOM      6  C   UNL     1      19.172  39.170  77.951  1.00  0.00     0.146 A 
ATOM      7  O   UNL     1      17.680  40.270  74.893  1.00  0.00    -0.285 OA
ATOM      8  C   UNL     1      18.740  39.105  76.599  1.00  0.00     0.111 A 
ATOM      9  C   UNL     1      19.640  38.025  78.602  1.00  0.00     0.094 A 
ATOM     10  C   UNL     1      18.838  37.859  75.915  1.00  0.00     0.134 A 
ATOM     11  C   UNL     1      19.673  36.799  77.941  1.00  0.00     0.123 A 
ATOM     12  C   UNL     1      19.258  36.718  76.607  1.00  0.00     0.093 A 
BRANCH   3  13
ATOM     13  C   UNL     1      18.784  42.677  78.897  1.00  0.00     0.021 A 
ATOM     14  C   UNL     1      19.907  43.509  78.798  1.00  0.00     0.016 A 
ATOM     15  C   UNL     1      20.005  44.656  79.591  1.00  0.00     0.047 A 
ATOM     16  C   UNL     1      18.987  44.973  80.497  1.00  0.00     0.115 A 
ATOM     17  C   UNL     1      17.766  42.990  79.808  1.00  0.00     0.016 A 
ATOM     18  C   UNL     1      17.866  44.140  80.598  1.00  0.00     0.047 A 
BRANCH  16  19
ATOM     19  O   UNL     1      19.100  46.116  81.284  1.00  0.00    -0.508 OA
ATOM     20  H   UNL     1      19.081  47.039  80.875  1.00  0.00     0.293 HD
ENDBRANCH  16  19
ENDBRANCH   3  13
BRANCH  10  21
ATOM     21  O   UNL     1      18.571  37.699  74.553  1.00  0.00    -0.507 OA
ATOM     22  H   UNL     1      17.662  37.809  74.133  1.00  0.00     0.293 HD
ENDBRANCH  10  21
BRANCH  11  23
ATOM     23  O   UNL     1      20.125  35.666  78.617  1.00  0.00    -0.508 OA
ATOM     24  H   UNL     1      19.507  35.125  79.215  1.00  0.00     0.293 HD
ENDBRANCH  11  23
ENDBRANCH   1   2
BRANCH   1  25
ATOM     25  C   UNL     1      18.380  43.668  75.470  1.00  0.00     0.339 C 
ATOM     26  C   UNL     1      18.062  43.447  73.965  1.00  0.00     0.214 C 
ATOM     27  O   UNL     1      18.072  44.986  75.878  1.00  0.00    -0.332 OA
ATOM     28  C   UNL     1      18.288  44.743  73.142  1.00  0.00     0.180 C 
ATOM     29  C   UNL     1      18.914  45.963  75.270  1.00  0.00     0.179 C 
ATOM     30  C   UNL     1      19.357  45.620  73.816  1.00  0.00     0.177 C 
BRANCH  26  31
ATOM     31  O   UNL     1      18.827  42.372  73.471  1.00  0.00    -0.384 OA
ATOM     32  H   UNL     1      19.173  41.863  74.253  1.00  0.00     0.211 HD
ENDBRANCH  26  31
BRANCH  28  33
ATOM     33  O   UNL     1      18.659  44.422  71.824  1.00  0.00    -0.387 OA
ATOM     34  H   UNL     1      19.376  43.739  71.882  1.00  0.00     0.211 HD
ENDBRANCH  28  33
BRANCH  29  35
ATOM     35  C   UNL     1      20.121  46.270  76.175  1.00  0.00     0.191 C 
BRANCH  35  36
ATOM     36  O   UNL     1      19.773  47.194  77.172  1.00  0.00    -0.394 OA
ATOM     37  H   UNL     1      20.611  47.672  77.415  1.00  0.00     0.210 HD
ENDBRANCH  35  36
ENDBRANCH  29  35
BRANCH  30  38
ATOM     38  O   UNL     1      19.527  46.816  73.095  1.00  0.00    -0.387 OA
ATOM     39  H   UNL     1      19.913  46.567  72.208  1.00  0.00     0.211 HD
ENDBRANCH  30  38
ENDBRANCH   1  25
TORSDOF 11
ENDMDL
MODEL 4
REMARK VINA RESULT:    -5.704     15.852     17.627
REMARK INTER + INTRA:          -9.310
REMARK INTER:                  -8.616
REMARK INTRA:                  -0.694
REMARK UNBOUND:                -1.105
REMARK SMILES O=c1c(O[C@@H]2O[C@@H](CO)[C@H](O)[C@@H](O)[C@H]2O)c(-c2ccc(O)cc2)oc2cc(O)cc(O)c12
REMARK SMILES IDX 4 1 3 2 16 3 24 4 2 5 25 6 1 7 32 8 26 9 30 10 27 11 29 12
REMARK SMILES IDX 17 13 18 14 19 15 20 16 23 17 22 18 21 19 31 21 28 23 5 25
REMARK SMILES IDX 14 26 6 27 12 28 7 29 10 30 15 31 13 33 8 35 9 36 11 38
REMARK H PARENT 21 20 31 22 28 24 15 32 13 34 9 37 11 39
REMARK Flexibility Score: inf
ROOT
ATOM      1  O   UNL     1       4.654  33.675  71.377  1.00  0.00    -0.454 OA
ENDROOT
BRANCH   1   2
ATOM      2  C   UNL     1       5.722  33.160  70.616  1.00  0.00     0.214 A 
ATOM      3  C   UNL     1       6.380  32.019  71.096  1.00  0.00     0.180 A 
ATOM      4  O   UNL     1       7.353  31.453  70.394  1.00  0.00    -0.452 OA
ATOM      5  C   UNL     1       6.135  33.700  69.379  1.00  0.00     0.239 A 
ATOM      6  C   UNL     1       7.789  31.937  69.239  1.00  0.00     0.146 A 
ATOM      7  O   UNL     1       5.500  34.660  68.876  1.00  0.00    -0.285 OA
ATOM      8  C   UNL     1       7.224  33.116  68.685  1.00  0.00     0.111 A 
ATOM      9  C   UNL     1       8.816  31.262  68.574  1.00  0.00     0.094 A 
ATOM     10  C   UNL     1       7.760  33.615  67.462  1.00  0.00     0.134 A 
ATOM     11  C   UNL     1       9.290  31.725  67.348  1.00  0.00     0.123 A 
ATOM     12  C   UNL     1       8.749  32.890  66.790  1.00  0.00     0.093 A 
BRANCH   3  13
ATOM     13  C   UNL     1       6.028  31.444  72.401  1.00  0.00     0.021 A 
ATOM     14  C   UNL     1       5.062  30.432  72.482  1.00  0.00     0.016 A 
ATOM     15  C   UNL     1       4.694  29.909  73.726  1.00  0.00     0.047 A 
ATOM     16  C   UNL     1       5.279  30.402  74.897  1.00  0.00     0.115 A 
ATOM     17  C   UNL     1       6.611  31.943  73.574  1.00  0.00     0.016 A 
ATOM     18  C   UNL     1       6.242  31.415  74.816  1.00  0.00     0.047 A 
BRANCH  16  19
ATOM     19  O   UNL     1       4.899  29.875  76.129  1.00  0.00    -0.508 OA
ATOM     20  H   UNL     1       4.047  29.343  76.231  1.00  0.00     0.293 HD
ENDBRANCH  16  19
ENDBRANCH   3  13
BRANCH  10  21
ATOM     21  O   UNL     1       7.381  34.831  66.889  1.00  0.00    -0.507 OA
ATOM     22  H   UNL     1       7.280  35.695  67.397  1.00  0.00     0.293 HD
ENDBRANCH  10  21
BRANCH  11  23
ATOM     23  O   UNL     1      10.302  31.024  66.693  1.00  0.00    -0.508 OA
ATOM     24  H   UNL     1      10.146  30.595  65.785  1.00  0.00     0.293 HD
ENDBRANCH  11  23
ENDBRANCH   1   2
BRANCH   1  25
ATOM     25  C   UNL     1       3.321  33.956  70.934  1.00  0.00     0.339 C 
ATOM     26  C   UNL     1       3.102  35.478  70.707  1.00  0.00     0.214 C 
ATOM     27  O   UNL     1       3.013  33.208  69.775  1.00  0.00    -0.332 OA
ATOM     28  C   UNL     1       1.929  35.741  69.726  1.00  0.00     0.180 C 
ATOM     29  C   UNL     1       1.625  33.242  69.450  1.00  0.00     0.179 C 
ATOM     30  C   UNL     1       0.914  34.586  69.791  1.00  0.00     0.177 C 
BRANCH  26  31
ATOM     31  O   UNL     1       2.903  36.118  71.945  1.00  0.00    -0.384 OA
ATOM     32  H   UNL     1       1.963  35.952  72.225  1.00  0.00     0.211 HD
ENDBRANCH  26  31
BRANCH  28  33
ATOM     33  O   UNL     1       1.312  36.969  70.024  1.00  0.00    -0.387 OA
ATOM     34  H   UNL     1       1.742  37.317  70.848  1.00  0.00     0.211 HD
ENDBRANCH  28  33
BRANCH  29  35
ATOM     35  C   UNL     1       0.897  32.038  70.074  1.00  0.00     0.191 C 
BRANCH  35  36
ATOM     36  O   UNL     1      -0.105  32.466  70.958  1.00  0.00    -0.394 OA
ATOM     37  H   UNL     1      -0.887  31.870  70.805  1.00  0.00     0.210 HD
ENDBRANCH  35  36
ENDBRANCH  29  35
BRANCH  30  38
ATOM     38  O   UNL     1      -0.125  34.802  68.867  1.00  0.00    -0.387 OA
ATOM     39  H   UNL     1      -0.154  34.001  68.272  1.00  0.00     0.211 HD
ENDBRANCH  30  38
ENDBRANCH   1  25
TORSDOF 11
ENDMDL
MODEL 5
REMARK VINA RESULT:    -5.450      3.165      4.785
REMARK INTER + INTRA:          -8.944
REMARK INTER:                  -7.308
REMARK INTRA:                  -1.636
REMARK UNBOUND:                -1.105
REMARK SMILES O=c1c(O[C@@H]2O[C@@H](CO)[C@H](O)[C@@H](O)[C@H]2O)c(-c2ccc(O)cc2)oc2cc(O)cc(O)c12
REMARK SMILES IDX 4 1 3 2 16 3 24 4 2 5 25 6 1 7 32 8 26 9 30 10 27 11 29 12
REMARK SMILES IDX 17 13 18 14 19 15 20 16 23 17 22 18 21 19 31 21 28 23 5 25
REMARK SMILES IDX 14 26 6 27 12 28 7 29 10 30 15 31 13 33 8 35 9 36 11 38
REMARK H PARENT 21 20 31 22 28 24 15 32 13 34 9 37 11 39
REMARK Flexibility Score: inf
ROOT
ATOM      1  O   UNL     1      19.779  44.910  77.429  1.00  0.00    -0.454 OA
ENDROOT
BRANCH   1   2
ATOM      2  C   UNL     1      19.181  43.799  76.800  1.00  0.00     0.214 A 
ATOM      3  C   UNL     1      18.688  43.969  75.499  1.00  0.00     0.180 A 
ATOM      4  O   UNL     1      18.169  42.946  74.833  1.00  0.00    -0.452 OA
ATOM      5  C   UNL     1      19.094  42.519  77.387  1.00  0.00     0.239 A 
ATOM      6  C   UNL     1      18.047  41.731  75.351  1.00  0.00     0.146 A 
ATOM      7  O   UNL     1      19.617  42.312  78.510  1.00  0.00    -0.285 OA
ATOM      8  C   UNL     1      18.471  41.461  76.679  1.00  0.00     0.111 A 
ATOM      9  C   UNL     1      17.492  40.719  74.563  1.00  0.00     0.094 A 
ATOM     10  C   UNL     1      18.277  40.148  77.199  1.00  0.00     0.134 A 
ATOM     11  C   UNL     1      17.364  39.424  75.062  1.00  0.00     0.123 A 
ATOM     12  C   UNL     1      17.770  39.141  76.371  1.00  0.00     0.093 A 
BRANCH   3  13
ATOM     13  C   UNL     1      18.705  45.290  74.857  1.00  0.00     0.021 A 
ATOM     14  C   UNL     1      17.574  46.114  74.920  1.00  0.00     0.016 A 
ATOM     15  C   UNL     1      17.570  47.356  74.278  1.00  0.00     0.047 A 
ATOM     16  C   UNL     1      18.694  47.778  73.558  1.00  0.00     0.115 A 
ATOM     17  C   UNL     1      19.829  45.709  74.132  1.00  0.00     0.016 A 
ATOM     18  C   UNL     1      19.824  46.954  73.493  1.00  0.00     0.047 A 
BRANCH  16  19
ATOM     19  O   UNL     1      18.675  49.015  72.920  1.00  0.00    -0.508 OA
ATOM     20  H   UNL     1      19.040  49.129  71.985  1.00  0.00     0.293 HD
ENDBRANCH  16  19
ENDBRANCH   3  13
BRANCH  10  21
ATOM     21  O   UNL     1      18.529  39.796  78.526  1.00  0.00    -0.507 OA
ATOM     22  H   UNL     1      17.977  40.098  79.313  1.00  0.00     0.293 HD
ENDBRANCH  10  21
BRANCH  11  23
ATOM     23  O   UNL     1      16.826  38.425  74.250  1.00  0.00    -0.508 OA
ATOM     24  H   UNL     1      17.272  37.517  74.163  1.00  0.00     0.293 HD
ENDBRANCH  11  23
ENDBRANCH   1   2
BRANCH   1  25
ATOM     25  C   UNL     1      19.158  45.850  78.314  1.00  0.00     0.339 C 
ATOM     26  C   UNL     1      19.425  45.498  79.803  1.00  0.00     0.214 C 
ATOM     27  O   UNL     1      19.570  47.168  78.009  1.00  0.00    -0.332 OA
ATOM     28  C   UNL     1      19.274  46.744  80.716  1.00  0.00     0.180 C 
ATOM     29  C   UNL     1      18.786  48.157  78.673  1.00  0.00     0.179 C 
ATOM     30  C   UNL     1      18.287  47.744  80.090  1.00  0.00     0.177 C 
BRANCH  26  31
ATOM     31  O   UNL     1      18.573  44.449  80.203  1.00  0.00    -0.384 OA
ATOM     32  H   UNL     1      17.637  44.783  80.149  1.00  0.00     0.211 HD
ENDBRANCH  26  31
BRANCH  28  33
ATOM     33  O   UNL     1      18.851  46.357  82.000  1.00  0.00    -0.387 OA
ATOM     34  H   UNL     1      18.119  45.698  81.878  1.00  0.00     0.211 HD
ENDBRANCH  28  33
BRANCH  29  35
ATOM     35  C   UNL     1      17.626  48.617  77.772  1.00  0.00     0.191 C 
BRANCH  35  36
ATOM     36  O   UNL     1      16.649  49.288  78.522  1.00  0.00    -0.394 OA
ATOM     37  H   UNL     1      16.691  50.243  78.247  1.00  0.00     0.210 HD
ENDBRANCH  35  36
ENDBRANCH  29  35
BRANCH  30  38
ATOM     38  O   UNL     1      18.187  48.894  80.894  1.00  0.00    -0.387 OA
ATOM     39  H   UNL     1      19.118  49.209  81.065  1.00  0.00     0.211 HD
ENDBRANCH  30  38
ENDBRANCH   1  25
TORSDOF 11
ENDMDL
MODEL 6
REMARK VINA RESULT:    -5.406      2.868      6.183
REMARK INTER + INTRA:          -8.882
REMARK INTER:                  -7.875
REMARK INTRA:                  -1.007
REMARK UNBOUND:                -1.105
REMARK SMILES O=c1c(O[C@@H]2O[C@@H](CO)[C@H](O)[C@@H](O)[C@H]2O)c(-c2ccc(O)cc2)oc2cc(O)cc(O)c12
REMARK SMILES IDX 4 1 3 2 16 3 24 4 2 5 25 6 1 7 32 8 26 9 30 10 27 11 29 12
REMARK SMILES IDX 17 13 18 14 19 15 20 16 23 17 22 18 21 19 31 21 28 23 5 25
REMARK SMILES IDX 14 26 6 27 12 28 7 29 10 30 15 31 13 33 8 35 9 36 11 38
REMARK H PARENT 21 20 31 22 28 24 15 32 13 34 9 37 11 39
REMARK Flexibility Score: inf
ROOT
ATOM      1  O   UNL     1      18.924  43.465  75.513  1.00  0.00    -0.454 OA
ENDROOT
BRANCH   1   2
ATOM      2  C   UNL     1      19.093  44.032  76.792  1.00  0.00     0.214 A 
ATOM      3  C   UNL     1      19.259  43.162  77.879  1.00  0.00     0.180 A 
ATOM      4  O   UNL     1      19.481  43.636  79.098  1.00  0.00    -0.452 OA
ATOM      5  C   UNL     1      19.147  45.421  77.032  1.00  0.00     0.239 A 
ATOM      6  C   UNL     1      19.519  44.933  79.375  1.00  0.00     0.146 A 
ATOM      7  O   UNL     1      19.101  46.222  76.066  1.00  0.00    -0.285 OA
ATOM      8  C   UNL     1      19.315  45.900  78.356  1.00  0.00     0.111 A 
ATOM      9  C   UNL     1      19.766  45.329  80.692  1.00  0.00     0.094 A 
ATOM     10  C   UNL     1      19.325  47.279  78.718  1.00  0.00     0.134 A 
ATOM     11  C   UNL     1      19.835  46.682  81.022  1.00  0.00     0.123 A 
ATOM     12  C   UNL     1      19.629  47.650  80.032  1.00  0.00     0.093 A 
BRANCH   3  13
ATOM     13  C   UNL     1      19.160  41.708  77.697  1.00  0.00     0.021 A 
ATOM     14  C   UNL     1      20.121  41.031  76.934  1.00  0.00     0.016 A 
ATOM     15  C   UNL     1      20.010  39.653  76.723  1.00  0.00     0.047 A 
ATOM     16  C   UNL     1      18.932  38.944  77.265  1.00  0.00     0.115 A 
ATOM     17  C   UNL     1      18.076  41.000  78.235  1.00  0.00     0.016 A 
ATOM     18  C   UNL     1      17.970  39.621  78.025  1.00  0.00     0.047 A 
BRANCH  16  19
ATOM     19  O   UNL     1      18.832  37.573  77.043  1.00  0.00    -0.508 OA
ATOM     20  H   UNL     1      18.196  37.198  76.354  1.00  0.00     0.293 HD
ENDBRANCH  16  19
ENDBRANCH   3  13
BRANCH  10  21
ATOM     21  O   UNL     1      19.007  48.314  77.836  1.00  0.00    -0.507 OA
ATOM     22  H   UNL     1      19.126  49.294  78.039  1.00  0.00     0.293 HD
ENDBRANCH  10  21
BRANCH  11  23
ATOM     23  O   UNL     1      20.103  47.055  82.339  1.00  0.00    -0.508 OA
ATOM     24  H   UNL     1      19.513  46.747  83.107  1.00  0.00     0.293 HD
ENDBRANCH  11  23
ENDBRANCH   1   2
BRANCH   1  25
ATOM     25  C   UNL     1      17.693  43.183  74.837  1.00  0.00     0.339 C 
ATOM     26  C   UNL     1      17.491  41.657  74.629  1.00  0.00     0.214 C 
ATOM     27  O   UNL     1      16.603  43.763  75.526  1.00  0.00    -0.332 OA
ATOM     28  C   UNL     1      15.991  41.305  74.441  1.00  0.00     0.180 C 
ATOM     29  C   UNL     1      15.398  43.745  74.763  1.00  0.00     0.179 C 
ATOM     30  C   UNL     1      15.236  42.502  73.838  1.00  0.00     0.177 C 
BRANCH  26  31
ATOM     31  O   UNL     1      18.271  41.219  73.541  1.00  0.00    -0.384 OA
ATOM     32  H   UNL     1      18.633  40.321  73.770  1.00  0.00     0.211 HD
ENDBRANCH  26  31
BRANCH  28  33
ATOM     33  O   UNL     1      15.857  40.166  73.627  1.00  0.00    -0.387 OA
ATOM     34  H   UNL     1      16.420  40.315  72.824  1.00  0.00     0.211 HD
ENDBRANCH  28  33
BRANCH  29  35
ATOM     35  C   UNL     1      15.236  45.062  73.983  1.00  0.00     0.191 C 
BRANCH  35  36
ATOM     36  O   UNL     1      14.511  46.000  74.733  1.00  0.00    -0.394 OA
ATOM     37  H   UNL     1      13.635  45.576  74.939  1.00  0.00     0.210 HD
ENDBRANCH  35  36
ENDBRANCH  29  35
BRANCH  30  38
ATOM     38  O   UNL     1      13.868  42.199  73.712  1.00  0.00    -0.387 OA
ATOM     39  H   UNL     1      13.808  41.332  73.221  1.00  0.00     0.211 HD
ENDBRANCH  30  38
ENDBRANCH   1  25
TORSDOF 11
ENDMDL
MODEL 7
REMARK VINA RESULT:    -5.374      2.761      4.374
REMARK INTER + INTRA:          -8.836
REMARK INTER:                  -7.780
REMARK INTRA:                  -1.056
REMARK UNBOUND:                -1.105
REMARK SMILES O=c1c(O[C@@H]2O[C@@H](CO)[C@H](O)[C@@H](O)[C@H]2O)c(-c2ccc(O)cc2)oc2cc(O)cc(O)c12
REMARK SMILES IDX 4 1 3 2 16 3 24 4 2 5 25 6 1 7 32 8 26 9 30 10 27 11 29 12
REMARK SMILES IDX 17 13 18 14 19 15 20 16 23 17 22 18 21 19 31 21 28 23 5 25
REMARK SMILES IDX 14 26 6 27 12 28 7 29 10 30 15 31 13 33 8 35 9 36 11 38
REMARK H PARENT 21 20 31 22 28 24 15 32 13 34 9 37 11 39
REMARK Flexibility Score: inf
ROOT
ATOM      1  O   UNL     1      17.355  43.629  76.570  1.00  0.00    -0.454 OA
ENDROOT
BRANCH   1   2
ATOM      2  C   UNL     1      17.883  42.353  76.856  1.00  0.00     0.214 A 
ATOM      3  C   UNL     1      18.427  42.139  78.130  1.00  0.00     0.180 A 
ATOM      4  O   UNL     1      18.885  40.943  78.477  1.00  0.00    -0.452 OA
ATOM      5  C   UNL     1      17.854  41.272  75.949  1.00  0.00     0.239 A 
ATOM      6  C   UNL     1      18.898  39.905  77.653  1.00  0.00     0.146 A 
ATOM      7  O   UNL     1      17.284  41.407  74.838  1.00  0.00    -0.285 OA
ATOM      8  C   UNL     1      18.414  40.025  76.324  1.00  0.00     0.111 A 
ATOM      9  C   UNL     1      19.397  38.685  78.120  1.00  0.00     0.094 A 
ATOM     10  C   UNL     1      18.492  38.888  75.468  1.00  0.00     0.134 A 
ATOM     11  C   UNL     1      19.410  37.563  77.292  1.00  0.00     0.123 A 
ATOM     12  C   UNL     1      18.944  37.666  75.977  1.00  0.00     0.093 A 
BRANCH   3  13
ATOM     13  C   UNL     1      18.531  43.241  79.096  1.00  0.00     0.021 A 
ATOM     14  C   UNL     1      17.572  43.376  80.108  1.00  0.00     0.016 A 
ATOM     15  C   UNL     1      17.642  44.446  81.006  1.00  0.00     0.047 A 
ATOM     16  C   UNL     1      18.665  45.394  80.891  1.00  0.00     0.115 A 
ATOM     17  C   UNL     1      19.552  44.193  78.975  1.00  0.00     0.016 A 
ATOM     18  C   UNL     1      19.622  45.259  79.878  1.00  0.00     0.047 A 
BRANCH  16  19
ATOM     19  O   UNL     1      18.721  46.456  81.789  1.00  0.00    -0.508 OA
ATOM     20  H   UNL     1      19.107  47.350  81.521  1.00  0.00     0.293 HD
ENDBRANCH  16  19
ENDBRANCH   3  13
BRANCH  10  21
ATOM     21  O   UNL     1      18.173  38.918  74.109  1.00  0.00    -0.507 OA
ATOM     22  H   UNL     1      17.446  38.366  73.681  1.00  0.00     0.293 HD
ENDBRANCH  10  21
BRANCH  11  23
ATOM     23  O   UNL     1      19.893  36.352  77.786  1.00  0.00    -0.508 OA
ATOM     24  H   UNL     1      20.477  36.314  78.616  1.00  0.00     0.293 HD
ENDBRANCH  11  23
ENDBRANCH   1   2
BRANCH   1  25
ATOM     25  C   UNL     1      17.622  44.448  75.426  1.00  0.00     0.339 C 
ATOM     26  C   UNL     1      16.864  45.802  75.502  1.00  0.00     0.214 C 
ATOM     27  O   UNL     1      19.014  44.639  75.264  1.00  0.00    -0.332 OA
ATOM     28  C   UNL     1      17.549  46.885  74.626  1.00  0.00     0.180 C 
ATOM     29  C   UNL     1      19.347  45.215  74.003  1.00  0.00     0.179 C 
ATOM     30  C   UNL     1      18.295  46.224  73.454  1.00  0.00     0.177 C 
BRANCH  26  31
ATOM     31  O   UNL     1      15.516  45.612  75.141  1.00  0.00    -0.384 OA
ATOM     32  H   UNL     1      15.415  45.890  74.191  1.00  0.00     0.211 HD
ENDBRANCH  26  31
BRANCH  28  33
ATOM     33  O   UNL     1      16.595  47.806  74.159  1.00  0.00    -0.387 OA
ATOM     34  H   UNL     1      15.779  47.290  73.932  1.00  0.00     0.211 HD
ENDBRANCH  28  33
BRANCH  29  35
ATOM     35  C   UNL     1      19.669  44.113  72.977  1.00  0.00     0.191 C 
BRANCH  35  36
ATOM     36  O   UNL     1      18.605  43.944  72.078  1.00  0.00    -0.394 OA
ATOM     37  H   UNL     1      18.771  43.083  71.607  1.00  0.00     0.210 HD
ENDBRANCH  35  36
ENDBRANCH  29  35
BRANCH  30  38
ATOM     38  O   UNL     1      18.955  47.202  72.687  1.00  0.00    -0.387 OA
ATOM     39  H   UNL     1      18.286  47.563  72.040  1.00  0.00     0.211 HD
ENDBRANCH  30  38
ENDBRANCH   1  25
TORSDOF 11
ENDMDL
