MODEL 1
REMARK VINA RESULT:    -1.637      0.000      0.000
REMARK INTER + INTRA:          -3.293
REMARK INTER:                  -2.499
REMARK INTRA:                  -0.794
REMARK UNBOUND:                -0.794
REMARK SMILES O=C([O-])CCCCCCCCC(=O)[O-]
REMARK SMILES IDX 7 1 6 2 5 3 4 4 2 5 1 6 3 7 8 8 9 9 10 10 11 11 12 12 13 13
REMARK SMILES IDX 14 14
REMARK H PARENT
REMARK Flexibility Score: inf
ROOT
ATOM      1  C   UNL     1      16.526 -33.804   2.433  1.00  0.00     0.000 C 
ENDROOT
BRANCH   1   2
ATOM      2  C   UNL     1      16.773 -32.334   2.812  1.00  0.00     0.000 C 
BRANCH   2   3
ATOM      3  C   UNL     1      15.509 -31.469   2.692  1.00  0.00     0.006 C 
BRANCH   3   4
ATOM      4  C   UNL     1      14.259 -32.271   3.067  1.00  0.00     0.053 C 
BRANCH   4   5
ATOM      5  C   UNL     1      13.099 -31.863   2.215  1.00  0.00     0.041 C 
ATOM      6  O   UNL     1      12.166 -32.675   1.982  1.00  0.00    -0.550 OA
ATOM      7  O   UNL     1      13.022 -30.568   1.719  1.00  0.00    -0.550 OA
ENDBRANCH   4   5
ENDBRANCH   3   4
ENDBRANCH   2   3
ENDBRANCH   1   2
BRANCH   1   8
ATOM      8  C   UNL     1      17.223 -34.199   1.119  1.00  0.00     0.000 C 
BRANCH   8   9
ATOM      9  C   UNL     1      16.266 -34.876   0.124  1.00  0.00     0.000 C 
BRANCH   9  10
ATOM     10  C   UNL     1      14.900 -34.174   0.042  1.00  0.00     0.006 C 
BRANCH  10  11
ATOM     11  C   UNL     1      14.311 -34.215  -1.373  1.00  0.00     0.053 C 
BRANCH  11  12
ATOM     12  C   UNL     1      12.886 -33.756  -1.399  1.00  0.00     0.041 C 
ATOM     13  O   UNL     1      11.952 -34.595  -1.497  1.00  0.00    -0.550 OA
ATOM     14  O   UNL     1      12.589 -32.401  -1.346  1.00  0.00    -0.550 OA
ENDBRANCH  11  12
ENDBRANCH  10  11
ENDBRANCH   9  10
ENDBRANCH   8   9
ENDBRANCH   1   8
TORSDOF 9
ENDMDL
MODEL 2
REMARK VINA RESULT:    -1.616      1.443      4.307
REMARK INTER + INTRA:          -3.260
REMARK INTER:                  -2.551
REMARK INTRA:                  -0.709
REMARK UNBOUND:                -0.794
REMARK SMILES O=C([O-])CCCCCCCCC(=O)[O-]
REMARK SMILES IDX 7 1 6 2 5 3 4 4 2 5 1 6 3 7 8 8 9 9 10 10 11 11 12 12 13 13
REMARK SMILES IDX 14 14
REMARK H PARENT
REMARK Flexibility Score: inf
ROOT
ATOM      1  C   UNL     1      16.414 -34.594   0.886  1.00  0.00     0.000 C 
ENDROOT
BRANCH   1   2
ATOM      2  C   UNL     1      15.555 -34.690  -0.386  1.00  0.00     0.000 C 
BRANCH   2   3
ATOM      3  C   UNL     1      14.050 -34.580  -0.096  1.00  0.00     0.006 C 
BRANCH   3   4
ATOM      4  C   UNL     1      13.373 -33.619  -1.076  1.00  0.00     0.053 C 
BRANCH   4   5
ATOM      5  C   UNL     1      12.469 -32.675  -0.346  1.00  0.00     0.041 C 
ATOM      6  O   UNL     1      12.091 -31.607  -0.894  1.00  0.00    -0.550 OA
ATOM      7  O   UNL     1      12.003 -33.000   0.922  1.00  0.00    -0.550 OA
ENDBRANCH   4   5
ENDBRANCH   3   4
ENDBRANCH   2   3
ENDBRANCH   1   2
BRANCH   1   8
ATOM      8  C   UNL     1      15.628 -34.046   2.090  1.00  0.00     0.000 C 
BRANCH   8   9
ATOM      9  C   UNL     1      16.018 -32.602   2.442  1.00  0.00     0.000 C 
BRANCH   9  10
ATOM     10  C   UNL     1      14.804 -31.662   2.529  1.00  0.00     0.006 C 
BRANCH  10  11
ATOM     11  C   UNL     1      15.212 -30.215   2.832  1.00  0.00     0.053 C 
BRANCH  11  12
ATOM     12  C   UNL     1      14.139 -29.241   2.452  1.00  0.00     0.041 C 
ATOM     13  O   UNL     1      13.254 -29.567   1.617  1.00  0.00    -0.550 OA
ATOM     14  O   UNL     1      14.133 -27.963   2.995  1.00  0.00    -0.550 OA
ENDBRANCH  11  12
ENDBRANCH  10  11
ENDBRANCH   9  10
ENDBRANCH   8   9
ENDBRANCH   1   8
TORSDOF 9
ENDMDL
MODEL 3
REMARK VINA RESULT:    -1.587      3.071      5.339
REMARK INTER + INTRA:          -3.217
REMARK INTER:                  -2.180
REMARK INTRA:                  -1.037
REMARK UNBOUND:                -0.794
REMARK SMILES O=C([O-])CCCCCCCCC(=O)[O-]
REMARK SMILES IDX 7 1 6 2 5 3 4 4 2 5 1 6 3 7 8 8 9 9 10 10 11 11 12 12 13 13
REMARK SMILES IDX 14 14
REMARK H PARENT
REMARK Flexibility Score: inf
ROOT
ATOM      1  C   UNL     1      13.341 -31.681   1.948  1.00  0.00     0.000 C 
ENDROOT
BRANCH   1   2
ATOM      2  C   UNL     1      13.283 -30.822   3.221  1.00  0.00     0.000 C 
BRANCH   2   3
ATOM      3  C   UNL     1      12.954 -29.349   2.930  1.00  0.00     0.006 C 
BRANCH   3   4
ATOM      4  C   UNL     1      13.808 -28.816   1.777  1.00  0.00     0.053 C 
BRANCH   4   5
ATOM      5  C   UNL     1      12.940 -28.205   0.721  1.00  0.00     0.041 C 
ATOM      6  O   UNL     1      12.392 -28.932  -0.148  1.00  0.00    -0.550 OA
ATOM      7  O   UNL     1      12.697 -26.837   0.727  1.00  0.00    -0.550 OA
ENDBRANCH   4   5
ENDBRANCH   3   4
ENDBRANCH   2   3
ENDBRANCH   1   2
BRANCH   1   8
ATOM      8  C   UNL     1      14.450 -32.747   2.004  1.00  0.00     0.000 C 
BRANCH   8   9
ATOM      9  C   UNL     1      15.396 -32.550   3.199  1.00  0.00     0.000 C 
BRANCH   9  10
ATOM     10  C   UNL     1      16.813 -32.130   2.773  1.00  0.00     0.006 C 
BRANCH  10  11
ATOM     11  C   UNL     1      16.997 -30.608   2.793  1.00  0.00     0.053 C 
BRANCH  11  12
ATOM     12  C   UNL     1      16.903 -30.052   4.180  1.00  0.00     0.041 C 
ATOM     13  O   UNL     1      16.205 -29.029   4.406  1.00  0.00    -0.550 OA
ATOM     14  O   UNL     1      17.610 -30.645   5.218  1.00  0.00    -0.550 OA
ENDBRANCH  11  12
ENDBRANCH  10  11
ENDBRANCH   9  10
ENDBRANCH   8   9
ENDBRANCH   1   8
TORSDOF 9
ENDMDL
MODEL 4
REMARK VINA RESULT:    -1.575      2.515      5.045
REMARK INTER + INTRA:          -3.198
REMARK INTER:                  -2.584
REMARK INTRA:                  -0.614
REMARK UNBOUND:                -0.794
REMARK SMILES O=C([O-])CCCCCCCCC(=O)[O-]
REMARK SMILES IDX 7 1 6 2 5 3 4 4 2 5 1 6 3 7 8 8 9 9 10 10 11 11 12 12 13 13
REMARK SMILES IDX 14 14
REMARK H PARENT
REMARK Flexibility Score: inf
ROOT
ATOM      1  C   UNL     1      15.196 -35.066   0.612  1.00  0.00     0.000 C 
ENDROOT
BRANCH   1   2
ATOM      2  C   UNL     1      15.436 -35.105  -0.906  1.00  0.00     0.000 C 
BRANCH   2   3
ATOM      3  C   UNL     1      14.403 -34.283  -1.693  1.00  0.00     0.006 C 
BRANCH   3   4
ATOM      4  C   UNL     1      13.085 -34.179  -0.922  1.00  0.00     0.053 C 
BRANCH   4   5
ATOM      5  C   UNL     1      12.599 -32.764  -0.899  1.00  0.00     0.041 C 
ATOM      6  O   UNL     1      12.299 -32.180  -1.973  1.00  0.00    -0.550 OA
ATOM      7  O   UNL     1      12.431 -32.106   0.312  1.00  0.00    -0.550 OA
ENDBRANCH   4   5
ENDBRANCH   3   4
ENDBRANCH   2   3
ENDBRANCH   1   2
BRANCH   1   8
ATOM      8  C   UNL     1      16.051 -33.999   1.318  1.00  0.00     0.000 C 
BRANCH   8   9
ATOM      9  C   UNL     1      15.244 -33.170   2.329  1.00  0.00     0.000 C 
BRANCH   9  10
ATOM     10  C   UNL     1      15.889 -31.806   2.629  1.00  0.00     0.006 C 
BRANCH  10  11
ATOM     11  C   UNL     1      17.218 -31.947   3.383  1.00  0.00     0.053 C 
BRANCH  11  12
ATOM     12  C   UNL     1      18.364 -31.376   2.605  1.00  0.00     0.041 C 
ATOM     13  O   UNL     1      18.653 -30.155   2.708  1.00  0.00    -0.550 OA
ATOM     14  O   UNL     1      19.094 -32.185   1.745  1.00  0.00    -0.550 OA
ENDBRANCH  11  12
ENDBRANCH  10  11
ENDBRANCH   9  10
ENDBRANCH   8   9
ENDBRANCH   1   8
TORSDOF 9
ENDMDL
MODEL 5
REMARK VINA RESULT:    -1.559      1.542      4.256
REMARK INTER + INTRA:          -3.174
REMARK INTER:                  -2.467
REMARK INTRA:                  -0.707
REMARK UNBOUND:                -0.794
REMARK SMILES O=C([O-])CCCCCCCCC(=O)[O-]
REMARK SMILES IDX 7 1 6 2 5 3 4 4 2 5 1 6 3 7 8 8 9 9 10 10 11 11 12 12 13 13
REMARK SMILES IDX 14 14
REMARK H PARENT
REMARK Flexibility Score: inf
ROOT
ATOM      1  C   UNL     1      15.759 -32.771   2.733  1.00  0.00     0.000 C 
ENDROOT
BRANCH   1   2
ATOM      2  C   UNL     1      16.360 -33.732   1.694  1.00  0.00     0.000 C 
BRANCH   2   3
ATOM      3  C   UNL     1      15.289 -34.432   0.843  1.00  0.00     0.006 C 
BRANCH   3   4
ATOM      4  C   UNL     1      14.068 -33.529   0.649  1.00  0.00     0.053 C 
BRANCH   4   5
ATOM      5  C   UNL     1      13.321 -33.915  -0.589  1.00  0.00     0.041 C 
ATOM      6  O   UNL     1      12.929 -35.101  -0.749  1.00  0.00    -0.550 OA
ATOM      7  O   UNL     1      13.013 -32.954  -1.543  1.00  0.00    -0.550 OA
ENDBRANCH   4   5
ENDBRANCH   3   4
ENDBRANCH   2   3
ENDBRANCH   1   2
BRANCH   1   8
ATOM      8  C   UNL     1      16.453 -31.397   2.737  1.00  0.00     0.000 C 
BRANCH   8   9
ATOM      9  C   UNL     1      15.474 -30.242   2.999  1.00  0.00     0.000 C 
BRANCH   9  10
ATOM     10  C   UNL     1      14.015 -30.715   3.118  1.00  0.00     0.006 C 
BRANCH  10  11
ATOM     11  C   UNL     1      13.015 -29.597   2.794  1.00  0.00     0.053 C 
BRANCH  11  12
ATOM     12  C   UNL     1      12.923 -29.339   1.322  1.00  0.00     0.041 C 
ATOM     13  O   UNL     1      13.404 -28.282   0.833  1.00  0.00    -0.550 OA
ATOM     14  O   UNL     1      12.280 -30.249   0.493  1.00  0.00    -0.550 OA
ENDBRANCH  11  12
ENDBRANCH  10  11
ENDBRANCH   9  10
ENDBRANCH   8   9
ENDBRANCH   1   8
TORSDOF 9
ENDMDL
MODEL 6
REMARK VINA RESULT:    -1.531      3.280      4.212
REMARK INTER + INTRA:          -3.130
REMARK INTER:                  -2.624
REMARK INTRA:                  -0.506
REMARK UNBOUND:                -0.794
REMARK SMILES O=C([O-])CCCCCCCCC(=O)[O-]
REMARK SMILES IDX 7 1 6 2 5 3 4 4 2 5 1 6 3 7 8 8 9 9 10 10 11 11 12 12 13 13
REMARK SMILES IDX 14 14
REMARK H PARENT
REMARK Flexibility Score: inf
ROOT
ATOM      1  C   UNL     1      16.540 -33.535   1.926  1.00  0.00     0.000 C 
ENDROOT
BRANCH   1   2
ATOM      2  C   UNL     1      17.643 -34.340   1.218  1.00  0.00     0.000 C 
BRANCH   2   3
ATOM      3  C   UNL     1      19.017 -33.655   1.289  1.00  0.00     0.006 C 
BRANCH   3   4
ATOM      4  C   UNL     1      18.931 -32.335   2.060  1.00  0.00     0.053 C 
BRANCH   4   5
ATOM      5  C   UNL     1      19.840 -32.362   3.249  1.00  0.00     0.041 C 
ATOM      6  O   UNL     1      20.152 -33.458   3.784  1.00  0.00    -0.550 OA
ATOM      7  O   UNL     1      20.384 -31.180   3.735  1.00  0.00    -0.550 OA
ENDBRANCH   4   5
ENDBRANCH   3   4
ENDBRANCH   2   3
ENDBRANCH   1   2
BRANCH   1   8
ATOM      8  C   UNL     1      15.162 -33.716   1.266  1.00  0.00     0.000 C 
BRANCH   8   9
ATOM      9  C   UNL     1      15.232 -34.535  -0.032  1.00  0.00     0.000 C 
BRANCH   9  10
ATOM     10  C   UNL     1      14.191 -34.088  -1.073  1.00  0.00     0.006 C 
BRANCH  10  11
ATOM     11  C   UNL     1      12.821 -33.812  -0.441  1.00  0.00     0.053 C 
BRANCH  11  12
ATOM     12  C   UNL     1      12.327 -32.434  -0.758  1.00  0.00     0.041 C 
ATOM     13  O   UNL     1      12.106 -31.611   0.169  1.00  0.00    -0.550 OA
ATOM     14  O   UNL     1      12.082 -32.067  -2.075  1.00  0.00    -0.550 OA
ENDBRANCH  11  12
ENDBRANCH  10  11
ENDBRANCH   9  10
ENDBRANCH   8   9
ENDBRANCH   1   8
TORSDOF 9
ENDMDL
MODEL 7
REMARK VINA RESULT:    -1.529      6.962      8.636
REMARK INTER + INTRA:          -3.127
REMARK INTER:                  -2.181
REMARK INTRA:                  -0.946
REMARK UNBOUND:                -0.794
REMARK SMILES O=C([O-])CCCCCCCCC(=O)[O-]
REMARK SMILES IDX 7 1 6 2 5 3 4 4 2 5 1 6 3 7 8 8 9 9 10 10 11 11 12 12 13 13
REMARK SMILES IDX 14 14
REMARK H PARENT
REMARK Flexibility Score: inf
ROOT
ATOM      1  C   UNL     1      20.504 -28.994  -1.607  1.00  0.00     0.000 C 
ENDROOT
BRANCH   1   2
ATOM      2  C   UNL     1      21.248 -27.752  -2.125  1.00  0.00     0.000 C 
BRANCH   2   3
ATOM      3  C   UNL     1      21.047 -26.521  -1.228  1.00  0.00     0.006 C 
BRANCH   3   4
ATOM      4  C   UNL     1      22.180 -26.398  -0.205  1.00  0.00     0.053 C 
BRANCH   4   5
ATOM      5  C   UNL     1      21.674 -26.681   1.174  1.00  0.00     0.041 C 
ATOM      6  O   UNL     1      20.497 -26.371   1.495  1.00  0.00    -0.550 OA
ATOM      7  O   UNL     1      22.487 -27.334   2.093  1.00  0.00    -0.550 OA
ENDBRANCH   4   5
ENDBRANCH   3   4
ENDBRANCH   2   3
ENDBRANCH   1   2
BRANCH   1   8
ATOM      8  C   UNL     1      21.456 -30.045  -1.010  1.00  0.00     0.000 C 
BRANCH   8   9
ATOM      9  C   UNL     1      21.148 -30.352   0.464  1.00  0.00     0.000 C 
BRANCH   9  10
ATOM     10  C   UNL     1      19.791 -29.787   0.917  1.00  0.00     0.006 C 
BRANCH  10  11
ATOM     11  C   UNL     1      19.182 -30.596   2.070  1.00  0.00     0.053 C 
BRANCH  11  12
ATOM     12  C   UNL     1      19.013 -29.768   3.306  1.00  0.00     0.041 C 
ATOM     13  O   UNL     1      17.951 -29.842   3.978  1.00  0.00    -0.550 OA
ATOM     14  O   UNL     1      20.017 -28.893   3.701  1.00  0.00    -0.550 OA
ENDBRANCH  11  12
ENDBRANCH  10  11
ENDBRANCH   9  10
ENDBRANCH   8   9
ENDBRANCH   1   8
TORSDOF 9
ENDMDL
MODEL 8
REMARK VINA RESULT:    -1.512      1.827      2.461
REMARK INTER + INTRA:          -3.102
REMARK INTER:                  -2.222
REMARK INTRA:                  -0.880
REMARK UNBOUND:                -0.794
REMARK SMILES O=C([O-])CCCCCCCCC(=O)[O-]
REMARK SMILES IDX 7 1 6 2 5 3 4 4 2 5 1 6 3 7 8 8 9 9 10 10 11 11 12 12 13 13
REMARK SMILES IDX 14 14
REMARK H PARENT
REMARK Flexibility Score: inf
ROOT
ATOM      1  C   UNL     1      16.666 -31.614   2.882  1.00  0.00     0.000 C 
ENDROOT
BRANCH   1   2
ATOM      2  C   UNL     1      15.600 -31.840   3.967  1.00  0.00     0.000 C 
BRANCH   2   3
ATOM      3  C   UNL     1      14.288 -31.095   3.677  1.00  0.00     0.006 C 
BRANCH   3   4
ATOM      4  C   UNL     1      14.412 -30.242   2.412  1.00  0.00     0.053 C 
BRANCH   4   5
ATOM      5  C   UNL     1      14.220 -28.794   2.734  1.00  0.00     0.041 C 
ATOM      6  O   UNL     1      14.836 -28.272   3.700  1.00  0.00    -0.550 OA
ATOM      7  O   UNL     1      13.398 -28.007   1.937  1.00  0.00    -0.550 OA
ENDBRANCH   4   5
ENDBRANCH   3   4
ENDBRANCH   2   3
ENDBRANCH   1   2
BRANCH   1   8
ATOM      8  C   UNL     1      17.229 -32.933   2.324  1.00  0.00     0.000 C 
BRANCH   8   9
ATOM      9  C   UNL     1      16.160 -34.032   2.213  1.00  0.00     0.000 C 
BRANCH   9  10
ATOM     10  C   UNL     1      15.584 -34.158   0.792  1.00  0.00     0.006 C 
BRANCH  10  11
ATOM     11  C   UNL     1      14.129 -33.678   0.712  1.00  0.00     0.053 C 
BRANCH  11  12
ATOM     12  C   UNL     1      13.587 -33.770  -0.681  1.00  0.00     0.041 C 
ATOM     13  O   UNL     1      14.354 -34.043  -1.643  1.00  0.00    -0.550 OA
ATOM     14  O   UNL     1      12.242 -33.524  -0.924  1.00  0.00    -0.550 OA
ENDBRANCH  11  12
ENDBRANCH  10  11
ENDBRANCH   9  10
ENDBRANCH   8   9
ENDBRANCH   1   8
TORSDOF 9
ENDMDL
MODEL 9
REMARK VINA RESULT:    -1.500      1.118      4.002
REMARK INTER + INTRA:          -3.083
REMARK INTER:                  -2.283
REMARK INTRA:                  -0.800
REMARK UNBOUND:                -0.794
REMARK SMILES O=C([O-])CCCCCCCCC(=O)[O-]
REMARK SMILES IDX 7 1 6 2 5 3 4 4 2 5 1 6 3 7 8 8 9 9 10 10 11 11 12 12 13 13
REMARK SMILES IDX 14 14
REMARK H PARENT
REMARK Flexibility Score: inf
ROOT
ATOM      1  C   UNL     1      16.989 -33.932   1.704  1.00  0.00     0.000 C 
ENDROOT
BRANCH   1   2
ATOM      2  C   UNL     1      16.606 -34.638   0.392  1.00  0.00     0.000 C 
BRANCH   2   3
ATOM      3  C   UNL     1      15.103 -34.942   0.298  1.00  0.00     0.006 C 
BRANCH   3   4
ATOM      4  C   UNL     1      14.475 -34.227  -0.901  1.00  0.00     0.053 C 
BRANCH   4   5
ATOM      5  C   UNL     1      13.531 -35.138  -1.621  1.00  0.00     0.041 C 
ATOM      6  O   UNL     1      13.925 -36.258  -2.038  1.00  0.00    -0.550 OA
ATOM      7  O   UNL     1      12.201 -34.772  -1.787  1.00  0.00    -0.550 OA
ENDBRANCH   4   5
ENDBRANCH   3   4
ENDBRANCH   2   3
ENDBRANCH   1   2
BRANCH   1   8
ATOM      8  C   UNL     1      15.762 -33.576   2.562  1.00  0.00     0.000 C 
BRANCH   8   9
ATOM      9  C   UNL     1      15.414 -32.080   2.502  1.00  0.00     0.000 C 
BRANCH   9  10
ATOM     10  C   UNL     1      13.969 -31.789   2.942  1.00  0.00     0.006 C 
BRANCH  10  11
ATOM     11  C   UNL     1      12.937 -32.402   1.987  1.00  0.00     0.053 C 
BRANCH  11  12
ATOM     12  C   UNL     1      12.367 -31.382   1.050  1.00  0.00     0.041 C 
ATOM     13  O   UNL     1      12.207 -31.660  -0.167  1.00  0.00    -0.550 OA
ATOM     14  O   UNL     1      12.041 -30.114   1.514  1.00  0.00    -0.550 OA
ENDBRANCH  11  12
ENDBRANCH  10  11
ENDBRANCH   9  10
ENDBRANCH   8   9
ENDBRANCH   1   8
TORSDOF 9
ENDMDL
