MODEL 1
REMARK VINA RESULT:    -4.261      0.000      0.000
REMARK INTER + INTRA:         -15.098
REMARK INTER:                 -11.237
REMARK INTRA:                  -3.862
REMARK UNBOUND:                -3.862
REMARK SMILES CCCCCCCCCCCCCCCCCCCCCCCCCCCCCC(=O)[O-]
REMARK SMILES IDX 16 1 17 2 18 3 19 4 20 5 21 6 22 7 23 8 24 9 25 10 26 11
REMARK SMILES IDX 27 12 28 13 29 14 30 15 31 16 32 17 15 18 14 19 13 20 12 21
REMARK SMILES IDX 11 22 10 23 9 24 8 25 7 26 6 27 5 28 4 29 3 30 2 31 1 32
REMARK H PARENT
REMARK Flexibility Score: inf
ROOT
ATOM      1  C   UNL     1       2.224   1.953  66.696  1.00  0.00     0.000 C 
ENDROOT
BRANCH   1   2
ATOM      2  C   UNL     1       3.655   1.651  67.163  1.00  0.00     0.000 C 
BRANCH   2   3
ATOM      3  C   UNL     1       4.032   2.527  68.367  1.00  0.00     0.000 C 
BRANCH   3   4
ATOM      4  C   UNL     1       4.845   1.765  69.427  1.00  0.00     0.000 C 
BRANCH   4   5
ATOM      5  C   UNL     1       6.187   1.246  68.882  1.00  0.00     0.000 C 
BRANCH   5   6
ATOM      6  C   UNL     1       7.081   2.375  68.343  1.00  0.00     0.000 C 
BRANCH   6   7
ATOM      7  C   UNL     1       8.546   1.939  68.168  1.00  0.00     0.000 C 
BRANCH   7   8
ATOM      8  C   UNL     1       9.394   2.987  67.429  1.00  0.00     0.000 C 
BRANCH   8   9
ATOM      9  C   UNL     1      10.777   2.452  67.025  1.00  0.00     0.000 C 
BRANCH   9  10
ATOM     10  C   UNL     1      10.881   2.139  65.523  1.00  0.00     0.000 C 
BRANCH  10  11
ATOM     11  C   UNL     1      11.975   1.105  65.178  1.00  0.00     0.000 C 
BRANCH  11  12
ATOM     12  C   UNL     1      12.368   0.248  66.391  1.00  0.00     0.000 C 
BRANCH  12  13
ATOM     13  C   UNL     1      11.932  -1.212  66.199  1.00  0.00     0.006 C 
BRANCH  13  14
ATOM     14  C   UNL     1      11.561  -1.523  64.745  1.00  0.00     0.053 C 
BRANCH  14  15
ATOM     15  C   UNL     1      10.660  -2.716  64.642  1.00  0.00     0.041 C 
ATOM     16  O   UNL     1      10.582  -3.537  65.593  1.00  0.00    -0.550 OA
ATOM     17  O   UNL     1       9.882  -2.904  63.506  1.00  0.00    -0.550 OA
ENDBRANCH  14  15
ENDBRANCH  13  14
ENDBRANCH  12  13
ENDBRANCH  11  12
ENDBRANCH  10  11
ENDBRANCH   9  10
ENDBRANCH   8   9
ENDBRANCH   7   8
ENDBRANCH   6   7
ENDBRANCH   5   6
ENDBRANCH   4   5
ENDBRANCH   3   4
ENDBRANCH   2   3
ENDBRANCH   1   2
BRANCH   1  18
ATOM     18  C   UNL     1       1.180   1.773  67.809  1.00  0.00     0.000 C 
BRANCH  18  19
ATOM     19  C   UNL     1      -0.261   1.772  67.271  1.00  0.00     0.000 C 
BRANCH  19  20
ATOM     20  C   UNL     1      -1.255   1.094  68.228  1.00  0.00     0.000 C 
BRANCH  20  21
ATOM     21  C   UNL     1      -1.075  -0.427  68.389  1.00  0.00     0.000 C 
BRANCH  21  22
ATOM     22  C   UNL     1      -1.107  -0.912  69.855  1.00  0.00     0.000 C 
BRANCH  22  23
ATOM     23  C   UNL     1       0.218  -1.571  70.284  1.00  0.00     0.000 C 
BRANCH  23  24
ATOM     24  C   UNL     1       1.326  -0.529  70.552  1.00  0.00    -0.000 C 
BRANCH  24  25
ATOM     25  C   UNL     1       2.714  -0.958  70.049  1.00  0.00    -0.000 C 
BRANCH  25  26
ATOM     26  C   UNL     1       2.815  -2.471  69.799  1.00  0.00    -0.000 C 
BRANCH  26  27
ATOM     27  C   UNL     1       4.235  -2.925  69.409  1.00  0.00    -0.000 C 
BRANCH  27  28
ATOM     28  C   UNL     1       4.428  -3.252  67.917  1.00  0.00    -0.000 C 
BRANCH  28  29
ATOM     29  C   UNL     1       4.132  -2.057  66.996  1.00  0.00    -0.000 C 
BRANCH  29  30
ATOM     30  C   UNL     1       2.964  -2.325  66.029  1.00  0.00    -0.000 C 
BRANCH  30  31
ATOM     31  C   UNL     1       1.568  -2.044  66.613  1.00  0.00    -0.003 C 
ATOM     32  C   UNL     1       0.726  -3.307  66.788  1.00  0.00     0.004 C 
ENDBRANCH  30  31
ENDBRANCH  29  30
ENDBRANCH  28  29
ENDBRANCH  27  28
ENDBRANCH  26  27
ENDBRANCH  25  26
ENDBRANCH  24  25
ENDBRANCH  23  24
ENDBRANCH  22  23
ENDBRANCH  21  22
ENDBRANCH  20  21
ENDBRANCH  19  20
ENDBRANCH  18  19
ENDBRANCH   1  18
TORSDOF 28
ENDMDL
MODEL 2
REMARK VINA RESULT:    -4.169      1.830      3.530
REMARK INTER + INTRA:         -14.853
REMARK INTER:                 -11.977
REMARK INTRA:                  -2.876
REMARK UNBOUND:                -3.862
REMARK SMILES CCCCCCCCCCCCCCCCCCCCCCCCCCCCCC(=O)[O-]
REMARK SMILES IDX 16 1 17 2 18 3 19 4 20 5 21 6 22 7 23 8 24 9 25 10 26 11
REMARK SMILES IDX 27 12 28 13 29 14 30 15 31 16 32 17 15 18 14 19 13 20 12 21
REMARK SMILES IDX 11 22 10 23 9 24 8 25 7 26 6 27 5 28 4 29 3 30 2 31 1 32
REMARK H PARENT
REMARK Flexibility Score: inf
ROOT
ATOM      1  C   UNL     1       2.501   2.308  67.605  1.00  0.00     0.000 C 
ENDROOT
BRANCH   1   2
ATOM      2  C   UNL     1       3.970   1.954  67.327  1.00  0.00     0.000 C 
BRANCH   2   3
ATOM      3  C   UNL     1       4.911   2.849  68.148  1.00  0.00     0.000 C 
BRANCH   3   4
ATOM      4  C   UNL     1       5.637   2.083  69.265  1.00  0.00     0.000 C 
BRANCH   4   5
ATOM      5  C   UNL     1       6.978   1.490  68.800  1.00  0.00     0.000 C 
BRANCH   5   6
ATOM      6  C   UNL     1       7.854   2.519  68.067  1.00  0.00     0.000 C 
BRANCH   6   7
ATOM      7  C   UNL     1       9.309   2.046  67.899  1.00  0.00     0.000 C 
BRANCH   7   8
ATOM      8  C   UNL     1      10.037   2.760  66.748  1.00  0.00     0.000 C 
BRANCH   8   9
ATOM      9  C   UNL     1      11.543   2.455  66.720  1.00  0.00     0.000 C 
BRANCH   9  10
ATOM     10  C   UNL     1      12.056   2.107  65.313  1.00  0.00     0.000 C 
BRANCH  10  11
ATOM     11  C   UNL     1      12.579   0.660  65.182  1.00  0.00     0.000 C 
BRANCH  11  12
ATOM     12  C   UNL     1      12.202  -0.206  66.393  1.00  0.00     0.000 C 
BRANCH  12  13
ATOM     13  C   UNL     1      11.808  -1.625  65.956  1.00  0.00     0.006 C 
BRANCH  13  14
ATOM     14  C   UNL     1      11.326  -1.673  64.502  1.00  0.00     0.053 C 
BRANCH  14  15
ATOM     15  C   UNL     1      10.424  -2.844  64.252  1.00  0.00     0.041 C 
ATOM     16  O   UNL     1       9.785  -2.933  63.171  1.00  0.00    -0.550 OA
ATOM     17  O   UNL     1      10.313  -3.851  65.202  1.00  0.00    -0.550 OA
ENDBRANCH  14  15
ENDBRANCH  13  14
ENDBRANCH  12  13
ENDBRANCH  11  12
ENDBRANCH  10  11
ENDBRANCH   9  10
ENDBRANCH   8   9
ENDBRANCH   7   8
ENDBRANCH   6   7
ENDBRANCH   5   6
ENDBRANCH   4   5
ENDBRANCH   3   4
ENDBRANCH   2   3
ENDBRANCH   1   2
BRANCH   1  18
ATOM     18  C   UNL     1       2.017   1.818  68.978  1.00  0.00     0.000 C 
BRANCH  18  19
ATOM     19  C   UNL     1       1.971   0.283  69.073  1.00  0.00     0.000 C 
BRANCH  19  20
ATOM     20  C   UNL     1       2.881  -0.273  70.181  1.00  0.00     0.000 C 
BRANCH  20  21
ATOM     21  C   UNL     1       3.671  -1.541  69.803  1.00  0.00     0.000 C 
BRANCH  21  22
ATOM     22  C   UNL     1       4.512  -1.395  68.516  1.00  0.00     0.000 C 
BRANCH  22  23
ATOM     23  C   UNL     1       4.505  -2.677  67.662  1.00  0.00     0.000 C 
BRANCH  23  24
ATOM     24  C   UNL     1       3.854  -2.451  66.280  1.00  0.00    -0.000 C 
BRANCH  24  25
ATOM     25  C   UNL     1       2.595  -3.303  66.042  1.00  0.00    -0.000 C 
BRANCH  25  26
ATOM     26  C   UNL     1       1.595  -3.224  67.206  1.00  0.00    -0.000 C 
BRANCH  26  27
ATOM     27  C   UNL     1       0.259  -2.566  66.810  1.00  0.00    -0.000 C 
BRANCH  27  28
ATOM     28  C   UNL     1      -0.865  -3.548  66.433  1.00  0.00    -0.000 C 
BRANCH  28  29
ATOM     29  C   UNL     1      -2.235  -2.864  66.285  1.00  0.00    -0.000 C 
BRANCH  29  30
ATOM     30  C   UNL     1      -3.252  -3.730  65.518  1.00  0.00    -0.000 C 
BRANCH  30  31
ATOM     31  C   UNL     1      -3.615  -3.208  64.117  1.00  0.00    -0.003 C 
ATOM     32  C   UNL     1      -2.979  -4.022  62.991  1.00  0.00     0.004 C 
ENDBRANCH  30  31
ENDBRANCH  29  30
ENDBRANCH  28  29
ENDBRANCH  27  28
ENDBRANCH  26  27
ENDBRANCH  25  26
ENDBRANCH  24  25
ENDBRANCH  23  24
ENDBRANCH  22  23
ENDBRANCH  21  22
ENDBRANCH  20  21
ENDBRANCH  19  20
ENDBRANCH  18  19
ENDBRANCH   1  18
TORSDOF 28
ENDMDL
MODEL 3
REMARK VINA RESULT:    -3.887      7.224     11.762
REMARK INTER + INTRA:         -14.112
REMARK INTER:                  -8.999
REMARK INTRA:                  -5.113
REMARK UNBOUND:                -3.862
REMARK SMILES CCCCCCCCCCCCCCCCCCCCCCCCCCCCCC(=O)[O-]
REMARK SMILES IDX 16 1 17 2 18 3 19 4 20 5 21 6 22 7 23 8 24 9 25 10 26 11
REMARK SMILES IDX 27 12 28 13 29 14 30 15 31 16 32 17 15 18 14 19 13 20 12 21
REMARK SMILES IDX 11 22 10 23 9 24 8 25 7 26 6 27 5 28 4 29 3 30 2 31 1 32
REMARK H PARENT
REMARK Flexibility Score: inf
ROOT
ATOM      1  C   UNL     1      -3.138  -7.123  66.048  1.00  0.00     0.000 C 
ENDROOT
BRANCH   1   2
ATOM      2  C   UNL     1      -2.130  -5.973  65.916  1.00  0.00     0.000 C 
BRANCH   2   3
ATOM      3  C   UNL     1      -2.129  -5.410  64.486  1.00  0.00     0.000 C 
BRANCH   3   4
ATOM      4  C   UNL     1      -3.285  -5.954  63.631  1.00  0.00     0.000 C 
BRANCH   4   5
ATOM      5  C   UNL     1      -3.649  -5.018  62.466  1.00  0.00     0.000 C 
BRANCH   5   6
ATOM      6  C   UNL     1      -3.227  -3.563  62.726  1.00  0.00     0.000 C 
BRANCH   6   7
ATOM      7  C   UNL     1      -4.426  -2.636  62.991  1.00  0.00     0.000 C 
BRANCH   7   8
ATOM      8  C   UNL     1      -4.449  -2.089  64.428  1.00  0.00     0.000 C 
BRANCH   8   9
ATOM      9  C   UNL     1      -3.040  -1.863  64.998  1.00  0.00     0.000 C 
BRANCH   9  10
ATOM     10  C   UNL     1      -2.895  -2.355  66.448  1.00  0.00     0.000 C 
BRANCH  10  11
ATOM     11  C   UNL     1      -1.626  -1.834  67.157  1.00  0.00     0.000 C 
BRANCH  11  12
ATOM     12  C   UNL     1      -0.464  -2.835  67.079  1.00  0.00     0.000 C 
BRANCH  12  13
ATOM     13  C   UNL     1       0.862  -2.120  66.781  1.00  0.00     0.006 C 
BRANCH  13  14
ATOM     14  C   UNL     1       2.036  -2.717  67.566  1.00  0.00     0.053 C 
BRANCH  14  15
ATOM     15  C   UNL     1       3.284  -2.783  66.740  1.00  0.00     0.041 C 
ATOM     16  O   UNL     1       3.380  -2.111  65.680  1.00  0.00    -0.550 OA
ATOM     17  O   UNL     1       4.353  -3.565  67.158  1.00  0.00    -0.550 OA
ENDBRANCH  14  15
ENDBRANCH  13  14
ENDBRANCH  12  13
ENDBRANCH  11  12
ENDBRANCH  10  11
ENDBRANCH   9  10
ENDBRANCH   8   9
ENDBRANCH   7   8
ENDBRANCH   6   7
ENDBRANCH   5   6
ENDBRANCH   4   5
ENDBRANCH   3   4
ENDBRANCH   2   3
ENDBRANCH   1   2
BRANCH   1  18
ATOM     18  C   UNL     1      -4.137  -6.915  67.197  1.00  0.00     0.000 C 
BRANCH  18  19
ATOM     19  C   UNL     1      -4.400  -5.427  67.486  1.00  0.00     0.000 C 
BRANCH  19  20
ATOM     20  C   UNL     1      -5.585  -4.864  66.683  1.00  0.00     0.000 C 
BRANCH  20  21
ATOM     21  C   UNL     1      -6.668  -5.893  66.307  1.00  0.00     0.000 C 
BRANCH  21  22
ATOM     22  C   UNL     1      -6.838  -6.096  64.785  1.00  0.00     0.000 C 
BRANCH  22  23
ATOM     23  C   UNL     1      -6.514  -7.537  64.346  1.00  0.00     0.000 C 
BRANCH  23  24
ATOM     24  C   UNL     1      -7.018  -8.583  65.365  1.00  0.00    -0.000 C 
BRANCH  24  25
ATOM     25  C   UNL     1      -5.973  -9.654  65.721  1.00  0.00    -0.000 C 
BRANCH  25  26
ATOM     26  C   UNL     1      -5.103 -10.058  64.519  1.00  0.00    -0.000 C 
BRANCH  26  27
ATOM     27  C   UNL     1      -3.718 -10.593  64.931  1.00  0.00    -0.000 C 
BRANCH  27  28
ATOM     28  C   UNL     1      -3.688 -11.372  66.258  1.00  0.00    -0.000 C 
BRANCH  28  29
ATOM     29  C   UNL     1      -3.791 -12.894  66.064  1.00  0.00    -0.000 C 
BRANCH  29  30
ATOM     30  C   UNL     1      -5.247 -13.393  66.034  1.00  0.00    -0.000 C 
BRANCH  30  31
ATOM     31  C   UNL     1      -5.671 -14.065  64.716  1.00  0.00    -0.003 C 
ATOM     32  C   UNL     1      -4.594 -13.993  63.634  1.00  0.00     0.004 C 
ENDBRANCH  30  31
ENDBRANCH  29  30
ENDBRANCH  28  29
ENDBRANCH  27  28
ENDBRANCH  26  27
ENDBRANCH  25  26
ENDBRANCH  24  25
ENDBRANCH  23  24
ENDBRANCH  22  23
ENDBRANCH  21  22
ENDBRANCH  20  21
ENDBRANCH  19  20
ENDBRANCH  18  19
ENDBRANCH   1  18
TORSDOF 28
ENDMDL
MODEL 4
REMARK VINA RESULT:    -3.872      6.149     10.413
REMARK INTER + INTRA:         -14.070
REMARK INTER:                 -10.117
REMARK INTRA:                  -3.954
REMARK UNBOUND:                -3.862
REMARK SMILES CCCCCCCCCCCCCCCCCCCCCCCCCCCCCC(=O)[O-]
REMARK SMILES IDX 16 1 17 2 18 3 19 4 20 5 21 6 22 7 23 8 24 9 25 10 26 11
REMARK SMILES IDX 27 12 28 13 29 14 30 15 31 16 32 17 15 18 14 19 13 20 12 21
REMARK SMILES IDX 11 22 10 23 9 24 8 25 7 26 6 27 5 28 4 29 3 30 2 31 1 32
REMARK H PARENT
REMARK Flexibility Score: inf
ROOT
ATOM      1  C   UNL     1      -2.314  -5.240  65.393  1.00  0.00     0.000 C 
ENDROOT
BRANCH   1   2
ATOM      2  C   UNL     1      -3.487  -4.416  64.843  1.00  0.00     0.000 C 
BRANCH   2   3
ATOM      3  C   UNL     1      -3.022  -3.499  63.703  1.00  0.00     0.000 C 
BRANCH   3   4
ATOM      4  C   UNL     1      -3.269  -4.105  62.312  1.00  0.00     0.000 C 
BRANCH   4   5
ATOM      5  C   UNL     1      -2.652  -3.263  61.182  1.00  0.00     0.000 C 
BRANCH   5   6
ATOM      6  C   UNL     1      -3.281  -1.864  61.079  1.00  0.00     0.000 C 
BRANCH   6   7
ATOM      7  C   UNL     1      -4.761  -1.908  60.661  1.00  0.00     0.000 C 
BRANCH   7   8
ATOM      8  C   UNL     1      -4.967  -2.519  59.265  1.00  0.00     0.000 C 
BRANCH   8   9
ATOM      9  C   UNL     1      -4.404  -1.633  58.142  1.00  0.00     0.000 C 
BRANCH   9  10
ATOM     10  C   UNL     1      -3.316  -2.337  57.314  1.00  0.00     0.000 C 
BRANCH  10  11
ATOM     11  C   UNL     1      -1.894  -1.789  57.563  1.00  0.00     0.000 C 
BRANCH  11  12
ATOM     12  C   UNL     1      -1.912  -0.382  58.178  1.00  0.00     0.000 C 
BRANCH  12  13
ATOM     13  C   UNL     1      -0.488   0.166  58.345  1.00  0.00     0.006 C 
BRANCH  13  14
ATOM     14  C   UNL     1       0.467  -0.353  57.263  1.00  0.00     0.053 C 
BRANCH  14  15
ATOM     15  C   UNL     1       1.902  -0.178  57.655  1.00  0.00     0.041 C 
ATOM     16  O   UNL     1       2.584  -1.169  58.026  1.00  0.00    -0.550 OA
ATOM     17  O   UNL     1       2.495   1.076  57.581  1.00  0.00    -0.550 OA
ENDBRANCH  14  15
ENDBRANCH  13  14
ENDBRANCH  12  13
ENDBRANCH  11  12
ENDBRANCH  10  11
ENDBRANCH   9  10
ENDBRANCH   8   9
ENDBRANCH   7   8
ENDBRANCH   6   7
ENDBRANCH   5   6
ENDBRANCH   4   5
ENDBRANCH   3   4
ENDBRANCH   2   3
ENDBRANCH   1   2
BRANCH   1  18
ATOM     18  C   UNL     1      -1.783  -4.706  66.733  1.00  0.00     0.000 C 
BRANCH  18  19
ATOM     19  C   UNL     1      -0.420  -4.007  66.589  1.00  0.00     0.000 C 
BRANCH  19  20
ATOM     20  C   UNL     1      -0.366  -2.651  67.313  1.00  0.00     0.000 C 
BRANCH  20  21
ATOM     21  C   UNL     1      -1.326  -1.579  66.763  1.00  0.00     0.000 C 
BRANCH  21  22
ATOM     22  C   UNL     1      -0.622  -0.282  66.307  1.00  0.00     0.000 C 
BRANCH  22  23
ATOM     23  C   UNL     1       0.431   0.202  67.323  1.00  0.00     0.000 C 
BRANCH  23  24
ATOM     24  C   UNL     1       1.789   0.505  66.653  1.00  0.00    -0.000 C 
BRANCH  24  25
ATOM     25  C   UNL     1       2.031  -0.289  65.357  1.00  0.00    -0.000 C 
BRANCH  25  26
ATOM     26  C   UNL     1       3.286  -1.173  65.427  1.00  0.00    -0.000 C 
BRANCH  26  27
ATOM     27  C   UNL     1       2.959  -2.677  65.520  1.00  0.00    -0.000 C 
BRANCH  27  28
ATOM     28  C   UNL     1       3.364  -3.351  66.843  1.00  0.00    -0.000 C 
BRANCH  28  29
ATOM     29  C   UNL     1       4.457  -2.579  67.601  1.00  0.00    -0.000 C 
BRANCH  29  30
ATOM     30  C   UNL     1       4.159  -2.451  69.107  1.00  0.00    -0.000 C 
BRANCH  30  31
ATOM     31  C   UNL     1       2.675  -2.604  69.485  1.00  0.00    -0.003 C 
ATOM     32  C   UNL     1       2.084  -1.341  70.111  1.00  0.00     0.004 C 
ENDBRANCH  30  31
ENDBRANCH  29  30
ENDBRANCH  28  29
ENDBRANCH  27  28
ENDBRANCH  26  27
ENDBRANCH  25  26
ENDBRANCH  24  25
ENDBRANCH  23  24
ENDBRANCH  22  23
ENDBRANCH  21  22
ENDBRANCH  20  21
ENDBRANCH  19  20
ENDBRANCH  18  19
ENDBRANCH   1  18
TORSDOF 28
ENDMDL
MODEL 5
REMARK VINA RESULT:    -3.859     10.544     14.032
REMARK INTER + INTRA:         -14.038
REMARK INTER:                  -8.048
REMARK INTRA:                  -5.990
REMARK UNBOUND:                -3.862
REMARK SMILES CCCCCCCCCCCCCCCCCCCCCCCCCCCCCC(=O)[O-]
REMARK SMILES IDX 16 1 17 2 18 3 19 4 20 5 21 6 22 7 23 8 24 9 25 10 26 11
REMARK SMILES IDX 27 12 28 13 29 14 30 15 31 16 32 17 15 18 14 19 13 20 12 21
REMARK SMILES IDX 11 22 10 23 9 24 8 25 7 26 6 27 5 28 4 29 3 30 2 31 1 32
REMARK H PARENT
REMARK Flexibility Score: inf
ROOT
ATOM      1  C   UNL     1      -0.395  -1.757  58.289  1.00  0.00     0.000 C 
ENDROOT
BRANCH   1   2
ATOM      2  C   UNL     1       0.684  -1.272  57.311  1.00  0.00     0.000 C 
BRANCH   2   3
ATOM      3  C   UNL     1       1.304   0.048  57.794  1.00  0.00     0.000 C 
BRANCH   3   4
ATOM      4  C   UNL     1       0.350   0.865  58.681  1.00  0.00     0.000 C 
BRANCH   4   5
ATOM      5  C   UNL     1       0.175   2.310  58.184  1.00  0.00     0.000 C 
BRANCH   5   6
ATOM      6  C   UNL     1      -0.373   2.378  56.749  1.00  0.00     0.000 C 
BRANCH   6   7
ATOM      7  C   UNL     1      -1.682   1.589  56.576  1.00  0.00     0.000 C 
BRANCH   7   8
ATOM      8  C   UNL     1      -1.715   0.769  55.275  1.00  0.00     0.000 C 
BRANCH   8   9
ATOM      9  C   UNL     1      -3.084   0.121  55.018  1.00  0.00     0.000 C 
BRANCH   9  10
ATOM     10  C   UNL     1      -4.113   0.442  56.115  1.00  0.00     0.000 C 
BRANCH  10  11
ATOM     11  C   UNL     1      -5.457  -0.298  55.942  1.00  0.00     0.000 C 
BRANCH  11  12
ATOM     12  C   UNL     1      -5.287  -1.659  55.251  1.00  0.00     0.000 C 
BRANCH  12  13
ATOM     13  C   UNL     1      -5.722  -2.805  56.176  1.00  0.00     0.006 C 
BRANCH  13  14
ATOM     14  C   UNL     1      -4.838  -4.048  56.018  1.00  0.00     0.053 C 
BRANCH  14  15
ATOM     15  C   UNL     1      -5.652  -5.302  55.913  1.00  0.00     0.041 C 
ATOM     16  O   UNL     1      -6.122  -5.842  56.948  1.00  0.00    -0.550 OA
ATOM     17  O   UNL     1      -5.916  -5.857  54.667  1.00  0.00    -0.550 OA
ENDBRANCH  14  15
ENDBRANCH  13  14
ENDBRANCH  12  13
ENDBRANCH  11  12
ENDBRANCH  10  11
ENDBRANCH   9  10
ENDBRANCH   8   9
ENDBRANCH   7   8
ENDBRANCH   6   7
ENDBRANCH   5   6
ENDBRANCH   4   5
ENDBRANCH   3   4
ENDBRANCH   2   3
ENDBRANCH   1   2
BRANCH   1  18
ATOM     18  C   UNL     1      -1.717  -2.119  57.593  1.00  0.00     0.000 C 
BRANCH  18  19
ATOM     19  C   UNL     1      -2.932  -1.976  58.524  1.00  0.00     0.000 C 
BRANCH  19  20
ATOM     20  C   UNL     1      -2.744  -0.878  59.585  1.00  0.00     0.000 C 
BRANCH  20  21
ATOM     21  C   UNL     1      -3.913   0.118  59.710  1.00  0.00     0.000 C 
BRANCH  21  22
ATOM     22  C   UNL     1      -5.056  -0.370  60.627  1.00  0.00     0.000 C 
BRANCH  22  23
ATOM     23  C   UNL     1      -6.226  -0.980  59.832  1.00  0.00     0.000 C 
BRANCH  23  24
ATOM     24  C   UNL     1      -6.697  -2.324  60.429  1.00  0.00    -0.000 C 
BRANCH  24  25
ATOM     25  C   UNL     1      -6.381  -3.541  59.543  1.00  0.00    -0.000 C 
BRANCH  25  26
ATOM     26  C   UNL     1      -5.920  -4.763  60.353  1.00  0.00    -0.000 C 
BRANCH  26  27
ATOM     27  C   UNL     1      -6.161  -4.607  61.868  1.00  0.00    -0.000 C 
BRANCH  27  28
ATOM     28  C   UNL     1      -4.949  -4.936  62.758  1.00  0.00    -0.000 C 
BRANCH  28  29
ATOM     29  C   UNL     1      -3.603  -4.650  62.070  1.00  0.00    -0.000 C 
BRANCH  29  30
ATOM     30  C   UNL     1      -3.132  -3.197  62.265  1.00  0.00    -0.000 C 
BRANCH  30  31
ATOM     31  C   UNL     1      -3.490  -2.582  63.629  1.00  0.00    -0.003 C 
ATOM     32  C   UNL     1      -3.312  -1.064  63.668  1.00  0.00     0.004 C 
ENDBRANCH  30  31
ENDBRANCH  29  30
ENDBRANCH  28  29
ENDBRANCH  27  28
ENDBRANCH  26  27
ENDBRANCH  25  26
ENDBRANCH  24  25
ENDBRANCH  23  24
ENDBRANCH  22  23
ENDBRANCH  21  22
ENDBRANCH  20  21
ENDBRANCH  19  20
ENDBRANCH  18  19
ENDBRANCH   1  18
TORSDOF 28
ENDMDL
MODEL 6
REMARK VINA RESULT:    -3.821      6.944     12.431
REMARK INTER + INTRA:         -13.938
REMARK INTER:                  -8.799
REMARK INTRA:                  -5.139
REMARK UNBOUND:                -3.862
REMARK SMILES CCCCCCCCCCCCCCCCCCCCCCCCCCCCCC(=O)[O-]
REMARK SMILES IDX 16 1 17 2 18 3 19 4 20 5 21 6 22 7 23 8 24 9 25 10 26 11
REMARK SMILES IDX 27 12 28 13 29 14 30 15 31 16 32 17 15 18 14 19 13 20 12 21
REMARK SMILES IDX 11 22 10 23 9 24 8 25 7 26 6 27 5 28 4 29 3 30 2 31 1 32
REMARK H PARENT
REMARK Flexibility Score: inf
ROOT
ATOM      1  C   UNL     1      -3.696  -4.879  62.232  1.00  0.00     0.000 C 
ENDROOT
BRANCH   1   2
ATOM      2  C   UNL     1      -3.490  -3.454  61.699  1.00  0.00     0.000 C 
BRANCH   2   3
ATOM      3  C   UNL     1      -3.333  -2.456  62.856  1.00  0.00     0.000 C 
BRANCH   3   4
ATOM      4  C   UNL     1      -4.452  -1.403  62.892  1.00  0.00     0.000 C 
BRANCH   4   5
ATOM      5  C   UNL     1      -5.249  -1.431  64.207  1.00  0.00     0.000 C 
BRANCH   5   6
ATOM      6  C   UNL     1      -6.111  -2.697  64.347  1.00  0.00     0.000 C 
BRANCH   6   7
ATOM      7  C   UNL     1      -5.959  -3.370  65.722  1.00  0.00     0.000 C 
BRANCH   7   8
ATOM      8  C   UNL     1      -6.179  -4.891  65.668  1.00  0.00     0.000 C 
BRANCH   8   9
ATOM      9  C   UNL     1      -6.805  -5.351  64.342  1.00  0.00     0.000 C 
BRANCH   9  10
ATOM     10  C   UNL     1      -6.510  -6.826  64.022  1.00  0.00     0.000 C 
BRANCH  10  11
ATOM     11  C   UNL     1      -6.364  -7.716  65.275  1.00  0.00     0.000 C 
BRANCH  11  12
ATOM     12  C   UNL     1      -5.720  -9.073  64.953  1.00  0.00     0.000 C 
BRANCH  12  13
ATOM     13  C   UNL     1      -5.444  -9.871  66.235  1.00  0.00     0.006 C 
BRANCH  13  14
ATOM     14  C   UNL     1      -4.187 -10.742  66.121  1.00  0.00     0.053 C 
BRANCH  14  15
ATOM     15  C   UNL     1      -3.847 -11.045  64.693  1.00  0.00     0.041 C 
ATOM     16  O   UNL     1      -2.917 -10.424  64.117  1.00  0.00    -0.550 OA
ATOM     17  O   UNL     1      -4.539 -12.037  64.010  1.00  0.00    -0.550 OA
ENDBRANCH  14  15
ENDBRANCH  13  14
ENDBRANCH  12  13
ENDBRANCH  11  12
ENDBRANCH  10  11
ENDBRANCH   9  10
ENDBRANCH   8   9
ENDBRANCH   7   8
ENDBRANCH   6   7
ENDBRANCH   5   6
ENDBRANCH   4   5
ENDBRANCH   3   4
ENDBRANCH   2   3
ENDBRANCH   1   2
BRANCH   1  18
ATOM     18  C   UNL     1      -3.030  -5.109  63.598  1.00  0.00     0.000 C 
BRANCH  18  19
ATOM     19  C   UNL     1      -2.878  -6.603  63.934  1.00  0.00     0.000 C 
BRANCH  19  20
ATOM     20  C   UNL     1      -2.743  -6.863  65.444  1.00  0.00     0.000 C 
BRANCH  20  21
ATOM     21  C   UNL     1      -2.073  -5.732  66.246  1.00  0.00     0.000 C 
BRANCH  21  22
ATOM     22  C   UNL     1      -2.905  -5.238  67.450  1.00  0.00     0.000 C 
BRANCH  22  23
ATOM     23  C   UNL     1      -2.640  -3.756  67.777  1.00  0.00     0.000 C 
BRANCH  23  24
ATOM     24  C   UNL     1      -2.519  -2.892  66.502  1.00  0.00    -0.000 C 
BRANCH  24  25
ATOM     25  C   UNL     1      -1.149  -2.213  66.342  1.00  0.00    -0.000 C 
BRANCH  25  26
ATOM     26  C   UNL     1      -0.111  -2.723  67.354  1.00  0.00    -0.000 C 
BRANCH  26  27
ATOM     27  C   UNL     1       1.152  -3.299  66.684  1.00  0.00    -0.000 C 
BRANCH  27  28
ATOM     28  C   UNL     1       2.485  -2.856  67.315  1.00  0.00    -0.000 C 
BRANCH  28  29
ATOM     29  C   UNL     1       3.552  -2.491  66.270  1.00  0.00    -0.000 C 
BRANCH  29  30
ATOM     30  C   UNL     1       3.116  -1.332  65.354  1.00  0.00    -0.000 C 
BRANCH  30  31
ATOM     31  C   UNL     1       2.854  -0.001  66.080  1.00  0.00    -0.003 C 
ATOM     32  C   UNL     1       1.407   0.474  65.956  1.00  0.00     0.004 C 
ENDBRANCH  30  31
ENDBRANCH  29  30
ENDBRANCH  28  29
ENDBRANCH  27  28
ENDBRANCH  26  27
ENDBRANCH  25  26
ENDBRANCH  24  25
ENDBRANCH  23  24
ENDBRANCH  22  23
ENDBRANCH  21  22
ENDBRANCH  20  21
ENDBRANCH  19  20
ENDBRANCH  18  19
ENDBRANCH   1  18
TORSDOF 28
ENDMDL
MODEL 7
REMARK VINA RESULT:    -3.794     11.026     14.740
REMARK INTER + INTRA:         -13.866
REMARK INTER:                  -7.622
REMARK INTRA:                  -6.244
REMARK UNBOUND:                -3.862
REMARK SMILES CCCCCCCCCCCCCCCCCCCCCCCCCCCCCC(=O)[O-]
REMARK SMILES IDX 16 1 17 2 18 3 19 4 20 5 21 6 22 7 23 8 24 9 25 10 26 11
REMARK SMILES IDX 27 12 28 13 29 14 30 15 31 16 32 17 15 18 14 19 13 20 12 21
REMARK SMILES IDX 11 22 10 23 9 24 8 25 7 26 6 27 5 28 4 29 3 30 2 31 1 32
REMARK H PARENT
REMARK Flexibility Score: inf
ROOT
ATOM      1  C   UNL     1      -4.678 -12.017  64.073  1.00  0.00     0.000 C 
ENDROOT
BRANCH   1   2
ATOM      2  C   UNL     1      -3.625 -10.949  64.402  1.00  0.00     0.000 C 
BRANCH   2   3
ATOM      3  C   UNL     1      -4.292  -9.594  64.683  1.00  0.00     0.000 C 
BRANCH   3   4
ATOM      4  C   UNL     1      -5.806  -9.609  64.417  1.00  0.00     0.000 C 
BRANCH   4   5
ATOM      5  C   UNL     1      -6.578  -8.653  65.342  1.00  0.00     0.000 C 
BRANCH   5   6
ATOM      6  C   UNL     1      -6.690  -7.233  64.761  1.00  0.00     0.000 C 
BRANCH   6   7
ATOM      7  C   UNL     1      -6.263  -6.146  65.764  1.00  0.00     0.000 C 
BRANCH   7   8
ATOM      8  C   UNL     1      -5.387  -6.698  66.901  1.00  0.00     0.000 C 
BRANCH   8   9
ATOM      9  C   UNL     1      -4.060  -5.937  67.049  1.00  0.00     0.000 C 
BRANCH   9  10
ATOM     10  C   UNL     1      -2.906  -6.592  66.270  1.00  0.00     0.000 C 
BRANCH  10  11
ATOM     11  C   UNL     1      -2.385  -5.736  65.096  1.00  0.00     0.000 C 
BRANCH  11  12
ATOM     12  C   UNL     1      -2.865  -6.261  63.735  1.00  0.00     0.000 C 
BRANCH  12  13
ATOM     13  C   UNL     1      -3.898  -5.313  63.110  1.00  0.00     0.006 C 
BRANCH  13  14
ATOM     14  C   UNL     1      -3.262  -4.327  62.123  1.00  0.00     0.053 C 
BRANCH  14  15
ATOM     15  C   UNL     1      -3.471  -2.904  62.543  1.00  0.00     0.041 C 
ATOM     16  O   UNL     1      -3.956  -2.068  61.737  1.00  0.00    -0.550 OA
ATOM     17  O   UNL     1      -3.157  -2.508  63.837  1.00  0.00    -0.550 OA
ENDBRANCH  14  15
ENDBRANCH  13  14
ENDBRANCH  12  13
ENDBRANCH  11  12
ENDBRANCH  10  11
ENDBRANCH   9  10
ENDBRANCH   8   9
ENDBRANCH   7   8
ENDBRANCH   6   7
ENDBRANCH   5   6
ENDBRANCH   4   5
ENDBRANCH   3   4
ENDBRANCH   2   3
ENDBRANCH   1   2
BRANCH   1  18
ATOM     18  C   UNL     1      -4.079 -13.425  63.930  1.00  0.00     0.000 C 
BRANCH  18  19
ATOM     19  C   UNL     1      -4.725 -14.439  64.889  1.00  0.00     0.000 C 
BRANCH  19  20
ATOM     20  C   UNL     1      -6.195 -14.113  65.200  1.00  0.00     0.000 C 
BRANCH  20  21
ATOM     21  C   UNL     1      -6.730 -14.699  66.520  1.00  0.00     0.000 C 
BRANCH  21  22
ATOM     22  C   UNL     1      -6.902 -13.654  67.645  1.00  0.00     0.000 C 
BRANCH  22  23
ATOM     23  C   UNL     1      -6.920 -12.211  67.108  1.00  0.00     0.000 C 
BRANCH  23  24
ATOM     24  C   UNL     1      -5.783 -11.354  67.706  1.00  0.00    -0.000 C 
BRANCH  24  25
ATOM     25  C   UNL     1      -4.482 -12.137  67.954  1.00  0.00    -0.000 C 
BRANCH  25  26
ATOM     26  C   UNL     1      -3.260 -11.220  68.123  1.00  0.00    -0.000 C 
BRANCH  26  27
ATOM     27  C   UNL     1      -3.628  -9.724  68.153  1.00  0.00    -0.000 C 
BRANCH  27  28
ATOM     28  C   UNL     1      -3.101  -8.948  69.374  1.00  0.00    -0.000 C 
BRANCH  28  29
ATOM     29  C   UNL     1      -4.225  -8.423  70.283  1.00  0.00    -0.000 C 
BRANCH  29  30
ATOM     30  C   UNL     1      -5.031  -9.555  70.947  1.00  0.00    -0.000 C 
BRANCH  30  31
ATOM     31  C   UNL     1      -6.555  -9.454  70.762  1.00  0.00    -0.003 C 
ATOM     32  C   UNL     1      -6.962  -8.465  69.671  1.00  0.00     0.004 C 
ENDBRANCH  30  31
ENDBRANCH  29  30
ENDBRANCH  28  29
ENDBRANCH  27  28
ENDBRANCH  26  27
ENDBRANCH  25  26
ENDBRANCH  24  25
ENDBRANCH  23  24
ENDBRANCH  22  23
ENDBRANCH  21  22
ENDBRANCH  20  21
ENDBRANCH  19  20
ENDBRANCH  18  19
ENDBRANCH   1  18
TORSDOF 28
ENDMDL
MODEL 8
REMARK VINA RESULT:    -3.792     10.654     14.906
REMARK INTER + INTRA:         -13.861
REMARK INTER:                  -7.935
REMARK INTRA:                  -5.926
REMARK UNBOUND:                -3.862
REMARK SMILES CCCCCCCCCCCCCCCCCCCCCCCCCCCCCC(=O)[O-]
REMARK SMILES IDX 16 1 17 2 18 3 19 4 20 5 21 6 22 7 23 8 24 9 25 10 26 11
REMARK SMILES IDX 27 12 28 13 29 14 30 15 31 16 32 17 15 18 14 19 13 20 12 21
REMARK SMILES IDX 11 22 10 23 9 24 8 25 7 26 6 27 5 28 4 29 3 30 2 31 1 32
REMARK H PARENT
REMARK Flexibility Score: inf
ROOT
ATOM      1  C   UNL     1      -6.793  -5.845  65.139  1.00  0.00     0.000 C 
ENDROOT
BRANCH   1   2
ATOM      2  C   UNL     1      -7.070  -7.345  65.312  1.00  0.00     0.000 C 
BRANCH   2   3
ATOM      3  C   UNL     1      -6.198  -8.174  64.358  1.00  0.00     0.000 C 
BRANCH   3   4
ATOM      4  C   UNL     1      -5.626  -9.439  65.020  1.00  0.00     0.000 C 
BRANCH   4   5
ATOM      5  C   UNL     1      -4.095  -9.526  64.903  1.00  0.00     0.000 C 
BRANCH   5   6
ATOM      6  C   UNL     1      -3.616 -10.925  64.479  1.00  0.00     0.000 C 
BRANCH   6   7
ATOM      7  C   UNL     1      -4.777 -11.859  64.095  1.00  0.00     0.000 C 
BRANCH   7   8
ATOM      8  C   UNL     1      -4.296 -13.234  63.603  1.00  0.00     0.000 C 
BRANCH   8   9
ATOM      9  C   UNL     1      -4.679 -14.372  64.562  1.00  0.00     0.000 C 
BRANCH   9  10
ATOM     10  C   UNL     1      -6.013 -14.122  65.285  1.00  0.00     0.000 C 
BRANCH  10  11
ATOM     11  C   UNL     1      -5.997 -14.523  66.775  1.00  0.00     0.000 C 
BRANCH  11  12
ATOM     12  C   UNL     1      -6.578 -13.425  67.679  1.00  0.00     0.000 C 
BRANCH  12  13
ATOM     13  C   UNL     1      -5.853 -12.090  67.462  1.00  0.00     0.006 C 
BRANCH  13  14
ATOM     14  C   UNL     1      -4.904 -11.748  68.617  1.00  0.00     0.053 C 
BRANCH  14  15
ATOM     15  C   UNL     1      -3.467 -11.807  68.195  1.00  0.00     0.041 C 
ATOM     16  O   UNL     1      -2.632 -10.994  68.670  1.00  0.00    -0.550 OA
ATOM     17  O   UNL     1      -3.046 -12.781  67.299  1.00  0.00    -0.550 OA
ENDBRANCH  14  15
ENDBRANCH  13  14
ENDBRANCH  12  13
ENDBRANCH  11  12
ENDBRANCH  10  11
ENDBRANCH   9  10
ENDBRANCH   8   9
ENDBRANCH   7   8
ENDBRANCH   6   7
ENDBRANCH   5   6
ENDBRANCH   4   5
ENDBRANCH   3   4
ENDBRANCH   2   3
ENDBRANCH   1   2
BRANCH   1  18
ATOM     18  C   UNL     1      -7.088  -5.030  66.409  1.00  0.00     0.000 C 
BRANCH  18  19
ATOM     19  C   UNL     1      -6.404  -3.653  66.397  1.00  0.00     0.000 C 
BRANCH  19  20
ATOM     20  C   UNL     1      -5.511  -3.441  65.162  1.00  0.00     0.000 C 
BRANCH  20  21
ATOM     21  C   UNL     1      -4.187  -2.702  65.432  1.00  0.00     0.000 C 
BRANCH  21  22
ATOM     22  C   UNL     1      -3.536  -2.099  64.168  1.00  0.00     0.000 C 
BRANCH  22  23
ATOM     23  C   UNL     1      -4.038  -2.768  62.875  1.00  0.00     0.000 C 
BRANCH  23  24
ATOM     24  C   UNL     1      -3.128  -3.935  62.432  1.00  0.00    -0.000 C 
BRANCH  24  25
ATOM     25  C   UNL     1      -3.803  -5.314  62.520  1.00  0.00    -0.000 C 
BRANCH  25  26
ATOM     26  C   UNL     1      -3.216  -6.194  63.635  1.00  0.00    -0.000 C 
BRANCH  26  27
ATOM     27  C   UNL     1      -2.033  -5.530  64.366  1.00  0.00    -0.000 C 
BRANCH  27  28
ATOM     28  C   UNL     1      -2.015  -5.730  65.893  1.00  0.00    -0.000 C 
BRANCH  28  29
ATOM     29  C   UNL     1      -3.358  -6.231  66.449  1.00  0.00    -0.000 C 
BRANCH  29  30
ATOM     30  C   UNL     1      -3.633  -5.732  67.880  1.00  0.00    -0.000 C 
BRANCH  30  31
ATOM     31  C   UNL     1      -4.689  -6.543  68.652  1.00  0.00    -0.003 C 
ATOM     32  C   UNL     1      -4.705  -8.023  68.272  1.00  0.00     0.004 C 
ENDBRANCH  30  31
ENDBRANCH  29  30
ENDBRANCH  28  29
ENDBRANCH  27  28
ENDBRANCH  26  27
ENDBRANCH  25  26
ENDBRANCH  24  25
ENDBRANCH  23  24
ENDBRANCH  22  23
ENDBRANCH  21  22
ENDBRANCH  20  21
ENDBRANCH  19  20
ENDBRANCH  18  19
ENDBRANCH   1  18
TORSDOF 28
ENDMDL
MODEL 9
REMARK VINA RESULT:    -3.737      6.657     11.632
REMARK INTER + INTRA:         -13.715
REMARK INTER:                  -8.649
REMARK INTRA:                  -5.067
REMARK UNBOUND:                -3.862
REMARK SMILES CCCCCCCCCCCCCCCCCCCCCCCCCCCCCC(=O)[O-]
REMARK SMILES IDX 16 1 17 2 18 3 19 4 20 5 21 6 22 7 23 8 24 9 25 10 26 11
REMARK SMILES IDX 27 12 28 13 29 14 30 15 31 16 32 17 15 18 14 19 13 20 12 21
REMARK SMILES IDX 11 22 10 23 9 24 8 25 7 26 6 27 5 28 4 29 3 30 2 31 1 32
REMARK H PARENT
REMARK Flexibility Score: inf
ROOT
ATOM      1  C   UNL     1      -3.750  -4.947  62.067  1.00  0.00     0.000 C 
ENDROOT
BRANCH   1   2
ATOM      2  C   UNL     1      -5.261  -4.852  61.809  1.00  0.00     0.000 C 
BRANCH   2   3
ATOM      3  C   UNL     1      -6.054  -5.230  63.068  1.00  0.00     0.000 C 
BRANCH   3   4
ATOM      4  C   UNL     1      -7.064  -4.148  63.484  1.00  0.00     0.000 C 
BRANCH   4   5
ATOM      5  C   UNL     1      -6.581  -3.320  64.687  1.00  0.00     0.000 C 
BRANCH   5   6
ATOM      6  C   UNL     1      -5.413  -3.988  65.431  1.00  0.00     0.000 C 
BRANCH   6   7
ATOM      7  C   UNL     1      -4.435  -2.967  66.040  1.00  0.00     0.000 C 
BRANCH   7   8
ATOM      8  C   UNL     1      -3.012  -3.094  65.470  1.00  0.00     0.000 C 
BRANCH   8   9
ATOM      9  C   UNL     1      -2.192  -4.192  66.164  1.00  0.00     0.000 C 
BRANCH   9  10
ATOM     10  C   UNL     1      -1.905  -5.393  65.248  1.00  0.00     0.000 C 
BRANCH  10  11
ATOM     11  C   UNL     1      -2.700  -6.663  65.620  1.00  0.00     0.000 C 
BRANCH  11  12
ATOM     12  C   UNL     1      -3.020  -7.530  64.393  1.00  0.00     0.000 C 
BRANCH  12  13
ATOM     13  C   UNL     1      -3.983  -8.669  64.757  1.00  0.00     0.006 C 
BRANCH  13  14
ATOM     14  C   UNL     1      -3.334 -10.050  64.607  1.00  0.00     0.053 C 
BRANCH  14  15
ATOM     15  C   UNL     1      -3.619 -10.932  65.784  1.00  0.00     0.041 C 
ATOM     16  O   UNL     1      -3.600 -10.459  66.950  1.00  0.00    -0.550 OA
ATOM     17  O   UNL     1      -3.935 -12.270  65.590  1.00  0.00    -0.550 OA
ENDBRANCH  14  15
ENDBRANCH  13  14
ENDBRANCH  12  13
ENDBRANCH  11  12
ENDBRANCH  10  11
ENDBRANCH   9  10
ENDBRANCH   8   9
ENDBRANCH   7   8
ENDBRANCH   6   7
ENDBRANCH   5   6
ENDBRANCH   4   5
ENDBRANCH   3   4
ENDBRANCH   2   3
ENDBRANCH   1   2
BRANCH   1  18
ATOM     18  C   UNL     1      -3.017  -3.616  61.836  1.00  0.00     0.000 C 
BRANCH  18  19
ATOM     19  C   UNL     1      -3.984  -2.426  61.710  1.00  0.00     0.000 C 
BRANCH  19  20
ATOM     20  C   UNL     1      -3.444  -1.147  62.371  1.00  0.00     0.000 C 
BRANCH  20  21
ATOM     21  C   UNL     1      -4.438  -0.420  63.297  1.00  0.00     0.000 C 
BRANCH  21  22
ATOM     22  C   UNL     1      -3.792   0.676  64.172  1.00  0.00     0.000 C 
BRANCH  22  23
ATOM     23  C   UNL     1      -2.364   0.307  64.616  1.00  0.00     0.000 C 
BRANCH  23  24
ATOM     24  C   UNL     1      -2.053   0.803  66.045  1.00  0.00    -0.000 C 
BRANCH  24  25
ATOM     25  C   UNL     1      -0.620   0.492  66.511  1.00  0.00    -0.000 C 
BRANCH  25  26
ATOM     26  C   UNL     1      -0.331  -1.016  66.573  1.00  0.00    -0.000 C 
BRANCH  26  27
ATOM     27  C   UNL     1       0.126  -1.485  67.968  1.00  0.00    -0.000 C 
BRANCH  27  28
ATOM     28  C   UNL     1       1.279  -2.505  67.969  1.00  0.00    -0.000 C 
BRANCH  28  29
ATOM     29  C   UNL     1       1.324  -3.361  66.691  1.00  0.00    -0.000 C 
BRANCH  29  30
ATOM     30  C   UNL     1       2.673  -3.260  65.955  1.00  0.00    -0.000 C 
BRANCH  30  31
ATOM     31  C   UNL     1       3.438  -1.945  66.190  1.00  0.00    -0.003 C 
ATOM     32  C   UNL     1       3.006  -0.824  65.244  1.00  0.00     0.004 C 
ENDBRANCH  30  31
ENDBRANCH  29  30
ENDBRANCH  28  29
ENDBRANCH  27  28
ENDBRANCH  26  27
ENDBRANCH  25  26
ENDBRANCH  24  25
ENDBRANCH  23  24
ENDBRANCH  22  23
ENDBRANCH  21  22
ENDBRANCH  20  21
ENDBRANCH  19  20
ENDBRANCH  18  19
ENDBRANCH   1  18
TORSDOF 28
ENDMDL
