MODEL 1
REMARK VINA RESULT:    -3.095      0.000      0.000
REMARK INTER + INTRA:          -6.900
REMARK INTER:                  -5.267
REMARK INTRA:                  -1.633
REMARK UNBOUND:                -1.633
REMARK SMILES CCCCCCCCCCCCCC(=O)[O-]
REMARK SMILES IDX 8 1 9 2 10 3 11 4 12 5 13 6 14 7 15 8 16 9 7 10 6 11 5 12
REMARK SMILES IDX 4 13 3 14 2 15 1 16
REMARK H PARENT
REMARK Flexibility Score: inf
ROOT
ATOM      1  C   UNL     1     142.846 139.960 146.230  1.00  0.00     0.000 C 
ENDROOT
BRANCH   1   2
ATOM      2  C   UNL     1     144.285 140.280 145.791  1.00  0.00     0.000 C 
BRANCH   2   3
ATOM      3  C   UNL     1     144.339 141.003 144.434  1.00  0.00     0.000 C 
BRANCH   3   4
ATOM      4  C   UNL     1     144.730 142.484 144.569  1.00  0.00     0.000 C 
BRANCH   4   5
ATOM      5  C   UNL     1     144.534 143.272 143.262  1.00  0.00     0.006 C 
BRANCH   5   6
ATOM      6  C   UNL     1     145.871 143.637 142.599  1.00  0.00     0.053 C 
BRANCH   6   7
ATOM      7  C   UNL     1     145.706 143.940 141.142  1.00  0.00     0.041 C 
ATOM      8  O   UNL     1     145.041 144.945 140.776  1.00  0.00    -0.550 OA
ATOM      9  O   UNL     1     146.262 143.098 140.188  1.00  0.00    -0.550 OA
ENDBRANCH   6   7
ENDBRANCH   5   6
ENDBRANCH   4   5
ENDBRANCH   3   4
ENDBRANCH   2   3
ENDBRANCH   1   2
BRANCH   1  10
ATOM     10  C   UNL     1     141.804 140.360 145.172  1.00  0.00     0.000 C 
BRANCH  10  11
ATOM     11  C   UNL     1     140.763 141.360 145.706  1.00  0.00    -0.000 C 
BRANCH  11  12
ATOM     12  C   UNL     1     141.306 142.769 146.021  1.00  0.00    -0.000 C 
BRANCH  12  13
ATOM     13  C   UNL     1     141.380 143.121 147.517  1.00  0.00    -0.000 C 
BRANCH  13  14
ATOM     14  C   UNL     1     142.810 143.423 147.990  1.00  0.00    -0.000 C 
BRANCH  14  15
ATOM     15  C   UNL     1     143.332 142.309 148.905  1.00  0.00    -0.003 C 
ATOM     16  C   UNL     1     142.183 141.558 149.571  1.00  0.00     0.004 C 
ENDBRANCH  14  15
ENDBRANCH  13  14
ENDBRANCH  12  13
ENDBRANCH  11  12
ENDBRANCH  10  11
ENDBRANCH   1  10
TORSDOF 12
ENDMDL
MODEL 2
REMARK VINA RESULT:    -2.926      1.436      2.438
REMARK INTER + INTRA:          -6.611
REMARK INTER:                  -5.245
REMARK INTRA:                  -1.366
REMARK UNBOUND:                -1.633
REMARK SMILES CCCCCCCCCCCCCC(=O)[O-]
REMARK SMILES IDX 8 1 9 2 10 3 11 4 12 5 13 6 14 7 15 8 16 9 7 10 6 11 5 12
REMARK SMILES IDX 4 13 3 14 2 15 1 16
REMARK H PARENT
REMARK Flexibility Score: inf
ROOT
ATOM      1  C   UNL     1     144.160 140.078 145.764  1.00  0.00     0.000 C 
ENDROOT
BRANCH   1   2
ATOM      2  C   UNL     1     144.499 140.699 144.398  1.00  0.00     0.000 C 
BRANCH   2   3
ATOM      3  C   UNL     1     145.549 141.819 144.504  1.00  0.00     0.000 C 
BRANCH   3   4
ATOM      4  C   UNL     1     145.389 142.883 143.405  1.00  0.00     0.000 C 
BRANCH   4   5
ATOM      5  C   UNL     1     146.521 143.926 143.420  1.00  0.00     0.006 C 
BRANCH   5   6
ATOM      6  C   UNL     1     146.880 144.411 142.008  1.00  0.00     0.053 C 
BRANCH   6   7
ATOM      7  C   UNL     1     147.042 143.271 141.050  1.00  0.00     0.041 C 
ATOM      8  O   UNL     1     147.998 142.463 141.184  1.00  0.00    -0.550 OA
ATOM      9  O   UNL     1     146.155 143.118 139.992  1.00  0.00    -0.550 OA
ENDBRANCH   6   7
ENDBRANCH   5   6
ENDBRANCH   4   5
ENDBRANCH   3   4
ENDBRANCH   2   3
ENDBRANCH   1   2
BRANCH   1  10
ATOM     10  C   UNL     1     142.647 139.875 145.959  1.00  0.00     0.000 C 
BRANCH  10  11
ATOM     11  C   UNL     1     141.804 140.948 145.247  1.00  0.00    -0.000 C 
BRANCH  11  12
ATOM     12  C   UNL     1     140.767 141.665 146.136  1.00  0.00    -0.000 C 
BRANCH  12  13
ATOM     13  C   UNL     1     141.317 142.842 146.960  1.00  0.00    -0.000 C 
BRANCH  13  14
ATOM     14  C   UNL     1     142.582 143.462 146.349  1.00  0.00    -0.000 C 
BRANCH  14  15
ATOM     15  C   UNL     1     142.231 144.651 145.449  1.00  0.00    -0.003 C 
ATOM     16  C   UNL     1     143.471 145.477 145.118  1.00  0.00     0.004 C 
ENDBRANCH  14  15
ENDBRANCH  13  14
ENDBRANCH  12  13
ENDBRANCH  11  12
ENDBRANCH  10  11
ENDBRANCH   1  10
TORSDOF 12
ENDMDL
MODEL 3
REMARK VINA RESULT:    -2.807      2.950      4.974
REMARK INTER + INTRA:          -6.410
REMARK INTER:                  -5.263
REMARK INTRA:                  -1.146
REMARK UNBOUND:                -1.633
REMARK SMILES CCCCCCCCCCCCCC(=O)[O-]
REMARK SMILES IDX 8 1 9 2 10 3 11 4 12 5 13 6 14 7 15 8 16 9 7 10 6 11 5 12
REMARK SMILES IDX 4 13 3 14 2 15 1 16
REMARK H PARENT
REMARK Flexibility Score: inf
ROOT
ATOM      1  C   UNL     1     141.333 141.758 149.624  1.00  0.00     0.000 C 
ENDROOT
BRANCH   1   2
ATOM      2  C   UNL     1     141.979 141.441 148.264  1.00  0.00     0.000 C 
BRANCH   2   3
ATOM      3  C   UNL     1     141.262 142.138 147.094  1.00  0.00     0.000 C 
BRANCH   3   4
ATOM      4  C   UNL     1     141.714 141.606 145.724  1.00  0.00     0.000 C 
BRANCH   4   5
ATOM      5  C   UNL     1     142.227 140.157 145.790  1.00  0.00     0.006 C 
BRANCH   5   6
ATOM      6  C   UNL     1     143.308 139.876 144.737  1.00  0.00     0.053 C 
BRANCH   6   7
ATOM      7  C   UNL     1     144.386 140.916 144.753  1.00  0.00     0.041 C 
ATOM      8  O   UNL     1     145.108 141.063 145.774  1.00  0.00    -0.550 OA
ATOM      9  O   UNL     1     144.573 141.743 143.653  1.00  0.00    -0.550 OA
ENDBRANCH   6   7
ENDBRANCH   5   6
ENDBRANCH   4   5
ENDBRANCH   3   4
ENDBRANCH   2   3
ENDBRANCH   1   2
BRANCH   1  10
ATOM     10  C   UNL     1     141.408 143.253 149.977  1.00  0.00     0.000 C 
BRANCH  10  11
ATOM     11  C   UNL     1     141.563 143.503 151.487  1.00  0.00    -0.000 C 
BRANCH  11  12
ATOM     12  C   UNL     1     140.593 142.709 152.388  1.00  0.00    -0.000 C 
BRANCH  12  13
ATOM     13  C   UNL     1     141.267 141.811 153.440  1.00  0.00    -0.000 C 
BRANCH  13  14
ATOM     14  C   UNL     1     142.800 141.838 153.357  1.00  0.00    -0.000 C 
BRANCH  14  15
ATOM     15  C   UNL     1     143.358 140.444 153.054  1.00  0.00    -0.003 C 
ATOM     16  C   UNL     1     144.096 140.423 151.718  1.00  0.00     0.004 C 
ENDBRANCH  14  15
ENDBRANCH  13  14
ENDBRANCH  12  13
ENDBRANCH  11  12
ENDBRANCH  10  11
ENDBRANCH   1  10
TORSDOF 12
ENDMDL
MODEL 4
REMARK VINA RESULT:    -2.797      2.569      3.257
REMARK INTER + INTRA:          -6.392
REMARK INTER:                  -4.237
REMARK INTRA:                  -2.155
REMARK UNBOUND:                -1.633
REMARK SMILES CCCCCCCCCCCCCC(=O)[O-]
REMARK SMILES IDX 8 1 9 2 10 3 11 4 12 5 13 6 14 7 15 8 16 9 7 10 6 11 5 12
REMARK SMILES IDX 4 13 3 14 2 15 1 16
REMARK H PARENT
REMARK Flexibility Score: inf
ROOT
ATOM      1  C   UNL     1     144.630 140.747 145.184  1.00  0.00     0.000 C 
ENDROOT
BRANCH   1   2
ATOM      2  C   UNL     1     144.781 140.772 146.714  1.00  0.00     0.000 C 
BRANCH   2   3
ATOM      3  C   UNL     1     145.079 142.182 147.254  1.00  0.00     0.000 C 
BRANCH   3   4
ATOM      4  C   UNL     1     145.334 143.201 146.131  1.00  0.00     0.000 C 
BRANCH   4   5
ATOM      5  C   UNL     1     144.320 144.360 146.140  1.00  0.00     0.006 C 
BRANCH   5   6
ATOM      6  C   UNL     1     143.576 144.489 144.803  1.00  0.00     0.053 C 
BRANCH   6   7
ATOM      7  C   UNL     1     142.747 145.735 144.745  1.00  0.00     0.041 C 
ATOM      8  O   UNL     1     142.158 146.053 143.678  1.00  0.00    -0.550 OA
ATOM      9  O   UNL     1     142.649 146.560 145.858  1.00  0.00    -0.550 OA
ENDBRANCH   6   7
ENDBRANCH   5   6
ENDBRANCH   4   5
ENDBRANCH   3   4
ENDBRANCH   2   3
ENDBRANCH   1   2
BRANCH   1  10
ATOM     10  C   UNL     1     143.392 139.955 144.727  1.00  0.00     0.000 C 
BRANCH  10  11
ATOM     11  C   UNL     1     142.234 140.021 145.740  1.00  0.00    -0.000 C 
BRANCH  11  12
ATOM     12  C   UNL     1     141.168 141.098 145.450  1.00  0.00    -0.000 C 
BRANCH  12  13
ATOM     13  C   UNL     1     141.163 142.291 146.422  1.00  0.00    -0.000 C 
BRANCH  13  14
ATOM     14  C   UNL     1     141.413 141.876 147.879  1.00  0.00    -0.000 C 
BRANCH  14  15
ATOM     15  C   UNL     1     141.839 143.079 148.727  1.00  0.00    -0.003 C 
ATOM     16  C   UNL     1     141.182 144.364 148.232  1.00  0.00     0.004 C 
ENDBRANCH  14  15
ENDBRANCH  13  14
ENDBRANCH  12  13
ENDBRANCH  11  12
ENDBRANCH  10  11
ENDBRANCH   1  10
TORSDOF 12
ENDMDL
MODEL 5
REMARK VINA RESULT:    -2.787      5.467      8.294
REMARK INTER + INTRA:          -6.375
REMARK INTER:                  -5.052
REMARK INTRA:                  -1.323
REMARK UNBOUND:                -1.633
REMARK SMILES CCCCCCCCCCCCCC(=O)[O-]
REMARK SMILES IDX 8 1 9 2 10 3 11 4 12 5 13 6 14 7 15 8 16 9 7 10 6 11 5 12
REMARK SMILES IDX 4 13 3 14 2 15 1 16
REMARK H PARENT
REMARK Flexibility Score: inf
ROOT
ATOM      1  C   UNL     1     142.387 140.617 149.335  1.00  0.00     0.000 C 
ENDROOT
BRANCH   1   2
ATOM      2  C   UNL     1     143.548 141.147 150.193  1.00  0.00     0.000 C 
BRANCH   2   3
ATOM      3  C   UNL     1     143.427 140.732 151.669  1.00  0.00     0.000 C 
BRANCH   3   4
ATOM      4  C   UNL     1     142.993 141.897 152.575  1.00  0.00     0.000 C 
BRANCH   4   5
ATOM      5  C   UNL     1     141.807 141.531 153.485  1.00  0.00     0.006 C 
BRANCH   5   6
ATOM      6  C   UNL     1     140.471 142.049 152.933  1.00  0.00     0.053 C 
BRANCH   6   7
ATOM      7  C   UNL     1     140.095 143.370 153.532  1.00  0.00     0.041 C 
ATOM      8  O   UNL     1     140.003 144.392 152.803  1.00  0.00    -0.550 OA
ATOM      9  O   UNL     1     139.877 143.478 154.899  1.00  0.00    -0.550 OA
ENDBRANCH   6   7
ENDBRANCH   5   6
ENDBRANCH   4   5
ENDBRANCH   3   4
ENDBRANCH   2   3
ENDBRANCH   1   2
BRANCH   1  10
ATOM     10  C   UNL     1     141.229 141.624 149.224  1.00  0.00     0.000 C 
BRANCH  10  11
ATOM     11  C   UNL     1     141.391 142.590 148.037  1.00  0.00    -0.000 C 
BRANCH  11  12
ATOM     12  C   UNL     1     140.981 142.019 146.664  1.00  0.00    -0.000 C 
BRANCH  12  13
ATOM     13  C   UNL     1     142.147 141.725 145.704  1.00  0.00    -0.000 C 
BRANCH  13  14
ATOM     14  C   UNL     1     142.394 140.222 145.506  1.00  0.00    -0.000 C 
BRANCH  14  15
ATOM     15  C   UNL     1     143.884 139.888 145.639  1.00  0.00    -0.003 C 
ATOM     16  C   UNL     1     144.636 141.001 146.364  1.00  0.00     0.004 C 
ENDBRANCH  14  15
ENDBRANCH  13  14
ENDBRANCH  12  13
ENDBRANCH  11  12
ENDBRANCH  10  11
ENDBRANCH   1  10
TORSDOF 12
ENDMDL
MODEL 6
REMARK VINA RESULT:    -2.781      4.114      6.020
REMARK INTER + INTRA:          -6.366
REMARK INTER:                  -4.769
REMARK INTRA:                  -1.596
REMARK UNBOUND:                -1.633
REMARK SMILES CCCCCCCCCCCCCC(=O)[O-]
REMARK SMILES IDX 8 1 9 2 10 3 11 4 12 5 13 6 14 7 15 8 16 9 7 10 6 11 5 12
REMARK SMILES IDX 4 13 3 14 2 15 1 16
REMARK H PARENT
REMARK Flexibility Score: inf
ROOT
ATOM      1  C   UNL     1     144.844 140.265 144.804  1.00  0.00     0.000 C 
ENDROOT
BRANCH   1   2
ATOM      2  C   UNL     1     143.368 139.888 144.591  1.00  0.00     0.000 C 
BRANCH   2   3
ATOM      3  C   UNL     1     142.500 140.182 145.827  1.00  0.00     0.000 C 
BRANCH   3   4
ATOM      4  C   UNL     1     141.263 141.032 145.491  1.00  0.00     0.000 C 
BRANCH   4   5
ATOM      5  C   UNL     1     141.015 142.151 146.518  1.00  0.00     0.006 C 
BRANCH   5   6
ATOM      6  C   UNL     1     142.055 142.142 147.647  1.00  0.00     0.053 C 
BRANCH   6   7
ATOM      7  C   UNL     1     141.411 142.191 148.999  1.00  0.00     0.041 C 
ATOM      8  O   UNL     1     140.985 141.135 149.536  1.00  0.00    -0.550 OA
ATOM      9  O   UNL     1     141.255 143.407 149.652  1.00  0.00    -0.550 OA
ENDBRANCH   6   7
ENDBRANCH   5   6
ENDBRANCH   4   5
ENDBRANCH   3   4
ENDBRANCH   2   3
ENDBRANCH   1   2
BRANCH   1  10
ATOM     10  C   UNL     1     145.009 141.546 145.641  1.00  0.00     0.000 C 
BRANCH  10  11
ATOM     11  C   UNL     1     145.196 142.805 144.775  1.00  0.00    -0.000 C 
BRANCH  11  12
ATOM     12  C   UNL     1     143.897 143.558 144.420  1.00  0.00    -0.000 C 
BRANCH  12  13
ATOM     13  C   UNL     1     143.529 144.709 145.372  1.00  0.00    -0.000 C 
BRANCH  13  14
ATOM     14  C   UNL     1     142.152 145.318 145.070  1.00  0.00    -0.000 C 
BRANCH  14  15
ATOM     15  C   UNL     1     142.292 146.727 144.484  1.00  0.00    -0.003 C 
ATOM     16  C   UNL     1     141.476 146.875 143.203  1.00  0.00     0.004 C 
ENDBRANCH  14  15
ENDBRANCH  13  14
ENDBRANCH  12  13
ENDBRANCH  11  12
ENDBRANCH  10  11
ENDBRANCH   1  10
TORSDOF 12
ENDMDL
MODEL 7
REMARK VINA RESULT:    -2.732      1.332      2.904
REMARK INTER + INTRA:          -6.283
REMARK INTER:                  -4.447
REMARK INTRA:                  -1.836
REMARK UNBOUND:                -1.633
REMARK SMILES CCCCCCCCCCCCCC(=O)[O-]
REMARK SMILES IDX 8 1 9 2 10 3 11 4 12 5 13 6 14 7 15 8 16 9 7 10 6 11 5 12
REMARK SMILES IDX 4 13 3 14 2 15 1 16
REMARK H PARENT
REMARK Flexibility Score: inf
ROOT
ATOM      1  C   UNL     1     142.352 143.780 147.962  1.00  0.00     0.000 C 
ENDROOT
BRANCH   1   2
ATOM      2  C   UNL     1     142.814 144.834 146.941  1.00  0.00     0.000 C 
BRANCH   2   3
ATOM      3  C   UNL     1     144.345 144.882 146.796  1.00  0.00     0.000 C 
BRANCH   3   4
ATOM      4  C   UNL     1     144.858 143.987 145.656  1.00  0.00     0.000 C 
BRANCH   4   5
ATOM      5  C   UNL     1     144.199 144.312 144.304  1.00  0.00     0.006 C 
BRANCH   5   6
ATOM      6  C   UNL     1     144.610 143.320 143.206  1.00  0.00     0.053 C 
BRANCH   6   7
ATOM      7  C   UNL     1     145.027 144.021 141.949  1.00  0.00     0.041 C 
ATOM      8  O   UNL     1     144.645 145.200 141.726  1.00  0.00    -0.550 OA
ATOM      9  O   UNL     1     145.811 143.362 141.011  1.00  0.00    -0.550 OA
ENDBRANCH   6   7
ENDBRANCH   5   6
ENDBRANCH   4   5
ENDBRANCH   3   4
ENDBRANCH   2   3
ENDBRANCH   1   2
BRANCH   1  10
ATOM     10  C   UNL     1     141.135 142.978 147.471  1.00  0.00     0.000 C 
BRANCH  10  11
ATOM     11  C   UNL     1     141.204 142.648 145.969  1.00  0.00    -0.000 C 
BRANCH  11  12
ATOM     12  C   UNL     1     141.331 141.148 145.631  1.00  0.00    -0.000 C 
BRANCH  12  13
ATOM     13  C   UNL     1     142.720 140.704 145.142  1.00  0.00    -0.000 C 
BRANCH  13  14
ATOM     14  C   UNL     1     143.485 139.876 146.186  1.00  0.00    -0.000 C 
BRANCH  14  15
ATOM     15  C   UNL     1     144.251 140.785 147.153  1.00  0.00    -0.003 C 
ATOM     16  C   UNL     1     144.423 140.120 148.515  1.00  0.00     0.004 C 
ENDBRANCH  14  15
ENDBRANCH  13  14
ENDBRANCH  12  13
ENDBRANCH  11  12
ENDBRANCH  10  11
ENDBRANCH   1  10
TORSDOF 12
ENDMDL
MODEL 8
REMARK VINA RESULT:    -2.673      4.781      6.396
REMARK INTER + INTRA:          -6.181
REMARK INTER:                  -4.517
REMARK INTRA:                  -1.664
REMARK UNBOUND:                -1.633
REMARK SMILES CCCCCCCCCCCCCC(=O)[O-]
REMARK SMILES IDX 8 1 9 2 10 3 11 4 12 5 13 6 14 7 15 8 16 9 7 10 6 11 5 12
REMARK SMILES IDX 4 13 3 14 2 15 1 16
REMARK H PARENT
REMARK Flexibility Score: inf
ROOT
ATOM      1  C   UNL     1     144.435 141.115 146.001  1.00  0.00     0.000 C 
ENDROOT
BRANCH   1   2
ATOM      2  C   UNL     1     144.695 139.905 146.914  1.00  0.00     0.000 C 
BRANCH   2   3
ATOM      3  C   UNL     1     144.899 140.311 148.385  1.00  0.00     0.000 C 
BRANCH   3   4
ATOM      4  C   UNL     1     143.591 140.282 149.192  1.00  0.00     0.000 C 
BRANCH   4   5
ATOM      5  C   UNL     1     143.131 141.685 149.627  1.00  0.00     0.006 C 
BRANCH   5   6
ATOM      6  C   UNL     1     141.769 141.655 150.334  1.00  0.00     0.053 C 
BRANCH   6   7
ATOM      7  C   UNL     1     141.835 142.265 151.700  1.00  0.00     0.041 C 
ATOM      8  O   UNL     1     141.634 143.499 151.853  1.00  0.00    -0.550 OA
ATOM      9  O   UNL     1     142.150 141.478 152.800  1.00  0.00    -0.550 OA
ENDBRANCH   6   7
ENDBRANCH   5   6
ENDBRANCH   4   5
ENDBRANCH   3   4
ENDBRANCH   2   3
ENDBRANCH   1   2
BRANCH   1  10
ATOM     10  C   UNL     1     143.401 140.813 144.902  1.00  0.00     0.000 C 
BRANCH  10  11
ATOM     11  C   UNL     1     142.073 140.275 145.464  1.00  0.00    -0.000 C 
BRANCH  11  12
ATOM     12  C   UNL     1     140.923 141.301 145.530  1.00  0.00    -0.000 C 
BRANCH  12  13
ATOM     13  C   UNL     1     141.028 142.327 146.672  1.00  0.00    -0.000 C 
BRANCH  13  14
ATOM     14  C   UNL     1     141.611 143.672 146.216  1.00  0.00    -0.000 C 
BRANCH  14  15
ATOM     15  C   UNL     1     142.192 144.449 147.403  1.00  0.00    -0.003 C 
ATOM     16  C   UNL     1     141.116 144.760 148.439  1.00  0.00     0.004 C 
ENDBRANCH  14  15
ENDBRANCH  13  14
ENDBRANCH  12  13
ENDBRANCH  11  12
ENDBRANCH  10  11
ENDBRANCH   1  10
TORSDOF 12
ENDMDL
MODEL 9
REMARK VINA RESULT:    -2.648     14.651     16.614
REMARK INTER + INTRA:          -6.139
REMARK INTER:                  -4.749
REMARK INTRA:                  -1.391
REMARK UNBOUND:                -1.633
REMARK SMILES CCCCCCCCCCCCCC(=O)[O-]
REMARK SMILES IDX 8 1 9 2 10 3 11 4 12 5 13 6 14 7 15 8 16 9 7 10 6 11 5 12
REMARK SMILES IDX 4 13 3 14 2 15 1 16
REMARK H PARENT
REMARK Flexibility Score: inf
ROOT
ATOM      1  C   UNL     1     157.891 142.539 150.007  1.00  0.00     0.000 C 
ENDROOT
BRANCH   1   2
ATOM      2  C   UNL     1     157.439 141.073 150.116  1.00  0.00     0.000 C 
BRANCH   2   3
ATOM      3  C   UNL     1     157.865 140.422 151.443  1.00  0.00     0.000 C 
BRANCH   3   4
ATOM      4  C   UNL     1     158.102 141.456 152.557  1.00  0.00     0.000 C 
BRANCH   4   5
ATOM      5  C   UNL     1     158.596 140.814 153.866  1.00  0.00     0.006 C 
BRANCH   5   6
ATOM      6  C   UNL     1     157.548 139.876 154.483  1.00  0.00     0.053 C 
BRANCH   6   7
ATOM      7  C   UNL     1     156.267 140.592 154.783  1.00  0.00     0.041 C 
ATOM      8  O   UNL     1     156.246 141.528 155.625  1.00  0.00    -0.550 OA
ATOM      9  O   UNL     1     155.090 140.205 154.155  1.00  0.00    -0.550 OA
ENDBRANCH   6   7
ENDBRANCH   5   6
ENDBRANCH   4   5
ENDBRANCH   3   4
ENDBRANCH   2   3
ENDBRANCH   1   2
BRANCH   1  10
ATOM     10  C   UNL     1     159.182 142.697 149.184  1.00  0.00     0.000 C 
BRANCH  10  11
ATOM     11  C   UNL     1     159.498 141.459 148.326  1.00  0.00    -0.000 C 
BRANCH  11  12
ATOM     12  C   UNL     1     159.696 141.735 146.821  1.00  0.00    -0.000 C 
BRANCH  12  13
ATOM     13  C   UNL     1     158.641 141.102 145.897  1.00  0.00    -0.000 C 
BRANCH  13  14
ATOM     14  C   UNL     1     157.813 140.012 146.594  1.00  0.00    -0.000 C 
BRANCH  14  15
ATOM     15  C   UNL     1     156.314 140.323 146.508  1.00  0.00    -0.003 C 
ATOM     16  C   UNL     1     156.061 141.827 146.533  1.00  0.00     0.004 C 
ENDBRANCH  14  15
ENDBRANCH  13  14
ENDBRANCH  12  13
ENDBRANCH  11  12
ENDBRANCH  10  11
ENDBRANCH   1  10
TORSDOF 12
ENDMDL
