MODEL 1
REMARK VINA RESULT:    -3.110      0.000      0.000
REMARK INTER + INTRA:          -6.292
REMARK INTER:                  -5.656
REMARK INTRA:                  -0.636
REMARK UNBOUND:                -0.636
REMARK SMILES CCCCCCCCCCCCCC[C@@H](C)C(=O)[O-]
REMARK SMILES IDX 9 1 10 2 11 3 12 4 13 5 14 6 15 7 16 8 17 9 18 10 19 11 8 12
REMARK SMILES IDX 7 13 6 14 5 15 4 16 3 17 2 18 1 19
REMARK H PARENT
REMARK Flexibility Score: inf
ROOT
ATOM      1  C   UNL     1      21.429   6.845 -12.112  1.00  0.00     0.000 C 
ENDROOT
BRANCH   1   2
ATOM      2  C   UNL     1      22.139   5.593 -12.657  1.00  0.00     0.000 C 
BRANCH   2   3
ATOM      3  C   UNL     1      23.465   5.927 -13.356  1.00  0.00     0.000 C 
BRANCH   3   4
ATOM      4  C   UNL     1      24.282   4.670 -13.707  1.00  0.00     0.000 C 
BRANCH   4   5
ATOM      5  C   UNL     1      25.628   5.022 -14.373  1.00  0.00     0.001 C 
BRANCH   5   6
ATOM      6  C   UNL     1      26.761   4.023 -14.071  1.00  0.00     0.009 C 
BRANCH   6   7
ATOM      7  C   UNL     1      27.890   4.002 -15.132  1.00  0.00     0.032 C 
ATOM      8  C   UNL     1      28.383   5.425 -15.420  1.00  0.00     0.014 C 
BRANCH   7   9
ATOM      9  C   UNL     1      29.062   3.163 -14.696  1.00  0.00     0.044 C 
ATOM     10  O   UNL     1      29.058   2.615 -13.563  1.00  0.00    -0.550 OA
ATOM     11  O   UNL     1      30.122   2.923 -15.565  1.00  0.00    -0.550 OA
ENDBRANCH   7   9
ENDBRANCH   6   7
ENDBRANCH   5   6
ENDBRANCH   4   5
ENDBRANCH   3   4
ENDBRANCH   2   3
ENDBRANCH   1   2
BRANCH   1  12
ATOM     12  C   UNL     1      21.752   7.107 -10.633  1.00  0.00     0.000 C 
BRANCH  12  13
ATOM     13  C   UNL     1      21.590   5.848  -9.762  1.00  0.00    -0.000 C 
BRANCH  13  14
ATOM     14  C   UNL     1      20.154   5.661  -9.249  1.00  0.00    -0.000 C 
BRANCH  14  15
ATOM     15  C   UNL     1      19.176   6.688  -9.848  1.00  0.00    -0.000 C 
BRANCH  15  16
ATOM     16  C   UNL     1      18.276   6.088 -10.945  1.00  0.00    -0.000 C 
BRANCH  16  17
ATOM     17  C   UNL     1      18.436   4.573 -11.166  1.00  0.00    -0.000 C 
BRANCH  17  18
ATOM     18  C   UNL     1      17.314   3.750 -10.517  1.00  0.00    -0.003 C 
ATOM     19  C   UNL     1      15.941   4.278 -10.917  1.00  0.00     0.004 C 
ENDBRANCH  17  18
ENDBRANCH  16  17
ENDBRANCH  15  16
ENDBRANCH  14  15
ENDBRANCH  13  14
ENDBRANCH  12  13
ENDBRANCH   1  12
TORSDOF 14
ENDMDL
MODEL 2
REMARK VINA RESULT:    -3.026      3.768      9.038
REMARK INTER + INTRA:          -6.139
REMARK INTER:                  -5.037
REMARK INTRA:                  -1.102
REMARK UNBOUND:                -0.636
REMARK SMILES CCCCCCCCCCCCCC[C@@H](C)C(=O)[O-]
REMARK SMILES IDX 9 1 10 2 11 3 12 4 13 5 14 6 15 7 16 8 17 9 18 10 19 11 8 12
REMARK SMILES IDX 7 13 6 14 5 15 4 16 3 17 2 18 1 19
REMARK H PARENT
REMARK Flexibility Score: inf
ROOT
ATOM      1  C   UNL     1      21.908   6.911 -12.514  1.00  0.00     0.000 C 
ENDROOT
BRANCH   1   2
ATOM      2  C   UNL     1      22.016   7.008 -10.982  1.00  0.00     0.000 C 
BRANCH   2   3
ATOM      3  C   UNL     1      21.185   5.934 -10.265  1.00  0.00     0.000 C 
BRANCH   3   4
ATOM      4  C   UNL     1      20.104   6.535  -9.349  1.00  0.00     0.000 C 
BRANCH   4   5
ATOM      5  C   UNL     1      18.902   7.076 -10.151  1.00  0.00     0.001 C 
BRANCH   5   6
ATOM      6  C   UNL     1      18.356   6.094 -11.206  1.00  0.00     0.009 C 
BRANCH   6   7
ATOM      7  C   UNL     1      17.670   4.839 -10.611  1.00  0.00     0.032 C 
ATOM      8  C   UNL     1      16.182   5.109 -10.359  1.00  0.00     0.014 C 
BRANCH   7   9
ATOM      9  C   UNL     1      17.799   3.641 -11.514  1.00  0.00     0.044 C 
ATOM     10  O   UNL     1      16.977   2.692 -11.423  1.00  0.00    -0.550 OA
ATOM     11  O   UNL     1      18.775   3.604 -12.505  1.00  0.00    -0.550 OA
ENDBRANCH   7   9
ENDBRANCH   6   7
ENDBRANCH   5   6
ENDBRANCH   4   5
ENDBRANCH   3   4
ENDBRANCH   2   3
ENDBRANCH   1   2
BRANCH   1  12
ATOM     12  C   UNL     1      21.694   5.468 -12.998  1.00  0.00     0.000 C 
BRANCH  12  13
ATOM     13  C   UNL     1      23.012   4.681 -13.106  1.00  0.00    -0.000 C 
BRANCH  13  14
ATOM     14  C   UNL     1      24.229   5.589 -13.340  1.00  0.00    -0.000 C 
BRANCH  14  15
ATOM     15  C   UNL     1      24.984   5.241 -14.635  1.00  0.00    -0.000 C 
BRANCH  15  16
ATOM     16  C   UNL     1      26.282   4.452 -14.377  1.00  0.00    -0.000 C 
BRANCH  16  17
ATOM     17  C   UNL     1      27.498   4.906 -15.204  1.00  0.00    -0.000 C 
BRANCH  17  18
ATOM     18  C   UNL     1      28.582   3.824 -15.322  1.00  0.00    -0.003 C 
ATOM     19  C   UNL     1      28.658   2.981 -14.054  1.00  0.00     0.004 C 
ENDBRANCH  17  18
ENDBRANCH  16  17
ENDBRANCH  15  16
ENDBRANCH  14  15
ENDBRANCH  13  14
ENDBRANCH  12  13
ENDBRANCH   1  12
TORSDOF 14
ENDMDL
MODEL 3
REMARK VINA RESULT:    -3.025      5.403      8.133
REMARK INTER + INTRA:          -6.137
REMARK INTER:                  -4.908
REMARK INTRA:                  -1.229
REMARK UNBOUND:                -0.636
REMARK SMILES CCCCCCCCCCCCCC[C@@H](C)C(=O)[O-]
REMARK SMILES IDX 9 1 10 2 11 3 12 4 13 5 14 6 15 7 16 8 17 9 18 10 19 11 8 12
REMARK SMILES IDX 7 13 6 14 5 15 4 16 3 17 2 18 1 19
REMARK H PARENT
REMARK Flexibility Score: inf
ROOT
ATOM      1  C   UNL     1      21.894   5.774 -12.638  1.00  0.00     0.000 C 
ENDROOT
BRANCH   1   2
ATOM      2  C   UNL     1      21.845   7.122 -11.899  1.00  0.00     0.000 C 
BRANCH   2   3
ATOM      3  C   UNL     1      22.362   7.021 -10.456  1.00  0.00     0.000 C 
BRANCH   3   4
ATOM      4  C   UNL     1      21.505   6.087  -9.584  1.00  0.00     0.000 C 
BRANCH   4   5
ATOM      5  C   UNL     1      20.004   6.434  -9.667  1.00  0.00     0.001 C 
BRANCH   5   6
ATOM      6  C   UNL     1      19.093   5.224  -9.953  1.00  0.00     0.009 C 
BRANCH   6   7
ATOM      7  C   UNL     1      17.714   5.595 -10.555  1.00  0.00     0.032 C 
ATOM      8  C   UNL     1      17.891   6.384 -11.857  1.00  0.00     0.014 C 
BRANCH   7   9
ATOM      9  C   UNL     1      16.872   4.378 -10.836  1.00  0.00     0.044 C 
ATOM     10  O   UNL     1      17.354   3.227 -10.670  1.00  0.00    -0.550 OA
ATOM     11  O   UNL     1      15.539   4.513 -11.207  1.00  0.00    -0.550 OA
ENDBRANCH   7   9
ENDBRANCH   6   7
ENDBRANCH   5   6
ENDBRANCH   4   5
ENDBRANCH   3   4
ENDBRANCH   2   3
ENDBRANCH   1   2
BRANCH   1  12
ATOM     12  C   UNL     1      20.528   5.369 -13.215  1.00  0.00     0.000 C 
BRANCH  12  13
ATOM     13  C   UNL     1      20.478   3.888 -13.629  1.00  0.00    -0.000 C 
BRANCH  13  14
ATOM     14  C   UNL     1      19.052   3.407 -13.942  1.00  0.00    -0.000 C 
BRANCH  14  15
ATOM     15  C   UNL     1      18.874   1.897 -13.706  1.00  0.00    -0.000 C 
BRANCH  15  16
ATOM     16  C   UNL     1      18.521   1.128 -14.993  1.00  0.00    -0.000 C 
BRANCH  16  17
ATOM     17  C   UNL     1      17.359   0.128 -14.860  1.00  0.00    -0.000 C 
BRANCH  17  18
ATOM     18  C   UNL     1      17.216  -0.793 -16.080  1.00  0.00    -0.003 C 
ATOM     19  C   UNL     1      17.121   0.014 -17.371  1.00  0.00     0.004 C 
ENDBRANCH  17  18
ENDBRANCH  16  17
ENDBRANCH  15  16
ENDBRANCH  14  15
ENDBRANCH  13  14
ENDBRANCH  12  13
ENDBRANCH   1  12
TORSDOF 14
ENDMDL
MODEL 4
REMARK VINA RESULT:    -2.905      5.623      7.427
REMARK INTER + INTRA:          -5.919
REMARK INTER:                  -4.915
REMARK INTRA:                  -1.005
REMARK UNBOUND:                -0.636
REMARK SMILES CCCCCCCCCCCCCC[C@@H](C)C(=O)[O-]
REMARK SMILES IDX 9 1 10 2 11 3 12 4 13 5 14 6 15 7 16 8 17 9 18 10 19 11 8 12
REMARK SMILES IDX 7 13 6 14 5 15 4 16 3 17 2 18 1 19
REMARK H PARENT
REMARK Flexibility Score: inf
ROOT
ATOM      1  C   UNL     1      21.512   5.229 -12.643  1.00  0.00     0.000 C 
ENDROOT
BRANCH   1   2
ATOM      2  C   UNL     1      20.139   4.856 -13.228  1.00  0.00     0.000 C 
BRANCH   2   3
ATOM      3  C   UNL     1      20.198   3.600 -14.111  1.00  0.00     0.000 C 
BRANCH   3   4
ATOM      4  C   UNL     1      19.135   2.555 -13.725  1.00  0.00     0.000 C 
BRANCH   4   5
ATOM      5  C   UNL     1      18.806   1.606 -14.896  1.00  0.00     0.001 C 
BRANCH   5   6
ATOM      6  C   UNL     1      17.889   0.428 -14.512  1.00  0.00     0.009 C 
BRANCH   6   7
ATOM      7  C   UNL     1      16.888   0.016 -15.621  1.00  0.00     0.032 C 
ATOM      8  C   UNL     1      17.202   0.749 -16.930  1.00  0.00     0.014 C 
BRANCH   7   9
ATOM      9  C   UNL     1      16.908  -1.468 -15.879  1.00  0.00     0.044 C 
ATOM     10  O   UNL     1      16.741  -1.906 -17.047  1.00  0.00    -0.550 OA
ATOM     11  O   UNL     1      17.184  -2.360 -14.849  1.00  0.00    -0.550 OA
ENDBRANCH   7   9
ENDBRANCH   6   7
ENDBRANCH   5   6
ENDBRANCH   4   5
ENDBRANCH   3   4
ENDBRANCH   2   3
ENDBRANCH   1   2
BRANCH   1  12
ATOM     12  C   UNL     1      21.543   6.661 -12.085  1.00  0.00     0.000 C 
BRANCH  12  13
ATOM     13  C   UNL     1      21.629   6.694 -10.549  1.00  0.00    -0.000 C 
BRANCH  13  14
ATOM     14  C   UNL     1      20.350   6.178  -9.872  1.00  0.00    -0.000 C 
BRANCH  14  15
ATOM     15  C   UNL     1      19.092   6.933 -10.335  1.00  0.00    -0.000 C 
BRANCH  15  16
ATOM     16  C   UNL     1      17.919   5.992 -10.670  1.00  0.00    -0.000 C 
BRANCH  16  17
ATOM     17  C   UNL     1      18.284   4.500 -10.768  1.00  0.00    -0.000 C 
BRANCH  17  18
ATOM     18  C   UNL     1      17.058   3.577 -10.715  1.00  0.00    -0.003 C 
ATOM     19  C   UNL     1      15.762   4.377 -10.800  1.00  0.00     0.004 C 
ENDBRANCH  17  18
ENDBRANCH  16  17
ENDBRANCH  15  16
ENDBRANCH  14  15
ENDBRANCH  13  14
ENDBRANCH  12  13
ENDBRANCH   1  12
TORSDOF 14
ENDMDL
MODEL 5
REMARK VINA RESULT:    -2.852      4.954      9.584
REMARK INTER + INTRA:          -5.822
REMARK INTER:                  -4.822
REMARK INTRA:                  -0.999
REMARK UNBOUND:                -0.636
REMARK SMILES CCCCCCCCCCCCCC[C@@H](C)C(=O)[O-]
REMARK SMILES IDX 9 1 10 2 11 3 12 4 13 5 14 6 15 7 16 8 17 9 18 10 19 11 8 12
REMARK SMILES IDX 7 13 6 14 5 15 4 16 3 17 2 18 1 19
REMARK H PARENT
REMARK Flexibility Score: inf
ROOT
ATOM      1  C   UNL     1      21.065   4.646 -13.382  1.00  0.00     0.000 C 
ENDROOT
BRANCH   1   2
ATOM      2  C   UNL     1      19.753   5.436 -13.528  1.00  0.00     0.000 C 
BRANCH   2   3
ATOM      3  C   UNL     1      19.813   6.808 -12.840  1.00  0.00     0.000 C 
BRANCH   3   4
ATOM      4  C   UNL     1      18.736   6.972 -11.752  1.00  0.00     0.000 C 
BRANCH   4   5
ATOM      5  C   UNL     1      19.164   6.336 -10.414  1.00  0.00     0.001 C 
BRANCH   5   6
ATOM      6  C   UNL     1      18.610   4.916 -10.186  1.00  0.00     0.009 C 
BRANCH   6   7
ATOM      7  C   UNL     1      17.524   4.487 -11.205  1.00  0.00     0.032 C 
ATOM      8  C   UNL     1      17.773   3.052 -11.685  1.00  0.00     0.014 C 
BRANCH   7   9
ATOM      9  C   UNL     1      16.137   4.570 -10.624  1.00  0.00     0.044 C 
ATOM     10  O   UNL     1      15.220   3.835 -11.075  1.00  0.00    -0.550 OA
ATOM     11  O   UNL     1      15.874   5.400  -9.539  1.00  0.00    -0.550 OA
ENDBRANCH   7   9
ENDBRANCH   6   7
ENDBRANCH   5   6
ENDBRANCH   4   5
ENDBRANCH   3   4
ENDBRANCH   2   3
ENDBRANCH   1   2
BRANCH   1  12
ATOM     12  C   UNL     1      22.071   5.345 -12.455  1.00  0.00     0.000 C 
BRANCH  12  13
ATOM     13  C   UNL     1      23.279   5.917 -13.220  1.00  0.00    -0.000 C 
BRANCH  13  14
ATOM     14  C   UNL     1      24.444   4.920 -13.320  1.00  0.00    -0.000 C 
BRANCH  14  15
ATOM     15  C   UNL     1      25.420   5.266 -14.458  1.00  0.00    -0.000 C 
BRANCH  15  16
ATOM     16  C   UNL     1      26.450   4.153 -14.723  1.00  0.00    -0.000 C 
BRANCH  16  17
ATOM     17  C   UNL     1      27.914   4.621 -14.801  1.00  0.00    -0.000 C 
BRANCH  17  18
ATOM     18  C   UNL     1      28.889   3.490 -15.157  1.00  0.00    -0.003 C 
ATOM     19  C   UNL     1      29.230   2.650 -13.929  1.00  0.00     0.004 C 
ENDBRANCH  17  18
ENDBRANCH  16  17
ENDBRANCH  15  16
ENDBRANCH  14  15
ENDBRANCH  13  14
ENDBRANCH  12  13
ENDBRANCH   1  12
TORSDOF 14
ENDMDL
MODEL 6
REMARK VINA RESULT:    -2.845      0.978      1.478
REMARK INTER + INTRA:          -5.809
REMARK INTER:                  -5.104
REMARK INTRA:                  -0.704
REMARK UNBOUND:                -0.636
REMARK SMILES CCCCCCCCCCCCCC[C@@H](C)C(=O)[O-]
REMARK SMILES IDX 9 1 10 2 11 3 12 4 13 5 14 6 15 7 16 8 17 9 18 10 19 11 8 12
REMARK SMILES IDX 7 13 6 14 5 15 4 16 3 17 2 18 1 19
REMARK H PARENT
REMARK Flexibility Score: inf
ROOT
ATOM      1  C   UNL     1      21.806   6.689 -11.432  1.00  0.00     0.000 C 
ENDROOT
BRANCH   1   2
ATOM      2  C   UNL     1      22.168   5.592 -12.448  1.00  0.00     0.000 C 
BRANCH   2   3
ATOM      3  C   UNL     1      23.445   5.919 -13.237  1.00  0.00     0.000 C 
BRANCH   3   4
ATOM      4  C   UNL     1      24.156   4.658 -13.761  1.00  0.00     0.000 C 
BRANCH   4   5
ATOM      5  C   UNL     1      25.594   4.959 -14.233  1.00  0.00     0.001 C 
BRANCH   5   6
ATOM      6  C   UNL     1      26.456   3.703 -14.464  1.00  0.00     0.009 C 
BRANCH   6   7
ATOM      7  C   UNL     1      27.978   3.936 -14.288  1.00  0.00     0.032 C 
ATOM      8  C   UNL     1      28.667   2.651 -13.814  1.00  0.00     0.014 C 
BRANCH   7   9
ATOM      9  C   UNL     1      28.633   4.395 -15.564  1.00  0.00     0.044 C 
ATOM     10  O   UNL     1      28.307   5.496 -16.078  1.00  0.00    -0.550 OA
ATOM     11  O   UNL     1      29.653   3.647 -16.143  1.00  0.00    -0.550 OA
ENDBRANCH   7   9
ENDBRANCH   6   7
ENDBRANCH   5   6
ENDBRANCH   4   5
ENDBRANCH   3   4
ENDBRANCH   2   3
ENDBRANCH   1   2
BRANCH   1  12
ATOM     12  C   UNL     1      21.876   6.191  -9.980  1.00  0.00     0.000 C 
BRANCH  12  13
ATOM     13  C   UNL     1      20.485   6.054  -9.335  1.00  0.00    -0.000 C 
BRANCH  13  14
ATOM     14  C   UNL     1      19.426   6.937 -10.014  1.00  0.00    -0.000 C 
BRANCH  14  15
ATOM     15  C   UNL     1      18.230   6.124 -10.540  1.00  0.00    -0.000 C 
BRANCH  15  16
ATOM     16  C   UNL     1      18.645   5.023 -11.534  1.00  0.00    -0.000 C 
BRANCH  16  17
ATOM     17  C   UNL     1      17.862   3.703 -11.413  1.00  0.00    -0.000 C 
BRANCH  17  18
ATOM     18  C   UNL     1      16.706   3.782 -10.406  1.00  0.00    -0.003 C 
ATOM     19  C   UNL     1      15.414   4.225 -11.085  1.00  0.00     0.004 C 
ENDBRANCH  17  18
ENDBRANCH  16  17
ENDBRANCH  15  16
ENDBRANCH  14  15
ENDBRANCH  13  14
ENDBRANCH  12  13
ENDBRANCH   1  12
TORSDOF 14
ENDMDL
MODEL 7
REMARK VINA RESULT:    -2.096      5.609      8.192
REMARK INTER + INTRA:          -4.448
REMARK INTER:                  -3.313
REMARK INTRA:                  -1.136
REMARK UNBOUND:                -0.636
REMARK SMILES CCCCCCCCCCCCCC[C@@H](C)C(=O)[O-]
REMARK SMILES IDX 9 1 10 2 11 3 12 4 13 5 14 6 15 7 16 8 17 9 18 10 19 11 8 12
REMARK SMILES IDX 7 13 6 14 5 15 4 16 3 17 2 18 1 19
REMARK H PARENT
REMARK Flexibility Score: inf
ROOT
ATOM      1  C   UNL     1      18.559   4.556 -10.766  1.00  0.00     0.000 C 
ENDROOT
BRANCH   1   2
ATOM      2  C   UNL     1      17.838   3.653 -11.781  1.00  0.00     0.000 C 
BRANCH   2   3
ATOM      3  C   UNL     1      18.727   3.286 -12.978  1.00  0.00     0.000 C 
BRANCH   3   4
ATOM      4  C   UNL     1      18.691   1.782 -13.304  1.00  0.00     0.000 C 
BRANCH   4   5
ATOM      5  C   UNL     1      18.979   1.505 -14.794  1.00  0.00     0.001 C 
BRANCH   5   6
ATOM      6  C   UNL     1      17.729   1.146 -15.621  1.00  0.00     0.009 C 
BRANCH   6   7
ATOM      7  C   UNL     1      17.599  -0.362 -15.951  1.00  0.00     0.032 C 
ATOM      8  C   UNL     1      16.737  -1.071 -14.899  1.00  0.00     0.014 C 
BRANCH   7   9
ATOM      9  C   UNL     1      16.993  -0.594 -17.310  1.00  0.00     0.044 C 
ATOM     10  O   UNL     1      16.917   0.353 -18.136  1.00  0.00    -0.550 OA
ATOM     11  O   UNL     1      16.582  -1.867 -17.693  1.00  0.00    -0.550 OA
ENDBRANCH   7   9
ENDBRANCH   6   7
ENDBRANCH   5   6
ENDBRANCH   4   5
ENDBRANCH   3   4
ENDBRANCH   2   3
ENDBRANCH   1   2
BRANCH   1  12
ATOM     12  C   UNL     1      18.166   6.034 -10.912  1.00  0.00     0.000 C 
BRANCH  12  13
ATOM     13  C   UNL     1      19.156   6.980 -10.209  1.00  0.00    -0.000 C 
BRANCH  13  14
ATOM     14  C   UNL     1      20.435   6.264  -9.746  1.00  0.00    -0.000 C 
BRANCH  14  15
ATOM     15  C   UNL     1      21.708   6.879 -10.353  1.00  0.00    -0.000 C 
BRANCH  15  16
ATOM     16  C   UNL     1      21.723   6.825 -11.892  1.00  0.00    -0.000 C 
BRANCH  16  17
ATOM     17  C   UNL     1      21.538   5.422 -12.499  1.00  0.00    -0.000 C 
BRANCH  17  18
ATOM     18  C   UNL     1      22.850   4.813 -13.014  1.00  0.00    -0.003 C 
ATOM     19  C   UNL     1      23.845   5.900 -13.409  1.00  0.00     0.004 C 
ENDBRANCH  17  18
ENDBRANCH  16  17
ENDBRANCH  15  16
ENDBRANCH  14  15
ENDBRANCH  13  14
ENDBRANCH  12  13
ENDBRANCH   1  12
TORSDOF 14
ENDMDL
MODEL 8
REMARK VINA RESULT:    -1.969      4.605      7.336
REMARK INTER + INTRA:          -4.217
REMARK INTER:                  -3.286
REMARK INTRA:                  -0.931
REMARK UNBOUND:                -0.636
REMARK SMILES CCCCCCCCCCCCCC[C@@H](C)C(=O)[O-]
REMARK SMILES IDX 9 1 10 2 11 3 12 4 13 5 14 6 15 7 16 8 17 9 18 10 19 11 8 12
REMARK SMILES IDX 7 13 6 14 5 15 4 16 3 17 2 18 1 19
REMARK H PARENT
REMARK Flexibility Score: inf
ROOT
ATOM      1  C   UNL     1      17.048   3.072 -11.027  1.00  0.00     0.000 C 
ENDROOT
BRANCH   1   2
ATOM      2  C   UNL     1      16.515   4.451 -10.602  1.00  0.00     0.000 C 
BRANCH   2   3
ATOM      3  C   UNL     1      17.446   5.598 -11.024  1.00  0.00     0.000 C 
BRANCH   3   4
ATOM      4  C   UNL     1      18.562   5.863  -9.998  1.00  0.00     0.000 C 
BRANCH   4   5
ATOM      5  C   UNL     1      19.382   7.122 -10.348  1.00  0.00     0.001 C 
BRANCH   5   6
ATOM      6  C   UNL     1      19.951   7.124 -11.780  1.00  0.00     0.009 C 
BRANCH   6   7
ATOM      7  C   UNL     1      21.498   7.088 -11.849  1.00  0.00     0.032 C 
ATOM      8  C   UNL     1      22.099   7.048 -10.439  1.00  0.00     0.014 C 
BRANCH   7   9
ATOM      9  C   UNL     1      22.003   5.899 -12.624  1.00  0.00     0.044 C 
ATOM     10  O   UNL     1      23.219   5.823 -12.939  1.00  0.00    -0.550 OA
ATOM     11  O   UNL     1      21.151   4.844 -12.933  1.00  0.00    -0.550 OA
ENDBRANCH   7   9
ENDBRANCH   6   7
ENDBRANCH   5   6
ENDBRANCH   4   5
ENDBRANCH   3   4
ENDBRANCH   2   3
ENDBRANCH   1   2
BRANCH   1  12
ATOM     12  C   UNL     1      18.196   3.175 -12.043  1.00  0.00     0.000 C 
BRANCH  12  13
ATOM     13  C   UNL     1      18.340   1.905 -12.901  1.00  0.00    -0.000 C 
BRANCH  13  14
ATOM     14  C   UNL     1      19.039   2.171 -14.244  1.00  0.00    -0.000 C 
BRANCH  14  15
ATOM     15  C   UNL     1      18.656   1.142 -15.321  1.00  0.00    -0.000 C 
BRANCH  15  16
ATOM     16  C   UNL     1      17.642   0.097 -14.818  1.00  0.00    -0.000 C 
BRANCH  16  17
ATOM     17  C   UNL     1      16.777  -0.555 -15.912  1.00  0.00    -0.000 C 
BRANCH  17  18
ATOM     18  C   UNL     1      17.359  -0.377 -17.322  1.00  0.00    -0.003 C 
ATOM     19  C   UNL     1      16.406  -0.920 -18.383  1.00  0.00     0.004 C 
ENDBRANCH  17  18
ENDBRANCH  16  17
ENDBRANCH  15  16
ENDBRANCH  14  15
ENDBRANCH  13  14
ENDBRANCH  12  13
ENDBRANCH   1  12
TORSDOF 14
ENDMDL
MODEL 9
REMARK VINA RESULT:    -1.087     18.446     22.013
REMARK INTER + INTRA:          -2.612
REMARK INTER:                  -2.009
REMARK INTRA:                  -0.603
REMARK UNBOUND:                -0.636
REMARK SMILES CCCCCCCCCCCCCC[C@@H](C)C(=O)[O-]
REMARK SMILES IDX 9 1 10 2 11 3 12 4 13 5 14 6 15 7 16 8 17 9 18 10 19 11 8 12
REMARK SMILES IDX 7 13 6 14 5 15 4 16 3 17 2 18 1 19
REMARK H PARENT
REMARK Flexibility Score: inf
ROOT
ATOM      1  C   UNL     1      28.451 -13.096 -27.412  1.00  0.00     0.000 C 
ENDROOT
BRANCH   1   2
ATOM      2  C   UNL     1      27.342 -12.757 -26.401  1.00  0.00     0.000 C 
BRANCH   2   3
ATOM      3  C   UNL     1      26.422 -11.630 -26.893  1.00  0.00     0.000 C 
BRANCH   3   4
ATOM      4  C   UNL     1      25.765 -10.854 -25.737  1.00  0.00     0.000 C 
BRANCH   4   5
ATOM      5  C   UNL     1      24.406 -10.249 -26.145  1.00  0.00     0.001 C 
BRANCH   5   6
ATOM      6  C   UNL     1      23.582  -9.699 -24.965  1.00  0.00     0.009 C 
BRANCH   6   7
ATOM      7  C   UNL     1      22.057  -9.944 -25.086  1.00  0.00     0.032 C 
ATOM      8  C   UNL     1      21.472 -10.374 -23.735  1.00  0.00     0.014 C 
BRANCH   7   9
ATOM      9  C   UNL     1      21.322  -8.720 -25.564  1.00  0.00     0.044 C 
ATOM     10  O   UNL     1      21.706  -8.120 -26.603  1.00  0.00    -0.550 OA
ATOM     11  O   UNL     1      20.173  -8.285 -24.911  1.00  0.00    -0.550 OA
ENDBRANCH   7   9
ENDBRANCH   6   7
ENDBRANCH   5   6
ENDBRANCH   4   5
ENDBRANCH   3   4
ENDBRANCH   2   3
ENDBRANCH   1   2
BRANCH   1  12
ATOM     12  C   UNL     1      29.847 -13.108 -26.770  1.00  0.00     0.000 C 
BRANCH  12  13
ATOM     13  C   UNL     1      30.228 -11.747 -26.160  1.00  0.00    -0.000 C 
BRANCH  13  14
ATOM     14  C   UNL     1      30.551 -11.838 -24.660  1.00  0.00    -0.000 C 
BRANCH  14  15
ATOM     15  C   UNL     1      30.293 -10.513 -23.921  1.00  0.00    -0.000 C 
BRANCH  15  16
ATOM     16  C   UNL     1      31.233 -10.307 -22.718  1.00  0.00    -0.000 C 
BRANCH  16  17
ATOM     17  C   UNL     1      31.456  -8.840 -22.306  1.00  0.00    -0.000 C 
BRANCH  17  18
ATOM     18  C   UNL     1      32.545  -8.676 -21.236  1.00  0.00    -0.003 C 
ATOM     19  C   UNL     1      32.916  -7.208 -21.050  1.00  0.00     0.004 C 
ENDBRANCH  17  18
ENDBRANCH  16  17
ENDBRANCH  15  16
ENDBRANCH  14  15
ENDBRANCH  13  14
ENDBRANCH  12  13
ENDBRANCH   1  12
TORSDOF 14
ENDMDL
