MODEL 1
REMARK VINA RESULT:    -3.186      0.000      0.000
REMARK INTER + INTRA:          -3.601
REMARK INTER:                  -3.558
REMARK INTRA:                  -0.043
REMARK UNBOUND:                -0.043
REMARK SMILES CCCC(=O)[O-]
REMARK SMILES IDX 3 1 4 2 5 3 6 4 2 5 1 6
REMARK H PARENT
REMARK Flexibility Score: inf
ROOT
ATOM      1  C   UNL     1     -12.299  45.075  21.370  1.00  0.00     0.052 C 
ENDROOT
BRANCH   1   2
ATOM      2  C   UNL     1     -12.874  44.980  22.748  1.00  0.00     0.041 C 
ATOM      3  O   UNL     1     -13.810  44.174  22.990  1.00  0.00    -0.550 OA
ATOM      4  O   UNL     1     -12.408  45.816  23.754  1.00  0.00    -0.550 OA
ENDBRANCH   1   2
BRANCH   1   5
ATOM      5  C   UNL     1     -10.831  44.637  21.370  1.00  0.00     0.003 C 
ATOM      6  C   UNL     1     -10.701  43.147  21.075  1.00  0.00     0.004 C 
ENDBRANCH   1   5
TORSDOF 2
ENDMDL
MODEL 2
REMARK VINA RESULT:    -3.168      0.339      1.354
REMARK INTER + INTRA:          -3.582
REMARK INTER:                  -3.536
REMARK INTRA:                  -0.045
REMARK UNBOUND:                -0.043
REMARK SMILES CCCC(=O)[O-]
REMARK SMILES IDX 3 1 4 2 5 3 6 4 2 5 1 6
REMARK H PARENT
REMARK Flexibility Score: inf
ROOT
ATOM      1  C   UNL     1     -12.604  44.760  21.238  1.00  0.00     0.052 C 
ENDROOT
BRANCH   1   2
ATOM      2  C   UNL     1     -13.060  44.832  22.661  1.00  0.00     0.041 C 
ATOM      3  O   UNL     1     -12.512  45.633  23.463  1.00  0.00    -0.550 OA
ATOM      4  O   UNL     1     -14.058  43.979  23.115  1.00  0.00    -0.550 OA
ENDBRANCH   1   2
BRANCH   1   5
ATOM      5  C   UNL     1     -11.074  44.740  21.167  1.00  0.00     0.003 C 
ATOM      6  C   UNL     1     -10.542  43.310  21.160  1.00  0.00     0.004 C 
ENDBRANCH   1   5
TORSDOF 2
ENDMDL
MODEL 3
REMARK VINA RESULT:    -3.094      2.282      3.343
REMARK INTER + INTRA:          -3.499
REMARK INTER:                  -3.493
REMARK INTRA:                  -0.006
REMARK UNBOUND:                -0.043
REMARK SMILES CCCC(=O)[O-]
REMARK SMILES IDX 3 1 4 2 5 3 6 4 2 5 1 6
REMARK H PARENT
REMARK Flexibility Score: inf
ROOT
ATOM      1  C   UNL     1     -12.834  43.922  21.564  1.00  0.00     0.052 C 
ENDROOT
BRANCH   1   2
ATOM      2  C   UNL     1     -11.374  44.075  21.274  1.00  0.00     0.041 C 
ATOM      3  O   UNL     1     -10.884  45.218  21.077  1.00  0.00    -0.550 OA
ATOM      4  O   UNL     1     -10.564  42.951  21.173  1.00  0.00    -0.550 OA
ENDBRANCH   1   2
BRANCH   1   5
ATOM      5  C   UNL     1     -13.235  44.786  22.763  1.00  0.00     0.003 C 
ATOM      6  C   UNL     1     -14.429  44.186  23.499  1.00  0.00     0.004 C 
ENDBRANCH   1   5
TORSDOF 2
ENDMDL
MODEL 4
REMARK VINA RESULT:    -3.015      2.057      3.238
REMARK INTER + INTRA:          -3.410
REMARK INTER:                  -3.397
REMARK INTRA:                  -0.013
REMARK UNBOUND:                -0.043
REMARK SMILES CCCC(=O)[O-]
REMARK SMILES IDX 3 1 4 2 5 3 6 4 2 5 1 6
REMARK H PARENT
REMARK Flexibility Score: inf
ROOT
ATOM      1  C   UNL     1     -12.759  45.107  22.654  1.00  0.00     0.052 C 
ENDROOT
BRANCH   1   2
ATOM      2  C   UNL     1     -12.228  44.892  21.273  1.00  0.00     0.041 C 
ATOM      3  O   UNL     1     -12.956  44.369  20.388  1.00  0.00    -0.550 OA
ATOM      4  O   UNL     1     -10.913  45.225  20.973  1.00  0.00    -0.550 OA
ENDBRANCH   1   2
BRANCH   1   5
ATOM      5  C   UNL     1     -13.997  44.238  22.894  1.00  0.00     0.003 C 
ATOM      6  C   UNL     1     -14.731  44.663  24.162  1.00  0.00     0.004 C 
ENDBRANCH   1   5
TORSDOF 2
ENDMDL
MODEL 5
REMARK VINA RESULT:    -2.824     21.172     22.241
REMARK INTER + INTRA:          -3.198
REMARK INTER:                  -3.165
REMARK INTRA:                  -0.033
REMARK UNBOUND:                -0.043
REMARK SMILES CCCC(=O)[O-]
REMARK SMILES IDX 3 1 4 2 5 3 6 4 2 5 1 6
REMARK H PARENT
REMARK Flexibility Score: inf
ROOT
ATOM      1  C   UNL     1     -23.313  62.002  29.936  1.00  0.00     0.052 C 
ENDROOT
BRANCH   1   2
ATOM      2  C   UNL     1     -23.388  61.533  28.517  1.00  0.00     0.041 C 
ATOM      3  O   UNL     1     -24.352  60.819  28.136  1.00  0.00    -0.550 OA
ATOM      4  O   UNL     1     -22.367  61.845  27.628  1.00  0.00    -0.550 OA
ENDBRANCH   1   2
BRANCH   1   5
ATOM      5  C   UNL     1     -24.509  62.899  30.267  1.00  0.00     0.003 C 
ATOM      6  C   UNL     1     -25.501  62.182  31.177  1.00  0.00     0.004 C 
ENDBRANCH   1   5
TORSDOF 2
ENDMDL
MODEL 6
REMARK VINA RESULT:    -2.816     20.254     21.274
REMARK INTER + INTRA:          -3.189
REMARK INTER:                  -3.170
REMARK INTRA:                  -0.018
REMARK UNBOUND:                -0.043
REMARK SMILES CCCC(=O)[O-]
REMARK SMILES IDX 3 1 4 2 5 3 6 4 2 5 1 6
REMARK H PARENT
REMARK Flexibility Score: inf
ROOT
ATOM      1  C   UNL     1     -22.487  61.289  29.129  1.00  0.00     0.052 C 
ENDROOT
BRANCH   1   2
ATOM      2  C   UNL     1     -21.446  61.708  28.140  1.00  0.00     0.041 C 
ATOM      3  O   UNL     1     -21.773  62.003  26.961  1.00  0.00    -0.550 OA
ATOM      4  O   UNL     1     -20.106  61.725  28.507  1.00  0.00    -0.550 OA
ENDBRANCH   1   2
BRANCH   1   5
ATOM      5  C   UNL     1     -23.828  61.958  28.810  1.00  0.00     0.003 C 
ATOM      6  C   UNL     1     -24.360  62.728  30.015  1.00  0.00     0.004 C 
ENDBRANCH   1   5
TORSDOF 2
ENDMDL
MODEL 7
REMARK VINA RESULT:    -2.795     22.216     23.264
REMARK INTER + INTRA:          -3.165
REMARK INTER:                  -3.127
REMARK INTRA:                  -0.039
REMARK UNBOUND:                -0.043
REMARK SMILES CCCC(=O)[O-]
REMARK SMILES IDX 3 1 4 2 5 3 6 4 2 5 1 6
REMARK H PARENT
REMARK Flexibility Score: inf
ROOT
ATOM      1  C   UNL     1     -24.582  62.042  31.098  1.00  0.00     0.052 C 
ENDROOT
BRANCH   1   2
ATOM      2  C   UNL     1     -25.944  61.494  31.388  1.00  0.00     0.041 C 
ATOM      3  O   UNL     1     -26.334  60.436  30.828  1.00  0.00    -0.550 OA
ATOM      4  O   UNL     1     -26.802  62.178  32.240  1.00  0.00    -0.550 OA
ENDBRANCH   1   2
BRANCH   1   5
ATOM      5  C   UNL     1     -24.559  62.722  29.727  1.00  0.00     0.003 C 
ATOM      6  C   UNL     1     -23.797  61.881  28.707  1.00  0.00     0.004 C 
ENDBRANCH   1   5
TORSDOF 2
ENDMDL
MODEL 8
REMARK VINA RESULT:    -2.783      2.605      3.033
REMARK INTER + INTRA:          -3.151
REMARK INTER:                  -3.144
REMARK INTRA:                  -0.007
REMARK UNBOUND:                -0.043
REMARK SMILES CCCC(=O)[O-]
REMARK SMILES IDX 3 1 4 2 5 3 6 4 2 5 1 6
REMARK H PARENT
REMARK Flexibility Score: inf
ROOT
ATOM      1  C   UNL     1     -12.866  45.729  23.755  1.00  0.00     0.052 C 
ENDROOT
BRANCH   1   2
ATOM      2  C   UNL     1     -13.379  46.581  24.873  1.00  0.00     0.041 C 
ATOM      3  O   UNL     1     -13.898  46.048  25.888  1.00  0.00    -0.550 OA
ATOM      4  O   UNL     1     -13.326  47.965  24.772  1.00  0.00    -0.550 OA
ENDBRANCH   1   2
BRANCH   1   5
ATOM      5  C   UNL     1     -13.927  44.711  23.327  1.00  0.00     0.003 C 
ATOM      6  C   UNL     1     -13.517  43.993  22.046  1.00  0.00     0.004 C 
ENDBRANCH   1   5
TORSDOF 2
ENDMDL
MODEL 9
REMARK VINA RESULT:    -1.062     17.522     18.068
REMARK INTER + INTRA:          -1.229
REMARK INTER:                  -1.246
REMARK INTRA:                   0.016
REMARK UNBOUND:                -0.043
REMARK SMILES CCCC(=O)[O-]
REMARK SMILES IDX 3 1 4 2 5 3 6 4 2 5 1 6
REMARK H PARENT
REMARK Flexibility Score: inf
ROOT
ATOM      1  C   UNL     1     -12.937  61.017  31.569  1.00  0.00     0.052 C 
ENDROOT
BRANCH   1   2
ATOM      2  C   UNL     1     -13.088  59.576  31.939  1.00  0.00     0.041 C 
ATOM      3  O   UNL     1     -12.959  59.212  33.137  1.00  0.00    -0.550 OA
ATOM      4  O   UNL     1     -13.323  58.626  30.952  1.00  0.00    -0.550 OA
ENDBRANCH   1   2
BRANCH   1   5
ATOM      5  C   UNL     1     -11.781  61.199  30.582  1.00  0.00     0.003 C 
ATOM      6  C   UNL     1     -12.289  61.266  29.145  1.00  0.00     0.004 C 
ENDBRANCH   1   5
TORSDOF 2
ENDMDL
