MODEL 1
REMARK VINA RESULT:    -5.586      0.000      0.000
REMARK INTER + INTRA:         -13.599
REMARK INTER:                 -12.116
REMARK INTRA:                  -1.482
REMARK UNBOUND:                -1.482
REMARK SMILES CCCCCCCCCCCCCCCCCCCCCC(=O)[O-]
REMARK SMILES IDX 12 1 11 2 10 3 9 4 8 5 7 6 6 7 5 8 4 9 3 10 2 11 1 12 13 13
REMARK SMILES IDX 14 14 15 15 16 16 17 17 18 18 19 19 20 20 21 21 22 22 23 23
REMARK SMILES IDX 24 24
REMARK H PARENT
REMARK Flexibility Score: inf
ROOT
ATOM      1  C   UNL     1       7.984 -12.537  -7.474  1.00  0.00     0.000 C 
ENDROOT
BRANCH   1   2
ATOM      2  C   UNL     1       9.219 -11.620  -7.427  1.00  0.00     0.000 C 
BRANCH   2   3
ATOM      3  C   UNL     1      10.540 -12.417  -7.357  1.00  0.00     0.000 C 
BRANCH   3   4
ATOM      4  C   UNL     1      11.725 -11.712  -8.044  1.00  0.00    -0.000 C 
BRANCH   4   5
ATOM      5  C   UNL     1      11.560 -10.193  -8.223  1.00  0.00    -0.000 C 
BRANCH   5   6
ATOM      6  C   UNL     1      12.369  -9.331  -7.233  1.00  0.00    -0.000 C 
BRANCH   6   7
ATOM      7  C   UNL     1      11.707  -9.186  -5.846  1.00  0.00    -0.000 C 
BRANCH   7   8
ATOM      8  C   UNL     1      12.383 -10.064  -4.779  1.00  0.00    -0.000 C 
BRANCH   8   9
ATOM      9  C   UNL     1      13.173  -9.245  -3.740  1.00  0.00    -0.000 C 
BRANCH   9  10
ATOM     10  C   UNL     1      12.634  -7.826  -3.486  1.00  0.00    -0.000 C 
BRANCH  10  11
ATOM     11  C   UNL     1      13.538  -6.998  -2.561  1.00  0.00    -0.003 C 
ATOM     12  C   UNL     1      14.529  -7.891  -1.818  1.00  0.00     0.004 C 
ENDBRANCH  10  11
ENDBRANCH   9  10
ENDBRANCH   8   9
ENDBRANCH   7   8
ENDBRANCH   6   7
ENDBRANCH   5   6
ENDBRANCH   4   5
ENDBRANCH   3   4
ENDBRANCH   2   3
ENDBRANCH   1   2
BRANCH   1  13
ATOM     13  C   UNL     1       8.303 -13.928  -8.064  1.00  0.00     0.000 C 
BRANCH  13  14
ATOM     14  C   UNL     1       7.196 -14.485  -8.979  1.00  0.00     0.000 C 
BRANCH  14  15
ATOM     15  C   UNL     1       6.231 -15.478  -8.305  1.00  0.00     0.000 C 
BRANCH  15  16
ATOM     16  C   UNL     1       6.894 -16.469  -7.330  1.00  0.00     0.000 C 
BRANCH  16  17
ATOM     17  C   UNL     1       6.397 -16.313  -5.886  1.00  0.00     0.000 C 
BRANCH  17  18
ATOM     18  C   UNL     1       4.878 -16.086  -5.850  1.00  0.00     0.000 C 
BRANCH  18  19
ATOM     19  C   UNL     1       4.214 -16.704  -4.610  1.00  0.00     0.000 C 
BRANCH  19  20
ATOM     20  C   UNL     1       3.762 -18.154  -4.839  1.00  0.00     0.006 C 
BRANCH  20  21
ATOM     21  C   UNL     1       3.800 -18.952  -3.533  1.00  0.00     0.053 C 
BRANCH  21  22
ATOM     22  C   UNL     1       2.941 -18.300  -2.495  1.00  0.00     0.041 C 
ATOM     23  O   UNL     1       3.407 -18.054  -1.352  1.00  0.00    -0.550 OA
ATOM     24  O   UNL     1       1.611 -18.009  -2.774  1.00  0.00    -0.550 OA
ENDBRANCH  21  22
ENDBRANCH  20  21
ENDBRANCH  19  20
ENDBRANCH  18  19
ENDBRANCH  17  18
ENDBRANCH  16  17
ENDBRANCH  15  16
ENDBRANCH  14  15
ENDBRANCH  13  14
ENDBRANCH   1  13
TORSDOF 20
ENDMDL
MODEL 2
REMARK VINA RESULT:    -5.470      3.249      6.325
REMARK INTER + INTRA:         -13.348
REMARK INTER:                 -12.055
REMARK INTRA:                  -1.293
REMARK UNBOUND:                -1.482
REMARK SMILES CCCCCCCCCCCCCCCCCCCCCC(=O)[O-]
REMARK SMILES IDX 12 1 11 2 10 3 9 4 8 5 7 6 6 7 5 8 4 9 3 10 2 11 1 12 13 13
REMARK SMILES IDX 14 14 15 15 16 16 17 17 18 18 19 19 20 20 21 21 22 22 23 23
REMARK SMILES IDX 24 24
REMARK H PARENT
REMARK Flexibility Score: inf
ROOT
ATOM      1  C   UNL     1      11.598  -9.238  -5.531  1.00  0.00     0.000 C 
ENDROOT
BRANCH   1   2
ATOM      2  C   UNL     1      12.544  -9.047  -4.332  1.00  0.00     0.000 C 
BRANCH   2   3
ATOM      3  C   UNL     1      12.296  -7.713  -3.596  1.00  0.00     0.000 C 
BRANCH   3   4
ATOM      4  C   UNL     1      13.523  -7.197  -2.819  1.00  0.00    -0.000 C 
BRANCH   4   5
ATOM      5  C   UNL     1      14.321  -8.282  -2.075  1.00  0.00    -0.000 C 
BRANCH   5   6
ATOM      6  C   UNL     1      14.161  -8.268  -0.541  1.00  0.00    -0.000 C 
BRANCH   6   7
ATOM      7  C   UNL     1      12.749  -8.663  -0.058  1.00  0.00    -0.000 C 
BRANCH   7   8
ATOM      8  C   UNL     1      12.688 -10.113   0.452  1.00  0.00    -0.000 C 
BRANCH   8   9
ATOM      9  C   UNL     1      12.966 -10.231   1.963  1.00  0.00    -0.000 C 
BRANCH   9  10
ATOM     10  C   UNL     1      12.491  -9.034   2.807  1.00  0.00    -0.000 C 
BRANCH  10  11
ATOM     11  C   UNL     1      12.803  -9.193   4.301  1.00  0.00    -0.003 C 
ATOM     12  C   UNL     1      14.063 -10.028   4.515  1.00  0.00     0.004 C 
ENDBRANCH  10  11
ENDBRANCH   9  10
ENDBRANCH   8   9
ENDBRANCH   7   8
ENDBRANCH   6   7
ENDBRANCH   5   6
ENDBRANCH   4   5
ENDBRANCH   3   4
ENDBRANCH   2   3
ENDBRANCH   1   2
BRANCH   1  13
ATOM     13  C   UNL     1      12.347  -9.669  -6.811  1.00  0.00     0.000 C 
BRANCH  13  14
ATOM     14  C   UNL     1      11.421  -9.926  -8.016  1.00  0.00     0.000 C 
BRANCH  14  15
ATOM     15  C   UNL     1       9.975  -9.421  -7.847  1.00  0.00     0.000 C 
BRANCH  15  16
ATOM     16  C   UNL     1       8.902 -10.524  -7.798  1.00  0.00     0.000 C 
BRANCH  16  17
ATOM     17  C   UNL     1       9.481 -11.910  -7.480  1.00  0.00     0.000 C 
BRANCH  17  18
ATOM     18  C   UNL     1       8.400 -12.839  -6.906  1.00  0.00     0.000 C 
BRANCH  18  19
ATOM     19  C   UNL     1       8.346 -14.199  -7.619  1.00  0.00     0.000 C 
BRANCH  19  20
ATOM     20  C   UNL     1       7.488 -14.168  -8.891  1.00  0.00     0.006 C 
BRANCH  20  21
ATOM     21  C   UNL     1       6.383 -15.228  -8.832  1.00  0.00     0.053 C 
BRANCH  21  22
ATOM     22  C   UNL     1       5.460 -14.959  -7.684  1.00  0.00     0.041 C 
ATOM     23  O   UNL     1       5.353 -15.795  -6.750  1.00  0.00    -0.550 OA
ATOM     24  O   UNL     1       4.682 -13.808  -7.672  1.00  0.00    -0.550 OA
ENDBRANCH  21  22
ENDBRANCH  20  21
ENDBRANCH  19  20
ENDBRANCH  18  19
ENDBRANCH  17  18
ENDBRANCH  16  17
ENDBRANCH  15  16
ENDBRANCH  14  15
ENDBRANCH  13  14
ENDBRANCH   1  13
TORSDOF 20
ENDMDL
MODEL 3
REMARK VINA RESULT:    -5.438      8.251     14.363
REMARK INTER + INTRA:         -13.279
REMARK INTER:                 -12.084
REMARK INTRA:                  -1.195
REMARK UNBOUND:                -1.482
REMARK SMILES CCCCCCCCCCCCCCCCCCCCCC(=O)[O-]
REMARK SMILES IDX 12 1 11 2 10 3 9 4 8 5 7 6 6 7 5 8 4 9 3 10 2 11 1 12 13 13
REMARK SMILES IDX 14 14 15 15 16 16 17 17 18 18 19 19 20 20 21 21 22 22 23 23
REMARK SMILES IDX 24 24
REMARK H PARENT
REMARK Flexibility Score: inf
ROOT
ATOM      1  C   UNL     1       6.477 -15.431   4.671  1.00  0.00     0.000 C 
ENDROOT
BRANCH   1   2
ATOM      2  C   UNL     1       5.615 -16.589   4.136  1.00  0.00     0.000 C 
BRANCH   2   3
ATOM      3  C   UNL     1       4.103 -16.321   4.309  1.00  0.00     0.000 C 
BRANCH   3   4
ATOM      4  C   UNL     1       3.208 -17.420   3.703  1.00  0.00    -0.000 C 
BRANCH   4   5
ATOM      5  C   UNL     1       3.893 -18.784   3.516  1.00  0.00    -0.000 C 
BRANCH   5   6
ATOM      6  C   UNL     1       3.954 -19.286   2.059  1.00  0.00    -0.000 C 
BRANCH   6   7
ATOM      7  C   UNL     1       3.741 -18.175   1.008  1.00  0.00    -0.000 C 
BRANCH   7   8
ATOM      8  C   UNL     1       4.800 -18.213  -0.108  1.00  0.00    -0.000 C 
BRANCH   8   9
ATOM      9  C   UNL     1       4.273 -17.683  -1.455  1.00  0.00    -0.000 C 
BRANCH   9  10
ATOM     10  C   UNL     1       2.752 -17.453  -1.512  1.00  0.00    -0.000 C 
BRANCH  10  11
ATOM     11  C   UNL     1       2.100 -18.064  -2.761  1.00  0.00    -0.003 C 
ATOM     12  C   UNL     1       3.092 -18.931  -3.531  1.00  0.00     0.004 C 
ENDBRANCH  10  11
ENDBRANCH   9  10
ENDBRANCH   8   9
ENDBRANCH   7   8
ENDBRANCH   6   7
ENDBRANCH   5   6
ENDBRANCH   4   5
ENDBRANCH   3   4
ENDBRANCH   2   3
ENDBRANCH   1   2
BRANCH   1  13
ATOM     13  C   UNL     1       7.712 -15.928   5.455  1.00  0.00     0.000 C 
BRANCH  13  14
ATOM     14  C   UNL     1       7.841 -15.316   6.863  1.00  0.00     0.000 C 
BRANCH  14  15
ATOM     15  C   UNL     1       8.909 -14.213   6.999  1.00  0.00     0.000 C 
BRANCH  15  16
ATOM     16  C   UNL     1       9.575 -13.787   5.678  1.00  0.00     0.000 C 
BRANCH  16  17
ATOM     17  C   UNL     1       9.665 -12.262   5.516  1.00  0.00     0.000 C 
BRANCH  17  18
ATOM     18  C   UNL     1      10.843 -11.874   4.610  1.00  0.00     0.000 C 
BRANCH  18  19
ATOM     19  C   UNL     1      11.939 -11.101   5.360  1.00  0.00     0.000 C 
BRANCH  19  20
ATOM     20  C   UNL     1      12.916 -10.388   4.413  1.00  0.00     0.006 C 
BRANCH  20  21
ATOM     21  C   UNL     1      12.678  -8.875   4.421  1.00  0.00     0.053 C 
BRANCH  21  22
ATOM     22  C   UNL     1      11.890  -8.462   3.217  1.00  0.00     0.041 C 
ATOM     23  O   UNL     1      10.697  -8.081   3.342  1.00  0.00    -0.550 OA
ATOM     24  O   UNL     1      12.458  -8.543   1.952  1.00  0.00    -0.550 OA
ENDBRANCH  21  22
ENDBRANCH  20  21
ENDBRANCH  19  20
ENDBRANCH  18  19
ENDBRANCH  17  18
ENDBRANCH  16  17
ENDBRANCH  15  16
ENDBRANCH  14  15
ENDBRANCH  13  14
ENDBRANCH   1  13
TORSDOF 20
ENDMDL
MODEL 4
REMARK VINA RESULT:    -5.435      7.165     10.053
REMARK INTER + INTRA:         -13.273
REMARK INTER:                 -11.911
REMARK INTRA:                  -1.361
REMARK UNBOUND:                -1.482
REMARK SMILES CCCCCCCCCCCCCCCCCCCCCC(=O)[O-]
REMARK SMILES IDX 12 1 11 2 10 3 9 4 8 5 7 6 6 7 5 8 4 9 3 10 2 11 1 12 13 13
REMARK SMILES IDX 14 14 15 15 16 16 17 17 18 18 19 19 20 20 21 21 22 22 23 23
REMARK SMILES IDX 24 24
REMARK H PARENT
REMARK Flexibility Score: inf
ROOT
ATOM      1  C   UNL     1      10.812 -11.204   4.750  1.00  0.00     0.000 C 
ENDROOT
BRANCH   1   2
ATOM      2  C   UNL     1      12.081 -10.766   5.502  1.00  0.00     0.000 C 
BRANCH   2   3
ATOM      3  C   UNL     1      12.876  -9.688   4.733  1.00  0.00     0.000 C 
BRANCH   3   4
ATOM      4  C   UNL     1      11.985  -8.640   4.038  1.00  0.00    -0.000 C 
BRANCH   4   5
ATOM      5  C   UNL     1      12.405  -8.281   2.602  1.00  0.00    -0.000 C 
BRANCH   5   6
ATOM      6  C   UNL     1      11.877  -9.236   1.512  1.00  0.00    -0.000 C 
BRANCH   6   7
ATOM      7  C   UNL     1      12.287  -8.833   0.079  1.00  0.00    -0.000 C 
BRANCH   7   8
ATOM      8  C   UNL     1      13.813  -8.825  -0.114  1.00  0.00    -0.000 C 
BRANCH   8   9
ATOM      9  C   UNL     1      14.232  -8.846  -1.596  1.00  0.00    -0.000 C 
BRANCH   9  10
ATOM     10  C   UNL     1      14.429  -7.461  -2.236  1.00  0.00    -0.000 C 
BRANCH  10  11
ATOM     11  C   UNL     1      13.115  -6.833  -2.722  1.00  0.00    -0.003 C 
ATOM     12  C   UNL     1      12.428  -7.724  -3.753  1.00  0.00     0.004 C 
ENDBRANCH  10  11
ENDBRANCH   9  10
ENDBRANCH   8   9
ENDBRANCH   7   8
ENDBRANCH   6   7
ENDBRANCH   5   6
ENDBRANCH   4   5
ENDBRANCH   3   4
ENDBRANCH   2   3
ENDBRANCH   1   2
BRANCH   1  13
ATOM     13  C   UNL     1      10.072 -12.358   5.461  1.00  0.00     0.000 C 
BRANCH  13  14
ATOM     14  C   UNL     1       8.649 -11.992   5.925  1.00  0.00     0.000 C 
BRANCH  14  15
ATOM     15  C   UNL     1       8.030 -12.960   6.952  1.00  0.00     0.000 C 
BRANCH  15  16
ATOM     16  C   UNL     1       8.687 -14.352   7.013  1.00  0.00     0.000 C 
BRANCH  16  17
ATOM     17  C   UNL     1       7.812 -15.455   6.402  1.00  0.00     0.000 C 
BRANCH  17  18
ATOM     18  C   UNL     1       8.089 -15.606   4.898  1.00  0.00     0.000 C 
BRANCH  18  19
ATOM     19  C   UNL     1       6.880 -15.225   4.030  1.00  0.00     0.000 C 
BRANCH  19  20
ATOM     20  C   UNL     1       5.582 -15.905   4.489  1.00  0.00     0.006 C 
BRANCH  20  21
ATOM     21  C   UNL     1       5.403 -17.261   3.799  1.00  0.00     0.053 C 
BRANCH  21  22
ATOM     22  C   UNL     1       3.962 -17.492   3.463  1.00  0.00     0.041 C 
ATOM     23  O   UNL     1       3.645 -17.998   2.355  1.00  0.00    -0.550 OA
ATOM     24  O   UNL     1       2.969 -17.103   4.353  1.00  0.00    -0.550 OA
ENDBRANCH  21  22
ENDBRANCH  20  21
ENDBRANCH  19  20
ENDBRANCH  18  19
ENDBRANCH  17  18
ENDBRANCH  16  17
ENDBRANCH  15  16
ENDBRANCH  14  15
ENDBRANCH  13  14
ENDBRANCH   1  13
TORSDOF 20
ENDMDL
MODEL 5
REMARK VINA RESULT:    -5.428      6.651     10.306
REMARK INTER + INTRA:         -13.257
REMARK INTER:                 -11.895
REMARK INTRA:                  -1.362
REMARK UNBOUND:                -1.482
REMARK SMILES CCCCCCCCCCCCCCCCCCCCCC(=O)[O-]
REMARK SMILES IDX 12 1 11 2 10 3 9 4 8 5 7 6 6 7 5 8 4 9 3 10 2 11 1 12 13 13
REMARK SMILES IDX 14 14 15 15 16 16 17 17 18 18 19 19 20 20 21 21 22 22 23 23
REMARK SMILES IDX 24 24
REMARK H PARENT
REMARK Flexibility Score: inf
ROOT
ATOM      1  C   UNL     1      12.502  -9.295   1.739  1.00  0.00     0.000 C 
ENDROOT
BRANCH   1   2
ATOM      2  C   UNL     1      13.010  -8.241   0.739  1.00  0.00     0.000 C 
BRANCH   2   3
ATOM      3  C   UNL     1      13.964  -8.844  -0.315  1.00  0.00     0.000 C 
BRANCH   3   4
ATOM      4  C   UNL     1      14.747  -7.787  -1.118  1.00  0.00    -0.000 C 
BRANCH   4   5
ATOM      5  C   UNL     1      14.321  -7.643  -2.589  1.00  0.00    -0.000 C 
BRANCH   5   6
ATOM      6  C   UNL     1      12.809  -7.429  -2.810  1.00  0.00    -0.000 C 
BRANCH   6   7
ATOM      7  C   UNL     1      12.278  -8.044  -4.123  1.00  0.00    -0.000 C 
BRANCH   7   8
ATOM      8  C   UNL     1      12.448  -9.572  -4.165  1.00  0.00    -0.000 C 
BRANCH   8   9
ATOM      9  C   UNL     1      11.905 -10.202  -5.462  1.00  0.00    -0.000 C 
BRANCH   9  10
ATOM     10  C   UNL     1      12.217  -9.414  -6.747  1.00  0.00    -0.000 C 
BRANCH  10  11
ATOM     11  C   UNL     1      11.590 -10.040  -8.001  1.00  0.00    -0.003 C 
ATOM     12  C   UNL     1      10.124  -9.640  -8.141  1.00  0.00     0.004 C 
ENDBRANCH  10  11
ENDBRANCH   9  10
ENDBRANCH   8   9
ENDBRANCH   7   8
ENDBRANCH   6   7
ENDBRANCH   5   6
ENDBRANCH   4   5
ENDBRANCH   3   4
ENDBRANCH   2   3
ENDBRANCH   1   2
BRANCH   1  13
ATOM     13  C   UNL     1      13.558 -10.380   2.041  1.00  0.00     0.000 C 
BRANCH  13  14
ATOM     14  C   UNL     1      13.977 -10.445   3.523  1.00  0.00     0.000 C 
BRANCH  14  15
ATOM     15  C   UNL     1      13.055  -9.683   4.495  1.00  0.00     0.000 C 
BRANCH  15  16
ATOM     16  C   UNL     1      12.258 -10.573   5.467  1.00  0.00     0.000 C 
BRANCH  16  17
ATOM     17  C   UNL     1      10.901 -11.015   4.902  1.00  0.00     0.000 C 
BRANCH  17  18
ATOM     18  C   UNL     1      10.660 -12.510   5.158  1.00  0.00     0.000 C 
BRANCH  18  19
ATOM     19  C   UNL     1       9.454 -13.059   4.380  1.00  0.00     0.000 C 
BRANCH  19  20
ATOM     20  C   UNL     1       8.213 -13.248   5.265  1.00  0.00     0.006 C 
BRANCH  20  21
ATOM     21  C   UNL     1       8.606 -13.360   6.741  1.00  0.00     0.053 C 
BRANCH  21  22
ATOM     22  C   UNL     1       8.704 -14.797   7.150  1.00  0.00     0.041 C 
ATOM     23  O   UNL     1       9.807 -15.275   7.522  1.00  0.00    -0.550 OA
ATOM     24  O   UNL     1       7.587 -15.620   7.074  1.00  0.00    -0.550 OA
ENDBRANCH  21  22
ENDBRANCH  20  21
ENDBRANCH  19  20
ENDBRANCH  18  19
ENDBRANCH  17  18
ENDBRANCH  16  17
ENDBRANCH  15  16
ENDBRANCH  14  15
ENDBRANCH  13  14
ENDBRANCH   1  13
TORSDOF 20
ENDMDL
MODEL 6
REMARK VINA RESULT:    -5.421      4.612     10.877
REMARK INTER + INTRA:         -13.241
REMARK INTER:                 -11.822
REMARK INTRA:                  -1.419
REMARK UNBOUND:                -1.482
REMARK SMILES CCCCCCCCCCCCCCCCCCCCCC(=O)[O-]
REMARK SMILES IDX 12 1 11 2 10 3 9 4 8 5 7 6 6 7 5 8 4 9 3 10 2 11 1 12 13 13
REMARK SMILES IDX 14 14 15 15 16 16 17 17 18 18 19 19 20 20 21 21 22 22 23 23
REMARK SMILES IDX 24 24
REMARK H PARENT
REMARK Flexibility Score: inf
ROOT
ATOM      1  C   UNL     1       8.344 -12.260  -6.868  1.00  0.00     0.000 C 
ENDROOT
BRANCH   1   2
ATOM      2  C   UNL     1       8.438 -13.724  -7.333  1.00  0.00     0.000 C 
BRANCH   2   3
ATOM      3  C   UNL     1       7.652 -13.977  -8.638  1.00  0.00     0.000 C 
BRANCH   3   4
ATOM      4  C   UNL     1       6.619 -15.114  -8.528  1.00  0.00    -0.000 C 
BRANCH   4   5
ATOM      5  C   UNL     1       5.201 -14.666  -8.134  1.00  0.00    -0.000 C 
BRANCH   5   6
ATOM      6  C   UNL     1       4.893 -14.734  -6.625  1.00  0.00    -0.000 C 
BRANCH   6   7
ATOM      7  C   UNL     1       5.446 -15.999  -5.933  1.00  0.00    -0.000 C 
BRANCH   7   8
ATOM      8  C   UNL     1       4.345 -17.031  -5.633  1.00  0.00    -0.000 C 
BRANCH   8   9
ATOM      9  C   UNL     1       4.042 -17.167  -4.129  1.00  0.00    -0.000 C 
BRANCH   9  10
ATOM     10  C   UNL     1       3.092 -18.320  -3.759  1.00  0.00    -0.000 C 
BRANCH  10  11
ATOM     11  C   UNL     1       2.015 -17.908  -2.745  1.00  0.00    -0.003 C 
ATOM     12  C   UNL     1       2.246 -16.484  -2.246  1.00  0.00     0.004 C 
ENDBRANCH  10  11
ENDBRANCH   9  10
ENDBRANCH   8   9
ENDBRANCH   7   8
ENDBRANCH   6   7
ENDBRANCH   5   6
ENDBRANCH   4   5
ENDBRANCH   3   4
ENDBRANCH   2   3
ENDBRANCH   1   2
BRANCH   1  13
ATOM     13  C   UNL     1       8.861 -11.268  -7.931  1.00  0.00     0.000 C 
BRANCH  13  14
ATOM     14  C   UNL     1       9.576 -10.038  -7.339  1.00  0.00     0.000 C 
BRANCH  14  15
ATOM     15  C   UNL     1      10.918  -9.680  -8.006  1.00  0.00     0.000 C 
BRANCH  15  16
ATOM     16  C   UNL     1      12.123  -9.613  -7.049  1.00  0.00     0.000 C 
BRANCH  16  17
ATOM     17  C   UNL     1      12.045 -10.642  -5.913  1.00  0.00     0.000 C 
BRANCH  17  18
ATOM     18  C   UNL     1      12.347  -9.987  -4.556  1.00  0.00     0.000 C 
BRANCH  18  19
ATOM     19  C   UNL     1      12.149  -8.463  -4.576  1.00  0.00     0.000 C 
BRANCH  19  20
ATOM     20  C   UNL     1      12.055  -7.859  -3.167  1.00  0.00     0.006 C 
BRANCH  20  21
ATOM     21  C   UNL     1      13.253  -6.948  -2.882  1.00  0.00     0.053 C 
BRANCH  21  22
ATOM     22  C   UNL     1      14.311  -7.691  -2.128  1.00  0.00     0.041 C 
ATOM     23  O   UNL     1      15.296  -8.182  -2.740  1.00  0.00    -0.550 OA
ATOM     24  O   UNL     1      14.184  -7.885  -0.759  1.00  0.00    -0.550 OA
ENDBRANCH  21  22
ENDBRANCH  20  21
ENDBRANCH  19  20
ENDBRANCH  18  19
ENDBRANCH  17  18
ENDBRANCH  16  17
ENDBRANCH  15  16
ENDBRANCH  14  15
ENDBRANCH  13  14
ENDBRANCH   1  13
TORSDOF 20
ENDMDL
MODEL 7
REMARK VINA RESULT:    -5.403      8.077     14.216
REMARK INTER + INTRA:         -13.202
REMARK INTER:                 -11.956
REMARK INTRA:                  -1.245
REMARK UNBOUND:                -1.482
REMARK SMILES CCCCCCCCCCCCCCCCCCCCCC(=O)[O-]
REMARK SMILES IDX 12 1 11 2 10 3 9 4 8 5 7 6 6 7 5 8 4 9 3 10 2 11 1 12 13 13
REMARK SMILES IDX 14 14 15 15 16 16 17 17 18 18 19 19 20 20 21 21 22 22 23 23
REMARK SMILES IDX 24 24
REMARK H PARENT
REMARK Flexibility Score: inf
ROOT
ATOM      1  C   UNL     1      11.005 -12.284   4.399  1.00  0.00     0.000 C 
ENDROOT
BRANCH   1   2
ATOM      2  C   UNL     1       9.488 -12.355   4.647  1.00  0.00     0.000 C 
BRANCH   2   3
ATOM      3  C   UNL     1       9.128 -12.158   6.136  1.00  0.00     0.000 C 
BRANCH   3   4
ATOM      4  C   UNL     1       7.985 -13.071   6.622  1.00  0.00    -0.000 C 
BRANCH   4   5
ATOM      5  C   UNL     1       8.404 -14.515   6.948  1.00  0.00    -0.000 C 
BRANCH   5   6
ATOM      6  C   UNL     1       7.501 -15.606   6.338  1.00  0.00    -0.000 C 
BRANCH   6   7
ATOM      7  C   UNL     1       7.760 -15.862   4.837  1.00  0.00    -0.000 C 
BRANCH   7   8
ATOM      8  C   UNL     1       6.621 -16.655   4.172  1.00  0.00    -0.000 C 
BRANCH   8   9
ATOM      9  C   UNL     1       5.223 -16.133   4.556  1.00  0.00    -0.000 C 
BRANCH   9  10
ATOM     10  C   UNL     1       4.067 -16.685   3.703  1.00  0.00    -0.000 C 
BRANCH  10  11
ATOM     11  C   UNL     1       3.963 -18.216   3.752  1.00  0.00    -0.003 C 
ATOM     12  C   UNL     1       3.960 -18.813   2.348  1.00  0.00     0.004 C 
ENDBRANCH  10  11
ENDBRANCH   9  10
ENDBRANCH   8   9
ENDBRANCH   7   8
ENDBRANCH   6   7
ENDBRANCH   5   6
ENDBRANCH   4   5
ENDBRANCH   3   4
ENDBRANCH   2   3
ENDBRANCH   1   2
BRANCH   1  13
ATOM     13  C   UNL     1      11.677 -11.130   5.172  1.00  0.00     0.000 C 
BRANCH  13  14
ATOM     14  C   UNL     1      12.598 -10.251   4.303  1.00  0.00     0.000 C 
BRANCH  14  15
ATOM     15  C   UNL     1      12.173  -8.775   4.189  1.00  0.00     0.000 C 
BRANCH  15  16
ATOM     16  C   UNL     1      12.180  -8.204   2.759  1.00  0.00     0.000 C 
BRANCH  16  17
ATOM     17  C   UNL     1      12.713  -9.200   1.719  1.00  0.00     0.000 C 
BRANCH  17  18
ATOM     18  C   UNL     1      13.289  -8.465   0.500  1.00  0.00     0.000 C 
BRANCH  18  19
ATOM     19  C   UNL     1      13.273  -9.324  -0.774  1.00  0.00     0.000 C 
BRANCH  19  20
ATOM     20  C   UNL     1      14.319  -8.876  -1.805  1.00  0.00     0.006 C 
BRANCH  20  21
ATOM     21  C   UNL     1      14.087  -7.421  -2.223  1.00  0.00     0.053 C 
BRANCH  21  22
ATOM     22  C   UNL     1      12.766  -7.277  -2.912  1.00  0.00     0.041 C 
ATOM     23  O   UNL     1      11.854  -6.581  -2.392  1.00  0.00    -0.550 OA
ATOM     24  O   UNL     1      12.524  -7.951  -4.102  1.00  0.00    -0.550 OA
ENDBRANCH  21  22
ENDBRANCH  20  21
ENDBRANCH  19  20
ENDBRANCH  18  19
ENDBRANCH  17  18
ENDBRANCH  16  17
ENDBRANCH  15  16
ENDBRANCH  14  15
ENDBRANCH  13  14
ENDBRANCH   1  13
TORSDOF 20
ENDMDL
MODEL 8
REMARK VINA RESULT:    -5.396      4.587     10.404
REMARK INTER + INTRA:         -13.188
REMARK INTER:                 -10.900
REMARK INTRA:                  -2.288
REMARK UNBOUND:                -1.482
REMARK SMILES CCCCCCCCCCCCCCCCCCCCCC(=O)[O-]
REMARK SMILES IDX 12 1 11 2 10 3 9 4 8 5 7 6 6 7 5 8 4 9 3 10 2 11 1 12 13 13
REMARK SMILES IDX 14 14 15 15 16 16 17 17 18 18 19 19 20 20 21 21 22 22 23 23
REMARK SMILES IDX 24 24
REMARK H PARENT
REMARK Flexibility Score: inf
ROOT
ATOM      1  C   UNL     1       8.895 -12.068  -5.021  1.00  0.00     0.000 C 
ENDROOT
BRANCH   1   2
ATOM      2  C   UNL     1       7.915 -12.582  -6.090  1.00  0.00     0.000 C 
BRANCH   2   3
ATOM      3  C   UNL     1       8.631 -13.348  -7.224  1.00  0.00     0.000 C 
BRANCH   3   4
ATOM      4  C   UNL     1       7.714 -13.694  -8.412  1.00  0.00    -0.000 C 
BRANCH   4   5
ATOM      5  C   UNL     1       6.836 -14.942  -8.211  1.00  0.00    -0.000 C 
BRANCH   5   6
ATOM      6  C   UNL     1       5.317 -14.686  -8.284  1.00  0.00    -0.000 C 
BRANCH   6   7
ATOM      7  C   UNL     1       4.562 -15.040  -6.984  1.00  0.00    -0.000 C 
BRANCH   7   8
ATOM      8  C   UNL     1       5.515 -15.274  -5.799  1.00  0.00    -0.000 C 
BRANCH   8   9
ATOM      9  C   UNL     1       5.467 -16.720  -5.267  1.00  0.00    -0.000 C 
BRANCH   9  10
ATOM     10  C   UNL     1       4.242 -17.052  -4.397  1.00  0.00    -0.000 C 
BRANCH  10  11
ATOM     11  C   UNL     1       3.553 -18.361  -4.808  1.00  0.00    -0.003 C 
ATOM     12  C   UNL     1       3.139 -19.173  -3.584  1.00  0.00     0.004 C 
ENDBRANCH  10  11
ENDBRANCH   9  10
ENDBRANCH   8   9
ENDBRANCH   7   8
ENDBRANCH   6   7
ENDBRANCH   5   6
ENDBRANCH   4   5
ENDBRANCH   3   4
ENDBRANCH   2   3
ENDBRANCH   1   2
BRANCH   1  13
ATOM     13  C   UNL     1       8.889 -10.529  -4.904  1.00  0.00     0.000 C 
BRANCH  13  14
ATOM     14  C   UNL     1       8.254  -9.815  -6.114  1.00  0.00     0.000 C 
BRANCH  14  15
ATOM     15  C   UNL     1       9.254  -9.135  -7.068  1.00  0.00     0.000 C 
BRANCH  15  16
ATOM     16  C   UNL     1       9.864 -10.058  -8.139  1.00  0.00     0.000 C 
BRANCH  16  17
ATOM     17  C   UNL     1      11.298 -10.495  -7.808  1.00  0.00     0.000 C 
BRANCH  17  18
ATOM     18  C   UNL     1      12.059  -9.375  -7.081  1.00  0.00     0.000 C 
BRANCH  18  19
ATOM     19  C   UNL     1      12.406  -9.740  -5.629  1.00  0.00     0.000 C 
BRANCH  19  20
ATOM     20  C   UNL     1      12.139  -8.589  -4.648  1.00  0.00     0.006 C 
BRANCH  20  21
ATOM     21  C   UNL     1      12.921  -8.787  -3.346  1.00  0.00     0.053 C 
BRANCH  21  22
ATOM     22  C   UNL     1      13.326  -7.465  -2.771  1.00  0.00     0.041 C 
ATOM     23  O   UNL     1      12.620  -6.443  -2.976  1.00  0.00    -0.550 OA
ATOM     24  O   UNL     1      14.507  -7.353  -2.049  1.00  0.00    -0.550 OA
ENDBRANCH  21  22
ENDBRANCH  20  21
ENDBRANCH  19  20
ENDBRANCH  18  19
ENDBRANCH  17  18
ENDBRANCH  16  17
ENDBRANCH  15  16
ENDBRANCH  14  15
ENDBRANCH  13  14
ENDBRANCH   1  13
TORSDOF 20
ENDMDL
MODEL 9
REMARK VINA RESULT:    -5.365      4.178     10.035
REMARK INTER + INTRA:         -13.120
REMARK INTER:                 -10.957
REMARK INTRA:                  -2.163
REMARK UNBOUND:                -1.482
REMARK SMILES CCCCCCCCCCCCCCCCCCCCCC(=O)[O-]
REMARK SMILES IDX 12 1 11 2 10 3 9 4 8 5 7 6 6 7 5 8 4 9 3 10 2 11 1 12 13 13
REMARK SMILES IDX 14 14 15 15 16 16 17 17 18 18 19 19 20 20 21 21 22 22 23 23
REMARK SMILES IDX 24 24
REMARK H PARENT
REMARK Flexibility Score: inf
ROOT
ATOM      1  C   UNL     1      10.668  -9.764  -8.375  1.00  0.00     0.000 C 
ENDROOT
BRANCH   1   2
ATOM      2  C   UNL     1       9.335  -9.839  -7.610  1.00  0.00     0.000 C 
BRANCH   2   3
ATOM      3  C   UNL     1       8.610 -11.186  -7.825  1.00  0.00     0.000 C 
BRANCH   3   4
ATOM      4  C   UNL     1       9.140 -12.322  -6.930  1.00  0.00    -0.000 C 
BRANCH   4   5
ATOM      5  C   UNL     1       8.677 -13.734  -7.332  1.00  0.00    -0.000 C 
BRANCH   5   6
ATOM      6  C   UNL     1       7.851 -13.801  -8.632  1.00  0.00    -0.000 C 
BRANCH   6   7
ATOM      7  C   UNL     1       6.936 -15.041  -8.726  1.00  0.00    -0.000 C 
BRANCH   7   8
ATOM      8  C   UNL     1       5.496 -14.741  -8.276  1.00  0.00    -0.000 C 
BRANCH   8   9
ATOM      9  C   UNL     1       5.151 -15.365  -6.910  1.00  0.00    -0.000 C 
BRANCH   9  10
ATOM     10  C   UNL     1       4.877 -14.352  -5.784  1.00  0.00    -0.000 C 
BRANCH  10  11
ATOM     11  C   UNL     1       4.968 -12.894  -6.254  1.00  0.00    -0.003 C 
ATOM     12  C   UNL     1       5.781 -12.050  -5.277  1.00  0.00     0.004 C 
ENDBRANCH  10  11
ENDBRANCH   9  10
ENDBRANCH   8   9
ENDBRANCH   7   8
ENDBRANCH   6   7
ENDBRANCH   5   6
ENDBRANCH   4   5
ENDBRANCH   3   4
ENDBRANCH   2   3
ENDBRANCH   1   2
BRANCH   1  13
ATOM     13  C   UNL     1      11.884  -9.635  -7.432  1.00  0.00     0.000 C 
BRANCH  13  14
ATOM     14  C   UNL     1      11.506  -9.342  -5.967  1.00  0.00     0.000 C 
BRANCH  14  15
ATOM     15  C   UNL     1      12.309 -10.132  -4.916  1.00  0.00     0.000 C 
BRANCH  15  16
ATOM     16  C   UNL     1      13.027  -9.270  -3.861  1.00  0.00     0.000 C 
BRANCH  16  17
ATOM     17  C   UNL     1      12.328  -7.927  -3.608  1.00  0.00     0.000 C 
BRANCH  17  18
ATOM     18  C   UNL     1      13.200  -7.009  -2.738  1.00  0.00     0.000 C 
BRANCH  18  19
ATOM     19  C   UNL     1      14.525  -7.667  -2.324  1.00  0.00     0.000 C 
BRANCH  19  20
ATOM     20  C   UNL     1      14.599  -7.955  -0.817  1.00  0.00     0.006 C 
BRANCH  20  21
ATOM     21  C   UNL     1      13.206  -8.235  -0.245  1.00  0.00     0.053 C 
BRANCH  21  22
ATOM     22  C   UNL     1      13.064  -9.682   0.109  1.00  0.00     0.041 C 
ATOM     23  O   UNL     1      12.461 -10.467  -0.668  1.00  0.00    -0.550 OA
ATOM     24  O   UNL     1      13.556 -10.154   1.320  1.00  0.00    -0.550 OA
ENDBRANCH  21  22
ENDBRANCH  20  21
ENDBRANCH  19  20
ENDBRANCH  18  19
ENDBRANCH  17  18
ENDBRANCH  16  17
ENDBRANCH  15  16
ENDBRANCH  14  15
ENDBRANCH  13  14
ENDBRANCH   1  13
TORSDOF 20
ENDMDL
