MODEL 1
REMARK VINA RESULT:    16.023      0.000      0.000
REMARK INTER + INTRA:          22.588
REMARK INTER:                  21.644
REMARK INTRA:                   0.945
REMARK UNBOUND:                 0.945
REMARK SMILES C=C1CCC=C(C)CC[C@@H]2[C@H]1CC2(C)C
REMARK SMILES IDX 11 1 12 2 13 3 10 4 14 5 15 6 9 7 8 8 6 9 7 10 5 11 2 13
REMARK SMILES IDX 1 14 3 15 4 16
REMARK H PARENT
REMARK Flexibility Score: 70.00
ROOT
ATOM      1  C   UNL     1     145.878 146.311 163.471  1.00  0.00     0.018 C 
ATOM      2  C   UNL     1     145.000 146.890 162.361  1.00  0.00     0.015 C 
ATOM      3  C   UNL     1     145.039 145.541 161.619  1.00  0.00    -0.031 C 
ATOM      4  C   UNL     1     145.829 144.914 162.806  1.00  0.00     0.002 C 
ATOM      5  C   UNL     1     143.627 144.994 161.315  1.00  0.00     0.011 C 
ATOM      6  C   UNL     1     145.889 145.607 160.337  1.00  0.00     0.011 C 
ENDROOT
BRANCH   4   7
ATOM      7  C   UNL     1     145.147 143.726 163.520  1.00  0.00     0.009 C 
BRANCH   7   8
ATOM      8  C   UNL     1     146.122 142.615 163.947  1.00  0.00     0.030 C 
BRANCH   8   9
ATOM      9  C   UNL     1     145.806 142.193 165.366  1.00  0.00    -0.077 C 
ATOM     10  C   UNL     1     145.491 140.745 165.639  1.00  0.00     0.039 C 
ATOM     11  C   UNL     1     145.657 143.087 166.369  1.00  0.00    -0.028 CG0
ATOM     12  G   UNL     1     146.041 144.546 166.295  1.00  0.00     0.000 G0
ENDBRANCH   8   9
ENDBRANCH   7   8
ENDBRANCH   4   7
BRANCH   1  13
ATOM     13  C   UNL     1     145.376 146.588 164.890  1.00  0.00    -0.074 C 
ATOM     14  C   UNL     1     145.221 147.874 165.257  1.00  0.00     0.008 C 
BRANCH  13  15
ATOM     15  C   UNL     1     144.889 145.518 165.853  1.00  0.00     0.035 C 
BRANCH  15  16
ATOM     16  C   UNL     1     146.034 144.570 166.295  1.00  0.00     0.032 CG0
ATOM     17  G   UNL     1     145.654 143.111 166.388  1.00  0.00     0.000 G0
ENDBRANCH  15  16
ENDBRANCH  13  15
ENDBRANCH   1  13
TORSDOF 0
ENDMDL
MODEL 2
REMARK VINA RESULT:    16.030      1.538      4.159
REMARK INTER + INTRA:          22.597
REMARK INTER:                  21.684
REMARK INTRA:                   0.913
REMARK UNBOUND:                 0.945
REMARK SMILES C=C1CCC=C(C)CC[C@@H]2[C@H]1CC2(C)C
REMARK SMILES IDX 11 1 12 2 13 3 10 4 14 5 15 6 9 7 8 8 6 9 7 10 5 11 2 13
REMARK SMILES IDX 1 14 3 15 4 16
REMARK H PARENT
REMARK Flexibility Score: 70.00
ROOT
ATOM      1  C   UNL     1     144.871 144.607 163.441  1.00  0.00     0.018 C 
ATOM      2  C   UNL     1     145.777 144.005 162.367  1.00  0.00     0.015 C 
ATOM      3  C   UNL     1     145.769 145.341 161.602  1.00  0.00    -0.031 C 
ATOM      4  C   UNL     1     144.948 145.992 162.753  1.00  0.00     0.002 C 
ATOM      5  C   UNL     1     147.192 145.874 161.330  1.00  0.00     0.011 C 
ATOM      6  C   UNL     1     144.956 145.257 160.296  1.00  0.00     0.011 C 
ENDROOT
BRANCH   4   7
ATOM      7  C   UNL     1     145.615 147.188 163.467  1.00  0.00     0.009 C 
BRANCH   7   8
ATOM      8  C   UNL     1     144.627 148.288 163.893  1.00  0.00     0.030 C 
BRANCH   8   9
ATOM      9  C   UNL     1     144.953 148.732 165.303  1.00  0.00    -0.077 C 
ATOM     10  C   UNL     1     145.264 150.185 165.553  1.00  0.00     0.039 C 
ATOM     11  C   UNL     1     145.113 147.853 166.318  1.00  0.00    -0.028 CG0
ATOM     12  G   UNL     1     144.735 146.391 166.268  1.00  0.00     0.000 G0
ENDBRANCH   8   9
ENDBRANCH   7   8
ENDBRANCH   4   7
BRANCH   1  13
ATOM     13  C   UNL     1     145.329 144.352 164.878  1.00  0.00    -0.074 C 
ATOM     14  C   UNL     1     145.406 143.073 165.291  1.00  0.00     0.008 C 
BRANCH  13  15
ATOM     15  C   UNL     1     145.856 145.426 165.816  1.00  0.00     0.035 C 
BRANCH  15  16
ATOM     16  C   UNL     1     144.734 146.390 166.283  1.00  0.00     0.032 CG0
ATOM     17  G   UNL     1     145.126 147.848 166.334  1.00  0.00     0.000 G0
ENDBRANCH  15  16
ENDBRANCH  13  15
ENDBRANCH   1  13
TORSDOF 0
ENDMDL
MODEL 3
REMARK VINA RESULT:    17.625      3.350      6.088
REMARK INTER + INTRA:          24.751
REMARK INTER:                  23.647
REMARK INTRA:                   1.104
REMARK UNBOUND:                 0.945
REMARK SMILES C=C1CCC=C(C)CC[C@@H]2[C@H]1CC2(C)C
REMARK SMILES IDX 11 1 12 2 13 3 10 4 14 5 15 6 9 7 8 8 6 9 7 10 5 11 2 13
REMARK SMILES IDX 1 14 3 15 4 16
REMARK H PARENT
REMARK Flexibility Score: 70.00
ROOT
ATOM      1  C   UNL     1     144.624 146.015 161.767  1.00  0.00     0.018 C 
ATOM      2  C   UNL     1     145.388 144.774 161.307  1.00  0.00     0.015 C 
ATOM      3  C   UNL     1     145.354 145.284 159.854  1.00  0.00    -0.031 C 
ATOM      4  C   UNL     1     144.685 146.604 160.337  1.00  0.00     0.002 C 
ATOM      5  C   UNL     1     146.760 145.368 159.224  1.00  0.00     0.011 C 
ATOM      6  C   UNL     1     144.406 144.452 158.969  1.00  0.00     0.011 C 
ENDROOT
BRANCH   4   7
ATOM      7  C   UNL     1     145.471 147.904 160.054  1.00  0.00     0.009 C 
BRANCH   7   8
ATOM      8  C   UNL     1     144.623 149.016 159.414  1.00  0.00     0.030 C 
BRANCH   8   9
ATOM      9  C   UNL     1     144.687 150.254 160.283  1.00  0.00    -0.077 C 
ATOM     10  C   UNL     1     144.972 151.583 159.633  1.00  0.00     0.039 C 
ATOM     11  C   UNL     1     144.638 150.192 161.633  1.00  0.00    -0.028 CG0
ATOM     12  G   UNL     1     144.248 148.970 162.432  1.00  0.00     0.000 G0
ENDBRANCH   8   9
ENDBRANCH   7   8
ENDBRANCH   4   7
BRANCH   1  13
ATOM     13  C   UNL     1     145.219 146.712 162.992  1.00  0.00    -0.074 C 
ATOM     14  C   UNL     1     145.764 145.936 163.948  1.00  0.00     0.008 C 
BRANCH  13  15
ATOM     15  C   UNL     1     145.382 148.217 163.130  1.00  0.00     0.035 C 
BRANCH  15  16
ATOM     16  C   UNL     1     144.228 148.991 162.444  1.00  0.00     0.032 CG0
ATOM     17  G   UNL     1     144.657 150.190 161.631  1.00  0.00     0.000 G0
ENDBRANCH  15  16
ENDBRANCH  13  15
ENDBRANCH   1  13
TORSDOF 0
ENDMDL
MODEL 4
REMARK VINA RESULT:    18.099      2.946      3.980
REMARK INTER + INTRA:          25.392
REMARK INTER:                  24.362
REMARK INTRA:                   1.030
REMARK UNBOUND:                 0.945
REMARK SMILES C=C1CCC=C(C)CC[C@@H]2[C@H]1CC2(C)C
REMARK SMILES IDX 11 1 12 2 13 3 10 4 14 5 15 6 9 7 8 8 6 9 7 10 5 11 2 13
REMARK SMILES IDX 1 14 3 15 4 16
REMARK H PARENT
REMARK Flexibility Score: 70.00
ROOT
ATOM      1  C   UNL     1     146.146 144.679 161.860  1.00  0.00     0.018 C 
ATOM      2  C   UNL     1     145.379 145.924 161.413  1.00  0.00     0.015 C 
ATOM      3  C   UNL     1     145.451 145.450 159.949  1.00  0.00    -0.031 C 
ATOM      4  C   UNL     1     146.123 144.124 160.415  1.00  0.00     0.002 C 
ATOM      5  C   UNL     1     144.059 145.367 159.286  1.00  0.00     0.011 C 
ATOM      6  C   UNL     1     146.409 146.312 159.106  1.00  0.00     0.011 C 
ENDROOT
BRANCH   4   7
ATOM      7  C   UNL     1     145.357 142.824 160.083  1.00  0.00     0.009 C 
BRANCH   7   8
ATOM      8  C   UNL     1     146.237 141.727 159.459  1.00  0.00     0.030 C 
BRANCH   8   9
ATOM      9  C   UNL     1     146.116 140.463 160.283  1.00  0.00    -0.077 C 
ATOM     10  C   UNL     1     145.810 139.165 159.581  1.00  0.00     0.039 C 
ATOM     11  C   UNL     1     146.132 140.479 161.635  1.00  0.00    -0.028 CG0
ATOM     12  G   UNL     1     146.534 141.661 162.485  1.00  0.00     0.000 G0
ENDBRANCH   8   9
ENDBRANCH   7   8
ENDBRANCH   4   7
BRANCH   1  13
ATOM     13  C   UNL     1     145.531 143.947 163.054  1.00  0.00    -0.074 C 
ATOM     14  C   UNL     1     145.001 144.695 164.040  1.00  0.00     0.008 C 
BRANCH  13  15
ATOM     15  C   UNL     1     145.332 142.442 163.130  1.00  0.00     0.035 C 
BRANCH  15  16
ATOM     16  C   UNL     1     146.526 141.667 162.517  1.00  0.00     0.032 CG0
ATOM     17  G   UNL     1     146.147 140.491 161.648  1.00  0.00     0.000 G0
ENDBRANCH  15  16
ENDBRANCH  13  15
ENDBRANCH   1  13
TORSDOF 0
ENDMDL
MODEL 5
REMARK VINA RESULT:    18.143      3.083      4.325
REMARK INTER + INTRA:          25.451
REMARK INTER:                  24.572
REMARK INTRA:                   0.879
REMARK UNBOUND:                 0.945
REMARK SMILES C=C1CCC=C(C)CC[C@@H]2[C@H]1CC2(C)C
REMARK SMILES IDX 11 1 12 2 13 3 10 4 14 5 15 6 9 7 8 8 6 9 7 10 5 11 2 13
REMARK SMILES IDX 1 14 3 15 4 16
REMARK H PARENT
REMARK Flexibility Score: 70.00
ROOT
ATOM      1  C   UNL     1     145.614 147.742 160.693  1.00  0.00     0.018 C 
ATOM      2  C   UNL     1     144.892 146.941 159.610  1.00  0.00     0.015 C 
ATOM      3  C   UNL     1     145.100 145.648 160.420  1.00  0.00    -0.031 C 
ATOM      4  C   UNL     1     145.726 146.478 161.579  1.00  0.00     0.002 C 
ATOM      5  C   UNL     1     143.776 144.902 160.691  1.00  0.00     0.011 C 
ATOM      6  C   UNL     1     146.131 144.711 159.764  1.00  0.00     0.011 C 
ENDROOT
BRANCH   4   7
ATOM      7  C   UNL     1     144.995 146.402 162.937  1.00  0.00     0.009 C 
BRANCH   7   8
ATOM      8  C   UNL     1     145.935 146.471 164.153  1.00  0.00     0.030 C 
BRANCH   8   9
ATOM      9  C   UNL     1     145.339 147.399 165.191  1.00  0.00    -0.077 C 
ATOM     10  C   UNL     1     145.028 146.852 166.561  1.00  0.00     0.039 C 
ATOM     11  C   UNL     1     144.946 148.658 164.893  1.00  0.00    -0.028 CG0
ATOM     12  G   UNL     1     145.281 149.393 163.617  1.00  0.00     0.000 G0
ENDBRANCH   8   9
ENDBRANCH   7   8
ENDBRANCH   4   7
BRANCH   1  13
ATOM     13  C   UNL     1     144.892 149.018 161.131  1.00  0.00    -0.074 C 
ATOM     14  C   UNL     1     144.707 149.980 160.207  1.00  0.00     0.008 C 
BRANCH  13  15
ATOM     15  C   UNL     1     144.227 149.207 162.485  1.00  0.00     0.035 C 
BRANCH  15  16
ATOM     16  C   UNL     1     145.266 149.398 163.620  1.00  0.00     0.032 CG0
ATOM     17  G   UNL     1     144.957 148.659 164.900  1.00  0.00     0.000 G0
ENDBRANCH  15  16
ENDBRANCH  13  15
ENDBRANCH   1  13
TORSDOF 0
ENDMDL
MODEL 6
REMARK VINA RESULT:    18.649      1.938      3.905
REMARK INTER + INTRA:          26.134
REMARK INTER:                  25.234
REMARK INTRA:                   0.901
REMARK UNBOUND:                 0.945
REMARK SMILES C=C1CCC=C(C)CC[C@@H]2[C@H]1CC2(C)C
REMARK SMILES IDX 11 1 12 2 13 3 10 4 14 5 15 6 9 7 8 8 6 9 7 10 5 11 2 13
REMARK SMILES IDX 1 14 3 15 4 16
REMARK H PARENT
REMARK Flexibility Score: 70.00
ROOT
ATOM      1  C   UNL     1     145.133 142.931 160.772  1.00  0.00     0.018 C 
ATOM      2  C   UNL     1     145.879 143.701 159.682  1.00  0.00     0.015 C 
ATOM      3  C   UNL     1     145.690 145.011 160.470  1.00  0.00    -0.031 C 
ATOM      4  C   UNL     1     145.039 144.211 161.636  1.00  0.00     0.002 C 
ATOM      5  C   UNL     1     147.025 145.736 160.740  1.00  0.00     0.011 C 
ATOM      6  C   UNL     1     144.681 145.956 159.791  1.00  0.00     0.011 C 
ENDROOT
BRANCH   4   7
ATOM      7  C   UNL     1     145.761 144.295 163.000  1.00  0.00     0.009 C 
BRANCH   7   8
ATOM      8  C   UNL     1     144.812 144.245 164.209  1.00  0.00     0.030 C 
BRANCH   8   9
ATOM      9  C   UNL     1     145.402 143.337 165.267  1.00  0.00    -0.077 C 
ATOM     10  C   UNL     1     145.696 143.907 166.631  1.00  0.00     0.039 C 
ATOM     11  C   UNL     1     145.804 142.075 164.993  1.00  0.00    -0.028 CG0
ATOM     12  G   UNL     1     145.485 141.318 163.726  1.00  0.00     0.000 G0
ENDBRANCH   8   9
ENDBRANCH   7   8
ENDBRANCH   4   7
BRANCH   1  13
ATOM     13  C   UNL     1     145.828 141.649 161.236  1.00  0.00    -0.074 C 
ATOM     14  C   UNL     1     145.968 140.655 160.338  1.00  0.00     0.008 C 
BRANCH  13  15
ATOM     15  C   UNL     1     146.513 141.482 162.582  1.00  0.00     0.035 C 
BRANCH  15  16
ATOM     16  C   UNL     1     145.491 141.317 163.736  1.00  0.00     0.032 CG0
ATOM     17  G   UNL     1     145.801 142.112 164.983  1.00  0.00     0.000 G0
ENDBRANCH  15  16
ENDBRANCH  13  15
ENDBRANCH   1  13
TORSDOF 0
ENDMDL
