MODEL 1
REMARK VINA RESULT:     8.157      0.000      0.000
REMARK INTER + INTRA:           9.293
REMARK INTER:                   9.588
REMARK INTRA:                  -0.295
REMARK UNBOUND:                -0.295
REMARK SMILES O=c1cc(-c2ccc(O)c(O)c2)oc2cc(O)cc(O)c12
REMARK SMILES IDX 4 1 3 2 2 3 1 4 21 5 19 6 18 7 16 8 15 9 14 10 13 11 5 12
REMARK SMILES IDX 6 13 7 14 8 15 12 16 10 17 9 18 11 20 20 22 17 24
REMARK H PARENT 9 19 11 21 20 23 17 25
REMARK Flexibility Score: inf
ROOT
ATOM      1  C   UNL     1       3.073 135.470 155.793  1.00  0.00     0.138 A 
ATOM      2  C   UNL     1       3.804 136.211 154.849  1.00  0.00     0.100 A 
ATOM      3  C   UNL     1       4.306 135.572 153.714  1.00  0.00     0.197 A 
ATOM      4  O   UNL     1       4.961 136.245 152.874  1.00  0.00    -0.289 OA
ATOM      5  C   UNL     1       4.075 134.195 153.533  1.00  0.00     0.107 A 
ATOM      6  C   UNL     1       4.546 133.471 152.410  1.00  0.00     0.134 A 
ATOM      7  C   UNL     1       4.279 132.099 152.306  1.00  0.00     0.093 A 
ATOM      8  C   UNL     1       3.550 131.436 153.301  1.00  0.00     0.123 A 
ATOM      9  C   UNL     1       3.083 132.145 154.409  1.00  0.00     0.094 A 
ATOM     10  C   UNL     1       3.339 133.515 154.531  1.00  0.00     0.146 A 
ATOM     11  O   UNL     1       2.881 134.167 155.596  1.00  0.00    -0.456 OA
ENDROOT
BRANCH   1  12
ATOM     12  C   UNL     1       2.517 136.095 157.020  1.00  0.00     0.021 A 
ATOM     13  C   UNL     1       1.877 135.331 158.014  1.00  0.00     0.016 A 
ATOM     14  C   UNL     1       1.373 135.944 159.163  1.00  0.00     0.051 A 
ATOM     15  C   UNL     1       1.505 137.327 159.345  1.00  0.00     0.157 A 
ATOM     16  C   UNL     1       2.659 137.480 157.215  1.00  0.00     0.062 A 
ATOM     17  C   UNL     1       2.154 138.097 158.365  1.00  0.00     0.158 A 
BRANCH  15  18
ATOM     18  O   UNL     1       1.000 137.935 160.492  1.00  0.00    -0.504 OA
ATOM     19  H   UNL     1       1.099 138.931 160.653  1.00  0.00     0.293 HD
ENDBRANCH  15  18
BRANCH  17  20
ATOM     20  O   UNL     1       2.306 139.476 158.518  1.00  0.00    -0.504 OA
ATOM     21  H   UNL     1       1.996 140.132 157.813  1.00  0.00     0.293 HD
ENDBRANCH  17  20
ENDBRANCH   1  12
BRANCH   6  22
ATOM     22  O   UNL     1       5.275 134.105 151.403  1.00  0.00    -0.507 OA
ATOM     23  H   UNL     1       5.113 135.075 151.157  1.00  0.00     0.293 HD
ENDBRANCH   6  22
BRANCH   8  24
ATOM     24  O   UNL     1       3.285 130.072 153.198  1.00  0.00    -0.508 OA
ATOM     25  H   UNL     1       2.805 129.569 153.934  1.00  0.00     0.293 HD
ENDBRANCH   8  24
TORSDOF 5
ENDMDL
MODEL 2
REMARK VINA RESULT:     8.549      1.172      2.934
REMARK INTER + INTRA:           9.753
REMARK INTER:                  10.045
REMARK INTRA:                  -0.292
REMARK UNBOUND:                -0.295
REMARK SMILES O=c1cc(-c2ccc(O)c(O)c2)oc2cc(O)cc(O)c12
REMARK SMILES IDX 4 1 3 2 2 3 1 4 21 5 19 6 18 7 16 8 15 9 14 10 13 11 5 12
REMARK SMILES IDX 6 13 7 14 8 15 12 16 10 17 9 18 11 20 20 22 17 24
REMARK H PARENT 9 19 11 21 20 23 17 25
REMARK Flexibility Score: inf
ROOT
ATOM      1  C   UNL     1       2.690 134.716 155.884  1.00  0.00     0.138 A 
ATOM      2  C   UNL     1       1.866 133.578 155.896  1.00  0.00     0.100 A 
ATOM      3  C   UNL     1       2.058 132.581 154.938  1.00  0.00     0.197 A 
ATOM      4  O   UNL     1       1.313 131.564 154.957  1.00  0.00    -0.289 OA
ATOM      5  C   UNL     1       3.073 132.730 153.973  1.00  0.00     0.107 A 
ATOM      6  C   UNL     1       3.336 131.766 152.970  1.00  0.00     0.134 A 
ATOM      7  C   UNL     1       4.361 131.992 152.041  1.00  0.00     0.093 A 
ATOM      8  C   UNL     1       5.129 133.162 152.096  1.00  0.00     0.123 A 
ATOM      9  C   UNL     1       4.874 134.115 153.084  1.00  0.00     0.094 A 
ATOM     10  C   UNL     1       3.855 133.908 154.020  1.00  0.00     0.146 A 
ATOM     11  O   UNL     1       3.634 134.830 154.952  1.00  0.00    -0.456 OA
ENDROOT
BRANCH   1  12
ATOM     12  C   UNL     1       2.531 135.809 156.875  1.00  0.00     0.021 A 
ATOM     13  C   UNL     1       3.080 137.088 156.661  1.00  0.00     0.016 A 
ATOM     14  C   UNL     1       2.904 138.101 157.606  1.00  0.00     0.051 A 
ATOM     15  C   UNL     1       2.174 137.860 158.777  1.00  0.00     0.157 A 
ATOM     16  C   UNL     1       1.787 135.578 158.047  1.00  0.00     0.062 A 
ATOM     17  C   UNL     1       1.612 136.592 158.995  1.00  0.00     0.158 A 
BRANCH  15  18
ATOM     18  O   UNL     1       2.003 138.873 159.718  1.00  0.00    -0.504 OA
ATOM     19  H   UNL     1       1.974 139.849 159.448  1.00  0.00     0.293 HD
ENDBRANCH  15  18
BRANCH  17  20
ATOM     20  O   UNL     1       0.875 136.320 160.149  1.00  0.00    -0.504 OA
ATOM     21  H   UNL     1       0.642 137.041 160.820  1.00  0.00     0.293 HD
ENDBRANCH  17  20
ENDBRANCH   1  12
BRANCH   6  22
ATOM     22  O   UNL     1       2.587 130.591 152.890  1.00  0.00    -0.507 OA
ATOM     23  H   UNL     1       2.627 129.884 153.615  1.00  0.00     0.293 HD
ENDBRANCH   6  22
BRANCH   8  24
ATOM     24  O   UNL     1       6.148 133.387 151.173  1.00  0.00    -0.508 OA
ATOM     25  H   UNL     1       5.986 133.913 150.322  1.00  0.00     0.293 HD
ENDBRANCH   8  24
TORSDOF 5
ENDMDL
