MODEL 1
REMARK VINA RESULT:    13.299      0.000      0.000
REMARK INTER + INTRA:          23.833
REMARK INTER:                  23.406
REMARK INTRA:                   0.426
REMARK UNBOUND:                 0.426
REMARK SMILES CCCCCCCCCCCCCCC(=O)[O-]
REMARK SMILES IDX 9 1 10 2 11 3 12 4 13 5 14 6 15 7 16 8 17 9 8 10 7 11 6 12
REMARK SMILES IDX 5 13 4 14 3 15 2 16 1 17
REMARK H PARENT
REMARK Flexibility Score: inf
ROOT
ATOM      1  C   UNL     1     -18.616  -3.129 -19.364  1.00  0.00     0.000 C 
ENDROOT
BRANCH   1   2
ATOM      2  C   UNL     1     -18.812  -4.220 -20.428  1.00  0.00     0.000 C 
BRANCH   2   3
ATOM      3  C   UNL     1     -17.479  -4.758 -20.976  1.00  0.00     0.000 C 
BRANCH   3   4
ATOM      4  C   UNL     1     -17.665  -5.984 -21.885  1.00  0.00     0.000 C 
BRANCH   4   5
ATOM      5  C   UNL     1     -16.339  -6.686 -22.214  1.00  0.00     0.006 C 
BRANCH   5   6
ATOM      6  C   UNL     1     -16.281  -7.081 -23.693  1.00  0.00     0.053 C 
BRANCH   6   7
ATOM      7  C   UNL     1     -16.408  -5.871 -24.564  1.00  0.00     0.041 C 
ATOM      8  O   UNL     1     -17.092  -4.885 -24.183  1.00  0.00    -0.550 OA
ATOM      9  O   UNL     1     -15.810  -5.851 -25.818  1.00  0.00    -0.550 OA
ENDBRANCH   6   7
ENDBRANCH   5   6
ENDBRANCH   4   5
ENDBRANCH   3   4
ENDBRANCH   2   3
ENDBRANCH   1   2
BRANCH   1  10
ATOM     10  C   UNL     1     -19.901  -2.334 -19.085  1.00  0.00     0.000 C 
BRANCH  10  11
ATOM     11  C   UNL     1     -19.891  -1.762 -17.659  1.00  0.00    -0.000 C 
BRANCH  11  12
ATOM     12  C   UNL     1     -20.123  -2.839 -16.585  1.00  0.00    -0.000 C 
BRANCH  12  13
ATOM     13  C   UNL     1     -20.017  -2.283 -15.154  1.00  0.00    -0.000 C 
BRANCH  13  14
ATOM     14  C   UNL     1     -19.902  -0.743 -15.135  1.00  0.00    -0.000 C 
BRANCH  14  15
ATOM     15  C   UNL     1     -19.207  -0.191 -13.876  1.00  0.00    -0.000 C 
BRANCH  15  16
ATOM     16  C   UNL     1     -18.475   1.145 -14.083  1.00  0.00    -0.003 C 
ATOM     17  C   UNL     1     -19.431   2.319 -14.295  1.00  0.00     0.004 C 
ENDBRANCH  15  16
ENDBRANCH  14  15
ENDBRANCH  13  14
ENDBRANCH  12  13
ENDBRANCH  11  12
ENDBRANCH  10  11
ENDBRANCH   1  10
TORSDOF 13
ENDMDL
MODEL 2
REMARK VINA RESULT:    14.663      5.387      9.665
REMARK INTER + INTRA:          26.233
REMARK INTER:                  26.634
REMARK INTRA:                  -0.401
REMARK UNBOUND:                 0.426
REMARK SMILES CCCCCCCCCCCCCCC(=O)[O-]
REMARK SMILES IDX 9 1 10 2 11 3 12 4 13 5 14 6 15 7 16 8 17 9 8 10 7 11 6 12
REMARK SMILES IDX 5 13 4 14 3 15 2 16 1 17
REMARK H PARENT
REMARK Flexibility Score: inf
ROOT
ATOM      1  C   UNL     1     -18.970  -7.993 -28.132  1.00  0.00     0.000 C 
ENDROOT
BRANCH   1   2
ATOM      2  C   UNL     1     -18.271  -8.337 -29.456  1.00  0.00     0.000 C 
BRANCH   2   3
ATOM      3  C   UNL     1     -18.541  -9.782 -29.909  1.00  0.00     0.000 C 
BRANCH   3   4
ATOM      4  C   UNL     1     -17.880 -10.111 -31.259  1.00  0.00     0.000 C 
BRANCH   4   5
ATOM      5  C   UNL     1     -16.347 -10.143 -31.177  1.00  0.00     0.006 C 
BRANCH   5   6
ATOM      6  C   UNL     1     -15.883 -10.532 -29.770  1.00  0.00     0.053 C 
BRANCH   6   7
ATOM      7  C   UNL     1     -14.405 -10.344 -29.635  1.00  0.00     0.041 C 
ATOM      8  O   UNL     1     -13.631 -10.730 -30.551  1.00  0.00    -0.550 OA
ATOM      9  O   UNL     1     -13.877  -9.788 -28.477  1.00  0.00    -0.550 OA
ENDBRANCH   6   7
ENDBRANCH   5   6
ENDBRANCH   4   5
ENDBRANCH   3   4
ENDBRANCH   2   3
ENDBRANCH   1   2
BRANCH   1  10
ATOM     10  C   UNL     1     -18.663  -6.567 -27.651  1.00  0.00     0.000 C 
BRANCH  10  11
ATOM     11  C   UNL     1     -18.038  -6.585 -26.247  1.00  0.00    -0.000 C 
BRANCH  11  12
ATOM     12  C   UNL     1     -16.582  -6.089 -26.239  1.00  0.00    -0.000 C 
BRANCH  12  13
ATOM     13  C   UNL     1     -15.964  -6.086 -24.829  1.00  0.00    -0.000 C 
BRANCH  13  14
ATOM     14  C   UNL     1     -16.843  -6.837 -23.806  1.00  0.00    -0.000 C 
BRANCH  14  15
ATOM     15  C   UNL     1     -16.589  -6.418 -22.346  1.00  0.00    -0.000 C 
BRANCH  15  16
ATOM     16  C   UNL     1     -17.759  -5.677 -21.679  1.00  0.00    -0.003 C 
ATOM     17  C   UNL     1     -17.402  -5.124 -20.300  1.00  0.00     0.004 C 
ENDBRANCH  15  16
ENDBRANCH  14  15
ENDBRANCH  13  14
ENDBRANCH  12  13
ENDBRANCH  11  12
ENDBRANCH  10  11
ENDBRANCH   1  10
TORSDOF 13
ENDMDL
MODEL 3
REMARK VINA RESULT:    15.499      6.013     12.397
REMARK INTER + INTRA:          27.705
REMARK INTER:                  28.343
REMARK INTRA:                  -0.638
REMARK UNBOUND:                 0.426
REMARK SMILES CCCCCCCCCCCCCCC(=O)[O-]
REMARK SMILES IDX 9 1 10 2 11 3 12 4 13 5 14 6 15 7 16 8 17 9 8 10 7 11 6 12
REMARK SMILES IDX 5 13 4 14 3 15 2 16 1 17
REMARK H PARENT
REMARK Flexibility Score: inf
ROOT
ATOM      1  C   UNL     1     -18.776  -6.940 -27.631  1.00  0.00     0.000 C 
ENDROOT
BRANCH   1   2
ATOM      2  C   UNL     1     -18.128  -6.685 -26.261  1.00  0.00     0.000 C 
BRANCH   2   3
ATOM      3  C   UNL     1     -16.647  -6.283 -26.373  1.00  0.00     0.000 C 
BRANCH   3   4
ATOM      4  C   UNL     1     -16.031  -5.913 -25.013  1.00  0.00     0.000 C 
BRANCH   4   5
ATOM      5  C   UNL     1     -16.770  -6.558 -23.832  1.00  0.00     0.006 C 
BRANCH   5   6
ATOM      6  C   UNL     1     -16.352  -5.912 -22.507  1.00  0.00     0.053 C 
BRANCH   6   7
ATOM      7  C   UNL     1     -17.509  -5.863 -21.560  1.00  0.00     0.041 C 
ATOM      8  O   UNL     1     -18.649  -6.248 -21.932  1.00  0.00    -0.550 OA
ATOM      9  O   UNL     1     -17.341  -5.346 -20.281  1.00  0.00    -0.550 OA
ENDBRANCH   6   7
ENDBRANCH   5   6
ENDBRANCH   4   5
ENDBRANCH   3   4
ENDBRANCH   2   3
ENDBRANCH   1   2
BRANCH   1  10
ATOM     10  C   UNL     1     -17.789  -7.515 -28.658  1.00  0.00     0.000 C 
BRANCH  10  11
ATOM     11  C   UNL     1     -18.408  -8.707 -29.403  1.00  0.00    -0.000 C 
BRANCH  11  12
ATOM     12  C   UNL     1     -17.725  -8.983 -30.753  1.00  0.00    -0.000 C 
BRANCH  12  13
ATOM     13  C   UNL     1     -17.588 -10.486 -31.053  1.00  0.00    -0.000 C 
BRANCH  13  14
ATOM     14  C   UNL     1     -17.450 -11.326 -29.766  1.00  0.00    -0.000 C 
BRANCH  14  15
ATOM     15  C   UNL     1     -16.014 -11.378 -29.211  1.00  0.00    -0.000 C 
BRANCH  15  16
ATOM     16  C   UNL     1     -14.994 -10.535 -29.994  1.00  0.00    -0.003 C 
ATOM     17  C   UNL     1     -13.902  -9.945 -29.102  1.00  0.00     0.004 C 
ENDBRANCH  15  16
ENDBRANCH  14  15
ENDBRANCH  13  14
ENDBRANCH  12  13
ENDBRANCH  11  12
ENDBRANCH  10  11
ENDBRANCH   1  10
TORSDOF 13
ENDMDL
