MODEL 1
REMARK VINA RESULT:    -5.085      0.000      0.000
REMARK INTER + INTRA:          -5.531
REMARK INTER:                  -5.531
REMARK INTRA:                   0.000
REMARK UNBOUND:                 0.000
REMARK SMILES Oc1cccc(O)c1O
REMARK SMILES IDX 4 1 5 2 6 3 8 4 2 5 3 6 7 7 1 9 9 11
REMARK H PARENT 7 8 1 10 9 12
REMARK Flexibility Score: inf
ROOT
ATOM      1  C   UNL     1       9.316  69.295   0.246  1.00  0.00     0.008 A 
ATOM      2  C   UNL     1       9.523  69.582   1.595  1.00  0.00     0.050 A 
ATOM      3  C   UNL     1       9.936  70.857   1.990  1.00  0.00     0.161 A 
ATOM      4  C   UNL     1      10.148  71.863   1.026  1.00  0.00     0.200 A 
ATOM      5  C   UNL     1       9.937  71.567  -0.344  1.00  0.00     0.161 A 
ATOM      6  C   UNL     1       9.522  70.284  -0.717  1.00  0.00     0.050 A 
ENDROOT
BRANCH   3   7
ATOM      7  O   UNL     1      10.133  71.107   3.349  1.00  0.00    -0.504 OA
ATOM      8  H   UNL     1      10.348  72.031   3.703  1.00  0.00     0.293 HD
ENDBRANCH   3   7
BRANCH   5   9
ATOM      9  O   UNL     1      10.125  72.510  -1.358  1.00  0.00    -0.504 OA
ATOM     10  H   UNL     1      10.532  72.300  -2.258  1.00  0.00     0.293 HD
ENDBRANCH   5   9
BRANCH   4  11
ATOM     11  O   UNL     1      10.562  73.125   1.462  1.00  0.00    -0.502 OA
ATOM     12  H   UNL     1      10.505  73.441   2.419  1.00  0.00     0.293 HD
ENDBRANCH   4  11
TORSDOF 3
ENDMDL
MODEL 2
REMARK VINA RESULT:    -5.055      2.388      4.020
REMARK INTER + INTRA:          -5.498
REMARK INTER:                  -5.498
REMARK INTRA:                   0.000
REMARK UNBOUND:                 0.000
REMARK SMILES Oc1cccc(O)c1O
REMARK SMILES IDX 4 1 5 2 6 3 8 4 2 5 3 6 7 7 1 9 9 11
REMARK H PARENT 7 8 1 10 9 12
REMARK Flexibility Score: inf
ROOT
ATOM      1  C   UNL     1       9.893  70.521   1.238  1.00  0.00     0.008 A 
ATOM      2  C   UNL     1      10.040  71.228   0.045  1.00  0.00     0.050 A 
ATOM      3  C   UNL     1       9.538  70.707  -1.151  1.00  0.00     0.161 A 
ATOM      4  C   UNL     1       8.880  69.460  -1.158  1.00  0.00     0.200 A 
ATOM      5  C   UNL     1       8.733  68.745   0.057  1.00  0.00     0.161 A 
ATOM      6  C   UNL     1       9.243  69.287   1.242  1.00  0.00     0.050 A 
ENDROOT
BRANCH   3   7
ATOM      7  O   UNL     1       9.703  71.442  -2.325  1.00  0.00    -0.504 OA
ATOM      8  H   UNL     1       9.077  72.194  -2.585  1.00  0.00     0.293 HD
ENDBRANCH   3   7
BRANCH   5   9
ATOM      9  O   UNL     1       8.093  67.505   0.131  1.00  0.00    -0.504 OA
ATOM     10  H   UNL     1       8.008  66.962   0.978  1.00  0.00     0.293 HD
ENDBRANCH   5   9
BRANCH   4  11
ATOM     11  O   UNL     1       8.392  68.974  -2.374  1.00  0.00    -0.502 OA
ATOM     12  H   UNL     1       8.942  68.904  -3.218  1.00  0.00     0.293 HD
ENDBRANCH   4  11
TORSDOF 3
ENDMDL
MODEL 3
REMARK VINA RESULT:    -5.027      1.069      3.079
REMARK INTER + INTRA:          -5.468
REMARK INTER:                  -5.468
REMARK INTRA:                   0.000
REMARK UNBOUND:                 0.000
REMARK SMILES Oc1cccc(O)c1O
REMARK SMILES IDX 4 1 5 2 6 3 8 4 2 5 3 6 7 7 1 9 9 11
REMARK H PARENT 7 8 1 10 9 12
REMARK Flexibility Score: inf
ROOT
ATOM      1  C   UNL     1       9.793  69.306   0.338  1.00  0.00     0.008 A 
ATOM      2  C   UNL     1       9.708  69.471  -1.044  1.00  0.00     0.050 A 
ATOM      3  C   UNL     1       9.826  70.743  -1.610  1.00  0.00     0.161 A 
ATOM      4  C   UNL     1      10.032  71.869  -0.787  1.00  0.00     0.200 A 
ATOM      5  C   UNL     1      10.118  71.696   0.617  1.00  0.00     0.161 A 
ATOM      6  C   UNL     1       9.998  70.413   1.163  1.00  0.00     0.050 A 
ENDROOT
BRANCH   3   7
ATOM      7  O   UNL     1       9.736  70.871  -2.997  1.00  0.00    -0.504 OA
ATOM      8  H   UNL     1       8.857  71.053  -3.467  1.00  0.00     0.293 HD
ENDBRANCH   3   7
BRANCH   5   9
ATOM      9  O   UNL     1      10.321  72.760   1.499  1.00  0.00    -0.504 OA
ATOM     10  H   UNL     1       9.746  73.590   1.526  1.00  0.00     0.293 HD
ENDBRANCH   5   9
BRANCH   4  11
ATOM     11  O   UNL     1      10.144  73.124  -1.392  1.00  0.00    -0.502 OA
ATOM     12  H   UNL     1      11.022  73.585  -1.581  1.00  0.00     0.293 HD
ENDBRANCH   4  11
TORSDOF 3
ENDMDL
MODEL 4
REMARK VINA RESULT:    -5.011      2.339      3.206
REMARK INTER + INTRA:          -5.450
REMARK INTER:                  -5.450
REMARK INTRA:                   0.000
REMARK UNBOUND:                 0.000
REMARK SMILES Oc1cccc(O)c1O
REMARK SMILES IDX 4 1 5 2 6 3 8 4 2 5 3 6 7 7 1 9 9 11
REMARK H PARENT 7 8 1 10 9 12
REMARK Flexibility Score: inf
ROOT
ATOM      1  C   UNL     1       9.966  70.535   1.287  1.00  0.00     0.008 A 
ATOM      2  C   UNL     1       9.317  69.301   1.303  1.00  0.00     0.050 A 
ATOM      3  C   UNL     1       8.772  68.774   0.129  1.00  0.00     0.161 A 
ATOM      4  C   UNL     1       8.876  69.489  -1.082  1.00  0.00     0.200 A 
ATOM      5  C   UNL     1       9.536  70.743  -1.094  1.00  0.00     0.161 A 
ATOM      6  C   UNL     1      10.075  71.251   0.094  1.00  0.00     0.050 A 
ENDROOT
BRANCH   3   7
ATOM      7  O   UNL     1       8.129  67.537   0.183  1.00  0.00    -0.504 OA
ATOM      8  H   UNL     1       7.123  67.453   0.255  1.00  0.00     0.293 HD
ENDBRANCH   3   7
BRANCH   5   9
ATOM      9  O   UNL     1       9.680  71.510  -2.252  1.00  0.00    -0.504 OA
ATOM     10  H   UNL     1       8.929  72.027  -2.686  1.00  0.00     0.293 HD
ENDBRANCH   5   9
BRANCH   4  11
ATOM     11  O   UNL     1       8.318  68.928  -2.234  1.00  0.00    -0.502 OA
ATOM     12  H   UNL     1       8.787  68.253  -2.820  1.00  0.00     0.293 HD
ENDBRANCH   4  11
TORSDOF 3
ENDMDL
MODEL 5
REMARK VINA RESULT:    -4.985      1.071      1.771
REMARK INTER + INTRA:          -5.422
REMARK INTER:                  -5.422
REMARK INTRA:                   0.000
REMARK UNBOUND:                 0.000
REMARK SMILES Oc1cccc(O)c1O
REMARK SMILES IDX 4 1 5 2 6 3 8 4 2 5 3 6 7 7 1 9 9 11
REMARK H PARENT 7 8 1 10 9 12
REMARK Flexibility Score: inf
ROOT
ATOM      1  C   UNL     1       9.961  69.163   0.250  1.00  0.00     0.008 A 
ATOM      2  C   UNL     1      10.099  70.232   1.135  1.00  0.00     0.050 A 
ATOM      3  C   UNL     1      10.120  71.545   0.657  1.00  0.00     0.161 A 
ATOM      4  C   UNL     1      10.004  71.798  -0.725  1.00  0.00     0.200 A 
ATOM      5  C   UNL     1       9.865  70.708  -1.621  1.00  0.00     0.161 A 
ATOM      6  C   UNL     1       9.844  69.401  -1.120  1.00  0.00     0.050 A 
ENDROOT
BRANCH   3   7
ATOM      7  O   UNL     1      10.260  72.590   1.572  1.00  0.00    -0.504 OA
ATOM      8  H   UNL     1      10.475  73.536   1.283  1.00  0.00     0.293 HD
ENDBRANCH   3   7
BRANCH   5   9
ATOM      9  O   UNL     1       9.743  70.877  -3.002  1.00  0.00    -0.504 OA
ATOM     10  H   UNL     1      10.527  70.983  -3.631  1.00  0.00     0.293 HD
ENDBRANCH   5   9
BRANCH   4  11
ATOM     11  O   UNL     1      10.030  73.125  -1.162  1.00  0.00    -0.502 OA
ATOM     12  H   UNL     1       9.336  73.536  -1.769  1.00  0.00     0.293 HD
ENDBRANCH   4  11
TORSDOF 3
ENDMDL
MODEL 6
REMARK VINA RESULT:    -4.978      2.050      3.326
REMARK INTER + INTRA:          -5.414
REMARK INTER:                  -5.414
REMARK INTRA:                   0.000
REMARK UNBOUND:                 0.000
REMARK SMILES Oc1cccc(O)c1O
REMARK SMILES IDX 4 1 5 2 6 3 8 4 2 5 3 6 7 7 1 9 9 11
REMARK H PARENT 7 8 1 10 9 12
REMARK Flexibility Score: inf
ROOT
ATOM      1  C   UNL     1       9.779  70.526  -0.632  1.00  0.00     0.008 A 
ATOM      2  C   UNL     1      10.108  69.172  -0.660  1.00  0.00     0.050 A 
ATOM      3  C   UNL     1      10.469  68.509   0.516  1.00  0.00     0.161 A 
ATOM      4  C   UNL     1      10.503  69.208   1.741  1.00  0.00     0.200 A 
ATOM      5  C   UNL     1      10.168  70.585   1.764  1.00  0.00     0.161 A 
ATOM      6  C   UNL     1       9.809  71.228   0.574  1.00  0.00     0.050 A 
ENDROOT
BRANCH   3   7
ATOM      7  O   UNL     1      10.792  67.153   0.451  1.00  0.00    -0.504 OA
ATOM      8  H   UNL     1      11.747  66.829   0.361  1.00  0.00     0.293 HD
ENDBRANCH   3   7
BRANCH   5   9
ATOM      9  O   UNL     1      10.177  71.345   2.936  1.00  0.00    -0.504 OA
ATOM     10  H   UNL     1       9.350  71.578   3.466  1.00  0.00     0.293 HD
ENDBRANCH   5   9
BRANCH   4  11
ATOM     11  O   UNL     1      10.869  68.509   2.894  1.00  0.00    -0.502 OA
ATOM     12  H   UNL     1      10.251  68.339   3.674  1.00  0.00     0.293 HD
ENDBRANCH   4  11
TORSDOF 3
ENDMDL
MODEL 7
REMARK VINA RESULT:    -4.976      2.055      3.027
REMARK INTER + INTRA:          -5.413
REMARK INTER:                  -5.413
REMARK INTRA:                   0.000
REMARK UNBOUND:                 0.000
REMARK SMILES Oc1cccc(O)c1O
REMARK SMILES IDX 4 1 5 2 6 3 8 4 2 5 3 6 7 7 1 9 9 11
REMARK H PARENT 7 8 1 10 9 12
REMARK Flexibility Score: inf
ROOT
ATOM      1  C   UNL     1       9.789  70.520  -0.615  1.00  0.00     0.008 A 
ATOM      2  C   UNL     1       9.821  71.209   0.597  1.00  0.00     0.050 A 
ATOM      3  C   UNL     1      10.169  70.546   1.777  1.00  0.00     0.161 A 
ATOM      4  C   UNL     1      10.490  69.173   1.749  1.00  0.00     0.200 A 
ATOM      5  C   UNL     1      10.457  68.477   0.515  1.00  0.00     0.161 A 
ATOM      6  C   UNL     1      10.106  69.162  -0.655  1.00  0.00     0.050 A 
ENDROOT
BRANCH   3   7
ATOM      7  O   UNL     1      10.189  71.267   2.971  1.00  0.00    -0.504 OA
ATOM      8  H   UNL     1      10.483  70.854   3.847  1.00  0.00     0.293 HD
ENDBRANCH   3   7
BRANCH   5   9
ATOM      9  O   UNL     1      10.762  67.118   0.405  1.00  0.00    -0.504 OA
ATOM     10  H   UNL     1      10.579  66.437   1.128  1.00  0.00     0.293 HD
ENDBRANCH   5   9
BRANCH   4  11
ATOM     11  O   UNL     1      10.833  68.547   2.950  1.00  0.00    -0.502 OA
ATOM     12  H   UNL     1      10.176  68.339   3.688  1.00  0.00     0.293 HD
ENDBRANCH   4  11
TORSDOF 3
ENDMDL
MODEL 8
REMARK VINA RESULT:    -4.965      0.567      2.877
REMARK INTER + INTRA:          -5.400
REMARK INTER:                  -5.400
REMARK INTRA:                   0.000
REMARK UNBOUND:                 0.000
REMARK SMILES Oc1cccc(O)c1O
REMARK SMILES IDX 4 1 5 2 6 3 8 4 2 5 3 6 7 7 1 9 9 11
REMARK H PARENT 7 8 1 10 9 12
REMARK Flexibility Score: inf
ROOT
ATOM      1  C   UNL     1       9.152  68.919   0.757  1.00  0.00     0.008 A 
ATOM      2  C   UNL     1       9.439  69.812  -0.275  1.00  0.00     0.050 A 
ATOM      3  C   UNL     1       9.950  71.081   0.010  1.00  0.00     0.161 A 
ATOM      4  C   UNL     1      10.180  71.467   1.347  1.00  0.00     0.200 A 
ATOM      5  C   UNL     1       9.887  70.556   2.393  1.00  0.00     0.161 A 
ATOM      6  C   UNL     1       9.376  69.290   2.083  1.00  0.00     0.050 A 
ENDROOT
BRANCH   3   7
ATOM      7  O   UNL     1      10.225  71.948  -1.048  1.00  0.00    -0.504 OA
ATOM      8  H   UNL     1      10.952  71.760  -1.727  1.00  0.00     0.293 HD
ENDBRANCH   3   7
BRANCH   5   9
ATOM      9  O   UNL     1      10.088  70.864   3.740  1.00  0.00    -0.504 OA
ATOM     10  H   UNL     1      10.796  70.436   4.320  1.00  0.00     0.293 HD
ENDBRANCH   5   9
BRANCH   4  11
ATOM     11  O   UNL     1      10.692  72.744   1.590  1.00  0.00    -0.502 OA
ATOM     12  H   UNL     1      10.534  73.265   2.440  1.00  0.00     0.293 HD
ENDBRANCH   4  11
TORSDOF 3
ENDMDL
MODEL 9
REMARK VINA RESULT:    -4.745      1.895      3.593
REMARK INTER + INTRA:          -5.161
REMARK INTER:                  -5.161
REMARK INTRA:                   0.000
REMARK UNBOUND:                 0.000
REMARK SMILES Oc1cccc(O)c1O
REMARK SMILES IDX 4 1 5 2 6 3 8 4 2 5 3 6 7 7 1 9 9 11
REMARK H PARENT 7 8 1 10 9 12
REMARK Flexibility Score: inf
ROOT
ATOM      1  C   UNL     1       9.801  67.085  -0.032  1.00  0.00     0.008 A 
ATOM      2  C   UNL     1       9.412  67.735  -1.203  1.00  0.00     0.050 A 
ATOM      3  C   UNL     1       9.403  69.131  -1.265  1.00  0.00     0.161 A 
ATOM      4  C   UNL     1       9.788  69.893  -0.143  1.00  0.00     0.200 A 
ATOM      5  C   UNL     1      10.183  69.228   1.045  1.00  0.00     0.161 A 
ATOM      6  C   UNL     1      10.185  67.829   1.085  1.00  0.00     0.050 A 
ENDROOT
BRANCH   3   7
ATOM      7  O   UNL     1       9.007  69.747  -2.453  1.00  0.00    -0.504 OA
ATOM      8  H   UNL     1       9.612  69.798  -3.264  1.00  0.00     0.293 HD
ENDBRANCH   3   7
BRANCH   5   9
ATOM      9  O   UNL     1      10.578  69.911   2.197  1.00  0.00    -0.504 OA
ATOM     10  H   UNL     1      11.363  69.643   2.774  1.00  0.00     0.293 HD
ENDBRANCH   5   9
BRANCH   4  11
ATOM     11  O   UNL     1       9.765  71.286  -0.246  1.00  0.00    -0.502 OA
ATOM     12  H   UNL     1       9.554  71.788  -1.096  1.00  0.00     0.293 HD
ENDBRANCH   4  11
TORSDOF 3
ENDMDL
