MODEL 1
REMARK VINA RESULT:    -2.317      0.000      0.000
REMARK INTER + INTRA:          -2.626
REMARK INTER:                  -2.588
REMARK INTRA:                  -0.038
REMARK UNBOUND:                -0.038
REMARK SMILES CCCC(=O)[O-]
REMARK SMILES IDX 3 1 4 2 5 3 6 4 2 5 1 6
REMARK H PARENT
REMARK Flexibility Score: inf
ROOT
ATOM      1  C   UNL     1      50.074  49.681  61.445  1.00  0.00     0.052 C 
ENDROOT
BRANCH   1   2
ATOM      2  C   UNL     1      50.108  48.918  62.732  1.00  0.00     0.041 C 
ATOM      3  O   UNL     1      49.448  49.322  63.725  1.00  0.00    -0.550 OA
ATOM      4  O   UNL     1      50.832  47.736  62.820  1.00  0.00    -0.550 OA
ENDBRANCH   1   2
BRANCH   1   5
ATOM      5  C   UNL     1      51.106  50.812  61.467  1.00  0.00     0.003 C 
ATOM      6  C   UNL     1      50.447  52.152  61.777  1.00  0.00     0.004 C 
ENDBRANCH   1   5
TORSDOF 2
ENDMDL
MODEL 2
REMARK VINA RESULT:    -2.309     18.139     18.574
REMARK INTER + INTRA:          -2.617
REMARK INTER:                  -2.556
REMARK INTRA:                  -0.061
REMARK UNBOUND:                -0.038
REMARK SMILES CCCC(=O)[O-]
REMARK SMILES IDX 3 1 4 2 5 3 6 4 2 5 1 6
REMARK H PARENT
REMARK Flexibility Score: inf
ROOT
ATOM      1  C   UNL     1      52.849  56.424  44.262  1.00  0.00     0.052 C 
ENDROOT
BRANCH   1   2
ATOM      2  C   UNL     1      52.029  56.195  45.492  1.00  0.00     0.041 C 
ATOM      3  O   UNL     1      50.864  56.665  45.574  1.00  0.00    -0.550 OA
ATOM      4  O   UNL     1      52.534  55.422  46.530  1.00  0.00    -0.550 OA
ENDBRANCH   1   2
BRANCH   1   5
ATOM      5  C   UNL     1      54.305  56.716  44.636  1.00  0.00     0.003 C 
ATOM      6  C   UNL     1      54.457  58.126  45.198  1.00  0.00     0.004 C 
ENDBRANCH   1   5
TORSDOF 2
ENDMDL
MODEL 3
REMARK VINA RESULT:    -2.304     17.986     18.483
REMARK INTER + INTRA:          -2.611
REMARK INTER:                  -2.592
REMARK INTRA:                  -0.019
REMARK UNBOUND:                -0.038
REMARK SMILES CCCC(=O)[O-]
REMARK SMILES IDX 3 1 4 2 5 3 6 4 2 5 1 6
REMARK H PARENT
REMARK Flexibility Score: inf
ROOT
ATOM      1  C   UNL     1      52.604  55.685  45.993  1.00  0.00     0.052 C 
ENDROOT
BRANCH   1   2
ATOM      2  C   UNL     1      51.574  56.340  45.130  1.00  0.00     0.041 C 
ATOM      3  O   UNL     1      51.671  56.286  43.875  1.00  0.00    -0.550 OA
ATOM      4  O   UNL     1      50.480  56.970  45.709  1.00  0.00    -0.550 OA
ENDBRANCH   1   2
BRANCH   1   5
ATOM      5  C   UNL     1      53.977  55.730  45.316  1.00  0.00     0.003 C 
ATOM      6  C   UNL     1      54.834  54.537  45.728  1.00  0.00     0.004 C 
ENDBRANCH   1   5
TORSDOF 2
ENDMDL
MODEL 4
REMARK VINA RESULT:    -2.300      0.969      1.535
REMARK INTER + INTRA:          -2.607
REMARK INTER:                  -2.599
REMARK INTRA:                  -0.008
REMARK UNBOUND:                -0.038
REMARK SMILES CCCC(=O)[O-]
REMARK SMILES IDX 3 1 4 2 5 3 6 4 2 5 1 6
REMARK H PARENT
REMARK Flexibility Score: inf
ROOT
ATOM      1  C   UNL     1      50.084  49.853  61.413  1.00  0.00     0.052 C 
ENDROOT
BRANCH   1   2
ATOM      2  C   UNL     1      50.420  48.508  61.976  1.00  0.00     0.041 C 
ATOM      3  O   UNL     1      50.758  47.567  61.211  1.00  0.00    -0.550 OA
ATOM      4  O   UNL     1      50.405  48.307  63.350  1.00  0.00    -0.550 OA
ENDBRANCH   1   2
BRANCH   1   5
ATOM      5  C   UNL     1      50.459  50.957  62.405  1.00  0.00     0.003 C 
ATOM      6  C   UNL     1      50.519  52.318  61.717  1.00  0.00     0.004 C 
ENDBRANCH   1   5
TORSDOF 2
ENDMDL
MODEL 5
REMARK VINA RESULT:    -2.275     12.997     13.463
REMARK INTER + INTRA:          -2.580
REMARK INTER:                  -2.550
REMARK INTRA:                  -0.030
REMARK UNBOUND:                -0.038
REMARK SMILES CCCC(=O)[O-]
REMARK SMILES IDX 3 1 4 2 5 3 6 4 2 5 1 6
REMARK H PARENT
REMARK Flexibility Score: inf
ROOT
ATOM      1  C   UNL     1      52.425  53.225  49.136  1.00  0.00     0.052 C 
ENDROOT
BRANCH   1   2
ATOM      2  C   UNL     1      52.198  52.451  50.395  1.00  0.00     0.041 C 
ATOM      3  O   UNL     1      51.611  52.987  51.372  1.00  0.00    -0.550 OA
ATOM      4  O   UNL     1      52.592  51.121  50.475  1.00  0.00    -0.550 OA
ENDBRANCH   1   2
BRANCH   1   5
ATOM      5  C   UNL     1      52.725  52.277  47.971  1.00  0.00     0.003 C 
ATOM      6  C   UNL     1      53.996  52.692  47.236  1.00  0.00     0.004 C 
ENDBRANCH   1   5
TORSDOF 2
ENDMDL
MODEL 6
REMARK VINA RESULT:    -2.250     12.173     12.728
REMARK INTER + INTRA:          -2.551
REMARK INTER:                  -2.541
REMARK INTRA:                  -0.010
REMARK UNBOUND:                -0.038
REMARK SMILES CCCC(=O)[O-]
REMARK SMILES IDX 3 1 4 2 5 3 6 4 2 5 1 6
REMARK H PARENT
REMARK Flexibility Score: inf
ROOT
ATOM      1  C   UNL     1      51.961  52.501  51.033  1.00  0.00     0.052 C 
ENDROOT
BRANCH   1   2
ATOM      2  C   UNL     1      52.338  53.883  50.605  1.00  0.00     0.041 C 
ATOM      3  O   UNL     1      52.792  54.086  49.448  1.00  0.00    -0.550 OA
ATOM      4  O   UNL     1      52.144  54.955  51.466  1.00  0.00    -0.550 OA
ENDBRANCH   1   2
BRANCH   1   5
ATOM      5  C   UNL     1      52.779  51.460  50.263  1.00  0.00     0.003 C 
ATOM      6  C   UNL     1      52.768  50.112  50.978  1.00  0.00     0.004 C 
ENDBRANCH   1   5
TORSDOF 2
ENDMDL
MODEL 7
REMARK VINA RESULT:    -2.245     17.297     17.799
REMARK INTER + INTRA:          -2.545
REMARK INTER:                  -2.521
REMARK INTRA:                  -0.025
REMARK UNBOUND:                -0.038
REMARK SMILES CCCC(=O)[O-]
REMARK SMILES IDX 3 1 4 2 5 3 6 4 2 5 1 6
REMARK H PARENT
REMARK Flexibility Score: inf
ROOT
ATOM      1  C   UNL     1      52.437  56.236  46.113  1.00  0.00     0.052 C 
ENDROOT
BRANCH   1   2
ATOM      2  C   UNL     1      53.187  55.002  46.503  1.00  0.00     0.041 C 
ATOM      3  O   UNL     1      54.177  54.621  45.824  1.00  0.00    -0.550 OA
ATOM      4  O   UNL     1      52.823  54.298  47.643  1.00  0.00    -0.550 OA
ENDBRANCH   1   2
BRANCH   1   5
ATOM      5  C   UNL     1      52.637  56.536  44.624  1.00  0.00     0.003 C 
ATOM      6  C   UNL     1      51.306  56.535  43.879  1.00  0.00     0.004 C 
ENDBRANCH   1   5
TORSDOF 2
ENDMDL
MODEL 8
REMARK VINA RESULT:    -2.220      2.096      3.321
REMARK INTER + INTRA:          -2.518
REMARK INTER:                  -2.507
REMARK INTRA:                  -0.011
REMARK UNBOUND:                -0.038
REMARK SMILES CCCC(=O)[O-]
REMARK SMILES IDX 3 1 4 2 5 3 6 4 2 5 1 6
REMARK H PARENT
REMARK Flexibility Score: inf
ROOT
ATOM      1  C   UNL     1      50.636  48.394  61.172  1.00  0.00     0.052 C 
ENDROOT
BRANCH   1   2
ATOM      2  C   UNL     1      50.124  49.488  62.054  1.00  0.00     0.041 C 
ATOM      3  O   UNL     1      50.113  50.679  61.645  1.00  0.00    -0.550 OA
ATOM      4  O   UNL     1      49.615  49.187  63.311  1.00  0.00    -0.550 OA
ENDBRANCH   1   2
BRANCH   1   5
ATOM      5  C   UNL     1      51.090  47.197  62.013  1.00  0.00     0.003 C 
ATOM      6  C   UNL     1      51.253  45.949  61.150  1.00  0.00     0.004 C 
ENDBRANCH   1   5
TORSDOF 2
ENDMDL
MODEL 9
REMARK VINA RESULT:    -2.197     12.750     13.290
REMARK INTER + INTRA:          -2.492
REMARK INTER:                  -2.454
REMARK INTRA:                  -0.038
REMARK UNBOUND:                -0.038
REMARK SMILES CCCC(=O)[O-]
REMARK SMILES IDX 3 1 4 2 5 3 6 4 2 5 1 6
REMARK H PARENT
REMARK Flexibility Score: inf
ROOT
ATOM      1  C   UNL     1      52.363  53.263  49.691  1.00  0.00     0.052 C 
ENDROOT
BRANCH   1   2
ATOM      2  C   UNL     1      52.912  52.174  48.824  1.00  0.00     0.041 C 
ATOM      3  O   UNL     1      52.746  52.214  47.576  1.00  0.00    -0.550 OA
ATOM      4  O   UNL     1      53.649  51.141  49.388  1.00  0.00    -0.550 OA
ENDBRANCH   1   2
BRANCH   1   5
ATOM      5  C   UNL     1      51.954  52.703  51.056  1.00  0.00     0.003 C 
ATOM      6  C   UNL     1      52.767  53.341  52.178  1.00  0.00     0.004 C 
ENDBRANCH   1   5
TORSDOF 2
ENDMDL
