MODEL 1
REMARK VINA RESULT:    -4.041      0.000      0.000
REMARK INTER + INTRA:          -4.159
REMARK INTER:                  -4.159
REMARK INTRA:                   0.000
REMARK UNBOUND:                 0.000
REMARK SMILES Oc1ccc2[nH]ccc2c1
REMARK SMILES IDX 3 1 4 2 5 3 9 4 8 5 7 6 6 7 10 8 2 9 1 11
REMARK H PARENT 6 10 1 12
REMARK Flexibility Score: inf
ROOT
ATOM      1  C   UNL     1      78.389  81.081  89.071  1.00  0.00     0.048 A 
ATOM      2  C   UNL     1      77.903  80.692  87.809  1.00  0.00     0.030 A 
ATOM      3  C   UNL     1      76.771  79.879  87.771  1.00  0.00     0.046 A 
ATOM      4  C   UNL     1      76.143  79.466  88.916  1.00  0.00     0.003 A 
ATOM      5  C   UNL     1      75.071  78.685  88.538  1.00  0.00     0.028 A 
ATOM      6  C   UNL     1      75.108  78.667  87.148  1.00  0.00     0.083 A 
ATOM      7  N   UNL     1      76.148  79.396  86.684  1.00  0.00    -0.361 N 
ATOM      8  C   UNL     1      76.597  79.834  90.180  1.00  0.00     0.056 A 
ATOM      9  C   UNL     1      77.741  80.657  90.255  1.00  0.00     0.116 A 
ATOM     10  H   UNL     1      76.409  79.550  85.684  1.00  0.00     0.166 HD
ENDROOT
BRANCH   9  11
ATOM     11  O   UNL     1      78.243  81.057  91.490  1.00  0.00    -0.508 OA
ATOM     12  H   UNL     1      77.796  80.782  92.357  1.00  0.00     0.293 HD
ENDBRANCH   9  11
TORSDOF 1
ENDMDL
MODEL 2
REMARK VINA RESULT:    -4.040     10.574     11.507
REMARK INTER + INTRA:          -4.158
REMARK INTER:                  -4.158
REMARK INTRA:                   0.000
REMARK UNBOUND:                 0.000
REMARK SMILES Oc1ccc2[nH]ccc2c1
REMARK SMILES IDX 3 1 4 2 5 3 9 4 8 5 7 6 6 7 10 8 2 9 1 11
REMARK H PARENT 6 10 1 12
REMARK Flexibility Score: inf
ROOT
ATOM      1  C   UNL     1      86.626  78.413  89.153  1.00  0.00     0.048 A 
ATOM      2  C   UNL     1      86.978  77.953  87.870  1.00  0.00     0.030 A 
ATOM      3  C   UNL     1      87.748  76.794  87.784  1.00  0.00     0.046 A 
ATOM      4  C   UNL     1      88.156  76.116  88.902  1.00  0.00     0.003 A 
ATOM      5  C   UNL     1      88.891  75.030  88.479  1.00  0.00     0.028 A 
ATOM      6  C   UNL     1      88.889  75.108  87.090  1.00  0.00     0.083 A 
ATOM      7  N   UNL     1      88.191  76.188  86.670  1.00  0.00    -0.361 N 
ATOM      8  C   UNL     1      87.824  76.544  90.185  1.00  0.00     0.056 A 
ATOM      9  C   UNL     1      87.045  77.714  90.309  1.00  0.00     0.116 A 
ATOM     10  H   UNL     1      88.031  76.485  85.682  1.00  0.00     0.166 HD
ENDROOT
BRANCH   9  11
ATOM     11  O   UNL     1      86.683  78.191  91.565  1.00  0.00    -0.508 OA
ATOM     12  H   UNL     1      86.647  79.184  91.765  1.00  0.00     0.293 HD
ENDBRANCH   9  11
TORSDOF 1
ENDMDL
MODEL 3
REMARK VINA RESULT:    -4.038     10.585     11.573
REMARK INTER + INTRA:          -4.156
REMARK INTER:                  -4.156
REMARK INTRA:                   0.000
REMARK UNBOUND:                 0.000
REMARK SMILES Oc1ccc2[nH]ccc2c1
REMARK SMILES IDX 3 1 4 2 5 3 9 4 8 5 7 6 6 7 10 8 2 9 1 11
REMARK H PARENT 6 10 1 12
REMARK Flexibility Score: inf
ROOT
ATOM      1  C   UNL     1      81.055  89.269  89.091  1.00  0.00     0.048 A 
ATOM      2  C   UNL     1      80.695  89.743  87.815  1.00  0.00     0.030 A 
ATOM      3  C   UNL     1      79.925  90.903  87.746  1.00  0.00     0.046 A 
ATOM      4  C   UNL     1      79.525  91.569  88.874  1.00  0.00     0.003 A 
ATOM      5  C   UNL     1      78.788  92.660  88.467  1.00  0.00     0.028 A 
ATOM      6  C   UNL     1      78.781  92.596  87.078  1.00  0.00     0.083 A 
ATOM      7  N   UNL     1      79.475  91.521  86.642  1.00  0.00    -0.361 N 
ATOM      8  C   UNL     1      79.864  91.127  90.151  1.00  0.00     0.056 A 
ATOM      9  C   UNL     1      80.643  89.956  90.257  1.00  0.00     0.116 A 
ATOM     10  H   UNL     1      79.629  91.234  85.650  1.00  0.00     0.166 HD
ENDROOT
BRANCH   9  11
ATOM     11  O   UNL     1      81.013  89.465  91.506  1.00  0.00    -0.508 OA
ATOM     12  H   UNL     1      80.399  88.862  92.041  1.00  0.00     0.293 HD
ENDBRANCH   9  11
TORSDOF 1
ENDMDL
MODEL 4
REMARK VINA RESULT:    -4.035     14.583     16.334
REMARK INTER + INTRA:          -4.153
REMARK INTER:                  -4.153
REMARK INTRA:                   0.000
REMARK UNBOUND:                 0.000
REMARK SMILES Oc1ccc2[nH]ccc2c1
REMARK SMILES IDX 3 1 4 2 5 3 9 4 8 5 7 6 6 7 10 8 2 9 1 11
REMARK H PARENT 6 10 1 12
REMARK Flexibility Score: inf
ROOT
ATOM      1  C   UNL     1      89.297  86.592  89.104  1.00  0.00     0.048 A 
ATOM      2  C   UNL     1      89.778  86.998  87.845  1.00  0.00     0.030 A 
ATOM      3  C   UNL     1      90.908  87.813  87.813  1.00  0.00     0.046 A 
ATOM      4  C   UNL     1      91.538  88.215  88.961  1.00  0.00     0.003 A 
ATOM      5  C   UNL     1      92.606  89.003  88.589  1.00  0.00     0.028 A 
ATOM      6  C   UNL     1      92.565  89.038  87.199  1.00  0.00     0.083 A 
ATOM      7  N   UNL     1      91.525  88.311  86.729  1.00  0.00    -0.361 N 
ATOM      8  C   UNL     1      91.089  87.830  90.222  1.00  0.00     0.056 A 
ATOM      9  C   UNL     1      89.947  87.004  90.290  1.00  0.00     0.116 A 
ATOM     10  H   UNL     1      91.262  88.168  85.729  1.00  0.00     0.166 HD
ENDROOT
BRANCH   9  11
ATOM     11  O   UNL     1      89.451  86.588  91.523  1.00  0.00    -0.508 OA
ATOM     12  H   UNL     1      90.069  86.324  92.281  1.00  0.00     0.293 HD
ENDBRANCH   9  11
TORSDOF 1
ENDMDL
MODEL 5
REMARK VINA RESULT:    -3.877      2.422      3.563
REMARK INTER + INTRA:          -3.991
REMARK INTER:                  -3.991
REMARK INTRA:                   0.000
REMARK UNBOUND:                 0.000
REMARK SMILES Oc1ccc2[nH]ccc2c1
REMARK SMILES IDX 3 1 4 2 5 3 9 4 8 5 7 6 6 7 10 8 2 9 1 11
REMARK H PARENT 6 10 1 12
REMARK Flexibility Score: inf
ROOT
ATOM      1  C   UNL     1      76.349  80.020  87.066  1.00  0.00     0.048 A 
ATOM      2  C   UNL     1      77.597  80.571  87.410  1.00  0.00     0.030 A 
ATOM      3  C   UNL     1      77.954  80.582  88.758  1.00  0.00     0.046 A 
ATOM      4  C   UNL     1      77.126  80.076  89.725  1.00  0.00     0.003 A 
ATOM      5  C   UNL     1      77.764  80.236  90.936  1.00  0.00     0.028 A 
ATOM      6  C   UNL     1      78.976  80.846  90.631  1.00  0.00     0.083 A 
ATOM      7  N   UNL     1      79.087  81.057  89.300  1.00  0.00    -0.361 N 
ATOM      8  C   UNL     1      75.886  79.522  89.418  1.00  0.00     0.056 A 
ATOM      9  C   UNL     1      75.494  79.496  88.063  1.00  0.00     0.116 A 
ATOM     10  H   UNL     1      79.891  81.497  88.800  1.00  0.00     0.166 HD
ENDROOT
BRANCH   9  11
ATOM     11  O   UNL     1      74.265  78.955  87.694  1.00  0.00    -0.508 OA
ATOM     12  H   UNL     1      73.495  78.896  88.350  1.00  0.00     0.293 HD
ENDBRANCH   9  11
TORSDOF 1
ENDMDL
MODEL 6
REMARK VINA RESULT:    -3.875     14.512     15.931
REMARK INTER + INTRA:          -3.989
REMARK INTER:                  -3.989
REMARK INTRA:                   0.000
REMARK UNBOUND:                 0.000
REMARK SMILES Oc1ccc2[nH]ccc2c1
REMARK SMILES IDX 3 1 4 2 5 3 9 4 8 5 7 6 6 7 10 8 2 9 1 11
REMARK H PARENT 6 10 1 12
REMARK Flexibility Score: inf
ROOT
ATOM      1  C   UNL     1      91.273  87.545  87.069  1.00  0.00     0.048 A 
ATOM      2  C   UNL     1      90.008  87.052  87.439  1.00  0.00     0.030 A 
ATOM      3  C   UNL     1      89.668  87.081  88.791  1.00  0.00     0.046 A 
ATOM      4  C   UNL     1      90.527  87.569  89.738  1.00  0.00     0.003 A 
ATOM      5  C   UNL     1      89.899  87.457  90.960  1.00  0.00     0.028 A 
ATOM      6  C   UNL     1      88.659  86.892  90.680  1.00  0.00     0.083 A 
ATOM      7  N   UNL     1      88.523  86.662  89.354  1.00  0.00    -0.361 N 
ATOM      8  C   UNL     1      91.786  88.065  89.406  1.00  0.00     0.056 A 
ATOM      9  C   UNL     1      92.161  88.051  88.046  1.00  0.00     0.116 A 
ATOM     10  H   UNL     1      87.695  86.247  88.872  1.00  0.00     0.166 HD
ENDROOT
BRANCH   9  11
ATOM     11  O   UNL     1      93.407  88.533  87.654  1.00  0.00    -0.508 OA
ATOM     12  H   UNL     1      93.829  88.255  86.776  1.00  0.00     0.293 HD
ENDBRANCH   9  11
TORSDOF 1
ENDMDL
MODEL 7
REMARK VINA RESULT:    -3.849     10.620     11.662
REMARK INTER + INTRA:          -3.962
REMARK INTER:                  -3.962
REMARK INTRA:                   0.000
REMARK UNBOUND:                 0.000
REMARK SMILES Oc1ccc2[nH]ccc2c1
REMARK SMILES IDX 3 1 4 2 5 3 9 4 8 5 7 6 6 7 10 8 2 9 1 11
REMARK H PARENT 6 10 1 12
REMARK Flexibility Score: inf
ROOT
ATOM      1  C   UNL     1      79.874  91.503  87.072  1.00  0.00     0.048 A 
ATOM      2  C   UNL     1      80.555  90.303  87.346  1.00  0.00     0.030 A 
ATOM      3  C   UNL     1      80.633  89.888  88.675  1.00  0.00     0.046 A 
ATOM      4  C   UNL     1      80.071  90.616  89.690  1.00  0.00     0.003 A 
ATOM      5  C   UNL     1      80.323  89.944  90.866  1.00  0.00     0.028 A 
ATOM      6  C   UNL     1      81.044  88.815  90.492  1.00  0.00     0.083 A 
ATOM      7  N   UNL     1      81.233  88.785  89.153  1.00  0.00    -0.361 N 
ATOM      8  C   UNL     1      79.389  91.807  89.452  1.00  0.00     0.056 A 
ATOM      9  C   UNL     1      79.291  92.255  88.118  1.00  0.00     0.116 A 
ATOM     10  H   UNL     1      81.739  88.053  88.607  1.00  0.00     0.166 HD
ENDROOT
BRANCH   9  11
ATOM     11  O   UNL     1      78.622  93.439  87.819  1.00  0.00    -0.508 OA
ATOM     12  H   UNL     1      79.060  94.171  87.273  1.00  0.00     0.293 HD
ENDBRANCH   9  11
TORSDOF 1
ENDMDL
MODEL 8
REMARK VINA RESULT:    -3.817     10.674     11.501
REMARK INTER + INTRA:          -3.929
REMARK INTER:                  -3.929
REMARK INTRA:                   0.000
REMARK UNBOUND:                 0.000
REMARK SMILES Oc1ccc2[nH]ccc2c1
REMARK SMILES IDX 3 1 4 2 5 3 9 4 8 5 7 6 6 7 10 8 2 9 1 11
REMARK H PARENT 6 10 1 12
REMARK Flexibility Score: inf
ROOT
ATOM      1  C   UNL     1      87.585  76.389  87.040  1.00  0.00     0.048 A 
ATOM      2  C   UNL     1      87.001  77.625  87.375  1.00  0.00     0.030 A 
ATOM      3  C   UNL     1      86.997  77.999  88.718  1.00  0.00     0.046 A 
ATOM      4  C   UNL     1      87.539  77.200  89.689  1.00  0.00     0.003 A 
ATOM      5  C   UNL     1      87.375  77.848  90.894  1.00  0.00     0.028 A 
ATOM      6  C   UNL     1      86.726  79.038  90.581  1.00  0.00     0.083 A 
ATOM      7  N   UNL     1      86.496  79.125  89.251  1.00  0.00    -0.361 N 
ATOM      8  C   UNL     1      88.125  75.972  89.391  1.00  0.00     0.056 A 
ATOM      9  C   UNL     1      88.146  75.563  88.041  1.00  0.00     0.116 A 
ATOM     10  H   UNL     1      86.026  79.909  88.746  1.00  0.00     0.166 HD
ENDROOT
BRANCH   9  11
ATOM     11  O   UNL     1      88.717  74.345  87.682  1.00  0.00    -0.508 OA
ATOM     12  H   UNL     1      88.469  73.484  88.154  1.00  0.00     0.293 HD
ENDBRANCH   9  11
TORSDOF 1
ENDMDL
MODEL 9
REMARK VINA RESULT:    -3.691      3.310      4.242
REMARK INTER + INTRA:          -3.799
REMARK INTER:                  -3.799
REMARK INTRA:                   0.000
REMARK UNBOUND:                 0.000
REMARK SMILES Oc1ccc2[nH]ccc2c1
REMARK SMILES IDX 3 1 4 2 5 3 9 4 8 5 7 6 6 7 10 8 2 9 1 11
REMARK H PARENT 6 10 1 12
REMARK Flexibility Score: inf
ROOT
ATOM      1  C   UNL     1      75.436  78.216  86.602  1.00  0.00     0.048 A 
ATOM      2  C   UNL     1      75.729  76.882  86.264  1.00  0.00     0.030 A 
ATOM      3  C   UNL     1      75.730  75.937  87.289  1.00  0.00     0.046 A 
ATOM      4  C   UNL     1      75.455  76.282  88.586  1.00  0.00     0.003 A 
ATOM      5  C   UNL     1      75.537  75.133  89.342  1.00  0.00     0.028 A 
ATOM      6  C   UNL     1      75.864  74.126  88.440  1.00  0.00     0.083 A 
ATOM      7  N   UNL     1      75.982  74.622  87.187  1.00  0.00    -0.361 N 
ATOM      8  C   UNL     1      75.160  77.592  88.953  1.00  0.00     0.056 A 
ATOM      9  C   UNL     1      75.151  78.574  87.940  1.00  0.00     0.116 A 
ATOM     10  H   UNL     1      76.220  74.088  86.322  1.00  0.00     0.166 HD
ENDROOT
BRANCH   9  11
ATOM     11  O   UNL     1      74.863  79.902  88.247  1.00  0.00    -0.508 OA
ATOM     12  H   UNL     1      74.254  80.146  89.018  1.00  0.00     0.293 HD
ENDBRANCH   9  11
TORSDOF 1
ENDMDL
