MODEL 1
REMARK VINA RESULT:    -6.845      0.000      0.000
REMARK INTER + INTRA:          -8.774
REMARK INTER:                  -8.446
REMARK INTRA:                  -0.329
REMARK UNBOUND:                -0.329
REMARK SMILES O=C1c2c(O)cc(O)cc2O[C@@H](c2cc(O)c(O)c(O)c2)[C@H]1O
REMARK SMILES IDX 12 1 22 2 2 3 1 4 3 5 4 6 6 7 7 8 9 9 10 10 11 11 13 12
REMARK SMILES IDX 14 13 15 14 21 15 17 16 19 17 16 18 18 20 20 22 23 24 5 26
REMARK SMILES IDX 8 28
REMARK H PARENT 16 19 18 21 20 23 23 25 5 27 8 29
REMARK Flexibility Score: inf
ROOT
ATOM      1  C   UNL     1      45.096   8.140  19.085  1.00  0.00     0.240 C 
ATOM      2  C   UNL     1      45.139   9.381  18.164  1.00  0.00     0.231 C 
ATOM      3  C   UNL     1      45.036   8.909  16.738  1.00  0.00     0.202 C 
ATOM      4  O   UNL     1      44.198   9.445  15.967  1.00  0.00    -0.291 OA
ATOM      5  C   UNL     1      45.871   7.763  16.305  1.00  0.00     0.105 A 
ATOM      6  C   UNL     1      46.190   7.470  14.954  1.00  0.00     0.133 A 
ATOM      7  C   UNL     1      46.941   6.327  14.655  1.00  0.00     0.093 A 
ATOM      8  C   UNL     1      47.418   5.496  15.672  1.00  0.00     0.123 A 
ATOM      9  C   UNL     1      47.141   5.805  17.008  1.00  0.00     0.093 A 
ATOM     10  C   UNL     1      46.369   6.924  17.326  1.00  0.00     0.138 A 
ATOM     11  O   UNL     1      46.099   7.204  18.673  1.00  0.00    -0.481 OA
ENDROOT
BRANCH   1  12
ATOM     12  C   UNL     1      45.243   8.415  20.574  1.00  0.00     0.003 A 
ATOM     13  C   UNL     1      46.512   8.253  21.159  1.00  0.00     0.058 A 
ATOM     14  C   UNL     1      46.707   8.450  22.529  1.00  0.00     0.161 A 
ATOM     15  C   UNL     1      44.157   8.748  21.409  1.00  0.00     0.058 A 
ATOM     16  C   UNL     1      45.625   8.816  23.345  1.00  0.00     0.200 A 
ATOM     17  C   UNL     1      44.346   8.963  22.782  1.00  0.00     0.161 A 
BRANCH  14  18
ATOM     18  O   UNL     1      47.985   8.279  23.060  1.00  0.00    -0.504 OA
ATOM     19  H   UNL     1      48.233   7.472  23.618  1.00  0.00     0.293 HD
ENDBRANCH  14  18
BRANCH  16  20
ATOM     20  O   UNL     1      45.830   9.027  24.710  1.00  0.00    -0.502 OA
ATOM     21  H   UNL     1      45.388   8.452  25.419  1.00  0.00     0.293 HD
ENDBRANCH  16  20
BRANCH  17  22
ATOM     22  O   UNL     1      43.268   9.326  23.588  1.00  0.00    -0.504 OA
ATOM     23  H   UNL     1      42.460   8.726  23.697  1.00  0.00     0.293 HD
ENDBRANCH  17  22
ENDBRANCH   1  12
BRANCH   2  24
ATOM     24  O   UNL     1      46.351  10.067  18.336  1.00  0.00    -0.381 OA
ATOM     25  H   UNL     1      47.048   9.377  18.487  1.00  0.00     0.211 HD
ENDBRANCH   2  24
BRANCH   6  26
ATOM     26  O   UNL     1      45.815   8.289  13.886  1.00  0.00    -0.507 OA
ATOM     27  H   UNL     1      46.336   9.098  13.578  1.00  0.00     0.293 HD
ENDBRANCH   6  26
BRANCH   8  28
ATOM     28  O   UNL     1      48.171   4.369  15.346  1.00  0.00    -0.508 OA
ATOM     29  H   UNL     1      49.157   4.439  15.127  1.00  0.00     0.293 HD
ENDBRANCH   8  28
TORSDOF 7
ENDMDL
MODEL 2
REMARK VINA RESULT:    -6.841      0.211      1.760
REMARK INTER + INTRA:          -8.769
REMARK INTER:                  -8.467
REMARK INTRA:                  -0.302
REMARK UNBOUND:                -0.329
REMARK SMILES O=C1c2c(O)cc(O)cc2O[C@@H](c2cc(O)c(O)c(O)c2)[C@H]1O
REMARK SMILES IDX 12 1 22 2 2 3 1 4 3 5 4 6 6 7 7 8 9 9 10 10 11 11 13 12
REMARK SMILES IDX 14 13 15 14 21 15 17 16 19 17 16 18 18 20 20 22 23 24 5 26
REMARK SMILES IDX 8 28
REMARK H PARENT 16 19 18 21 20 23 23 25 5 27 8 29
REMARK Flexibility Score: inf
ROOT
ATOM      1  C   UNL     1      45.073   8.120  19.187  1.00  0.00     0.240 C 
ATOM      2  C   UNL     1      45.017   9.375  18.287  1.00  0.00     0.231 C 
ATOM      3  C   UNL     1      44.877   8.922  16.859  1.00  0.00     0.202 C 
ATOM      4  O   UNL     1      43.984   9.429  16.132  1.00  0.00    -0.291 OA
ATOM      5  C   UNL     1      45.747   7.825  16.371  1.00  0.00     0.105 A 
ATOM      6  C   UNL     1      46.023   7.570  15.003  1.00  0.00     0.133 A 
ATOM      7  C   UNL     1      46.815   6.469  14.653  1.00  0.00     0.093 A 
ATOM      8  C   UNL     1      47.373   5.646  15.635  1.00  0.00     0.123 A 
ATOM      9  C   UNL     1      47.138   5.919  16.986  1.00  0.00     0.093 A 
ATOM     10  C   UNL     1      46.327   6.994  17.355  1.00  0.00     0.138 A 
ATOM     11  O   UNL     1      46.101   7.240  18.717  1.00  0.00    -0.481 OA
ENDROOT
BRANCH   1  12
ATOM     12  C   UNL     1      45.269   8.377  20.674  1.00  0.00     0.003 A 
ATOM     13  C   UNL     1      44.134   8.655  21.456  1.00  0.00     0.058 A 
ATOM     14  C   UNL     1      44.249   8.941  22.820  1.00  0.00     0.161 A 
ATOM     15  C   UNL     1      46.537   8.427  21.288  1.00  0.00     0.058 A 
ATOM     16  C   UNL     1      45.513   8.953  23.429  1.00  0.00     0.200 A 
ATOM     17  C   UNL     1      46.660   8.696  22.659  1.00  0.00     0.161 A 
BRANCH  14  18
ATOM     18  O   UNL     1      43.093   9.208  23.553  1.00  0.00    -0.504 OA
ATOM     19  H   UNL     1      42.554  10.054  23.420  1.00  0.00     0.293 HD
ENDBRANCH  14  18
BRANCH  16  20
ATOM     20  O   UNL     1      45.620   9.222  24.795  1.00  0.00    -0.502 OA
ATOM     21  H   UNL     1      46.430   8.949  25.340  1.00  0.00     0.293 HD
ENDBRANCH  16  20
BRANCH  17  22
ATOM     22  O   UNL     1      47.919   8.706  23.259  1.00  0.00    -0.504 OA
ATOM     23  H   UNL     1      48.064   8.350  24.196  1.00  0.00     0.293 HD
ENDBRANCH  17  22
ENDBRANCH   1  12
BRANCH   2  24
ATOM     24  O   UNL     1      46.202  10.117  18.422  1.00  0.00    -0.381 OA
ATOM     25  H   UNL     1      46.093  10.928  17.860  1.00  0.00     0.211 HD
ENDBRANCH   2  24
BRANCH   6  26
ATOM     26  O   UNL     1      45.565   8.387  13.966  1.00  0.00    -0.507 OA
ATOM     27  H   UNL     1      44.595   8.478  13.699  1.00  0.00     0.293 HD
ENDBRANCH   6  26
BRANCH   8  28
ATOM     28  O   UNL     1      48.165   4.562  15.257  1.00  0.00    -0.508 OA
ATOM     29  H   UNL     1      48.534   4.482  14.317  1.00  0.00     0.293 HD
ENDBRANCH   8  28
TORSDOF 7
ENDMDL
MODEL 3
REMARK VINA RESULT:    -6.304      1.831      7.535
REMARK INTER + INTRA:          -8.106
REMARK INTER:                  -7.828
REMARK INTRA:                  -0.279
REMARK UNBOUND:                -0.329
REMARK SMILES O=C1c2c(O)cc(O)cc2O[C@@H](c2cc(O)c(O)c(O)c2)[C@H]1O
REMARK SMILES IDX 12 1 22 2 2 3 1 4 3 5 4 6 6 7 7 8 9 9 10 10 11 11 13 12
REMARK SMILES IDX 14 13 15 14 21 15 17 16 19 17 16 18 18 20 20 22 23 24 5 26
REMARK SMILES IDX 8 28
REMARK H PARENT 16 19 18 21 20 23 23 25 5 27 8 29
REMARK Flexibility Score: inf
ROOT
ATOM      1  C   UNL     1      45.656   8.453  21.162  1.00  0.00     0.240 C 
ATOM      2  C   UNL     1      46.498   9.700  21.510  1.00  0.00     0.231 C 
ATOM      3  C   UNL     1      46.443   9.901  23.001  1.00  0.00     0.202 C 
ATOM      4  O   UNL     1      47.511  10.073  23.643  1.00  0.00    -0.291 OA
ATOM      5  C   UNL     1      45.130   9.805  23.684  1.00  0.00     0.105 A 
ATOM      6  C   UNL     1      44.851  10.354  24.963  1.00  0.00     0.133 A 
ATOM      7  C   UNL     1      43.590  10.154  25.538  1.00  0.00     0.093 A 
ATOM      8  C   UNL     1      42.590   9.461  24.851  1.00  0.00     0.123 A 
ATOM      9  C   UNL     1      42.848   8.956  23.573  1.00  0.00     0.093 A 
ATOM     10  C   UNL     1      44.108   9.118  22.993  1.00  0.00     0.138 A 
ATOM     11  O   UNL     1      44.342   8.593  21.714  1.00  0.00    -0.481 OA
ENDROOT
BRANCH   1  12
ATOM     12  C   UNL     1      45.547   8.118  19.681  1.00  0.00     0.003 A 
ATOM     13  C   UNL     1      46.540   7.304  19.108  1.00  0.00     0.058 A 
ATOM     14  C   UNL     1      46.522   6.993  17.746  1.00  0.00     0.161 A 
ATOM     15  C   UNL     1      44.546   8.647  18.841  1.00  0.00     0.058 A 
ATOM     16  C   UNL     1      45.500   7.496  16.925  1.00  0.00     0.200 A 
ATOM     17  C   UNL     1      44.510   8.327  17.477  1.00  0.00     0.161 A 
BRANCH  14  18
ATOM     18  O   UNL     1      47.528   6.179  17.226  1.00  0.00    -0.504 OA
ATOM     19  H   UNL     1      47.483   5.169  17.274  1.00  0.00     0.293 HD
ENDBRANCH  14  18
BRANCH  16  20
ATOM     20  O   UNL     1      45.478   7.168  15.568  1.00  0.00    -0.502 OA
ATOM     21  H   UNL     1      44.712   6.653  15.148  1.00  0.00     0.293 HD
ENDBRANCH  16  20
BRANCH  17  22
ATOM     22  O   UNL     1      43.492   8.830  16.667  1.00  0.00    -0.504 OA
ATOM     23  H   UNL     1      43.646   9.037  15.687  1.00  0.00     0.293 HD
ENDBRANCH  17  22
ENDBRANCH   1  12
BRANCH   2  24
ATOM     24  O   UNL     1      45.969  10.833  20.872  1.00  0.00    -0.381 OA
ATOM     25  H   UNL     1      46.742  11.353  20.531  1.00  0.00     0.211 HD
ENDBRANCH   2  24
BRANCH   6  26
ATOM     26  O   UNL     1      45.771  11.121  25.682  1.00  0.00    -0.507 OA
ATOM     27  H   UNL     1      45.527  11.920  26.249  1.00  0.00     0.293 HD
ENDBRANCH   6  26
BRANCH   8  28
ATOM     28  O   UNL     1      41.341   9.285  25.445  1.00  0.00    -0.508 OA
ATOM     29  H   UNL     1      40.742  10.074  25.657  1.00  0.00     0.293 HD
ENDBRANCH   8  28
TORSDOF 7
ENDMDL
MODEL 4
REMARK VINA RESULT:    -6.271      1.868      7.724
REMARK INTER + INTRA:          -8.066
REMARK INTER:                  -7.761
REMARK INTRA:                  -0.305
REMARK UNBOUND:                -0.329
REMARK SMILES O=C1c2c(O)cc(O)cc2O[C@@H](c2cc(O)c(O)c(O)c2)[C@H]1O
REMARK SMILES IDX 12 1 22 2 2 3 1 4 3 5 4 6 6 7 7 8 9 9 10 10 11 11 13 12
REMARK SMILES IDX 14 13 15 14 21 15 17 16 19 17 16 18 18 20 20 22 23 24 5 26
REMARK SMILES IDX 8 28
REMARK H PARENT 16 19 18 21 20 23 23 25 5 27 8 29
REMARK Flexibility Score: inf
ROOT
ATOM      1  C   UNL     1      45.752   8.327  21.287  1.00  0.00     0.240 C 
ATOM      2  C   UNL     1      46.608   9.556  21.670  1.00  0.00     0.231 C 
ATOM      3  C   UNL     1      46.485   9.768  23.155  1.00  0.00     0.202 C 
ATOM      4  O   UNL     1      47.524   9.918  23.848  1.00  0.00    -0.291 OA
ATOM      5  C   UNL     1      45.138   9.709  23.774  1.00  0.00     0.105 A 
ATOM      6  C   UNL     1      44.811  10.273  25.034  1.00  0.00     0.133 A 
ATOM      7  C   UNL     1      43.519  10.108  25.549  1.00  0.00     0.093 A 
ATOM      8  C   UNL     1      42.537   9.436  24.817  1.00  0.00     0.123 A 
ATOM      9  C   UNL     1      42.844   8.915  23.556  1.00  0.00     0.093 A 
ATOM     10  C   UNL     1      44.134   9.043  23.038  1.00  0.00     0.138 A 
ATOM     11  O   UNL     1      44.417   8.504  21.774  1.00  0.00    -0.481 OA
ENDROOT
BRANCH   1  12
ATOM     12  C   UNL     1      45.708   7.986  19.805  1.00  0.00     0.003 A 
ATOM     13  C   UNL     1      44.635   8.479  19.040  1.00  0.00     0.058 A 
ATOM     14  C   UNL     1      44.513   8.170  17.683  1.00  0.00     0.161 A 
ATOM     15  C   UNL     1      46.644   7.138  19.179  1.00  0.00     0.058 A 
ATOM     16  C   UNL     1      45.471   7.353  17.061  1.00  0.00     0.200 A 
ATOM     17  C   UNL     1      46.539   6.836  17.814  1.00  0.00     0.161 A 
BRANCH  14  18
ATOM     18  O   UNL     1      43.432   8.685  16.968  1.00  0.00    -0.504 OA
ATOM     19  H   UNL     1      42.866   8.110  16.357  1.00  0.00     0.293 HD
ENDBRANCH  14  18
BRANCH  16  20
ATOM     20  O   UNL     1      45.352   7.061  15.701  1.00  0.00    -0.502 OA
ATOM     21  H   UNL     1      45.941   6.376  15.241  1.00  0.00     0.293 HD
ENDBRANCH  16  20
BRANCH  17  22
ATOM     22  O   UNL     1      47.493   6.024  17.202  1.00  0.00    -0.504 OA
ATOM     23  H   UNL     1      47.298   5.533  16.338  1.00  0.00     0.293 HD
ENDBRANCH  17  22
ENDBRANCH   1  12
BRANCH   2  24
ATOM     24  O   UNL     1      46.139  10.698  21.001  1.00  0.00    -0.381 OA
ATOM     25  H   UNL     1      45.807  10.391  20.117  1.00  0.00     0.211 HD
ENDBRANCH   2  24
BRANCH   6  26
ATOM     26  O   UNL     1      45.714  11.022  25.793  1.00  0.00    -0.507 OA
ATOM     27  H   UNL     1      45.622  12.011  25.975  1.00  0.00     0.293 HD
ENDBRANCH   6  26
BRANCH   8  28
ATOM     28  O   UNL     1      41.256   9.294  25.351  1.00  0.00    -0.508 OA
ATOM     29  H   UNL     1      40.743  10.091  25.708  1.00  0.00     0.293 HD
ENDBRANCH   8  28
TORSDOF 7
ENDMDL
MODEL 5
REMARK VINA RESULT:    -6.083      1.601      6.982
REMARK INTER + INTRA:          -7.834
REMARK INTER:                  -8.030
REMARK INTRA:                   0.197
REMARK UNBOUND:                -0.329
REMARK SMILES O=C1c2c(O)cc(O)cc2O[C@@H](c2cc(O)c(O)c(O)c2)[C@H]1O
REMARK SMILES IDX 12 1 22 2 2 3 1 4 3 5 4 6 6 7 7 8 9 9 10 10 11 11 13 12
REMARK SMILES IDX 14 13 15 14 21 15 17 16 19 17 16 18 18 20 20 22 23 24 5 26
REMARK SMILES IDX 8 28
REMARK H PARENT 16 19 18 21 20 23 23 25 5 27 8 29
REMARK Flexibility Score: inf
ROOT
ATOM      1  C   UNL     1      45.579   8.400  17.897  1.00  0.00     0.240 C 
ATOM      2  C   UNL     1      44.160   9.009  17.845  1.00  0.00     0.231 C 
ATOM      3  C   UNL     1      44.016   9.963  19.000  1.00  0.00     0.202 C 
ATOM      4  O   UNL     1      43.578  11.124  18.793  1.00  0.00    -0.291 OA
ATOM      5  C   UNL     1      44.477   9.532  20.342  1.00  0.00     0.105 A 
ATOM      6  C   UNL     1      44.054  10.121  21.561  1.00  0.00     0.133 A 
ATOM      7  C   UNL     1      44.599   9.670  22.770  1.00  0.00     0.093 A 
ATOM      8  C   UNL     1      45.519   8.619  22.794  1.00  0.00     0.123 A 
ATOM      9  C   UNL     1      45.906   8.008  21.598  1.00  0.00     0.093 A 
ATOM     10  C   UNL     1      45.398   8.462  20.379  1.00  0.00     0.138 A 
ATOM     11  O   UNL     1      45.810   7.836  19.194  1.00  0.00    -0.481 OA
ENDROOT
BRANCH   1  12
ATOM     12  C   UNL     1      45.896   7.362  16.831  1.00  0.00     0.003 A 
ATOM     13  C   UNL     1      44.869   6.978  15.950  1.00  0.00     0.058 A 
ATOM     14  C   UNL     1      45.081   6.001  14.974  1.00  0.00     0.161 A 
ATOM     15  C   UNL     1      47.142   6.711  16.733  1.00  0.00     0.058 A 
ATOM     16  C   UNL     1      46.338   5.383  14.862  1.00  0.00     0.200 A 
ATOM     17  C   UNL     1      47.370   5.740  15.747  1.00  0.00     0.161 A 
BRANCH  14  18
ATOM     18  O   UNL     1      44.031   5.657  14.123  1.00  0.00    -0.504 OA
ATOM     19  H   UNL     1      43.471   4.826  14.267  1.00  0.00     0.293 HD
ENDBRANCH  14  18
BRANCH  16  20
ATOM     20  O   UNL     1      46.548   4.419  13.875  1.00  0.00    -0.502 OA
ATOM     21  H   UNL     1      45.783   3.975  13.380  1.00  0.00     0.293 HD
ENDBRANCH  16  20
BRANCH  17  22
ATOM     22  O   UNL     1      48.619   5.131  15.640  1.00  0.00    -0.504 OA
ATOM     23  H   UNL     1      49.406   5.603  15.213  1.00  0.00     0.293 HD
ENDBRANCH  17  22
ENDBRANCH   1  12
BRANCH   2  24
ATOM     24  O   UNL     1      43.196   7.994  17.962  1.00  0.00    -0.381 OA
ATOM     25  H   UNL     1      43.605   7.277  18.513  1.00  0.00     0.211 HD
ENDBRANCH   2  24
BRANCH   6  26
ATOM     26  O   UNL     1      43.084  11.125  21.628  1.00  0.00    -0.507 OA
ATOM     27  H   UNL     1      42.169  11.006  22.038  1.00  0.00     0.293 HD
ENDBRANCH   6  26
BRANCH   8  28
ATOM     28  O   UNL     1      46.038   8.186  24.013  1.00  0.00    -0.508 OA
ATOM     29  H   UNL     1      46.242   7.208  24.181  1.00  0.00     0.293 HD
ENDBRANCH   8  28
TORSDOF 7
ENDMDL
MODEL 6
REMARK VINA RESULT:    -6.002      1.562      6.788
REMARK INTER + INTRA:          -7.735
REMARK INTER:                  -7.721
REMARK INTRA:                  -0.013
REMARK UNBOUND:                -0.329
REMARK SMILES O=C1c2c(O)cc(O)cc2O[C@@H](c2cc(O)c(O)c(O)c2)[C@H]1O
REMARK SMILES IDX 12 1 22 2 2 3 1 4 3 5 4 6 6 7 7 8 9 9 10 10 11 11 13 12
REMARK SMILES IDX 14 13 15 14 21 15 17 16 19 17 16 18 18 20 20 22 23 24 5 26
REMARK SMILES IDX 8 28
REMARK H PARENT 16 19 18 21 20 23 23 25 5 27 8 29
REMARK Flexibility Score: inf
ROOT
ATOM      1  C   UNL     1      45.554   8.341  17.956  1.00  0.00     0.240 C 
ATOM      2  C   UNL     1      44.152   8.992  17.930  1.00  0.00     0.231 C 
ATOM      3  C   UNL     1      44.057   9.946  19.091  1.00  0.00     0.202 C 
ATOM      4  O   UNL     1      43.650  11.121  18.896  1.00  0.00    -0.291 OA
ATOM      5  C   UNL     1      44.527   9.495  20.423  1.00  0.00     0.105 A 
ATOM      6  C   UNL     1      44.142  10.092  21.652  1.00  0.00     0.133 A 
ATOM      7  C   UNL     1      44.694   9.620  22.849  1.00  0.00     0.093 A 
ATOM      8  C   UNL     1      45.581   8.541  22.854  1.00  0.00     0.123 A 
ATOM      9  C   UNL     1      45.931   7.924  21.649  1.00  0.00     0.093 A 
ATOM     10  C   UNL     1      45.416   8.398  20.440  1.00  0.00     0.138 A 
ATOM     11  O   UNL     1      45.789   7.765  19.246  1.00  0.00    -0.481 OA
ENDROOT
BRANCH   1  12
ATOM     12  C   UNL     1      45.821   7.298  16.881  1.00  0.00     0.003 A 
ATOM     13  C   UNL     1      47.072   6.656  16.872  1.00  0.00     0.058 A 
ATOM     14  C   UNL     1      47.396   5.718  15.888  1.00  0.00     0.161 A 
ATOM     15  C   UNL     1      44.906   7.001  15.850  1.00  0.00     0.058 A 
ATOM     16  C   UNL     1      46.465   5.403  14.886  1.00  0.00     0.200 A 
ATOM     17  C   UNL     1      45.217   6.049  14.868  1.00  0.00     0.161 A 
BRANCH  14  18
ATOM     18  O   UNL     1      48.650   5.108  15.925  1.00  0.00    -0.504 OA
ATOM     19  H   UNL     1      48.765   4.128  16.150  1.00  0.00     0.293 HD
ENDBRANCH  14  18
BRANCH  16  20
ATOM     20  O   UNL     1      46.789   4.453  13.915  1.00  0.00    -0.502 OA
ATOM     21  H   UNL     1      46.901   4.695  12.937  1.00  0.00     0.293 HD
ENDBRANCH  16  20
BRANCH  17  22
ATOM     22  O   UNL     1      44.288   5.740  13.875  1.00  0.00    -0.504 OA
ATOM     23  H   UNL     1      44.410   6.049  12.918  1.00  0.00     0.293 HD
ENDBRANCH  17  22
ENDBRANCH   1  12
BRANCH   2  24
ATOM     24  O   UNL     1      43.161   8.007  18.060  1.00  0.00    -0.381 OA
ATOM     25  H   UNL     1      42.313   8.414  17.741  1.00  0.00     0.211 HD
ENDBRANCH   2  24
BRANCH   6  26
ATOM     26  O   UNL     1      43.205  11.124  21.739  1.00  0.00    -0.507 OA
ATOM     27  H   UNL     1      43.016  11.653  22.578  1.00  0.00     0.293 HD
ENDBRANCH   6  26
BRANCH   8  28
ATOM     28  O   UNL     1      46.108   8.088  24.062  1.00  0.00    -0.508 OA
ATOM     29  H   UNL     1      45.782   8.452  24.949  1.00  0.00     0.293 HD
ENDBRANCH   8  28
TORSDOF 7
ENDMDL
MODEL 7
REMARK VINA RESULT:    -5.196      1.907      3.076
REMARK INTER + INTRA:          -6.740
REMARK INTER:                  -6.970
REMARK INTRA:                   0.230
REMARK UNBOUND:                -0.329
REMARK SMILES O=C1c2c(O)cc(O)cc2O[C@@H](c2cc(O)c(O)c(O)c2)[C@H]1O
REMARK SMILES IDX 12 1 22 2 2 3 1 4 3 5 4 6 6 7 7 8 9 9 10 10 11 11 13 12
REMARK SMILES IDX 14 13 15 14 21 15 17 16 19 17 16 18 18 20 20 22 23 24 5 26
REMARK SMILES IDX 8 28
REMARK H PARENT 16 19 18 21 20 23 23 25 5 27 8 29
REMARK Flexibility Score: inf
ROOT
ATOM      1  C   UNL     1      46.393   7.821  18.128  1.00  0.00     0.240 C 
ATOM      2  C   UNL     1      47.214   6.527  17.931  1.00  0.00     0.231 C 
ATOM      3  C   UNL     1      47.179   6.168  16.470  1.00  0.00     0.202 C 
ATOM      4  O   UNL     1      48.254   5.905  15.871  1.00  0.00    -0.291 OA
ATOM      5  C   UNL     1      45.881   6.217  15.755  1.00  0.00     0.105 A 
ATOM      6  C   UNL     1      45.611   5.540  14.537  1.00  0.00     0.133 A 
ATOM      7  C   UNL     1      44.365   5.702  13.919  1.00  0.00     0.093 A 
ATOM      8  C   UNL     1      43.369   6.485  14.509  1.00  0.00     0.123 A 
ATOM      9  C   UNL     1      43.617   7.120  15.730  1.00  0.00     0.093 A 
ATOM     10  C   UNL     1      44.863   6.995  16.348  1.00  0.00     0.138 A 
ATOM     11  O   UNL     1      45.086   7.649  17.568  1.00  0.00    -0.481 OA
ENDROOT
BRANCH   1  12
ATOM     12  C   UNL     1      46.267   8.315  19.562  1.00  0.00     0.003 A 
ATOM     13  C   UNL     1      46.763   7.498  20.594  1.00  0.00     0.058 A 
ATOM     14  C   UNL     1      46.642   7.873  21.934  1.00  0.00     0.161 A 
ATOM     15  C   UNL     1      45.610   9.513  19.911  1.00  0.00     0.058 A 
ATOM     16  C   UNL     1      46.017   9.085  22.269  1.00  0.00     0.200 A 
ATOM     17  C   UNL     1      45.499   9.905  21.253  1.00  0.00     0.161 A 
BRANCH  14  18
ATOM     18  O   UNL     1      47.152   7.028  22.920  1.00  0.00    -0.504 OA
ATOM     19  H   UNL     1      47.144   6.021  22.823  1.00  0.00     0.293 HD
ENDBRANCH  14  18
BRANCH  16  20
ATOM     20  O   UNL     1      45.915   9.462  23.610  1.00  0.00    -0.502 OA
ATOM     21  H   UNL     1      46.726   9.700  24.169  1.00  0.00     0.293 HD
ENDBRANCH  16  20
BRANCH  17  22
ATOM     22  O   UNL     1      44.878  11.110  21.580  1.00  0.00    -0.504 OA
ATOM     23  H   UNL     1      44.932  11.501  22.513  1.00  0.00     0.293 HD
ENDBRANCH  17  22
ENDBRANCH   1  12
BRANCH   2  24
ATOM     24  O   UNL     1      46.648   5.480  18.677  1.00  0.00    -0.381 OA
ATOM     25  H   UNL     1      47.309   4.740  18.673  1.00  0.00     0.211 HD
ENDBRANCH   2  24
BRANCH   6  26
ATOM     26  O   UNL     1      46.526   4.681  13.923  1.00  0.00    -0.507 OA
ATOM     27  H   UNL     1      46.737   3.748  14.247  1.00  0.00     0.293 HD
ENDBRANCH   6  26
BRANCH   8  28
ATOM     28  O   UNL     1      42.135   6.623  13.875  1.00  0.00    -0.508 OA
ATOM     29  H   UNL     1      41.849   7.503  13.464  1.00  0.00     0.293 HD
ENDBRANCH   8  28
TORSDOF 7
ENDMDL
MODEL 8
REMARK VINA RESULT:    -5.033      1.828      2.476
REMARK INTER + INTRA:          -6.539
REMARK INTER:                  -6.445
REMARK INTRA:                  -0.094
REMARK UNBOUND:                -0.329
REMARK SMILES O=C1c2c(O)cc(O)cc2O[C@@H](c2cc(O)c(O)c(O)c2)[C@H]1O
REMARK SMILES IDX 12 1 22 2 2 3 1 4 3 5 4 6 6 7 7 8 9 9 10 10 11 11 13 12
REMARK SMILES IDX 14 13 15 14 21 15 17 16 19 17 16 18 18 20 20 22 23 24 5 26
REMARK SMILES IDX 8 28
REMARK H PARENT 16 19 18 21 20 23 23 25 5 27 8 29
REMARK Flexibility Score: inf
ROOT
ATOM      1  C   UNL     1      44.558   9.236  18.979  1.00  0.00     0.240 C 
ATOM      2  C   UNL     1      45.695  10.033  18.300  1.00  0.00     0.231 C 
ATOM      3  C   UNL     1      45.442  10.037  16.817  1.00  0.00     0.202 C 
ATOM      4  O   UNL     1      45.481  11.125  16.185  1.00  0.00    -0.291 OA
ATOM      5  C   UNL     1      45.070   8.764  16.154  1.00  0.00     0.105 A 
ATOM      6  C   UNL     1      45.198   8.519  14.761  1.00  0.00     0.133 A 
ATOM      7  C   UNL     1      44.762   7.298  14.234  1.00  0.00     0.093 A 
ATOM      8  C   UNL     1      44.245   6.301  15.065  1.00  0.00     0.123 A 
ATOM      9  C   UNL     1      44.156   6.523  16.443  1.00  0.00     0.093 A 
ATOM     10  C   UNL     1      44.557   7.745  16.986  1.00  0.00     0.138 A 
ATOM     11  O   UNL     1      44.450   7.944  18.370  1.00  0.00    -0.481 OA
ENDROOT
BRANCH   1  12
ATOM     12  C   UNL     1      44.670   9.074  20.488  1.00  0.00     0.003 A 
ATOM     13  C   UNL     1      43.806   9.826  21.304  1.00  0.00     0.058 A 
ATOM     14  C   UNL     1      43.885   9.755  22.698  1.00  0.00     0.161 A 
ATOM     15  C   UNL     1      45.648   8.269  21.108  1.00  0.00     0.058 A 
ATOM     16  C   UNL     1      44.838   8.922  23.305  1.00  0.00     0.200 A 
ATOM     17  C   UNL     1      45.723   8.179  22.505  1.00  0.00     0.161 A 
BRANCH  14  18
ATOM     18  O   UNL     1      43.004  10.519  23.463  1.00  0.00    -0.504 OA
ATOM     19  H   UNL     1      43.327  11.169  24.168  1.00  0.00     0.293 HD
ENDBRANCH  14  18
BRANCH  16  20
ATOM     20  O   UNL     1      44.901   8.844  24.697  1.00  0.00    -0.502 OA
ATOM     21  H   UNL     1      45.735   8.539  25.186  1.00  0.00     0.293 HD
ENDBRANCH  16  20
BRANCH  17  22
ATOM     22  O   UNL     1      46.672   7.350  23.102  1.00  0.00    -0.504 OA
ATOM     23  H   UNL     1      46.616   7.096  24.081  1.00  0.00     0.293 HD
ENDBRANCH  17  22
ENDBRANCH   1  12
BRANCH   2  24
ATOM     24  O   UNL     1      46.932   9.420  18.556  1.00  0.00    -0.381 OA
ATOM     25  H   UNL     1      47.630  10.097  18.358  1.00  0.00     0.211 HD
ENDBRANCH   2  24
BRANCH   6  26
ATOM     26  O   UNL     1      45.773   9.434  13.875  1.00  0.00    -0.507 OA
ATOM     27  H   UNL     1      45.284   9.862  13.102  1.00  0.00     0.293 HD
ENDBRANCH   6  26
BRANCH   8  28
ATOM     28  O   UNL     1      43.826   5.092  14.513  1.00  0.00    -0.508 OA
ATOM     29  H   UNL     1      44.046   4.845  13.555  1.00  0.00     0.293 HD
ENDBRANCH   8  28
TORSDOF 7
ENDMDL
MODEL 9
REMARK VINA RESULT:    -5.013      1.889      3.087
REMARK INTER + INTRA:          -6.513
REMARK INTER:                  -6.123
REMARK INTRA:                  -0.390
REMARK UNBOUND:                -0.329
REMARK SMILES O=C1c2c(O)cc(O)cc2O[C@@H](c2cc(O)c(O)c(O)c2)[C@H]1O
REMARK SMILES IDX 12 1 22 2 2 3 1 4 3 5 4 6 6 7 7 8 9 9 10 10 11 11 13 12
REMARK SMILES IDX 14 13 15 14 21 15 17 16 19 17 16 18 18 20 20 22 23 24 5 26
REMARK SMILES IDX 8 28
REMARK H PARENT 16 19 18 21 20 23 23 25 5 27 8 29
REMARK Flexibility Score: inf
ROOT
ATOM      1  C   UNL     1      44.273   9.188  20.973  1.00  0.00     0.240 C 
ATOM      2  C   UNL     1      44.609  10.559  20.342  1.00  0.00     0.231 C 
ATOM      3  C   UNL     1      44.774  10.364  18.859  1.00  0.00     0.202 C 
ATOM      4  O   UNL     1      44.164  11.124  18.062  1.00  0.00    -0.291 OA
ATOM      5  C   UNL     1      45.589   9.222  18.377  1.00  0.00     0.105 A 
ATOM      6  C   UNL     1      46.164   9.139  17.082  1.00  0.00     0.133 A 
ATOM      7  C   UNL     1      46.869   7.987  16.714  1.00  0.00     0.093 A 
ATOM      8  C   UNL     1      47.051   6.938  17.619  1.00  0.00     0.123 A 
ATOM      9  C   UNL     1      46.522   7.034  18.910  1.00  0.00     0.093 A 
ATOM     10  C   UNL     1      45.790   8.162  19.288  1.00  0.00     0.138 A 
ATOM     11  O   UNL     1      45.264   8.228  20.586  1.00  0.00    -0.481 OA
ENDROOT
BRANCH   1  12
ATOM     12  C   UNL     1      44.122   9.174  22.487  1.00  0.00     0.003 A 
ATOM     13  C   UNL     1      43.115   9.969  23.063  1.00  0.00     0.058 A 
ATOM     14  C   UNL     1      42.949  10.033  24.449  1.00  0.00     0.161 A 
ATOM     15  C   UNL     1      44.989   8.465  23.343  1.00  0.00     0.058 A 
ATOM     16  C   UNL     1      43.795   9.295  25.291  1.00  0.00     0.200 A 
ATOM     17  C   UNL     1      44.819   8.510  24.735  1.00  0.00     0.161 A 
BRANCH  14  18
ATOM     18  O   UNL     1      41.934  10.835  24.970  1.00  0.00    -0.504 OA
ATOM     19  H   UNL     1      41.966  11.200  25.914  1.00  0.00     0.293 HD
ENDBRANCH  14  18
BRANCH  16  20
ATOM     20  O   UNL     1      43.613   9.350  26.675  1.00  0.00    -0.502 OA
ATOM     21  H   UNL     1      43.750  10.204  27.205  1.00  0.00     0.293 HD
ENDBRANCH  16  20
BRANCH  17  22
ATOM     22  O   UNL     1      45.663   7.775  25.566  1.00  0.00    -0.504 OA
ATOM     23  H   UNL     1      46.662   7.732  25.405  1.00  0.00     0.293 HD
ENDBRANCH  17  22
ENDBRANCH   1  12
BRANCH   2  24
ATOM     24  O   UNL     1      45.807  11.056  20.879  1.00  0.00    -0.381 OA
ATOM     25  H   UNL     1      45.990  11.914  20.415  1.00  0.00     0.211 HD
ENDBRANCH   2  24
BRANCH   6  26
ATOM     26  O   UNL     1      46.090  10.174  16.146  1.00  0.00    -0.507 OA
ATOM     27  H   UNL     1      46.551  10.163  15.248  1.00  0.00     0.293 HD
ENDBRANCH   6  26
BRANCH   8  28
ATOM     28  O   UNL     1      47.765   5.806  17.227  1.00  0.00    -0.508 OA
ATOM     29  H   UNL     1      48.712   5.643  17.547  1.00  0.00     0.293 HD
ENDBRANCH   8  28
TORSDOF 7
ENDMDL
