MODEL 1
REMARK VINA RESULT:    -2.915      0.000      0.000
REMARK INTER + INTRA:          -4.791
REMARK INTER:                  -4.449
REMARK INTRA:                  -0.342
REMARK UNBOUND:                -0.342
REMARK SMILES CC1=CCC[C@H](C)C(=O)C[C@H](C(C)C)C(=O)C1
REMARK SMILES IDX 8 1 9 2 6 3 7 4 5 5 4 6 3 7 2 8 1 9 10 11 11 12 15 13 16 14
REMARK SMILES IDX 17 15 12 17 13 18 14 19
REMARK H PARENT
REMARK Flexibility Score: 70.00
ROOT
ATOM      1  C   UNL     1       1.736  -1.766  17.536  1.00  0.00     0.136 C 
ATOM      2  O   UNL     1       2.957  -1.730  17.485  1.00  0.00    -0.299 OA
ENDROOT
BRANCH   1   3
ATOM      3  C   UNL     1       0.953  -2.503  16.461  1.00  0.00     0.053 C 
ATOM      4  C   UNL     1       1.573  -2.262  15.076  1.00  0.00     0.016 C 
BRANCH   3   5
ATOM      5  C   UNL     1       0.878  -4.016  16.776  1.00  0.00     0.015 C 
BRANCH   5   6
ATOM      6  C   UNL     1      -0.433  -4.405  17.490  1.00  0.00     0.028 C 
BRANCH   6   7
ATOM      7  C   UNL     1      -0.230  -4.538  18.978  1.00  0.00    -0.028 C 
ATOM      8  C   UNL     1      -0.854  -3.781  19.911  1.00  0.00    -0.070 CG0
ATOM      9  C   UNL     1      -0.499  -4.008  21.359  1.00  0.00     0.039 C 
ATOM     10  G   UNL     1      -1.889  -2.720  19.561  1.00  0.00     0.000 G0
ENDBRANCH   6   7
ENDBRANCH   5   6
ENDBRANCH   3   5
ENDBRANCH   1   3
BRANCH   1  11
ATOM     11  C   UNL     1       1.026  -1.088  18.686  1.00  0.00     0.087 C 
BRANCH  11  12
ATOM     12  C   UNL     1      -0.487  -0.823  18.432  1.00  0.00     0.066 C 
BRANCH  12  13
ATOM     13  C   UNL     1      -1.321  -1.345  19.594  1.00  0.00     0.140 C 
ATOM     14  O   UNL     1      -1.575  -0.608  20.538  1.00  0.00    -0.299 OA
BRANCH  13  15
ATOM     15  C   UNL     1      -1.894  -2.739  19.566  1.00  0.00     0.106 CG0
ATOM     16  G   UNL     1      -0.853  -3.796  19.906  1.00  0.00     0.000 G0
ENDBRANCH  13  15
ENDBRANCH  12  13
BRANCH  12  17
ATOM     17  C   UNL     1      -0.840   0.665  18.097  1.00  0.00    -0.006 C 
ATOM     18  C   UNL     1       0.273   1.649  18.506  1.00  0.00     0.008 C 
ATOM     19  C   UNL     1      -1.119   0.835  16.590  1.00  0.00     0.008 C 
ENDBRANCH  12  17
ENDBRANCH  11  12
ENDBRANCH   1  11
TORSDOF 1
ENDMDL
MODEL 2
REMARK VINA RESULT:    -2.817      3.480      5.541
REMARK INTER + INTRA:          -4.641
REMARK INTER:                  -4.552
REMARK INTRA:                  -0.089
REMARK UNBOUND:                -0.342
REMARK SMILES CC1=CCC[C@H](C)C(=O)C[C@H](C(C)C)C(=O)C1
REMARK SMILES IDX 8 1 9 2 6 3 7 4 5 5 4 6 3 7 2 8 1 9 10 11 11 12 15 13 16 14
REMARK SMILES IDX 17 15 12 17 13 18 14 19
REMARK H PARENT
REMARK Flexibility Score: 70.00
ROOT
ATOM      1  C   UNL     1       0.745  -1.334  16.667  1.00  0.00     0.136 C 
ATOM      2  O   UNL     1       0.687  -0.284  17.293  1.00  0.00    -0.299 OA
ENDROOT
BRANCH   1   3
ATOM      3  C   UNL     1       0.725  -2.661  17.410  1.00  0.00     0.053 C 
ATOM      4  C   UNL     1       0.406  -3.816  16.448  1.00  0.00     0.016 C 
BRANCH   3   5
ATOM      5  C   UNL     1       2.069  -2.905  18.138  1.00  0.00     0.015 C 
BRANCH   5   6
ATOM      6  C   UNL     1       3.186  -3.360  17.176  1.00  0.00     0.028 C 
BRANCH   6   7
ATOM      7  C   UNL     1       4.213  -2.276  16.973  1.00  0.00    -0.028 C 
ATOM      8  C   UNL     1       4.441  -1.638  15.800  1.00  0.00    -0.070 CG0
ATOM      9  C   UNL     1       5.544  -0.611  15.756  1.00  0.00     0.039 C 
ATOM     10  G   UNL     1       3.635  -1.914  14.538  1.00  0.00     0.000 G0
ENDBRANCH   6   7
ENDBRANCH   5   6
ENDBRANCH   3   5
ENDBRANCH   1   3
BRANCH   1  11
ATOM     11  C   UNL     1       0.819  -1.290  15.159  1.00  0.00     0.087 C 
BRANCH  11  12
ATOM     12  C   UNL     1       1.691  -0.129  14.598  1.00  0.00     0.066 C 
BRANCH  12  13
ATOM     13  C   UNL     1       2.962  -0.677  13.962  1.00  0.00     0.140 C 
ATOM     14  O   UNL     1       3.482  -0.078  13.030  1.00  0.00    -0.299 OA
BRANCH  13  15
ATOM     15  C   UNL     1       3.625  -1.915  14.510  1.00  0.00     0.106 CG0
ATOM     16  G   UNL     1       4.422  -1.628  15.776  1.00  0.00     0.000 G0
ENDBRANCH  13  15
ENDBRANCH  12  13
BRANCH  12  17
ATOM     17  C   UNL     1       0.939   0.841  13.626  1.00  0.00    -0.006 C 
ATOM     18  C   UNL     1      -0.587   0.830  13.837  1.00  0.00     0.008 C 
ATOM     19  C   UNL     1       1.449   2.286  13.794  1.00  0.00     0.008 C 
ENDBRANCH  12  17
ENDBRANCH  11  12
ENDBRANCH   1  11
TORSDOF 1
ENDMDL
MODEL 3
REMARK VINA RESULT:    -2.701      5.660      7.368
REMARK INTER + INTRA:          -4.464
REMARK INTER:                  -4.257
REMARK INTRA:                  -0.207
REMARK UNBOUND:                -0.342
REMARK SMILES CC1=CCC[C@H](C)C(=O)C[C@H](C(C)C)C(=O)C1
REMARK SMILES IDX 8 1 9 2 6 3 7 4 5 5 4 6 3 7 2 8 1 9 10 11 11 12 15 13 16 14
REMARK SMILES IDX 17 15 12 17 13 18 14 19
REMARK H PARENT
REMARK Flexibility Score: 70.00
ROOT
ATOM      1  C   UNL     1       1.984   3.397  21.628  1.00  0.00     0.136 C 
ATOM      2  O   UNL     1       1.562   4.477  21.237  1.00  0.00    -0.299 OA
ENDROOT
BRANCH   1   3
ATOM      3  C   UNL     1       2.967   2.613  20.773  1.00  0.00     0.053 C 
ATOM      4  C   UNL     1       2.371   2.323  19.387  1.00  0.00     0.016 C 
BRANCH   3   5
ATOM      5  C   UNL     1       4.312   3.369  20.648  1.00  0.00     0.015 C 
BRANCH   5   6
ATOM      6  C   UNL     1       5.266   3.074  21.824  1.00  0.00     0.028 C 
BRANCH   6   7
ATOM      7  C   UNL     1       5.424   1.592  22.046  1.00  0.00    -0.028 C 
ATOM      8  C   UNL     1       4.951   0.918  23.121  1.00  0.00    -0.070 CG0
ATOM      9  C   UNL     1       5.241  -0.559  23.215  1.00  0.00     0.039 C 
ATOM     10  G   UNL     1       4.145   1.585  24.228  1.00  0.00     0.000 G0
ENDBRANCH   6   7
ENDBRANCH   5   6
ENDBRANCH   3   5
ENDBRANCH   1   3
BRANCH   1  11
ATOM     11  C   UNL     1       1.531   2.872  22.971  1.00  0.00     0.087 C 
BRANCH  11  12
ATOM     12  C   UNL     1       1.760   1.344  23.166  1.00  0.00     0.066 C 
BRANCH  12  13
ATOM     13  C   UNL     1       2.724   1.093  24.318  1.00  0.00     0.140 C 
ATOM     14  O   UNL     1       2.356   0.439  25.285  1.00  0.00    -0.299 OA
BRANCH  13  15
ATOM     15  C   UNL     1       4.147   1.584  24.252  1.00  0.00     0.106 CG0
ATOM     16  G   UNL     1       4.933   0.920  23.129  1.00  0.00     0.000 G0
ENDBRANCH  13  15
ENDBRANCH  12  13
BRANCH  12  17
ATOM     17  C   UNL     1       0.448   0.504  23.324  1.00  0.00    -0.006 C 
ATOM     18  C   UNL     1      -0.738   1.098  22.540  1.00  0.00     0.008 C 
ATOM     19  C   UNL     1       0.670  -0.948  22.857  1.00  0.00     0.008 C 
ENDBRANCH  12  17
ENDBRANCH  11  12
ENDBRANCH   1  11
TORSDOF 1
ENDMDL
MODEL 4
REMARK VINA RESULT:    -2.670      2.202      3.833
REMARK INTER + INTRA:          -4.416
REMARK INTER:                  -4.110
REMARK INTRA:                  -0.306
REMARK UNBOUND:                -0.342
REMARK SMILES CC1=CCC[C@H](C)C(=O)C[C@H](C(C)C)C(=O)C1
REMARK SMILES IDX 8 1 9 2 6 3 7 4 5 5 4 6 3 7 2 8 1 9 10 11 11 12 15 13 16 14
REMARK SMILES IDX 17 15 12 17 13 18 14 19
REMARK H PARENT
REMARK Flexibility Score: 70.00
ROOT
ATOM      1  C   UNL     1       0.686  -4.182  18.444  1.00  0.00     0.136 C 
ATOM      2  O   UNL     1       1.070  -4.938  19.325  1.00  0.00    -0.299 OA
ENDROOT
BRANCH   1   3
ATOM      3  C   UNL     1      -0.803  -3.938  18.250  1.00  0.00     0.053 C 
ATOM      4  C   UNL     1      -1.501  -5.211  17.748  1.00  0.00     0.016 C 
BRANCH   3   5
ATOM      5  C   UNL     1      -1.453  -3.432  19.560  1.00  0.00     0.015 C 
BRANCH   5   6
ATOM      6  C   UNL     1      -1.171  -1.938  19.820  1.00  0.00     0.028 C 
BRANCH   6   7
ATOM      7  C   UNL     1      -0.152  -1.752  20.915  1.00  0.00    -0.028 C 
ATOM      8  C   UNL     1       1.005  -1.061  20.782  1.00  0.00    -0.070 CG0
ATOM      9  C   UNL     1       1.941  -1.014  21.964  1.00  0.00     0.039 C 
ATOM     10  G   UNL     1       1.396  -0.337  19.500  1.00  0.00     0.000 G0
ENDBRANCH   6   7
ENDBRANCH   5   6
ENDBRANCH   3   5
ENDBRANCH   1   3
BRANCH   1  11
ATOM     11  C   UNL     1       1.706  -3.485  17.574  1.00  0.00     0.087 C 
BRANCH  11  12
ATOM     12  C   UNL     1       1.483  -1.951  17.435  1.00  0.00     0.066 C 
BRANCH  12  13
ATOM     13  C   UNL     1       2.190  -1.205  18.558  1.00  0.00     0.140 C 
ATOM     14  O   UNL     1       3.408  -1.272  18.658  1.00  0.00    -0.299 OA
BRANCH  13  15
ATOM     15  C   UNL     1       1.415  -0.331  19.510  1.00  0.00     0.106 CG0
ATOM     16  G   UNL     1       1.005  -1.077  20.773  1.00  0.00     0.000 G0
ENDBRANCH  13  15
ENDBRANCH  12  13
BRANCH  12  17
ATOM     17  C   UNL     1       1.857  -1.363  16.033  1.00  0.00    -0.006 C 
ATOM     18  C   UNL     1       2.495  -2.409  15.099  1.00  0.00     0.008 C 
ATOM     19  C   UNL     1       0.614  -0.774  15.337  1.00  0.00     0.008 C 
ENDBRANCH  12  17
ENDBRANCH  11  12
ENDBRANCH   1  11
TORSDOF 1
ENDMDL
MODEL 5
REMARK VINA RESULT:    -2.619      2.665      4.476
REMARK INTER + INTRA:          -4.339
REMARK INTER:                  -3.983
REMARK INTRA:                  -0.356
REMARK UNBOUND:                -0.342
REMARK SMILES CC1=CCC[C@H](C)C(=O)C[C@H](C(C)C)C(=O)C1
REMARK SMILES IDX 8 1 9 2 6 3 7 4 5 5 4 6 3 7 2 8 1 9 10 11 11 12 15 13 16 14
REMARK SMILES IDX 17 15 12 17 13 18 14 19
REMARK H PARENT
REMARK Flexibility Score: 70.00
ROOT
ATOM      1  C   UNL     1       1.136  -3.586  16.531  1.00  0.00     0.136 C 
ATOM      2  O   UNL     1       0.642  -3.692  15.417  1.00  0.00    -0.299 OA
ENDROOT
BRANCH   1   3
ATOM      3  C   UNL     1       0.360  -4.055  17.753  1.00  0.00     0.053 C 
ATOM      4  C   UNL     1       1.306  -4.684  18.788  1.00  0.00     0.016 C 
BRANCH   3   5
ATOM      5  C   UNL     1      -0.442  -2.888  18.376  1.00  0.00     0.015 C 
BRANCH   5   6
ATOM      6  C   UNL     1       0.217  -2.338  19.658  1.00  0.00     0.028 C 
BRANCH   6   7
ATOM      7  C   UNL     1       0.404  -0.844  19.584  1.00  0.00    -0.028 C 
ATOM      8  C   UNL     1       1.586  -0.226  19.349  1.00  0.00    -0.070 CG0
ATOM      9  C   UNL     1       1.610   1.282  19.358  1.00  0.00     0.039 C 
ATOM     10  G   UNL     1       2.878  -0.985  19.078  1.00  0.00     0.000 G0
ENDBRANCH   6   7
ENDBRANCH   5   6
ENDBRANCH   3   5
ENDBRANCH   1   3
BRANCH   1  11
ATOM     11  C   UNL     1       2.524  -3.005  16.670  1.00  0.00     0.087 C 
BRANCH  11  12
ATOM     12  C   UNL     1       2.584  -1.457  16.516  1.00  0.00     0.066 C 
BRANCH  12  13
ATOM     13  C   UNL     1       3.376  -0.839  17.660  1.00  0.00     0.140 C 
ATOM     14  O   UNL     1       4.379  -0.179  17.417  1.00  0.00    -0.299 OA
BRANCH  13  15
ATOM     15  C   UNL     1       2.903  -0.973  19.085  1.00  0.00     0.106 CG0
ATOM     16  G   UNL     1       1.595  -0.232  19.329  1.00  0.00     0.000 G0
ENDBRANCH  13  15
ENDBRANCH  12  13
BRANCH  12  17
ATOM     17  C   UNL     1       3.106  -0.961  15.125  1.00  0.00    -0.006 C 
ATOM     18  C   UNL     1       3.839  -2.062  14.336  1.00  0.00     0.008 C 
ATOM     19  C   UNL     1       1.943  -0.428  14.264  1.00  0.00     0.008 C 
ENDBRANCH  12  17
ENDBRANCH  11  12
ENDBRANCH   1  11
TORSDOF 1
ENDMDL
MODEL 6
REMARK VINA RESULT:    -2.594      2.760      4.941
REMARK INTER + INTRA:          -4.302
REMARK INTER:                  -3.964
REMARK INTRA:                  -0.337
REMARK UNBOUND:                -0.342
REMARK SMILES CC1=CCC[C@H](C)C(=O)C[C@H](C(C)C)C(=O)C1
REMARK SMILES IDX 8 1 9 2 6 3 7 4 5 5 4 6 3 7 2 8 1 9 10 11 11 12 15 13 16 14
REMARK SMILES IDX 17 15 12 17 13 18 14 19
REMARK H PARENT
REMARK Flexibility Score: 70.00
ROOT
ATOM      1  C   UNL     1       1.197  -0.074  15.293  1.00  0.00     0.136 C 
ATOM      2  O   UNL     1       0.546   0.625  14.529  1.00  0.00    -0.299 OA
ENDROOT
BRANCH   1   3
ATOM      3  C   UNL     1       1.357   0.338  16.748  1.00  0.00     0.053 C 
ATOM      4  C   UNL     1       1.731   1.824  16.854  1.00  0.00     0.016 C 
BRANCH   3   5
ATOM      5  C   UNL     1       0.068   0.035  17.550  1.00  0.00     0.015 C 
BRANCH   5   6
ATOM      6  C   UNL     1      -0.080  -1.464  17.884  1.00  0.00     0.028 C 
BRANCH   6   7
ATOM      7  C   UNL     1       1.084  -1.963  18.703  1.00  0.00    -0.028 C 
ATOM      8  C   UNL     1       1.998  -2.865  18.274  1.00  0.00    -0.070 CG0
ATOM      9  C   UNL     1       3.073  -3.297  19.239  1.00  0.00     0.039 C 
ATOM     10  G   UNL     1       1.984  -3.455  16.870  1.00  0.00     0.000 G0
ENDBRANCH   6   7
ENDBRANCH   5   6
ENDBRANCH   3   5
ENDBRANCH   1   3
BRANCH   1  11
ATOM     11  C   UNL     1       1.817  -1.352  14.775  1.00  0.00     0.087 C 
BRANCH  11  12
ATOM     12  C   UNL     1       3.216  -1.670  15.379  1.00  0.00     0.066 C 
BRANCH  12  13
ATOM     13  C   UNL     1       3.204  -3.031  16.062  1.00  0.00     0.140 C 
ATOM     14  O   UNL     1       4.194  -3.748  16.004  1.00  0.00    -0.299 OA
BRANCH  13  15
ATOM     15  C   UNL     1       2.010  -3.478  16.866  1.00  0.00     0.106 CG0
ATOM     16  G   UNL     1       1.997  -2.872  18.263  1.00  0.00     0.000 G0
ENDBRANCH  13  15
ENDBRANCH  12  13
BRANCH  12  17
ATOM     17  C   UNL     1       4.405  -1.549  14.367  1.00  0.00    -0.006 C 
ATOM     18  C   UNL     1       3.969  -0.987  13.000  1.00  0.00     0.008 C 
ATOM     19  C   UNL     1       5.518  -0.648  14.938  1.00  0.00     0.008 C 
ENDBRANCH  12  17
ENDBRANCH  11  12
ENDBRANCH   1  11
TORSDOF 1
ENDMDL
MODEL 7
REMARK VINA RESULT:    -2.562      6.101      7.733
REMARK INTER + INTRA:          -4.252
REMARK INTER:                  -4.204
REMARK INTRA:                  -0.048
REMARK UNBOUND:                -0.342
REMARK SMILES CC1=CCC[C@H](C)C(=O)C[C@H](C(C)C)C(=O)C1
REMARK SMILES IDX 8 1 9 2 6 3 7 4 5 5 4 6 3 7 2 8 1 9 10 11 11 12 15 13 16 14
REMARK SMILES IDX 17 15 12 17 13 18 14 19
REMARK H PARENT
REMARK Flexibility Score: 70.00
ROOT
ATOM      1  C   UNL     1       1.507  -0.080  23.354  1.00  0.00     0.136 C 
ATOM      2  O   UNL     1       0.339  -0.334  23.097  1.00  0.00    -0.299 OA
ENDROOT
BRANCH   1   3
ATOM      3  C   UNL     1       2.113  -0.544  24.670  1.00  0.00     0.053 C 
ATOM      4  C   UNL     1       1.083  -0.448  25.806  1.00  0.00     0.016 C 
BRANCH   3   5
ATOM      5  C   UNL     1       2.662  -1.986  24.544  1.00  0.00     0.015 C 
BRANCH   5   6
ATOM      6  C   UNL     1       4.132  -2.019  24.077  1.00  0.00     0.028 C 
BRANCH   6   7
ATOM      7  C   UNL     1       4.978  -1.042  24.853  1.00  0.00    -0.028 C 
ATOM      8  C   UNL     1       5.458   0.124  24.360  1.00  0.00    -0.070 CG0
ATOM      9  C   UNL     1       6.333   0.964  25.256  1.00  0.00     0.039 C 
ATOM     10  G   UNL     1       5.152   0.617  22.952  1.00  0.00     0.000 G0
ENDBRANCH   6   7
ENDBRANCH   5   6
ENDBRANCH   3   5
ENDBRANCH   1   3
BRANCH   1  11
ATOM     11  C   UNL     1       2.336   0.678  22.343  1.00  0.00     0.087 C 
BRANCH  11  12
ATOM     12  C   UNL     1       2.924   2.017  22.878  1.00  0.00     0.066 C 
BRANCH  12  13
ATOM     13  C   UNL     1       4.445   1.950  22.923  1.00  0.00     0.140 C 
ATOM     14  O   UNL     1       5.096   2.983  23.005  1.00  0.00    -0.299 OA
BRANCH  13  15
ATOM     15  C   UNL     1       5.157   0.622  22.935  1.00  0.00     0.106 CG0
ATOM     16  G   UNL     1       5.439   0.133  24.349  1.00  0.00     0.000 G0
ENDBRANCH  13  15
ENDBRANCH  12  13
BRANCH  12  17
ATOM     17  C   UNL     1       2.430   3.294  22.120  1.00  0.00    -0.006 C 
ATOM     18  C   UNL     1       1.888   2.980  20.713  1.00  0.00     0.008 C 
ATOM     19  C   UNL     1       1.328   4.014  22.923  1.00  0.00     0.008 C 
ENDBRANCH  12  17
ENDBRANCH  11  12
ENDBRANCH   1  11
TORSDOF 1
ENDMDL
MODEL 8
REMARK VINA RESULT:    -2.550      5.813      7.237
REMARK INTER + INTRA:          -4.234
REMARK INTER:                  -4.012
REMARK INTRA:                  -0.221
REMARK UNBOUND:                -0.342
REMARK SMILES CC1=CCC[C@H](C)C(=O)C[C@H](C(C)C)C(=O)C1
REMARK SMILES IDX 8 1 9 2 6 3 7 4 5 5 4 6 3 7 2 8 1 9 10 11 11 12 15 13 16 14
REMARK SMILES IDX 17 15 12 17 13 18 14 19
REMARK H PARENT
REMARK Flexibility Score: 70.00
ROOT
ATOM      1  C   UNL     1       5.102   1.542  23.687  1.00  0.00     0.136 C 
ATOM      2  O   UNL     1       5.806   1.659  24.679  1.00  0.00    -0.299 OA
ENDROOT
BRANCH   1   3
ATOM      3  C   UNL     1       4.360   0.239  23.432  1.00  0.00     0.053 C 
ATOM      4  C   UNL     1       5.340  -0.875  23.035  1.00  0.00     0.016 C 
BRANCH   3   5
ATOM      5  C   UNL     1       3.531  -0.172  24.673  1.00  0.00     0.015 C 
BRANCH   5   6
ATOM      6  C   UNL     1       2.147   0.509  24.710  1.00  0.00     0.028 C 
BRANCH   6   7
ATOM      7  C   UNL     1       1.413   0.336  23.405  1.00  0.00    -0.028 C 
ATOM      8  C   UNL     1       1.247   1.310  22.479  1.00  0.00    -0.070 CG0
ATOM      9  C   UNL     1       0.441   0.985  21.247  1.00  0.00     0.039 C 
ATOM     10  G   UNL     1       1.835   2.707  22.631  1.00  0.00     0.000 G0
ENDBRANCH   6   7
ENDBRANCH   5   6
ENDBRANCH   3   5
ENDBRANCH   1   3
BRANCH   1  11
ATOM     11  C   UNL     1       4.967   2.710  22.737  1.00  0.00     0.087 C 
BRANCH  11  12
ATOM     12  C   UNL     1       4.158   2.390  21.446  1.00  0.00     0.066 C 
BRANCH  12  13
ATOM     13  C   UNL     1       2.782   3.040  21.505  1.00  0.00     0.140 C 
ATOM     14  O   UNL     1       2.428   3.794  20.609  1.00  0.00    -0.299 OA
BRANCH  13  15
ATOM     15  C   UNL     1       1.824   2.715  22.622  1.00  0.00     0.106 CG0
ATOM     16  G   UNL     1       1.239   1.315  22.489  1.00  0.00     0.000 G0
ENDBRANCH  13  15
ENDBRANCH  12  13
BRANCH  12  17
ATOM     17  C   UNL     1       4.898   2.737  20.110  1.00  0.00    -0.006 C 
ATOM     18  C   UNL     1       5.988   3.810  20.295  1.00  0.00     0.008 C 
ATOM     19  C   UNL     1       5.544   1.477  19.500  1.00  0.00     0.008 C 
ENDBRANCH  12  17
ENDBRANCH  11  12
ENDBRANCH   1  11
TORSDOF 1
ENDMDL
MODEL 9
REMARK VINA RESULT:    -2.463      4.810      6.465
REMARK INTER + INTRA:          -4.101
REMARK INTER:                  -3.925
REMARK INTRA:                  -0.175
REMARK UNBOUND:                -0.342
REMARK SMILES CC1=CCC[C@H](C)C(=O)C[C@H](C(C)C)C(=O)C1
REMARK SMILES IDX 8 1 9 2 6 3 7 4 5 5 4 6 3 7 2 8 1 9 10 11 11 12 15 13 16 14
REMARK SMILES IDX 17 15 12 17 13 18 14 19
REMARK H PARENT
REMARK Flexibility Score: 70.00
ROOT
ATOM      1  C   UNL     1       2.819   0.094  24.954  1.00  0.00     0.136 C 
ATOM      2  O   UNL     1       4.037   0.171  24.871  1.00  0.00    -0.299 OA
ENDROOT
BRANCH   1   3
ATOM      3  C   UNL     1       2.186  -0.890  25.925  1.00  0.00     0.053 C 
ATOM      4  C   UNL     1       0.769  -0.438  26.310  1.00  0.00     0.016 C 
BRANCH   3   5
ATOM      5  C   UNL     1       2.165  -2.317  25.326  1.00  0.00     0.015 C 
BRANCH   5   6
ATOM      6  C   UNL     1       1.049  -2.500  24.276  1.00  0.00     0.028 C 
BRANCH   6   7
ATOM      7  C   UNL     1       1.620  -2.728  22.900  1.00  0.00    -0.028 C 
ATOM      8  C   UNL     1       1.464  -1.885  21.851  1.00  0.00    -0.070 CG0
ATOM      9  C   UNL     1       2.058  -2.288  20.525  1.00  0.00     0.039 C 
ATOM     10  G   UNL     1       0.721  -0.560  21.957  1.00  0.00     0.000 G0
ENDBRANCH   6   7
ENDBRANCH   5   6
ENDBRANCH   3   5
ENDBRANCH   1   3
BRANCH   1  11
ATOM     11  C   UNL     1       1.964   0.998  24.097  1.00  0.00     0.087 C 
BRANCH  11  12
ATOM     12  C   UNL     1       2.526   1.238  22.666  1.00  0.00     0.066 C 
BRANCH  12  13
ATOM     13  C   UNL     1       1.600   0.631  21.621  1.00  0.00     0.140 C 
ATOM     14  O   UNL     1       1.609   1.064  20.476  1.00  0.00    -0.299 OA
BRANCH  13  15
ATOM     15  C   UNL     1       0.718  -0.543  21.962  1.00  0.00     0.106 CG0
ATOM     16  G   UNL     1       1.457  -1.870  21.851  1.00  0.00     0.000 G0
ENDBRANCH  13  15
ENDBRANCH  12  13
BRANCH  12  17
ATOM     17  C   UNL     1       2.857   2.733  22.338  1.00  0.00    -0.006 C 
ATOM     18  C   UNL     1       2.410   3.700  23.451  1.00  0.00     0.008 C 
ATOM     19  C   UNL     1       4.369   2.919  22.100  1.00  0.00     0.008 C 
ENDBRANCH  12  17
ENDBRANCH  11  12
ENDBRANCH   1  11
TORSDOF 1
ENDMDL
