MODEL 1
REMARK VINA RESULT:    -1.520      0.000      0.000
REMARK INTER + INTRA:          -1.564
REMARK INTER:                  -1.564
REMARK INTRA:                   0.000
REMARK UNBOUND:                 0.000
REMARK SMILES O=c1ccc2ccc(O)cc2o1
REMARK SMILES IDX 6 1 7 2 8 3 10 4 11 5 5 6 4 7 3 8 2 9 1 10 12 11 9 12
REMARK H PARENT 9 13
REMARK Flexibility Score: inf
ROOT
ATOM      1  C   UNL     1      27.422  29.713   3.661  1.00  0.00     0.016 A 
ATOM      2  C   UNL     1      27.726  30.879   2.951  1.00  0.00     0.047 A 
ATOM      3  C   UNL     1      27.910  30.835   1.564  1.00  0.00     0.119 A 
ATOM      4  C   UNL     1      27.791  29.615   0.881  1.00  0.00     0.094 A 
ATOM      5  C   UNL     1      27.487  28.444   1.583  1.00  0.00     0.142 A 
ATOM      6  C   UNL     1      27.302  28.492   2.983  1.00  0.00     0.018 A 
ATOM      7  C   UNL     1      27.000  27.305   3.657  1.00  0.00     0.019 A 
ATOM      8  C   UNL     1      26.892  26.118   2.935  1.00  0.00     0.094 A 
ATOM      9  C   UNL     1      27.089  26.145   1.550  1.00  0.00     0.336 A 
ATOM     10  O   UNL     1      26.996  25.083   0.881  1.00  0.00    -0.246 OA
ATOM     11  O   UNL     1      27.375  27.289   0.933  1.00  0.00    -0.423 OA
ENDROOT
BRANCH   3  12
ATOM     12  O   UNL     1      28.211  32.007   0.875  1.00  0.00    -0.508 OA
ATOM     13  H   UNL     1      27.728  32.258   0.019  1.00  0.00     0.293 HD
ENDBRANCH   3  12
TORSDOF 1
ENDMDL
MODEL 2
REMARK VINA RESULT:    -1.393      0.789      4.226
REMARK INTER + INTRA:          -1.434
REMARK INTER:                  -1.434
REMARK INTRA:                   0.000
REMARK UNBOUND:                 0.000
REMARK SMILES O=c1ccc2ccc(O)cc2o1
REMARK SMILES IDX 6 1 7 2 8 3 10 4 11 5 5 6 4 7 3 8 2 9 1 10 12 11 9 12
REMARK H PARENT 9 13
REMARK Flexibility Score: inf
ROOT
ATOM      1  C   UNL     1      26.988  27.451   3.636  1.00  0.00     0.016 A 
ATOM      2  C   UNL     1      26.862  26.248   2.933  1.00  0.00     0.047 A 
ATOM      3  C   UNL     1      27.125  26.201   1.559  1.00  0.00     0.119 A 
ATOM      4  C   UNL     1      27.515  27.366   0.881  1.00  0.00     0.094 A 
ATOM      5  C   UNL     1      27.643  28.573   1.576  1.00  0.00     0.142 A 
ATOM      6  C   UNL     1      27.377  28.617   2.963  1.00  0.00     0.018 A 
ATOM      7  C   UNL     1      27.513  29.838   3.630  1.00  0.00     0.019 A 
ATOM      8  C   UNL     1      27.903  30.969   2.913  1.00  0.00     0.094 A 
ATOM      9  C   UNL     1      28.149  30.851   1.540  1.00  0.00     0.336 A 
ATOM     10  O   UNL     1      28.502  31.860   0.876  1.00  0.00    -0.246 OA
ATOM     11  O   UNL     1      28.013  29.676   0.930  1.00  0.00    -0.423 OA
ENDROOT
BRANCH   3  12
ATOM     12  O   UNL     1      26.995  24.994   0.877  1.00  0.00    -0.508 OA
ATOM     13  H   UNL     1      26.382  24.902   0.075  1.00  0.00     0.293 HD
ENDBRANCH   3  12
TORSDOF 1
ENDMDL
MODEL 3
REMARK VINA RESULT:     1.101      2.956      4.212
REMARK INTER + INTRA:           1.133
REMARK INTER:                   1.133
REMARK INTRA:                   0.000
REMARK UNBOUND:                 0.000
REMARK SMILES O=c1ccc2ccc(O)cc2o1
REMARK SMILES IDX 6 1 7 2 8 3 10 4 11 5 5 6 4 7 3 8 2 9 1 10 12 11 9 12
REMARK H PARENT 9 13
REMARK Flexibility Score: inf
ROOT
ATOM      1  C   UNL     1      28.466  28.562   1.099  1.00  0.00     0.016 A 
ATOM      2  C   UNL     1      27.341  29.363   0.875  1.00  0.00     0.047 A 
ATOM      3  C   UNL     1      27.177  30.564   1.575  1.00  0.00     0.119 A 
ATOM      4  C   UNL     1      28.144  30.967   2.509  1.00  0.00     0.094 A 
ATOM      5  C   UNL     1      29.272  30.173   2.739  1.00  0.00     0.142 A 
ATOM      6  C   UNL     1      29.435  28.961   2.030  1.00  0.00     0.018 A 
ATOM      7  C   UNL     1      30.572  28.188   2.283  1.00  0.00     0.019 A 
ATOM      8  C   UNL     1      31.505  28.631   3.219  1.00  0.00     0.094 A 
ATOM      9  C   UNL     1      31.279  29.841   3.885  1.00  0.00     0.336 A 
ATOM     10  O   UNL     1      32.109  30.257   4.733  1.00  0.00    -0.246 OA
ATOM     11  O   UNL     1      30.187  30.558   3.625  1.00  0.00    -0.423 OA
ENDROOT
BRANCH   3  12
ATOM     12  O   UNL     1      26.051  31.347   1.338  1.00  0.00    -0.508 OA
ATOM     13  H   UNL     1      26.119  32.246   0.874  1.00  0.00     0.293 HD
ENDBRANCH   3  12
TORSDOF 1
ENDMDL
MODEL 4
REMARK VINA RESULT:     1.167      1.585      4.457
REMARK INTER + INTRA:           1.201
REMARK INTER:                   1.201
REMARK INTRA:                   0.000
REMARK UNBOUND:                 0.000
REMARK SMILES O=c1ccc2ccc(O)cc2o1
REMARK SMILES IDX 6 1 7 2 8 3 10 4 11 5 5 6 4 7 3 8 2 9 1 10 12 11 9 12
REMARK H PARENT 9 13
REMARK Flexibility Score: inf
ROOT
ATOM      1  C   UNL     1      28.878  26.860   2.241  1.00  0.00     0.016 A 
ATOM      2  C   UNL     1      27.817  25.960   2.096  1.00  0.00     0.047 A 
ATOM      3  C   UNL     1      26.579  26.398   1.610  1.00  0.00     0.119 A 
ATOM      4  C   UNL     1      26.400  27.747   1.267  1.00  0.00     0.094 A 
ATOM      5  C   UNL     1      27.455  28.654   1.409  1.00  0.00     0.142 A 
ATOM      6  C   UNL     1      28.703  28.208   1.900  1.00  0.00     0.018 A 
ATOM      7  C   UNL     1      29.739  29.138   2.031  1.00  0.00     0.019 A 
ATOM      8  C   UNL     1      29.512  30.468   1.678  1.00  0.00     0.094 A 
ATOM      9  C   UNL     1      28.250  30.838   1.199  1.00  0.00     0.336 A 
ATOM     10  O   UNL     1      28.027  32.033   0.875  1.00  0.00    -0.246 OA
ATOM     11  O   UNL     1      27.282  29.933   1.084  1.00  0.00    -0.423 OA
ENDROOT
BRANCH   3  12
ATOM     12  O   UNL     1      25.535  25.487   1.472  1.00  0.00    -0.508 OA
ATOM     13  H   UNL     1      25.658  24.612   0.975  1.00  0.00     0.293 HD
ENDBRANCH   3  12
TORSDOF 1
ENDMDL
