MODEL 1
REMARK VINA RESULT:    -3.456      0.000      0.000
REMARK INTER + INTRA:          -3.869
REMARK INTER:                  -3.860
REMARK INTRA:                  -0.009
REMARK UNBOUND:                -0.009
REMARK SMILES CCCC(=O)[O-]
REMARK SMILES IDX 3 1 4 2 5 3 6 4 2 5 1 6
REMARK H PARENT
REMARK Flexibility Score: inf
ROOT
ATOM      1  C   UNL     1     -13.188   2.173  -9.504  1.00  0.00     0.052 C 
ENDROOT
BRANCH   1   2
ATOM      2  C   UNL     1     -13.077   3.476  -8.773  1.00  0.00     0.041 C 
ATOM      3  O   UNL     1     -11.949   3.914  -8.424  1.00  0.00    -0.550 OA
ATOM      4  O   UNL     1     -14.223   4.189  -8.447  1.00  0.00    -0.550 OA
ENDBRANCH   1   2
BRANCH   1   5
ATOM      5  C   UNL     1     -14.639   1.683  -9.573  1.00  0.00     0.003 C 
ATOM      6  C   UNL     1     -14.739   0.214  -9.987  1.00  0.00     0.004 C 
ENDBRANCH   1   5
TORSDOF 2
ENDMDL
MODEL 2
REMARK VINA RESULT:    -3.021      1.538      2.230
REMARK INTER + INTRA:          -3.384
REMARK INTER:                  -3.360
REMARK INTRA:                  -0.023
REMARK UNBOUND:                -0.009
REMARK SMILES CCCC(=O)[O-]
REMARK SMILES IDX 3 1 4 2 5 3 6 4 2 5 1 6
REMARK H PARENT
REMARK Flexibility Score: inf
ROOT
ATOM      1  C   UNL     1     -14.796   1.323  -9.898  1.00  0.00     0.052 C 
ENDROOT
BRANCH   1   2
ATOM      2  C   UNL     1     -13.495   1.923  -9.461  1.00  0.00     0.041 C 
ATOM      3  O   UNL     1     -13.448   3.120  -9.072  1.00  0.00    -0.550 OA
ATOM      4  O   UNL     1     -12.329   1.171  -9.515  1.00  0.00    -0.550 OA
ENDBRANCH   1   2
BRANCH   1   5
ATOM      5  C   UNL     1     -14.786  -0.206  -9.773  1.00  0.00     0.003 C 
ATOM      6  C   UNL     1     -14.611  -0.899 -11.125  1.00  0.00     0.004 C 
ENDBRANCH   1   5
TORSDOF 2
ENDMDL
MODEL 3
REMARK VINA RESULT:    -3.018      2.235      3.465
REMARK INTER + INTRA:          -3.379
REMARK INTER:                  -3.358
REMARK INTRA:                  -0.022
REMARK UNBOUND:                -0.009
REMARK SMILES CCCC(=O)[O-]
REMARK SMILES IDX 3 1 4 2 5 3 6 4 2 5 1 6
REMARK H PARENT
REMARK Flexibility Score: inf
ROOT
ATOM      1  C   UNL     1     -12.815   1.714  -9.529  1.00  0.00     0.052 C 
ENDROOT
BRANCH   1   2
ATOM      2  C   UNL     1     -14.241   1.254  -9.523  1.00  0.00     0.041 C 
ATOM      3  O   UNL     1     -15.123   1.929  -8.929  1.00  0.00    -0.550 OA
ATOM      4  O   UNL     1     -14.590   0.062 -10.145  1.00  0.00    -0.550 OA
ENDBRANCH   1   2
BRANCH   1   5
ATOM      5  C   UNL     1     -12.704   3.221  -9.271  1.00  0.00     0.003 C 
ATOM      6  C   UNL     1     -11.507   3.575  -8.389  1.00  0.00     0.004 C 
ENDBRANCH   1   5
TORSDOF 2
ENDMDL
MODEL 4
REMARK VINA RESULT:    -2.995      8.734      9.408
REMARK INTER + INTRA:          -3.355
REMARK INTER:                  -3.322
REMARK INTRA:                  -0.032
REMARK UNBOUND:                -0.009
REMARK SMILES CCCC(=O)[O-]
REMARK SMILES IDX 3 1 4 2 5 3 6 4 2 5 1 6
REMARK H PARENT
REMARK Flexibility Score: inf
ROOT
ATOM      1  C   UNL     1     -10.526  -4.949  -6.863  1.00  0.00     0.052 C 
ENDROOT
BRANCH   1   2
ATOM      2  C   UNL     1      -9.954  -5.529  -8.120  1.00  0.00     0.041 C 
ATOM      3  O   UNL     1     -10.185  -6.728  -8.429  1.00  0.00    -0.550 OA
ATOM      4  O   UNL     1      -9.138  -4.754  -8.934  1.00  0.00    -0.550 OA
ENDBRANCH   1   2
BRANCH   1   5
ATOM      5  C   UNL     1     -11.697  -5.787  -6.334  1.00  0.00     0.003 C 
ATOM      6  C   UNL     1     -11.507  -6.196  -4.873  1.00  0.00     0.004 C 
ENDBRANCH   1   5
TORSDOF 2
ENDMDL
MODEL 5
REMARK VINA RESULT:    -2.955      8.009      8.470
REMARK INTER + INTRA:          -3.310
REMARK INTER:                  -3.302
REMARK INTRA:                  -0.008
REMARK UNBOUND:                -0.009
REMARK SMILES CCCC(=O)[O-]
REMARK SMILES IDX 3 1 4 2 5 3 6 4 2 5 1 6
REMARK H PARENT
REMARK Flexibility Score: inf
ROOT
ATOM      1  C   UNL     1     -10.154  -4.435  -7.119  1.00  0.00     0.052 C 
ENDROOT
BRANCH   1   2
ATOM      2  C   UNL     1      -9.857  -4.224  -8.572  1.00  0.00     0.041 C 
ATOM      3  O   UNL     1      -8.766  -3.705  -8.928  1.00  0.00    -0.550 OA
ATOM      4  O   UNL     1     -10.800  -4.568  -9.531  1.00  0.00    -0.550 OA
ENDBRANCH   1   2
BRANCH   1   5
ATOM      5  C   UNL     1     -11.034  -5.670  -6.893  1.00  0.00     0.003 C 
ATOM      6  C   UNL     1     -11.340  -5.905  -5.414  1.00  0.00     0.004 C 
ENDBRANCH   1   5
TORSDOF 2
ENDMDL
MODEL 6
REMARK VINA RESULT:    -2.907     16.034     16.774
REMARK INTER + INTRA:          -3.256
REMARK INTER:                  -3.212
REMARK INTRA:                  -0.044
REMARK UNBOUND:                -0.009
REMARK SMILES CCCC(=O)[O-]
REMARK SMILES IDX 3 1 4 2 5 3 6 4 2 5 1 6
REMARK H PARENT
REMARK Flexibility Score: inf
ROOT
ATOM      1  C   UNL     1     -11.373   3.127   7.249  1.00  0.00     0.052 C 
ENDROOT
BRANCH   1   2
ATOM      2  C   UNL     1     -12.265   3.956   6.378  1.00  0.00     0.041 C 
ATOM      3  O   UNL     1     -13.406   4.301   6.784  1.00  0.00    -0.550 OA
ATOM      4  O   UNL     1     -11.850   4.318   5.103  1.00  0.00    -0.550 OA
ENDBRANCH   1   2
BRANCH   1   5
ATOM      5  C   UNL     1     -11.519   3.501   8.730  1.00  0.00     0.003 C 
ATOM      6  C   UNL     1     -10.621   4.673   9.125  1.00  0.00     0.004 C 
ENDBRANCH   1   5
TORSDOF 2
ENDMDL
MODEL 7
REMARK VINA RESULT:    -2.830      7.977      8.610
REMARK INTER + INTRA:          -3.170
REMARK INTER:                  -3.122
REMARK INTRA:                  -0.048
REMARK UNBOUND:                -0.009
REMARK SMILES CCCC(=O)[O-]
REMARK SMILES IDX 3 1 4 2 5 3 6 4 2 5 1 6
REMARK H PARENT
REMARK Flexibility Score: inf
ROOT
ATOM      1  C   UNL     1      -9.489  -3.856  -7.369  1.00  0.00     0.052 C 
ENDROOT
BRANCH   1   2
ATOM      2  C   UNL     1     -10.248  -5.135  -7.191  1.00  0.00     0.041 C 
ATOM      3  O   UNL     1     -11.108  -5.241  -6.276  1.00  0.00    -0.550 OA
ATOM      4  O   UNL     1      -9.981  -6.223  -8.012  1.00  0.00    -0.550 OA
ENDBRANCH   1   2
BRANCH   1   5
ATOM      5  C   UNL     1      -9.108  -3.623  -8.837  1.00  0.00     0.003 C 
ATOM      6  C   UNL     1     -10.239  -2.975  -9.636  1.00  0.00     0.004 C 
ENDBRANCH   1   5
TORSDOF 2
ENDMDL
MODEL 8
REMARK VINA RESULT:    -2.760      8.785      9.502
REMARK INTER + INTRA:          -3.092
REMARK INTER:                  -3.039
REMARK INTRA:                  -0.053
REMARK UNBOUND:                -0.009
REMARK SMILES CCCC(=O)[O-]
REMARK SMILES IDX 3 1 4 2 5 3 6 4 2 5 1 6
REMARK H PARENT
REMARK Flexibility Score: inf
ROOT
ATOM      1  C   UNL     1     -11.139  -5.508  -7.597  1.00  0.00     0.052 C 
ENDROOT
BRANCH   1   2
ATOM      2  C   UNL     1     -10.914  -6.284  -6.336  1.00  0.00     0.041 C 
ATOM      3  O   UNL     1     -10.223  -7.337  -6.352  1.00  0.00    -0.550 OA
ATOM      4  O   UNL     1     -11.496  -5.862  -5.147  1.00  0.00    -0.550 OA
ENDBRANCH   1   2
BRANCH   1   5
ATOM      5  C   UNL     1      -9.845  -4.858  -8.102  1.00  0.00     0.003 C 
ATOM      6  C   UNL     1      -9.537  -3.543  -7.387  1.00  0.00     0.004 C 
ENDBRANCH   1   5
TORSDOF 2
ENDMDL
