MODEL 1
REMARK VINA RESULT:    -7.059      0.000      0.000
REMARK INTER + INTRA:          -9.015
REMARK INTER:                  -8.709
REMARK INTRA:                  -0.306
REMARK UNBOUND:                -0.306
REMARK SMILES O=c1c(O)c(-c2cc(O)c(O)c(O)c2)oc2cc(O)cc(O)c12
REMARK SMILES IDX 5 1 3 2 2 3 1 4 23 5 21 6 20 7 18 8 17 9 16 10 15 11 6 12
REMARK SMILES IDX 7 13 8 14 14 15 10 16 12 17 9 18 11 20 13 22 4 24 22 26
REMARK SMILES IDX 19 28
REMARK H PARENT 9 19 11 21 13 23 4 25 22 27 19 29
REMARK Flexibility Score: inf
ROOT
ATOM      1  C   UNL     1       3.575 -26.319  72.852  1.00  0.00     0.180 A 
ATOM      2  C   UNL     1       2.920 -25.560  73.838  1.00  0.00     0.208 A 
ATOM      3  C   UNL     1       1.659 -25.012  73.550  1.00  0.00     0.238 A 
ATOM      4  O   UNL     1       1.103 -24.289  74.416  1.00  0.00    -0.285 OA
ATOM      5  C   UNL     1       1.063 -25.243  72.287  1.00  0.00     0.111 A 
ATOM      6  C   UNL     1      -0.227 -24.770  71.901  1.00  0.00     0.134 A 
ATOM      7  C   UNL     1      -0.662 -24.947  70.581  1.00  0.00     0.093 A 
ATOM      8  C   UNL     1       0.120 -25.637  69.652  1.00  0.00     0.123 A 
ATOM      9  C   UNL     1       1.356 -26.154  70.036  1.00  0.00     0.094 A 
ATOM     10  C   UNL     1       1.832 -25.962  71.335  1.00  0.00     0.146 A 
ATOM     11  O   UNL     1       3.019 -26.462  71.655  1.00  0.00    -0.452 OA
ENDROOT
BRANCH   1  12
ATOM     12  C   UNL     1       4.893 -26.948  73.091  1.00  0.00     0.029 A 
ATOM     13  C   UNL     1       4.974 -28.102  73.886  1.00  0.00     0.062 A 
ATOM     14  C   UNL     1       6.208 -28.707  74.145  1.00  0.00     0.162 A 
ATOM     15  C   UNL     1       6.076 -26.383  72.587  1.00  0.00     0.062 A 
ATOM     16  C   UNL     1       7.386 -28.149  73.620  1.00  0.00     0.200 A 
ATOM     17  C   UNL     1       7.318 -26.980  72.843  1.00  0.00     0.162 A 
BRANCH  14  18
ATOM     18  O   UNL     1       6.243 -29.860  74.927  1.00  0.00    -0.504 OA
ATOM     19  H   UNL     1       6.548 -29.848  75.894  1.00  0.00     0.293 HD
ENDBRANCH  14  18
BRANCH  16  20
ATOM     20  O   UNL     1       8.614 -28.760  73.882  1.00  0.00    -0.502 OA
ATOM     21  H   UNL     1       9.379 -28.739  73.219  1.00  0.00     0.293 HD
ENDBRANCH  16  20
BRANCH  17  22
ATOM     22  O   UNL     1       8.485 -26.413  72.332  1.00  0.00    -0.504 OA
ATOM     23  H   UNL     1       8.688 -26.419  71.339  1.00  0.00     0.293 HD
ENDBRANCH  17  22
ENDBRANCH   1  12
BRANCH   2  24
ATOM     24  O   UNL     1       3.537 -25.326  75.070  1.00  0.00    -0.502 OA
ATOM     25  H   UNL     1       3.291 -25.841  75.908  1.00  0.00     0.293 HD
ENDBRANCH   2  24
BRANCH   6  26
ATOM     26  O   UNL     1      -1.125 -24.150  72.775  1.00  0.00    -0.507 OA
ATOM     27  H   UNL     1      -0.959 -23.269  73.238  1.00  0.00     0.293 HD
ENDBRANCH   6  26
BRANCH   8  28
ATOM     28  O   UNL     1      -0.327 -25.822  68.346  1.00  0.00    -0.508 OA
ATOM     29  H   UNL     1      -0.276 -25.080  67.658  1.00  0.00     0.293 HD
ENDBRANCH   8  28
TORSDOF 7
ENDMDL
MODEL 2
REMARK VINA RESULT:    -6.941      0.118      1.758
REMARK INTER + INTRA:          -8.870
REMARK INTER:                  -8.534
REMARK INTRA:                  -0.336
REMARK UNBOUND:                -0.306
REMARK SMILES O=c1c(O)c(-c2cc(O)c(O)c(O)c2)oc2cc(O)cc(O)c12
REMARK SMILES IDX 5 1 3 2 2 3 1 4 23 5 21 6 20 7 18 8 17 9 16 10 15 11 6 12
REMARK SMILES IDX 7 13 8 14 14 15 10 16 12 17 9 18 11 20 13 22 4 24 22 26
REMARK SMILES IDX 19 28
REMARK H PARENT 9 19 11 21 13 23 4 25 22 27 19 29
REMARK Flexibility Score: inf
ROOT
ATOM      1  C   UNL     1       3.566 -26.282  72.970  1.00  0.00     0.180 A 
ATOM      2  C   UNL     1       2.919 -25.512  73.952  1.00  0.00     0.208 A 
ATOM      3  C   UNL     1       1.659 -24.960  73.666  1.00  0.00     0.238 A 
ATOM      4  O   UNL     1       1.111 -24.227  74.530  1.00  0.00    -0.285 OA
ATOM      5  C   UNL     1       1.055 -25.200  72.409  1.00  0.00     0.111 A 
ATOM      6  C   UNL     1      -0.235 -24.724  72.026  1.00  0.00     0.134 A 
ATOM      7  C   UNL     1      -0.677 -24.910  70.710  1.00  0.00     0.093 A 
ATOM      8  C   UNL     1       0.096 -25.612  69.782  1.00  0.00     0.123 A 
ATOM      9  C   UNL     1       1.332 -26.132  70.164  1.00  0.00     0.094 A 
ATOM     10  C   UNL     1       1.816 -25.930  71.459  1.00  0.00     0.146 A 
ATOM     11  O   UNL     1       3.002 -26.433  71.777  1.00  0.00    -0.452 OA
ENDROOT
BRANCH   1  12
ATOM     12  C   UNL     1       4.882 -26.915  73.207  1.00  0.00     0.029 A 
ATOM     13  C   UNL     1       6.031 -26.356  72.627  1.00  0.00     0.062 A 
ATOM     14  C   UNL     1       7.286 -26.945  72.818  1.00  0.00     0.162 A 
ATOM     15  C   UNL     1       5.001 -28.100  73.952  1.00  0.00     0.062 A 
ATOM     16  C   UNL     1       7.402 -28.118  73.582  1.00  0.00     0.200 A 
ATOM     17  C   UNL     1       6.253 -28.698  74.146  1.00  0.00     0.162 A 
BRANCH  14  18
ATOM     18  O   UNL     1       8.406 -26.350  72.237  1.00  0.00    -0.504 OA
ATOM     19  H   UNL     1       8.893 -25.576  72.674  1.00  0.00     0.293 HD
ENDBRANCH  14  18
BRANCH  16  20
ATOM     20  O   UNL     1       8.658 -28.698  73.769  1.00  0.00    -0.502 OA
ATOM     21  H   UNL     1       8.971 -29.028  74.674  1.00  0.00     0.293 HD
ENDBRANCH  16  20
BRANCH  17  22
ATOM     22  O   UNL     1       6.359 -29.871  74.894  1.00  0.00    -0.504 OA
ATOM     23  H   UNL     1       7.243 -30.355  75.002  1.00  0.00     0.293 HD
ENDBRANCH  17  22
ENDBRANCH   1  12
BRANCH   2  24
ATOM     24  O   UNL     1       3.544 -25.270  75.179  1.00  0.00    -0.502 OA
ATOM     25  H   UNL     1       3.144 -24.658  75.882  1.00  0.00     0.293 HD
ENDBRANCH   2  24
BRANCH   6  26
ATOM     26  O   UNL     1      -1.125 -24.092  72.899  1.00  0.00    -0.507 OA
ATOM     27  H   UNL     1      -1.173 -23.095  73.047  1.00  0.00     0.293 HD
ENDBRANCH   6  26
BRANCH   8  28
ATOM     28  O   UNL     1      -0.358 -25.806  68.480  1.00  0.00    -0.508 OA
ATOM     29  H   UNL     1      -1.064 -25.206  68.070  1.00  0.00     0.293 HD
ENDBRANCH   8  28
TORSDOF 7
ENDMDL
MODEL 3
REMARK VINA RESULT:    -6.901      2.627      4.414
REMARK INTER + INTRA:          -8.820
REMARK INTER:                  -8.509
REMARK INTRA:                  -0.311
REMARK UNBOUND:                -0.306
REMARK SMILES O=c1c(O)c(-c2cc(O)c(O)c(O)c2)oc2cc(O)cc(O)c12
REMARK SMILES IDX 5 1 3 2 2 3 1 4 23 5 21 6 20 7 18 8 17 9 16 10 15 11 6 12
REMARK SMILES IDX 7 13 8 14 14 15 10 16 12 17 9 18 11 20 13 22 4 24 22 26
REMARK SMILES IDX 19 28
REMARK H PARENT 9 19 11 21 13 23 4 25 22 27 19 29
REMARK Flexibility Score: inf
ROOT
ATOM      1  C   UNL     1       6.174 -27.002  72.183  1.00  0.00     0.180 A 
ATOM      2  C   UNL     1       5.073 -27.665  71.612  1.00  0.00     0.208 A 
ATOM      3  C   UNL     1       3.777 -27.308  72.017  1.00  0.00     0.238 A 
ATOM      4  O   UNL     1       2.799 -27.943  71.543  1.00  0.00    -0.285 OA
ATOM      5  C   UNL     1       3.596 -26.282  72.976  1.00  0.00     0.111 A 
ATOM      6  C   UNL     1       2.328 -25.812  73.430  1.00  0.00     0.134 A 
ATOM      7  C   UNL     1       2.270 -24.883  74.478  1.00  0.00     0.093 A 
ATOM      8  C   UNL     1       3.436 -24.359  75.041  1.00  0.00     0.123 A 
ATOM      9  C   UNL     1       4.680 -24.768  74.563  1.00  0.00     0.094 A 
ATOM     10  C   UNL     1       4.769 -25.721  73.545  1.00  0.00     0.146 A 
ATOM     11  O   UNL     1       5.974 -26.090  73.128  1.00  0.00    -0.452 OA
ENDROOT
BRANCH   1  12
ATOM     12  C   UNL     1       7.567 -27.305  71.788  1.00  0.00     0.029 A 
ATOM     13  C   UNL     1       8.404 -27.993  72.680  1.00  0.00     0.062 A 
ATOM     14  C   UNL     1       9.731 -28.276  72.342  1.00  0.00     0.162 A 
ATOM     15  C   UNL     1       8.091 -26.869  70.559  1.00  0.00     0.062 A 
ATOM     16  C   UNL     1      10.244 -27.856  71.103  1.00  0.00     0.200 A 
ATOM     17  C   UNL     1       9.421 -27.146  70.212  1.00  0.00     0.162 A 
BRANCH  14  18
ATOM     18  O   UNL     1      10.525 -28.974  73.251  1.00  0.00    -0.504 OA
ATOM     19  H   UNL     1      11.423 -28.623  73.565  1.00  0.00     0.293 HD
ENDBRANCH  14  18
BRANCH  16  20
ATOM     20  O   UNL     1      11.569 -28.144  70.772  1.00  0.00    -0.502 OA
ATOM     21  H   UNL     1      11.983 -29.052  70.947  1.00  0.00     0.293 HD
ENDBRANCH  16  20
BRANCH  17  22
ATOM     22  O   UNL     1       9.928 -26.714  68.988  1.00  0.00    -0.504 OA
ATOM     23  H   UNL     1      10.574 -25.936  68.925  1.00  0.00     0.293 HD
ENDBRANCH  17  22
ENDBRANCH   1  12
BRANCH   2  24
ATOM     24  O   UNL     1       5.275 -28.690  70.684  1.00  0.00    -0.502 OA
ATOM     25  H   UNL     1       6.153 -29.192  70.610  1.00  0.00     0.293 HD
ENDBRANCH   2  24
BRANCH   6  26
ATOM     26  O   UNL     1       1.106 -26.201  72.874  1.00  0.00    -0.507 OA
ATOM     27  H   UNL     1       0.862 -27.149  72.631  1.00  0.00     0.293 HD
ENDBRANCH   6  26
BRANCH   8  28
ATOM     28  O   UNL     1       3.369 -23.424  76.071  1.00  0.00    -0.508 OA
ATOM     29  H   UNL     1       4.206 -23.052  76.504  1.00  0.00     0.293 HD
ENDBRANCH   8  28
TORSDOF 7
ENDMDL
MODEL 4
REMARK VINA RESULT:    -6.900      1.776      3.774
REMARK INTER + INTRA:          -8.820
REMARK INTER:                  -8.508
REMARK INTRA:                  -0.312
REMARK UNBOUND:                -0.306
REMARK SMILES O=c1c(O)c(-c2cc(O)c(O)c(O)c2)oc2cc(O)cc(O)c12
REMARK SMILES IDX 5 1 3 2 2 3 1 4 23 5 21 6 20 7 18 8 17 9 16 10 15 11 6 12
REMARK SMILES IDX 7 13 8 14 14 15 10 16 12 17 9 18 11 20 13 22 4 24 22 26
REMARK SMILES IDX 19 28
REMARK H PARENT 9 19 11 21 13 23 4 25 22 27 19 29
REMARK Flexibility Score: inf
ROOT
ATOM      1  C   UNL     1       4.792 -27.139  72.876  1.00  0.00     0.180 A 
ATOM      2  C   UNL     1       3.992 -27.411  71.751  1.00  0.00     0.208 A 
ATOM      3  C   UNL     1       2.671 -26.937  71.724  1.00  0.00     0.238 A 
ATOM      4  O   UNL     1       1.944 -27.230  70.739  1.00  0.00    -0.285 OA
ATOM      5  C   UNL     1       2.170 -26.183  72.813  1.00  0.00     0.111 A 
ATOM      6  C   UNL     1       0.861 -25.619  72.874  1.00  0.00     0.134 A 
ATOM      7  C   UNL     1       0.428 -25.004  74.056  1.00  0.00     0.093 A 
ATOM      8  C   UNL     1       1.281 -24.874  75.154  1.00  0.00     0.123 A 
ATOM      9  C   UNL     1       2.582 -25.369  75.083  1.00  0.00     0.094 A 
ATOM     10  C   UNL     1       3.030 -26.020  73.931  1.00  0.00     0.146 A 
ATOM     11  O   UNL     1       4.272 -26.486  73.909  1.00  0.00    -0.452 OA
ENDROOT
BRANCH   1  12
ATOM     12  C   UNL     1       6.201 -27.584  72.966  1.00  0.00     0.029 A 
ATOM     13  C   UNL     1       7.188 -26.901  72.240  1.00  0.00     0.062 A 
ATOM     14  C   UNL     1       8.524 -27.311  72.290  1.00  0.00     0.162 A 
ATOM     15  C   UNL     1       6.564 -28.713  73.718  1.00  0.00     0.062 A 
ATOM     16  C   UNL     1       8.886 -28.429  73.061  1.00  0.00     0.200 A 
ATOM     17  C   UNL     1       7.901 -29.133  73.772  1.00  0.00     0.162 A 
BRANCH  14  18
ATOM     18  O   UNL     1       9.477 -26.596  71.566  1.00  0.00    -0.504 OA
ATOM     19  H   UNL     1      10.334 -27.024  71.231  1.00  0.00     0.293 HD
ENDBRANCH  14  18
BRANCH  16  20
ATOM     20  O   UNL     1      10.222 -28.830  73.107  1.00  0.00    -0.502 OA
ATOM     21  H   UNL     1      10.587 -29.562  72.509  1.00  0.00     0.293 HD
ENDBRANCH  16  20
BRANCH  17  22
ATOM     22  O   UNL     1       8.251 -30.252  74.527  1.00  0.00    -0.504 OA
ATOM     23  H   UNL     1       8.928 -30.928  74.193  1.00  0.00     0.293 HD
ENDBRANCH  17  22
ENDBRANCH   1  12
BRANCH   2  24
ATOM     24  O   UNL     1       4.499 -28.176  70.697  1.00  0.00    -0.502 OA
ATOM     25  H   UNL     1       4.887 -27.758  69.859  1.00  0.00     0.293 HD
ENDBRANCH   2  24
BRANCH   6  26
ATOM     26  O   UNL     1      -0.038 -25.613  71.803  1.00  0.00    -0.507 OA
ATOM     27  H   UNL     1       0.176 -25.272  70.877  1.00  0.00     0.293 HD
ENDBRANCH   6  26
BRANCH   8  28
ATOM     28  O   UNL     1       0.848 -24.246  76.320  1.00  0.00    -0.508 OA
ATOM     29  H   UNL     1       0.086 -24.621  76.872  1.00  0.00     0.293 HD
ENDBRANCH   8  28
TORSDOF 7
ENDMDL
MODEL 5
REMARK VINA RESULT:    -6.814      1.833      3.435
REMARK INTER + INTRA:          -8.713
REMARK INTER:                  -8.359
REMARK INTRA:                  -0.354
REMARK UNBOUND:                -0.306
REMARK SMILES O=c1c(O)c(-c2cc(O)c(O)c(O)c2)oc2cc(O)cc(O)c12
REMARK SMILES IDX 5 1 3 2 2 3 1 4 23 5 21 6 20 7 18 8 17 9 16 10 15 11 6 12
REMARK SMILES IDX 7 13 8 14 14 15 10 16 12 17 9 18 11 20 13 22 4 24 22 26
REMARK SMILES IDX 19 28
REMARK H PARENT 9 19 11 21 13 23 4 25 22 27 19 29
REMARK Flexibility Score: inf
ROOT
ATOM      1  C   UNL     1       4.971 -27.107  72.820  1.00  0.00     0.180 A 
ATOM      2  C   UNL     1       4.099 -27.432  71.766  1.00  0.00     0.208 A 
ATOM      3  C   UNL     1       2.788 -26.930  71.788  1.00  0.00     0.238 A 
ATOM      4  O   UNL     1       1.996 -27.269  70.870  1.00  0.00    -0.285 OA
ATOM      5  C   UNL     1       2.369 -26.098  72.854  1.00  0.00     0.111 A 
ATOM      6  C   UNL     1       1.077 -25.503  72.958  1.00  0.00     0.134 A 
ATOM      7  C   UNL     1       0.730 -24.804  74.122  1.00  0.00     0.093 A 
ATOM      8  C   UNL     1       1.651 -24.625  75.156  1.00  0.00     0.123 A 
ATOM      9  C   UNL     1       2.935 -25.152  75.038  1.00  0.00     0.094 A 
ATOM     10  C   UNL     1       3.299 -25.885  73.905  1.00  0.00     0.146 A 
ATOM     11  O   UNL     1       4.529 -26.379  73.838  1.00  0.00    -0.452 OA
ENDROOT
BRANCH   1  12
ATOM     12  C   UNL     1       6.375 -27.577  72.853  1.00  0.00     0.029 A 
ATOM     13  C   UNL     1       6.716 -28.674  73.659  1.00  0.00     0.062 A 
ATOM     14  C   UNL     1       8.037 -29.128  73.726  1.00  0.00     0.162 A 
ATOM     15  C   UNL     1       7.386 -26.913  72.140  1.00  0.00     0.062 A 
ATOM     16  C   UNL     1       9.042 -28.472  72.994  1.00  0.00     0.200 A 
ATOM     17  C   UNL     1       8.714 -27.358  72.203  1.00  0.00     0.162 A 
BRANCH  14  18
ATOM     18  O   UNL     1       8.333 -30.230  74.527  1.00  0.00    -0.504 OA
ATOM     19  H   UNL     1       8.751 -31.074  74.151  1.00  0.00     0.293 HD
ENDBRANCH  14  18
BRANCH  16  20
ATOM     20  O   UNL     1      10.358 -28.933  73.065  1.00  0.00    -0.502 OA
ATOM     21  H   UNL     1      11.149 -28.301  73.105  1.00  0.00     0.293 HD
ENDBRANCH  16  20
BRANCH  17  22
ATOM     22  O   UNL     1       9.708 -26.694  71.486  1.00  0.00    -0.504 OA
ATOM     23  H   UNL     1      10.226 -27.153  70.745  1.00  0.00     0.293 HD
ENDBRANCH  17  22
ENDBRANCH   1  12
BRANCH   2  24
ATOM     24  O   UNL     1       4.526 -28.273  70.735  1.00  0.00    -0.502 OA
ATOM     25  H   UNL     1       3.884 -28.688  70.069  1.00  0.00     0.293 HD
ENDBRANCH   2  24
BRANCH   6  26
ATOM     26  O   UNL     1       0.114 -25.543  71.945  1.00  0.00    -0.507 OA
ATOM     27  H   UNL     1       0.092 -26.226  71.202  1.00  0.00     0.293 HD
ENDBRANCH   6  26
BRANCH   8  28
ATOM     28  O   UNL     1       1.303 -23.915  76.303  1.00  0.00    -0.508 OA
ATOM     29  H   UNL     1       1.787 -24.057  77.182  1.00  0.00     0.293 HD
ENDBRANCH   8  28
TORSDOF 7
ENDMDL
MODEL 6
REMARK VINA RESULT:    -6.807      2.528      4.500
REMARK INTER + INTRA:          -8.705
REMARK INTER:                  -8.397
REMARK INTRA:                  -0.307
REMARK UNBOUND:                -0.306
REMARK SMILES O=c1c(O)c(-c2cc(O)c(O)c(O)c2)oc2cc(O)cc(O)c12
REMARK SMILES IDX 5 1 3 2 2 3 1 4 23 5 21 6 20 7 18 8 17 9 16 10 15 11 6 12
REMARK SMILES IDX 7 13 8 14 14 15 10 16 12 17 9 18 11 20 13 22 4 24 22 26
REMARK SMILES IDX 19 28
REMARK H PARENT 9 19 11 21 13 23 4 25 22 27 19 29
REMARK Flexibility Score: inf
ROOT
ATOM      1  C   UNL     1       5.966 -26.991  72.276  1.00  0.00     0.180 A 
ATOM      2  C   UNL     1       4.908 -27.660  71.635  1.00  0.00     0.208 A 
ATOM      3  C   UNL     1       3.587 -27.326  71.972  1.00  0.00     0.238 A 
ATOM      4  O   UNL     1       2.646 -27.966  71.435  1.00  0.00    -0.285 OA
ATOM      5  C   UNL     1       3.339 -26.316  72.933  1.00  0.00     0.111 A 
ATOM      6  C   UNL     1       2.041 -25.869  73.322  1.00  0.00     0.134 A 
ATOM      7  C   UNL     1       1.912 -24.956  74.377  1.00  0.00     0.093 A 
ATOM      8  C   UNL     1       3.037 -24.425  75.011  1.00  0.00     0.123 A 
ATOM      9  C   UNL     1       4.311 -24.811  74.599  1.00  0.00     0.094 A 
ATOM     10  C   UNL     1       4.470 -25.748  73.574  1.00  0.00     0.146 A 
ATOM     11  O   UNL     1       5.701 -26.095  73.220  1.00  0.00    -0.452 OA
ENDROOT
BRANCH   1  12
ATOM     12  C   UNL     1       7.384 -27.270  71.955  1.00  0.00     0.029 A 
ATOM     13  C   UNL     1       7.933 -26.775  70.763  1.00  0.00     0.062 A 
ATOM     14  C   UNL     1       9.264 -27.041  70.424  1.00  0.00     0.162 A 
ATOM     15  C   UNL     1       8.179 -28.071  72.792  1.00  0.00     0.062 A 
ATOM     16  C   UNL     1      10.061 -27.825  71.275  1.00  0.00     0.200 A 
ATOM     17  C   UNL     1       9.513 -28.345  72.460  1.00  0.00     0.162 A 
BRANCH  14  18
ATOM     18  O   UNL     1       9.775 -26.518  69.237  1.00  0.00    -0.504 OA
ATOM     19  H   UNL     1      10.055 -25.547  69.151  1.00  0.00     0.293 HD
ENDBRANCH  14  18
BRANCH  16  20
ATOM     20  O   UNL     1      11.388 -28.084  70.931  1.00  0.00    -0.502 OA
ATOM     21  H   UNL     1      12.148 -27.978  71.593  1.00  0.00     0.293 HD
ENDBRANCH  16  20
BRANCH  17  22
ATOM     22  O   UNL     1      10.294 -29.136  73.301  1.00  0.00    -0.504 OA
ATOM     23  H   UNL     1      10.929 -29.836  72.935  1.00  0.00     0.293 HD
ENDBRANCH  17  22
ENDBRANCH   1  12
BRANCH   2  24
ATOM     24  O   UNL     1       5.176 -28.669  70.706  1.00  0.00    -0.502 OA
ATOM     25  H   UNL     1       5.336 -29.632  70.979  1.00  0.00     0.293 HD
ENDBRANCH   2  24
BRANCH   6  26
ATOM     26  O   UNL     1       0.857 -26.266  72.692  1.00  0.00    -0.507 OA
ATOM     27  H   UNL     1       0.091 -25.648  72.471  1.00  0.00     0.293 HD
ENDBRANCH   6  26
BRANCH   8  28
ATOM     28  O   UNL     1       2.900 -23.506  76.049  1.00  0.00    -0.508 OA
ATOM     29  H   UNL     1       3.140 -22.529  75.928  1.00  0.00     0.293 HD
ENDBRANCH   8  28
TORSDOF 7
ENDMDL
MODEL 7
REMARK VINA RESULT:    -6.682      1.597      7.100
REMARK INTER + INTRA:          -8.551
REMARK INTER:                  -8.188
REMARK INTRA:                  -0.363
REMARK UNBOUND:                -0.306
REMARK SMILES O=c1c(O)c(-c2cc(O)c(O)c(O)c2)oc2cc(O)cc(O)c12
REMARK SMILES IDX 5 1 3 2 2 3 1 4 23 5 21 6 20 7 18 8 17 9 16 10 15 11 6 12
REMARK SMILES IDX 7 13 8 14 14 15 10 16 12 17 9 18 11 20 13 22 4 24 22 26
REMARK SMILES IDX 19 28
REMARK H PARENT 9 19 11 21 13 23 4 25 22 27 19 29
REMARK Flexibility Score: inf
ROOT
ATOM      1  C   UNL     1       4.315 -26.823  72.206  1.00  0.00     0.180 A 
ATOM      2  C   UNL     1       4.404 -27.797  73.217  1.00  0.00     0.208 A 
ATOM      3  C   UNL     1       5.666 -28.309  73.560  1.00  0.00     0.238 A 
ATOM      4  O   UNL     1       5.732 -29.219  74.426  1.00  0.00    -0.285 OA
ATOM      5  C   UNL     1       6.823 -27.830  72.901  1.00  0.00     0.111 A 
ATOM      6  C   UNL     1       8.155 -28.249  73.195  1.00  0.00     0.134 A 
ATOM      7  C   UNL     1       9.213 -27.805  72.391  1.00  0.00     0.093 A 
ATOM      8  C   UNL     1       8.994 -26.907  71.345  1.00  0.00     0.123 A 
ATOM      9  C   UNL     1       7.705 -26.446  71.086  1.00  0.00     0.094 A 
ATOM     10  C   UNL     1       6.624 -26.899  71.848  1.00  0.00     0.146 A 
ATOM     11  O   UNL     1       5.411 -26.443  71.561  1.00  0.00    -0.452 OA
ENDROOT
BRANCH   1  12
ATOM     12  C   UNL     1       3.024 -26.219  71.807  1.00  0.00     0.029 A 
ATOM     13  C   UNL     1       2.278 -26.804  70.774  1.00  0.00     0.062 A 
ATOM     14  C   UNL     1       1.064 -26.244  70.362  1.00  0.00     0.162 A 
ATOM     15  C   UNL     1       2.555 -25.035  72.402  1.00  0.00     0.062 A 
ATOM     16  C   UNL     1       0.589 -25.071  70.975  1.00  0.00     0.200 A 
ATOM     17  C   UNL     1       1.341 -24.465  71.995  1.00  0.00     0.162 A 
BRANCH  14  18
ATOM     18  O   UNL     1       0.345 -26.865  69.341  1.00  0.00    -0.504 OA
ATOM     19  H   UNL     1       0.776 -27.523  68.701  1.00  0.00     0.293 HD
ENDBRANCH  14  18
BRANCH  16  20
ATOM     20  O   UNL     1      -0.624 -24.520  70.559  1.00  0.00    -0.502 OA
ATOM     21  H   UNL     1      -1.196 -23.950  71.172  1.00  0.00     0.293 HD
ENDBRANCH  16  20
BRANCH  17  22
ATOM     22  O   UNL     1       0.883 -23.293  72.597  1.00  0.00    -0.504 OA
ATOM     23  H   UNL     1       1.244 -22.979  73.490  1.00  0.00     0.293 HD
ENDBRANCH  17  22
ENDBRANCH   1  12
BRANCH   2  24
ATOM     24  O   UNL     1       3.246 -28.272  73.839  1.00  0.00    -0.502 OA
ATOM     25  H   UNL     1       3.137 -29.239  74.119  1.00  0.00     0.293 HD
ENDBRANCH   2  24
BRANCH   6  26
ATOM     26  O   UNL     1       8.495 -29.071  74.274  1.00  0.00    -0.507 OA
ATOM     27  H   UNL     1       8.490 -30.080  74.250  1.00  0.00     0.293 HD
ENDBRANCH   6  26
BRANCH   8  28
ATOM     28  O   UNL     1      10.054 -26.459  70.559  1.00  0.00    -0.508 OA
ATOM     29  H   UNL     1      10.288 -26.904  69.680  1.00  0.00     0.293 HD
ENDBRANCH   8  28
TORSDOF 7
ENDMDL
MODEL 8
REMARK VINA RESULT:    -6.540      2.448      4.083
REMARK INTER + INTRA:          -8.376
REMARK INTER:                  -8.011
REMARK INTRA:                  -0.365
REMARK UNBOUND:                -0.306
REMARK SMILES O=c1c(O)c(-c2cc(O)c(O)c(O)c2)oc2cc(O)cc(O)c12
REMARK SMILES IDX 5 1 3 2 2 3 1 4 23 5 21 6 20 7 18 8 17 9 16 10 15 11 6 12
REMARK SMILES IDX 7 13 8 14 14 15 10 16 12 17 9 18 11 20 13 22 4 24 22 26
REMARK SMILES IDX 19 28
REMARK H PARENT 9 19 11 21 13 23 4 25 22 27 19 29
REMARK Flexibility Score: inf
ROOT
ATOM      1  C   UNL     1       6.691 -25.803  72.167  1.00  0.00     0.180 A 
ATOM      2  C   UNL     1       6.706 -24.549  72.804  1.00  0.00     0.208 A 
ATOM      3  C   UNL     1       5.489 -23.969  73.195  1.00  0.00     0.238 A 
ATOM      4  O   UNL     1       5.505 -22.823  73.714  1.00  0.00    -0.285 OA
ATOM      5  C   UNL     1       4.273 -24.656  72.960  1.00  0.00     0.111 A 
ATOM      6  C   UNL     1       2.986 -24.181  73.350  1.00  0.00     0.134 A 
ATOM      7  C   UNL     1       1.840 -24.882  72.950  1.00  0.00     0.093 A 
ATOM      8  C   UNL     1       1.941 -26.076  72.232  1.00  0.00     0.123 A 
ATOM      9  C   UNL     1       3.196 -26.579  71.897  1.00  0.00     0.094 A 
ATOM     10  C   UNL     1       4.355 -25.883  72.250  1.00  0.00     0.146 A 
ATOM     11  O   UNL     1       5.531 -26.392  71.902  1.00  0.00    -0.452 OA
ENDROOT
BRANCH   1  12
ATOM     12  C   UNL     1       7.935 -26.489  71.749  1.00  0.00     0.029 A 
ATOM     13  C   UNL     1       8.429 -26.291  70.451  1.00  0.00     0.062 A 
ATOM     14  C   UNL     1       9.590 -26.941  70.022  1.00  0.00     0.162 A 
ATOM     15  C   UNL     1       8.602 -27.381  72.605  1.00  0.00     0.062 A 
ATOM     16  C   UNL     1      10.266 -27.816  70.889  1.00  0.00     0.200 A 
ATOM     17  C   UNL     1       9.765 -28.039  72.183  1.00  0.00     0.162 A 
BRANCH  14  18
ATOM     18  O   UNL     1      10.057 -26.706  68.729  1.00  0.00    -0.504 OA
ATOM     19  H   UNL     1      10.567 -27.406  68.203  1.00  0.00     0.293 HD
ENDBRANCH  14  18
BRANCH  16  20
ATOM     20  O   UNL     1      11.425 -28.459  70.453  1.00  0.00    -0.502 OA
ATOM     21  H   UNL     1      12.348 -28.175  70.761  1.00  0.00     0.293 HD
ENDBRANCH  16  20
BRANCH  17  22
ATOM     22  O   UNL     1      10.422 -28.917  73.044  1.00  0.00    -0.504 OA
ATOM     23  H   UNL     1      11.248 -29.428  72.753  1.00  0.00     0.293 HD
ENDBRANCH  17  22
ENDBRANCH   1  12
BRANCH   2  24
ATOM     24  O   UNL     1       7.915 -23.879  73.005  1.00  0.00    -0.502 OA
ATOM     25  H   UNL     1       8.033 -22.894  72.796  1.00  0.00     0.293 HD
ENDBRANCH   2  24
BRANCH   6  26
ATOM     26  O   UNL     1       2.778 -23.051  74.146  1.00  0.00    -0.507 OA
ATOM     27  H   UNL     1       3.157 -22.924  75.073  1.00  0.00     0.293 HD
ENDBRANCH   6  26
BRANCH   8  28
ATOM     28  O   UNL     1       0.797 -26.774  71.852  1.00  0.00    -0.508 OA
ATOM     29  H   UNL     1      -0.043 -26.764  72.418  1.00  0.00     0.293 HD
ENDBRANCH   8  28
TORSDOF 7
ENDMDL
