MODEL 1
REMARK VINA RESULT:    -4.348      0.000      0.000
REMARK INTER + INTRA:          -4.729
REMARK INTER:                  -4.729
REMARK INTRA:                   0.000
REMARK UNBOUND:                 0.000
REMARK SMILES Cc1cc(O)c2c(c1)C(=O)c1cc(O)cc(O)c1C2=O
REMARK SMILES IDX 1 1 2 2 8 3 7 4 6 5 4 6 3 7 19 8 20 9 18 10 11 11 9 12 10 13
REMARK SMILES IDX 12 14 13 15 15 16 16 17 5 18 17 20 14 22
REMARK H PARENT 5 19 17 21 14 23
REMARK Flexibility Score: inf
ROOT
ATOM      1  C   UNL     1      20.648  29.538  43.077  1.00  0.00     0.044 C 
ATOM      2  C   UNL     1      21.624  30.291  42.219  1.00  0.00    -0.047 A 
ATOM      3  C   UNL     1      21.494  31.673  42.053  1.00  0.00     0.016 A 
ATOM      4  C   UNL     1      22.429  32.396  41.291  1.00  0.00     0.038 A 
ATOM      5  C   UNL     1      23.530  31.727  40.707  1.00  0.00     0.076 A 
ATOM      6  C   UNL     1      23.621  30.314  40.832  1.00  0.00     0.127 A 
ATOM      7  C   UNL     1      22.693  29.623  41.616  1.00  0.00     0.050 A 
ATOM      8  C   UNL     1      24.583  32.545  40.041  1.00  0.00     0.201 C 
ATOM      9  O   UNL     1      25.742  32.078  39.882  1.00  0.00    -0.288 OA
ATOM     10  C   UNL     1      24.305  33.957  39.665  1.00  0.00     0.076 A 
ATOM     11  C   UNL     1      23.169  34.599  40.201  1.00  0.00     0.041 A 
ATOM     12  C   UNL     1      22.254  33.854  41.095  1.00  0.00     0.194 C 
ATOM     13  O   UNL     1      21.311  34.460  41.675  1.00  0.00    -0.289 OA
ATOM     14  C   UNL     1      22.915  35.945  39.886  1.00  0.00     0.059 A 
ATOM     15  C   UNL     1      23.772  36.651  39.042  1.00  0.00     0.120 A 
ATOM     16  C   UNL     1      24.894  36.016  38.501  1.00  0.00     0.093 A 
ATOM     17  C   UNL     1      25.167  34.676  38.805  1.00  0.00     0.131 A 
ENDROOT
BRANCH   6  18
ATOM     18  O   UNL     1      24.589  29.552  40.171  1.00  0.00    -0.507 OA
ATOM     19  H   UNL     1      24.400  28.995  39.350  1.00  0.00     0.293 HD
ENDBRANCH   6  18
BRANCH  17  20
ATOM     20  O   UNL     1      26.286  34.062  38.241  1.00  0.00    -0.507 OA
ATOM     21  H   UNL     1      26.450  34.068  37.241  1.00  0.00     0.293 HD
ENDBRANCH  17  20
BRANCH  15  22
ATOM     22  O   UNL     1      23.499  37.985  38.743  1.00  0.00    -0.508 OA
ATOM     23  H   UNL     1      22.569  38.291  38.487  1.00  0.00     0.293 HD
ENDBRANCH  15  22
TORSDOF 3
ENDMDL
MODEL 2
REMARK VINA RESULT:    -4.314      2.351      5.992
REMARK INTER + INTRA:          -4.692
REMARK INTER:                  -4.692
REMARK INTRA:                   0.000
REMARK UNBOUND:                 0.000
REMARK SMILES Cc1cc(O)c2c(c1)C(=O)c1cc(O)cc(O)c1C2=O
REMARK SMILES IDX 1 1 2 2 8 3 7 4 6 5 4 6 3 7 19 8 20 9 18 10 11 11 9 12 10 13
REMARK SMILES IDX 12 14 13 15 15 16 16 17 5 18 17 20 14 22
REMARK H PARENT 5 19 17 21 14 23
REMARK Flexibility Score: inf
ROOT
ATOM      1  C   UNL     1      26.572  33.749  38.247  1.00  0.00     0.044 C 
ATOM      2  C   UNL     1      25.347  34.370  38.856  1.00  0.00    -0.047 A 
ATOM      3  C   UNL     1      24.447  33.583  39.581  1.00  0.00     0.016 A 
ATOM      4  C   UNL     1      23.322  34.161  40.196  1.00  0.00     0.038 A 
ATOM      5  C   UNL     1      23.109  35.557  40.105  1.00  0.00     0.076 A 
ATOM      6  C   UNL     1      23.996  36.339  39.316  1.00  0.00     0.127 A 
ATOM      7  C   UNL     1      25.121  35.744  38.737  1.00  0.00     0.050 A 
ATOM      8  C   UNL     1      21.997  36.156  40.897  1.00  0.00     0.201 C 
ATOM      9  O   UNL     1      22.013  37.382  41.185  1.00  0.00    -0.288 OA
ATOM     10  C   UNL     1      20.923  35.289  41.451  1.00  0.00     0.076 A 
ATOM     11  C   UNL     1      21.116  33.892  41.479  1.00  0.00     0.041 A 
ATOM     12  C   UNL     1      22.359  33.307  40.929  1.00  0.00     0.194 C 
ATOM     13  O   UNL     1      22.589  32.074  41.069  1.00  0.00    -0.289 OA
ATOM     14  C   UNL     1      20.126  33.062  42.036  1.00  0.00     0.059 A 
ATOM     15  C   UNL     1      18.951  33.607  42.552  1.00  0.00     0.120 A 
ATOM     16  C   UNL     1      18.751  34.991  42.517  1.00  0.00     0.093 A 
ATOM     17  C   UNL     1      19.726  35.835  41.970  1.00  0.00     0.131 A 
ENDROOT
BRANCH   6  18
ATOM     18  O   UNL     1      23.784  37.694  39.049  1.00  0.00    -0.507 OA
ATOM     19  H   UNL     1      23.682  38.398  39.767  1.00  0.00     0.293 HD
ENDBRANCH   6  18
BRANCH  17  20
ATOM     20  O   UNL     1      19.497  37.211  41.935  1.00  0.00    -0.507 OA
ATOM     21  H   UNL     1      19.851  37.791  41.183  1.00  0.00     0.293 HD
ENDBRANCH  17  20
BRANCH  15  22
ATOM     22  O   UNL     1      17.983  32.765  43.097  1.00  0.00    -0.508 OA
ATOM     23  H   UNL     1      17.666  32.871  44.053  1.00  0.00     0.293 HD
ENDBRANCH  15  22
TORSDOF 3
ENDMDL
MODEL 3
REMARK VINA RESULT:    -4.183      1.774      3.633
REMARK INTER + INTRA:          -4.550
REMARK INTER:                  -4.550
REMARK INTRA:                   0.000
REMARK UNBOUND:                 0.000
REMARK SMILES Cc1cc(O)c2c(c1)C(=O)c1cc(O)cc(O)c1C2=O
REMARK SMILES IDX 1 1 2 2 8 3 7 4 6 5 4 6 3 7 19 8 20 9 18 10 11 11 9 12 10 13
REMARK SMILES IDX 12 14 13 15 15 16 16 17 5 18 17 20 14 22
REMARK H PARENT 5 19 17 21 14 23
REMARK Flexibility Score: inf
ROOT
ATOM      1  C   UNL     1      26.804  28.843  39.774  1.00  0.00     0.044 C 
ATOM      2  C   UNL     1      25.889  30.009  40.013  1.00  0.00    -0.047 A 
ATOM      3  C   UNL     1      26.246  31.286  39.570  1.00  0.00     0.016 A 
ATOM      4  C   UNL     1      25.375  32.376  39.745  1.00  0.00     0.038 A 
ATOM      5  C   UNL     1      24.112  32.179  40.352  1.00  0.00     0.076 A 
ATOM      6  C   UNL     1      23.784  30.890  40.853  1.00  0.00     0.127 A 
ATOM      7  C   UNL     1      24.655  29.818  40.642  1.00  0.00     0.050 A 
ATOM      8  C   UNL     1      23.155  33.321  40.380  1.00  0.00     0.201 C 
ATOM      9  O   UNL     1      21.920  33.110  40.513  1.00  0.00    -0.288 OA
ATOM     10  C   UNL     1      23.637  34.706  40.134  1.00  0.00     0.076 A 
ATOM     11  C   UNL     1      24.924  34.898  39.588  1.00  0.00     0.041 A 
ATOM     12  C   UNL     1      25.786  33.729  39.302  1.00  0.00     0.194 C 
ATOM     13  O   UNL     1      26.882  33.890  38.698  1.00  0.00    -0.289 OA
ATOM     14  C   UNL     1      25.378  36.200  39.313  1.00  0.00     0.059 A 
ATOM     15  C   UNL     1      24.572  37.306  39.584  1.00  0.00     0.120 A 
ATOM     16  C   UNL     1      23.300  37.121  40.134  1.00  0.00     0.093 A 
ATOM     17  C   UNL     1      22.827  35.832  40.411  1.00  0.00     0.131 A 
ENDROOT
BRANCH   6  18
ATOM     18  O   UNL     1      22.626  30.634  41.593  1.00  0.00    -0.507 OA
ATOM     19  H   UNL     1      22.081  29.788  41.507  1.00  0.00     0.293 HD
ENDBRANCH   6  18
BRANCH  17  20
ATOM     20  O   UNL     1      21.558  35.675  40.973  1.00  0.00    -0.507 OA
ATOM     21  H   UNL     1      21.105  34.770  41.019  1.00  0.00     0.293 HD
ENDBRANCH  17  20
BRANCH  15  22
ATOM     22  O   UNL     1      25.044  38.587  39.304  1.00  0.00    -0.508 OA
ATOM     23  H   UNL     1      24.432  39.312  38.951  1.00  0.00     0.293 HD
ENDBRANCH  15  22
TORSDOF 3
ENDMDL
MODEL 4
REMARK VINA RESULT:    -4.182     12.072     15.110
REMARK INTER + INTRA:          -4.549
REMARK INTER:                  -4.549
REMARK INTRA:                   0.000
REMARK UNBOUND:                 0.000
REMARK SMILES Cc1cc(O)c2c(c1)C(=O)c1cc(O)cc(O)c1C2=O
REMARK SMILES IDX 1 1 2 2 8 3 7 4 6 5 4 6 3 7 19 8 20 9 18 10 11 11 9 12 10 13
REMARK SMILES IDX 12 14 13 15 15 16 16 17 5 18 17 20 14 22
REMARK H PARENT 5 19 17 21 14 23
REMARK Flexibility Score: inf
ROOT
ATOM      1  C   UNL     1      23.368  31.440  50.829  1.00  0.00     0.044 C 
ATOM      2  C   UNL     1      22.275  31.071  51.791  1.00  0.00    -0.047 A 
ATOM      3  C   UNL     1      21.258  31.984  52.084  1.00  0.00     0.016 A 
ATOM      4  C   UNL     1      20.204  31.633  52.946  1.00  0.00     0.038 A 
ATOM      5  C   UNL     1      20.153  30.334  53.504  1.00  0.00     0.076 A 
ATOM      6  C   UNL     1      21.222  29.433  53.248  1.00  0.00     0.127 A 
ATOM      7  C   UNL     1      22.244  29.798  52.367  1.00  0.00     0.050 A 
ATOM      8  C   UNL     1      18.944  29.947  54.284  1.00  0.00     0.201 C 
ATOM      9  O   UNL     1      18.654  28.730  54.441  1.00  0.00    -0.288 OA
ATOM     10  C   UNL     1      18.010  30.991  54.783  1.00  0.00     0.076 A 
ATOM     11  C   UNL     1      18.108  32.301  54.269  1.00  0.00     0.041 A 
ATOM     12  C   UNL     1      19.155  32.627  53.274  1.00  0.00     0.194 C 
ATOM     13  O   UNL     1      19.164  33.761  52.720  1.00  0.00    -0.289 OA
ATOM     14  C   UNL     1      17.207  33.290  54.702  1.00  0.00     0.059 A 
ATOM     15  C   UNL     1      16.221  32.990  55.641  1.00  0.00     0.120 A 
ATOM     16  C   UNL     1      16.126  31.695  56.161  1.00  0.00     0.093 A 
ATOM     17  C   UNL     1      17.012  30.695  55.740  1.00  0.00     0.131 A 
ENDROOT
BRANCH   6  18
ATOM     18  O   UNL     1      21.332  28.186  53.869  1.00  0.00    -0.507 OA
ATOM     19  H   UNL     1      20.782  27.380  53.609  1.00  0.00     0.293 HD
ENDBRANCH   6  18
BRANCH  17  20
ATOM     20  O   UNL     1      16.905  29.414  56.284  1.00  0.00    -0.507 OA
ATOM     21  H   UNL     1      17.723  28.876  56.545  1.00  0.00     0.293 HD
ENDBRANCH  17  20
BRANCH  15  22
ATOM     22  O   UNL     1      15.340  33.986  56.056  1.00  0.00    -0.508 OA
ATOM     23  H   UNL     1      15.624  34.708  56.707  1.00  0.00     0.293 HD
ENDBRANCH  15  22
TORSDOF 3
ENDMDL
MODEL 5
REMARK VINA RESULT:    -4.156      3.461      5.220
REMARK INTER + INTRA:          -4.520
REMARK INTER:                  -4.520
REMARK INTRA:                   0.000
REMARK UNBOUND:                 0.000
REMARK SMILES Cc1cc(O)c2c(c1)C(=O)c1cc(O)cc(O)c1C2=O
REMARK SMILES IDX 1 1 2 2 8 3 7 4 6 5 4 6 3 7 19 8 20 9 18 10 11 11 9 12 10 13
REMARK SMILES IDX 12 14 13 15 15 16 16 17 5 18 17 20 14 22
REMARK H PARENT 5 19 17 21 14 23
REMARK Flexibility Score: inf
ROOT
ATOM      1  C   UNL     1      30.711  33.071  39.176  1.00  0.00     0.044 C 
ATOM      2  C   UNL     1      29.225  33.286  39.151  1.00  0.00    -0.047 A 
ATOM      3  C   UNL     1      28.669  34.423  39.746  1.00  0.00     0.016 A 
ATOM      4  C   UNL     1      27.284  34.659  39.687  1.00  0.00     0.038 A 
ATOM      5  C   UNL     1      26.443  33.755  38.996  1.00  0.00     0.076 A 
ATOM      6  C   UNL     1      27.010  32.573  38.446  1.00  0.00     0.127 A 
ATOM      7  C   UNL     1      28.392  32.375  38.496  1.00  0.00     0.050 A 
ATOM      8  C   UNL     1      25.009  34.117  38.820  1.00  0.00     0.201 C 
ATOM      9  O   UNL     1      24.331  33.592  37.896  1.00  0.00    -0.288 OA
ATOM     10  C   UNL     1      24.399  35.184  39.656  1.00  0.00     0.076 A 
ATOM     11  C   UNL     1      25.241  36.043  40.394  1.00  0.00     0.041 A 
ATOM     12  C   UNL     1      26.708  35.850  40.355  1.00  0.00     0.194 C 
ATOM     13  O   UNL     1      27.467  36.692  40.909  1.00  0.00    -0.289 OA
ATOM     14  C   UNL     1      24.681  37.081  41.159  1.00  0.00     0.059 A 
ATOM     15  C   UNL     1      23.299  37.266  41.203  1.00  0.00     0.120 A 
ATOM     16  C   UNL     1      22.460  36.411  40.481  1.00  0.00     0.093 A 
ATOM     17  C   UNL     1      22.998  35.373  39.710  1.00  0.00     0.131 A 
ENDROOT
BRANCH   6  18
ATOM     18  O   UNL     1      26.241  31.555  37.876  1.00  0.00    -0.507 OA
ATOM     19  H   UNL     1      26.537  31.006  37.081  1.00  0.00     0.293 HD
ENDBRANCH   6  18
BRANCH  17  20
ATOM     20  O   UNL     1      22.138  34.525  39.009  1.00  0.00    -0.507 OA
ATOM     21  H   UNL     1      21.495  34.879  38.311  1.00  0.00     0.293 HD
ENDBRANCH  17  20
BRANCH  15  22
ATOM     22  O   UNL     1      22.767  38.301  41.969  1.00  0.00    -0.508 OA
ATOM     23  H   UNL     1      22.073  38.935  41.594  1.00  0.00     0.293 HD
ENDBRANCH  15  22
TORSDOF 3
ENDMDL
MODEL 6
REMARK VINA RESULT:    -4.136      2.434      4.658
REMARK INTER + INTRA:          -4.498
REMARK INTER:                  -4.498
REMARK INTRA:                   0.000
REMARK UNBOUND:                 0.000
REMARK SMILES Cc1cc(O)c2c(c1)C(=O)c1cc(O)cc(O)c1C2=O
REMARK SMILES IDX 1 1 2 2 8 3 7 4 6 5 4 6 3 7 19 8 20 9 18 10 11 11 9 12 10 13
REMARK SMILES IDX 12 14 13 15 15 16 16 17 5 18 17 20 14 22
REMARK H PARENT 5 19 17 21 14 23
REMARK Flexibility Score: inf
ROOT
ATOM      1  C   UNL     1      28.593  32.895  37.920  1.00  0.00     0.044 C 
ATOM      2  C   UNL     1      27.285  33.058  38.640  1.00  0.00    -0.047 A 
ATOM      3  C   UNL     1      26.763  34.335  38.868  1.00  0.00     0.016 A 
ATOM      4  C   UNL     1      25.517  34.498  39.499  1.00  0.00     0.038 A 
ATOM      5  C   UNL     1      24.767  33.362  39.886  1.00  0.00     0.076 A 
ATOM      6  C   UNL     1      25.334  32.071  39.703  1.00  0.00     0.127 A 
ATOM      7  C   UNL     1      26.562  31.935  39.050  1.00  0.00     0.050 A 
ATOM      8  C   UNL     1      23.387  33.569  40.407  1.00  0.00     0.201 C 
ATOM      9  O   UNL     1      22.548  32.628  40.370  1.00  0.00    -0.288 OA
ATOM     10  C   UNL     1      22.955  34.916  40.865  1.00  0.00     0.076 A 
ATOM     11  C   UNL     1      23.741  36.038  40.531  1.00  0.00     0.041 A 
ATOM     12  C   UNL     1      24.996  35.860  39.766  1.00  0.00     0.194 C 
ATOM     13  O   UNL     1      25.632  36.870  39.358  1.00  0.00    -0.289 OA
ATOM     14  C   UNL     1      23.325  37.323  40.924  1.00  0.00     0.059 A 
ATOM     15  C   UNL     1      22.146  37.497  41.648  1.00  0.00     0.120 A 
ATOM     16  C   UNL     1      21.369  36.386  41.989  1.00  0.00     0.093 A 
ATOM     17  C   UNL     1      21.764  35.099  41.605  1.00  0.00     0.131 A 
ENDROOT
BRANCH   6  18
ATOM     18  O   UNL     1      24.735  30.903  40.183  1.00  0.00    -0.507 OA
ATOM     19  H   UNL     1      24.979  30.467  41.061  1.00  0.00     0.293 HD
ENDBRANCH   6  18
BRANCH  17  20
ATOM     20  O   UNL     1      20.977  34.005  41.970  1.00  0.00    -0.507 OA
ATOM     21  H   UNL     1      21.255  33.054  41.755  1.00  0.00     0.293 HD
ENDBRANCH  17  20
BRANCH  15  22
ATOM     22  O   UNL     1      21.755  38.780  42.028  1.00  0.00    -0.508 OA
ATOM     23  H   UNL     1      21.176  38.938  42.843  1.00  0.00     0.293 HD
ENDBRANCH  15  22
TORSDOF 3
ENDMDL
MODEL 7
REMARK VINA RESULT:    -4.075      2.549      4.461
REMARK INTER + INTRA:          -4.432
REMARK INTER:                  -4.432
REMARK INTRA:                   0.000
REMARK UNBOUND:                 0.000
REMARK SMILES Cc1cc(O)c2c(c1)C(=O)c1cc(O)cc(O)c1C2=O
REMARK SMILES IDX 1 1 2 2 8 3 7 4 6 5 4 6 3 7 19 8 20 9 18 10 11 11 9 12 10 13
REMARK SMILES IDX 12 14 13 15 15 16 16 17 5 18 17 20 14 22
REMARK H PARENT 5 19 17 21 14 23
REMARK Flexibility Score: inf
ROOT
ATOM      1  C   UNL     1      29.725  29.303  39.898  1.00  0.00     0.044 C 
ATOM      2  C   UNL     1      28.381  29.951  40.060  1.00  0.00    -0.047 A 
ATOM      3  C   UNL     1      28.065  31.106  39.337  1.00  0.00     0.016 A 
ATOM      4  C   UNL     1      26.793  31.695  39.444  1.00  0.00     0.038 A 
ATOM      5  C   UNL     1      25.809  31.103  40.271  1.00  0.00     0.076 A 
ATOM      6  C   UNL     1      26.158  29.964  41.047  1.00  0.00     0.127 A 
ATOM      7  C   UNL     1      27.421  29.383  40.902  1.00  0.00     0.050 A 
ATOM      8  C   UNL     1      24.428  31.662  40.239  1.00  0.00     0.201 C 
ATOM      9  O   UNL     1      23.450  30.957  40.604  1.00  0.00    -0.288 OA
ATOM     10  C   UNL     1      24.182  33.013  39.667  1.00  0.00     0.076 A 
ATOM     11  C   UNL     1      25.193  33.626  38.897  1.00  0.00     0.041 A 
ATOM     12  C   UNL     1      26.489  32.939  38.699  1.00  0.00     0.194 C 
ATOM     13  O   UNL     1      27.344  33.426  37.909  1.00  0.00    -0.289 OA
ATOM     14  C   UNL     1      24.960  34.886  38.317  1.00  0.00     0.059 A 
ATOM     15  C   UNL     1      23.742  35.539  38.503  1.00  0.00     0.120 A 
ATOM     16  C   UNL     1      22.742  34.939  39.274  1.00  0.00     0.093 A 
ATOM     17  C   UNL     1      22.952  33.684  39.857  1.00  0.00     0.131 A 
ENDROOT
BRANCH   6  18
ATOM     18  O   UNL     1      25.302  29.400  41.997  1.00  0.00    -0.507 OA
ATOM     19  H   UNL     1      24.868  29.924  42.743  1.00  0.00     0.293 HD
ENDBRANCH   6  18
BRANCH  17  20
ATOM     20  O   UNL     1      21.942  33.112  40.633  1.00  0.00    -0.507 OA
ATOM     21  H   UNL     1      21.969  33.138  41.645  1.00  0.00     0.293 HD
ENDBRANCH  17  20
BRANCH  15  22
ATOM     22  O   UNL     1      23.535  36.788  37.920  1.00  0.00    -0.508 OA
ATOM     23  H   UNL     1      23.248  37.589  38.469  1.00  0.00     0.293 HD
ENDBRANCH  15  22
TORSDOF 3
ENDMDL
MODEL 8
REMARK VINA RESULT:    -4.024     12.090     14.766
REMARK INTER + INTRA:          -4.377
REMARK INTER:                  -4.377
REMARK INTRA:                   0.000
REMARK UNBOUND:                 0.000
REMARK SMILES Cc1cc(O)c2c(c1)C(=O)c1cc(O)cc(O)c1C2=O
REMARK SMILES IDX 1 1 2 2 8 3 7 4 6 5 4 6 3 7 19 8 20 9 18 10 11 11 9 12 10 13
REMARK SMILES IDX 12 14 13 15 15 16 16 17 5 18 17 20 14 22
REMARK H PARENT 5 19 17 21 14 23
REMARK Flexibility Score: inf
ROOT
ATOM      1  C   UNL     1      15.856  28.059  56.625  1.00  0.00     0.044 C 
ATOM      2  C   UNL     1      16.567  29.182  55.928  1.00  0.00    -0.047 A 
ATOM      3  C   UNL     1      17.781  28.948  55.275  1.00  0.00     0.016 A 
ATOM      4  C   UNL     1      18.432  29.981  54.578  1.00  0.00     0.038 A 
ATOM      5  C   UNL     1      17.844  31.267  54.511  1.00  0.00     0.076 A 
ATOM      6  C   UNL     1      16.641  31.510  55.228  1.00  0.00     0.127 A 
ATOM      7  C   UNL     1      16.000  30.459  55.891  1.00  0.00     0.050 A 
ATOM      8  C   UNL     1      18.481  32.291  53.636  1.00  0.00     0.201 C 
ATOM      9  O   UNL     1      17.809  33.271  53.216  1.00  0.00    -0.288 OA
ATOM     10  C   UNL     1      19.877  32.103  53.159  1.00  0.00     0.076 A 
ATOM     11  C   UNL     1      20.480  30.835  53.287  1.00  0.00     0.041 A 
ATOM     12  C   UNL     1      19.736  29.724  53.923  1.00  0.00     0.194 C 
ATOM     13  O   UNL     1      20.224  28.560  53.924  1.00  0.00    -0.289 OA
ATOM     14  C   UNL     1      21.786  30.631  52.806  1.00  0.00     0.059 A 
ATOM     15  C   UNL     1      22.493  31.675  52.209  1.00  0.00     0.120 A 
ATOM     16  C   UNL     1      21.902  32.936  52.089  1.00  0.00     0.093 A 
ATOM     17  C   UNL     1      20.602  33.159  52.559  1.00  0.00     0.131 A 
ENDROOT
BRANCH   6  18
ATOM     18  O   UNL     1      16.066  32.778  55.340  1.00  0.00    -0.507 OA
ATOM     19  H   UNL     1      16.117  33.484  54.619  1.00  0.00     0.293 HD
ENDBRANCH   6  18
BRANCH  17  20
ATOM     20  O   UNL     1      20.039  34.431  52.439  1.00  0.00    -0.507 OA
ATOM     21  H   UNL     1      19.922  34.877  51.537  1.00  0.00     0.293 HD
ENDBRANCH  17  20
BRANCH  15  22
ATOM     22  O   UNL     1      23.786  31.450  51.740  1.00  0.00    -0.508 OA
ATOM     23  H   UNL     1      23.956  30.985  50.857  1.00  0.00     0.293 HD
ENDBRANCH  15  22
TORSDOF 3
ENDMDL
MODEL 9
REMARK VINA RESULT:    -4.010      2.125      6.007
REMARK INTER + INTRA:          -4.362
REMARK INTER:                  -4.362
REMARK INTRA:                   0.000
REMARK UNBOUND:                 0.000
REMARK SMILES Cc1cc(O)c2c(c1)C(=O)c1cc(O)cc(O)c1C2=O
REMARK SMILES IDX 1 1 2 2 8 3 7 4 6 5 4 6 3 7 19 8 20 9 18 10 11 11 9 12 10 13
REMARK SMILES IDX 12 14 13 15 15 16 16 17 5 18 17 20 14 22
REMARK H PARENT 5 19 17 21 14 23
REMARK Flexibility Score: inf
ROOT
ATOM      1  C   UNL     1      23.978  37.319  38.924  1.00  0.00     0.044 C 
ATOM      2  C   UNL     1      23.858  35.863  39.274  1.00  0.00    -0.047 A 
ATOM      3  C   UNL     1      24.972  35.023  39.180  1.00  0.00     0.016 A 
ATOM      4  C   UNL     1      24.883  33.670  39.551  1.00  0.00     0.038 A 
ATOM      5  C   UNL     1      23.663  33.154  40.050  1.00  0.00     0.076 A 
ATOM      6  C   UNL     1      22.522  34.000  40.086  1.00  0.00     0.127 A 
ATOM      7  C   UNL     1      22.644  35.348  39.737  1.00  0.00     0.050 A 
ATOM      8  C   UNL     1      23.649  31.761  40.579  1.00  0.00     0.201 C 
ATOM      9  O   UNL     1      22.753  31.399  41.389  1.00  0.00    -0.288 OA
ATOM     10  C   UNL     1      24.754  30.823  40.247  1.00  0.00     0.076 A 
ATOM     11  C   UNL     1      25.944  31.336  39.689  1.00  0.00     0.041 A 
ATOM     12  C   UNL     1      26.063  32.785  39.409  1.00  0.00     0.194 C 
ATOM     13  O   UNL     1      27.168  33.263  39.031  1.00  0.00    -0.289 OA
ATOM     14  C   UNL     1      27.013  30.468  39.405  1.00  0.00     0.059 A 
ATOM     15  C   UNL     1      26.905  29.101  39.663  1.00  0.00     0.120 A 
ATOM     16  C   UNL     1      25.724  28.587  40.207  1.00  0.00     0.093 A 
ATOM     17  C   UNL     1      24.649  29.436  40.499  1.00  0.00     0.131 A 
ENDROOT
BRANCH   6  18
ATOM     18  O   UNL     1      21.246  33.543  40.425  1.00  0.00    -0.507 OA
ATOM     19  H   UNL     1      20.444  34.147  40.537  1.00  0.00     0.293 HD
ENDBRANCH   6  18
BRANCH  17  20
ATOM     20  O   UNL     1      23.476  28.895  41.030  1.00  0.00    -0.507 OA
ATOM     21  H   UNL     1      22.952  28.178  40.541  1.00  0.00     0.293 HD
ENDBRANCH  17  20
BRANCH  15  22
ATOM     22  O   UNL     1      27.977  28.259  39.372  1.00  0.00    -0.508 OA
ATOM     23  H   UNL     1      28.511  27.809  40.105  1.00  0.00     0.293 HD
ENDBRANCH  15  22
TORSDOF 3
ENDMDL
