MODEL 1
REMARK VINA RESULT:    -4.352      0.000      0.000
REMARK INTER + INTRA:          -4.352
REMARK INTER:                  -4.352
REMARK INTRA:                   0.000
REMARK UNBOUND:                 0.000
REMARK SMILES CC(C)=C1CC[C@@H](C)CC1=O
REMARK SMILES IDX 8 1 7 2 6 3 5 4 4 5 2 6 1 7 3 8 10 9 11 10 9 11
REMARK H PARENT
REMARK Flexibility Score: inf
ROOT
ATOM      1  C   UNL     1      70.143  72.316  26.875  1.00  0.00     0.008 C 
ATOM      2  C   UNL     1      70.164  71.208  27.935  1.00  0.00    -0.006 C 
ATOM      3  C   UNL     1      69.432  69.958  27.424  1.00  0.00     0.008 C 
ATOM      4  C   UNL     1      69.531  68.804  28.431  1.00  0.00     0.039 C 
ATOM      5  C   UNL     1      69.089  69.210  29.830  1.00  0.00    -0.006 C 
ATOM      6  C   UNL     1      68.495  68.316  30.675  1.00  0.00    -0.070 C 
ATOM      7  C   UNL     1      68.269  66.879  30.262  1.00  0.00     0.039 C 
ATOM      8  C   UNL     1      68.001  68.721  32.044  1.00  0.00     0.039 C 
ATOM      9  C   UNL     1      69.447  70.597  30.255  1.00  0.00     0.159 C 
ATOM     10  O   UNL     1      69.701  70.868  31.459  1.00  0.00    -0.295 OA
ATOM     11  C   UNL     1      69.518  71.700  29.239  1.00  0.00     0.084 C 
ENDROOT
TORSDOF 0
ENDMDL
MODEL 2
REMARK VINA RESULT:    -4.250      1.755      4.860
REMARK INTER + INTRA:          -4.250
REMARK INTER:                  -4.250
REMARK INTRA:                   0.000
REMARK UNBOUND:                 0.000
REMARK SMILES CC(C)=C1CC[C@@H](C)CC1=O
REMARK SMILES IDX 8 1 7 2 6 3 5 4 4 5 2 6 1 7 3 8 10 9 11 10 9 11
REMARK H PARENT
REMARK Flexibility Score: inf
ROOT
ATOM      1  C   UNL     1      66.553  66.075  31.987  1.00  0.00     0.008 C 
ATOM      2  C   UNL     1      67.707  66.952  31.489  1.00  0.00    -0.006 C 
ATOM      3  C   UNL     1      67.646  68.344  32.136  1.00  0.00     0.008 C 
ATOM      4  C   UNL     1      68.851  69.202  31.728  1.00  0.00     0.039 C 
ATOM      5  C   UNL     1      69.037  69.266  30.218  1.00  0.00    -0.006 C 
ATOM      6  C   UNL     1      69.555  70.376  29.613  1.00  0.00    -0.070 C 
ATOM      7  C   UNL     1      69.983  71.581  30.421  1.00  0.00     0.039 C 
ATOM      8  C   UNL     1      69.691  70.474  28.111  1.00  0.00     0.039 C 
ATOM      9  C   UNL     1      68.730  68.014  29.465  1.00  0.00     0.159 C 
ATOM     10  O   UNL     1      69.358  67.711  28.415  1.00  0.00    -0.295 OA
ATOM     11  C   UNL     1      67.662  67.081  29.959  1.00  0.00     0.084 C 
ENDROOT
TORSDOF 0
ENDMDL
MODEL 3
REMARK VINA RESULT:    -4.220      9.948     12.943
REMARK INTER + INTRA:          -4.220
REMARK INTER:                  -4.220
REMARK INTRA:                   0.000
REMARK UNBOUND:                 0.000
REMARK SMILES CC(C)=C1CC[C@@H](C)CC1=O
REMARK SMILES IDX 8 1 7 2 6 3 5 4 4 5 2 6 1 7 3 8 10 9 11 10 9 11
REMARK H PARENT
REMARK Flexibility Score: inf
ROOT
ATOM      1  C   UNL     1      69.848  67.230  44.680  1.00  0.00     0.008 C 
ATOM      2  C   UNL     1      68.875  67.680  43.584  1.00  0.00    -0.006 C 
ATOM      3  C   UNL     1      67.697  66.700  43.472  1.00  0.00     0.008 C 
ATOM      4  C   UNL     1      66.661  67.188  42.451  1.00  0.00     0.039 C 
ATOM      5  C   UNL     1      67.282  67.513  41.099  1.00  0.00    -0.006 C 
ATOM      6  C   UNL     1      66.585  67.339  39.937  1.00  0.00    -0.070 C 
ATOM      7  C   UNL     1      65.160  66.833  39.947  1.00  0.00     0.039 C 
ATOM      8  C   UNL     1      67.209  67.604  38.586  1.00  0.00     0.039 C 
ATOM      9  C   UNL     1      68.639  68.136  41.133  1.00  0.00     0.159 C 
ATOM     10  O   UNL     1      69.002  68.963  40.254  1.00  0.00    -0.295 OA
ATOM     11  C   UNL     1      69.599  67.788  42.233  1.00  0.00     0.084 C 
ENDROOT
TORSDOF 0
ENDMDL
MODEL 4
REMARK VINA RESULT:    -4.149     14.433     15.951
REMARK INTER + INTRA:          -4.149
REMARK INTER:                  -4.149
REMARK INTRA:                   0.000
REMARK UNBOUND:                 0.000
REMARK SMILES CC(C)=C1CC[C@@H](C)CC1=O
REMARK SMILES IDX 8 1 7 2 6 3 5 4 4 5 2 6 1 7 3 8 10 9 11 10 9 11
REMARK H PARENT
REMARK Flexibility Score: inf
ROOT
ATOM      1  C   UNL     1      55.014  69.094  35.013  1.00  0.00     0.008 C 
ATOM      2  C   UNL     1      54.367  69.889  33.873  1.00  0.00    -0.006 C 
ATOM      3  C   UNL     1      53.320  69.034  33.144  1.00  0.00     0.008 C 
ATOM      4  C   UNL     1      52.589  69.845  32.066  1.00  0.00     0.039 C 
ATOM      5  C   UNL     1      53.549  70.539  31.108  1.00  0.00    -0.006 C 
ATOM      6  C   UNL     1      53.217  70.749  29.799  1.00  0.00    -0.070 C 
ATOM      7  C   UNL     1      51.875  70.318  29.252  1.00  0.00     0.039 C 
ATOM      8  C   UNL     1      54.182  71.385  28.825  1.00  0.00     0.039 C 
ATOM      9  C   UNL     1      54.807  71.071  31.710  1.00  0.00     0.159 C 
ATOM     10  O   UNL     1      55.361  72.110  31.260  1.00  0.00    -0.295 OA
ATOM     11  C   UNL     1      55.435  70.372  32.881  1.00  0.00     0.084 C 
ENDROOT
TORSDOF 0
ENDMDL
MODEL 5
REMARK VINA RESULT:    -4.112     20.588     22.132
REMARK INTER + INTRA:          -4.112
REMARK INTER:                  -4.112
REMARK INTRA:                   0.000
REMARK UNBOUND:                 0.000
REMARK SMILES CC(C)=C1CC[C@@H](C)CC1=O
REMARK SMILES IDX 8 1 7 2 6 3 5 4 4 5 2 6 1 7 3 8 10 9 11 10 9 11
REMARK H PARENT
REMARK Flexibility Score: inf
ROOT
ATOM      1  C   UNL     1      53.628  68.774  42.985  1.00  0.00     0.008 C 
ATOM      2  C   UNL     1      53.066  70.187  43.184  1.00  0.00    -0.006 C 
ATOM      3  C   UNL     1      53.871  71.209  42.368  1.00  0.00     0.008 C 
ATOM      4  C   UNL     1      53.261  72.613  42.474  1.00  0.00     0.039 C 
ATOM      5  C   UNL     1      53.051  73.051  43.917  1.00  0.00    -0.006 C 
ATOM      6  C   UNL     1      53.147  74.364  44.282  1.00  0.00    -0.070 C 
ATOM      7  C   UNL     1      53.446  75.440  43.263  1.00  0.00     0.039 C 
ATOM      8  C   UNL     1      52.998  74.804  45.720  1.00  0.00     0.039 C 
ATOM      9  C   UNL     1      52.626  71.983  44.872  1.00  0.00     0.159 C 
ATOM     10  O   UNL     1      51.875  72.242  45.850  1.00  0.00    -0.295 OA
ATOM     11  C   UNL     1      53.086  70.569  44.672  1.00  0.00     0.084 C 
ENDROOT
TORSDOF 0
ENDMDL
MODEL 6
REMARK VINA RESULT:    -4.076     15.080     15.884
REMARK INTER + INTRA:          -4.076
REMARK INTER:                  -4.076
REMARK INTRA:                   0.000
REMARK UNBOUND:                 0.000
REMARK SMILES CC(C)=C1CC[C@@H](C)CC1=O
REMARK SMILES IDX 8 1 7 2 6 3 5 4 4 5 2 6 1 7 3 8 10 9 11 10 9 11
REMARK H PARENT
REMARK Flexibility Score: inf
ROOT
ATOM      1  C   UNL     1      53.956  72.061  28.742  1.00  0.00     0.008 C 
ATOM      2  C   UNL     1      53.625  71.560  30.153  1.00  0.00    -0.006 C 
ATOM      3  C   UNL     1      54.856  71.665  31.066  1.00  0.00     0.008 C 
ATOM      4  C   UNL     1      54.516  71.265  32.508  1.00  0.00     0.039 C 
ATOM      5  C   UNL     1      53.840  69.903  32.592  1.00  0.00    -0.006 C 
ATOM      6  C   UNL     1      54.019  69.086  33.672  1.00  0.00    -0.070 C 
ATOM      7  C   UNL     1      54.883  69.509  34.839  1.00  0.00     0.039 C 
ATOM      8  C   UNL     1      53.400  67.709  33.741  1.00  0.00     0.039 C 
ATOM      9  C   UNL     1      52.890  69.573  31.488  1.00  0.00     0.159 C 
ATOM     10  O   UNL     1      51.875  68.854  31.690  1.00  0.00    -0.295 OA
ATOM     11  C   UNL     1      53.128  70.107  30.105  1.00  0.00     0.084 C 
ENDROOT
TORSDOF 0
ENDMDL
MODEL 7
REMARK VINA RESULT:    -4.075      2.338      5.136
REMARK INTER + INTRA:          -4.075
REMARK INTER:                  -4.075
REMARK INTRA:                   0.000
REMARK UNBOUND:                 0.000
REMARK SMILES CC(C)=C1CC[C@@H](C)CC1=O
REMARK SMILES IDX 8 1 7 2 6 3 5 4 4 5 2 6 1 7 3 8 10 9 11 10 9 11
REMARK H PARENT
REMARK Flexibility Score: inf
ROOT
ATOM      1  C   UNL     1      67.234  66.873  33.403  1.00  0.00     0.008 C 
ATOM      2  C   UNL     1      67.999  67.038  32.085  1.00  0.00    -0.006 C 
ATOM      3  C   UNL     1      68.294  68.521  31.813  1.00  0.00     0.008 C 
ATOM      4  C   UNL     1      69.147  68.698  30.550  1.00  0.00     0.039 C 
ATOM      5  C   UNL     1      68.555  67.987  29.341  1.00  0.00    -0.006 C 
ATOM      6  C   UNL     1      68.719  68.479  28.077  1.00  0.00    -0.070 C 
ATOM      7  C   UNL     1      69.514  69.740  27.825  1.00  0.00     0.039 C 
ATOM      8  C   UNL     1      68.088  67.815  26.875  1.00  0.00     0.039 C 
ATOM      9  C   UNL     1      67.891  66.677  29.610  1.00  0.00     0.159 C 
ATOM     10  O   UNL     1      67.904  65.749  28.756  1.00  0.00    -0.295 OA
ATOM     11  C   UNL     1      67.198  66.439  30.920  1.00  0.00     0.084 C 
ENDROOT
TORSDOF 0
ENDMDL
MODEL 8
REMARK VINA RESULT:    -4.051      1.732      4.745
REMARK INTER + INTRA:          -4.051
REMARK INTER:                  -4.051
REMARK INTRA:                   0.000
REMARK UNBOUND:                 0.000
REMARK SMILES CC(C)=C1CC[C@@H](C)CC1=O
REMARK SMILES IDX 8 1 7 2 6 3 5 4 4 5 2 6 1 7 3 8 10 9 11 10 9 11
REMARK H PARENT
REMARK Flexibility Score: inf
ROOT
ATOM      1  C   UNL     1      67.258  66.354  33.895  1.00  0.00     0.008 C 
ATOM      2  C   UNL     1      67.265  67.107  32.559  1.00  0.00    -0.006 C 
ATOM      3  C   UNL     1      67.367  66.123  31.385  1.00  0.00     0.008 C 
ATOM      4  C   UNL     1      67.272  66.851  30.037  1.00  0.00     0.039 C 
ATOM      5  C   UNL     1      68.263  68.002  29.924  1.00  0.00    -0.006 C 
ATOM      6  C   UNL     1      68.809  68.353  28.723  1.00  0.00    -0.070 C 
ATOM      7  C   UNL     1      68.437  67.626  27.451  1.00  0.00     0.039 C 
ATOM      8  C   UNL     1      69.836  69.456  28.607  1.00  0.00     0.039 C 
ATOM      9  C   UNL     1      68.505  68.783  31.174  1.00  0.00     0.159 C 
ATOM     10  O   UNL     1      68.769  70.015  31.135  1.00  0.00    -0.295 OA
ATOM     11  C   UNL     1      68.430  68.106  32.512  1.00  0.00     0.084 C 
ENDROOT
TORSDOF 0
ENDMDL
MODEL 9
REMARK VINA RESULT:    -3.983      1.736      2.555
REMARK INTER + INTRA:          -3.983
REMARK INTER:                  -3.983
REMARK INTRA:                   0.000
REMARK UNBOUND:                 0.000
REMARK SMILES CC(C)=C1CC[C@@H](C)CC1=O
REMARK SMILES IDX 8 1 7 2 6 3 5 4 4 5 2 6 1 7 3 8 10 9 11 10 9 11
REMARK H PARENT
REMARK Flexibility Score: inf
ROOT
ATOM      1  C   UNL     1      71.766  71.362  26.876  1.00  0.00     0.008 C 
ATOM      2  C   UNL     1      70.552  70.824  27.642  1.00  0.00    -0.006 C 
ATOM      3  C   UNL     1      70.768  70.956  29.158  1.00  0.00     0.008 C 
ATOM      4  C   UNL     1      69.522  70.517  29.938  1.00  0.00     0.039 C 
ATOM      5  C   UNL     1      69.038  69.131  29.534  1.00  0.00    -0.006 C 
ATOM      6  C   UNL     1      68.430  68.301  30.433  1.00  0.00    -0.070 C 
ATOM      7  C   UNL     1      68.195  68.732  31.863  1.00  0.00     0.039 C 
ATOM      8  C   UNL     1      67.997  66.902  30.059  1.00  0.00     0.039 C 
ATOM      9  C   UNL     1      69.164  68.789  28.086  1.00  0.00     0.159 C 
ATOM     10  O   UNL     1      68.333  68.030  27.518  1.00  0.00    -0.295 OA
ATOM     11  C   UNL     1      70.292  69.356  27.274  1.00  0.00     0.084 C 
ENDROOT
TORSDOF 0
ENDMDL
