MODEL 1
REMARK VINA RESULT:    -3.616      0.000      0.000
REMARK INTER + INTRA:          -5.315
REMARK INTER:                  -4.884
REMARK INTRA:                  -0.431
REMARK UNBOUND:                -0.431
REMARK SMILES CCCCCCCC(=O)[O-]
REMARK SMILES IDX 5 1 6 2 7 3 8 4 9 5 10 6 4 7 3 8 2 9 1 10
REMARK H PARENT
REMARK Flexibility Score: inf
ROOT
ATOM      1  C   UNL     1      26.863  27.919 -18.899  1.00  0.00     0.000 C 
ENDROOT
BRANCH   1   2
ATOM      2  C   UNL     1      26.687  27.684 -17.391  1.00  0.00     0.006 C 
BRANCH   2   3
ATOM      3  C   UNL     1      25.242  27.908 -16.924  1.00  0.00     0.053 C 
BRANCH   3   4
ATOM      4  C   UNL     1      25.152  29.142 -16.082  1.00  0.00     0.041 C 
ATOM      5  O   UNL     1      24.982  29.050 -14.837  1.00  0.00    -0.550 OA
ATOM      6  O   UNL     1      25.205  30.396 -16.678  1.00  0.00    -0.550 OA
ENDBRANCH   3   4
ENDBRANCH   2   3
ENDBRANCH   1   2
BRANCH   1   7
ATOM      7  C   UNL     1      27.501  29.281 -19.216  1.00  0.00     0.000 C 
BRANCH   7   8
ATOM      8  C   UNL     1      28.454  29.715 -18.096  1.00  0.00    -0.000 C 
BRANCH   8   9
ATOM      9  C   UNL     1      28.423  31.235 -17.905  1.00  0.00    -0.003 C 
ATOM     10  C   UNL     1      29.758  31.752 -17.376  1.00  0.00     0.004 C 
ENDBRANCH   8   9
ENDBRANCH   7   8
ENDBRANCH   1   7
TORSDOF 6
ENDMDL
MODEL 2
REMARK VINA RESULT:    -3.547      1.388      2.191
REMARK INTER + INTRA:          -5.223
REMARK INTER:                  -4.663
REMARK INTRA:                  -0.560
REMARK UNBOUND:                -0.431
REMARK SMILES CCCCCCCC(=O)[O-]
REMARK SMILES IDX 5 1 6 2 7 3 8 4 9 5 10 6 4 7 3 8 2 9 1 10
REMARK H PARENT
REMARK Flexibility Score: inf
ROOT
ATOM      1  C   UNL     1      24.914  27.079 -18.963  1.00  0.00     0.000 C 
ENDROOT
BRANCH   1   2
ATOM      2  C   UNL     1      24.226  27.680 -17.728  1.00  0.00     0.006 C 
BRANCH   2   3
ATOM      3  C   UNL     1      25.138  27.699 -16.494  1.00  0.00     0.053 C 
BRANCH   3   4
ATOM      4  C   UNL     1      25.082  29.036 -15.824  1.00  0.00     0.041 C 
ATOM      5  O   UNL     1      25.012  29.114 -14.569  1.00  0.00    -0.550 OA
ATOM      6  O   UNL     1      25.055  30.196 -16.588  1.00  0.00    -0.550 OA
ENDBRANCH   3   4
ENDBRANCH   2   3
ENDBRANCH   1   2
BRANCH   1   7
ATOM      7  C   UNL     1      26.426  26.890 -18.766  1.00  0.00     0.000 C 
BRANCH   7   8
ATOM      8  C   UNL     1      27.213  27.490 -19.937  1.00  0.00    -0.000 C 
BRANCH   8   9
ATOM      9  C   UNL     1      27.301  29.015 -19.817  1.00  0.00    -0.003 C 
ATOM     10  C   UNL     1      27.895  29.429 -18.473  1.00  0.00     0.004 C 
ENDBRANCH   8   9
ENDBRANCH   7   8
ENDBRANCH   1   7
TORSDOF 6
ENDMDL
MODEL 3
REMARK VINA RESULT:    -3.466      2.531      4.453
REMARK INTER + INTRA:          -5.112
REMARK INTER:                  -4.783
REMARK INTRA:                  -0.330
REMARK UNBOUND:                -0.431
REMARK SMILES CCCCCCCC(=O)[O-]
REMARK SMILES IDX 5 1 6 2 7 3 8 4 9 5 10 6 4 7 3 8 2 9 1 10
REMARK H PARENT
REMARK Flexibility Score: inf
ROOT
ATOM      1  C   UNL     1      27.386  28.238 -17.862  1.00  0.00     0.000 C 
ENDROOT
BRANCH   1   2
ATOM      2  C   UNL     1      27.766  29.429 -18.755  1.00  0.00     0.006 C 
BRANCH   2   3
ATOM      3  C   UNL     1      27.487  30.782 -18.085  1.00  0.00     0.053 C 
BRANCH   3   4
ATOM      4  C   UNL     1      28.710  31.644 -18.122  1.00  0.00     0.041 C 
ATOM      5  O   UNL     1      28.680  32.762 -18.701  1.00  0.00    -0.550 OA
ATOM      6  O   UNL     1      29.898  31.191 -17.561  1.00  0.00    -0.550 OA
ENDBRANCH   3   4
ENDBRANCH   2   3
ENDBRANCH   1   2
BRANCH   1   7
ATOM      7  C   UNL     1      26.173  27.461 -18.396  1.00  0.00     0.000 C 
BRANCH   7   8
ATOM      8  C   UNL     1      25.033  27.451 -17.371  1.00  0.00    -0.000 C 
BRANCH   8   9
ATOM      9  C   UNL     1      25.269  28.496 -16.274  1.00  0.00    -0.003 C 
ATOM     10  C   UNL     1      24.936  27.933 -14.895  1.00  0.00     0.004 C 
ENDBRANCH   8   9
ENDBRANCH   7   8
ENDBRANCH   1   7
TORSDOF 6
ENDMDL
MODEL 4
REMARK VINA RESULT:    -3.402     21.530     22.674
REMARK INTER + INTRA:          -5.027
REMARK INTER:                  -4.710
REMARK INTRA:                  -0.317
REMARK UNBOUND:                -0.431
REMARK SMILES CCCCCCCC(=O)[O-]
REMARK SMILES IDX 5 1 6 2 7 3 8 4 9 5 10 6 4 7 3 8 2 9 1 10
REMARK H PARENT
REMARK Flexibility Score: inf
ROOT
ATOM      1  C   UNL     1      34.618  14.691  -2.519  1.00  0.00     0.000 C 
ENDROOT
BRANCH   1   2
ATOM      2  C   UNL     1      34.397  13.539  -3.512  1.00  0.00     0.006 C 
BRANCH   2   3
ATOM      3  C   UNL     1      35.693  13.103  -4.209  1.00  0.00     0.053 C 
BRANCH   3   4
ATOM      4  C   UNL     1      35.784  13.716  -5.571  1.00  0.00     0.041 C 
ATOM      5  O   UNL     1      35.595  13.011  -6.598  1.00  0.00    -0.550 OA
ATOM      6  O   UNL     1      36.128  15.055  -5.711  1.00  0.00    -0.550 OA
ENDBRANCH   3   4
ENDBRANCH   2   3
ENDBRANCH   1   2
BRANCH   1   7
ATOM      7  C   UNL     1      33.968  14.428  -1.153  1.00  0.00     0.000 C 
BRANCH   7   8
ATOM      8  C   UNL     1      32.827  13.410  -1.273  1.00  0.00    -0.000 C 
BRANCH   8   9
ATOM      9  C   UNL     1      31.511  13.995  -0.749  1.00  0.00    -0.003 C 
ATOM     10  C   UNL     1      31.701  15.426  -0.256  1.00  0.00     0.004 C 
ENDBRANCH   8   9
ENDBRANCH   7   8
ENDBRANCH   1   7
TORSDOF 6
ENDMDL
MODEL 5
REMARK VINA RESULT:    -3.359     22.174     23.066
REMARK INTER + INTRA:          -4.969
REMARK INTER:                  -4.717
REMARK INTRA:                  -0.251
REMARK UNBOUND:                -0.431
REMARK SMILES CCCCCCCC(=O)[O-]
REMARK SMILES IDX 5 1 6 2 7 3 8 4 9 5 10 6 4 7 3 8 2 9 1 10
REMARK H PARENT
REMARK Flexibility Score: inf
ROOT
ATOM      1  C   UNL     1      34.346  14.073  -2.730  1.00  0.00     0.000 C 
ENDROOT
BRANCH   1   2
ATOM      2  C   UNL     1      35.041  14.061  -4.100  1.00  0.00     0.006 C 
BRANCH   2   3
ATOM      3  C   UNL     1      36.224  15.036  -4.171  1.00  0.00     0.053 C 
BRANCH   3   4
ATOM      4  C   UNL     1      37.502  14.329  -3.844  1.00  0.00     0.041 C 
ATOM      5  O   UNL     1      37.755  13.207  -4.356  1.00  0.00    -0.550 OA
ATOM      6  O   UNL     1      38.392  14.886  -2.933  1.00  0.00    -0.550 OA
ENDBRANCH   3   4
ENDBRANCH   2   3
ENDBRANCH   1   2
BRANCH   1   7
ATOM      7  C   UNL     1      33.229  13.023  -2.623  1.00  0.00     0.000 C 
BRANCH   7   8
ATOM      8  C   UNL     1      32.251  13.374  -1.495  1.00  0.00    -0.000 C 
BRANCH   8   9
ATOM      9  C   UNL     1      32.754  14.573  -0.683  1.00  0.00    -0.003 C 
ATOM     10  C   UNL     1      31.606  15.505  -0.306  1.00  0.00     0.004 C 
ENDBRANCH   8   9
ENDBRANCH   7   8
ENDBRANCH   1   7
TORSDOF 6
ENDMDL
MODEL 6
REMARK VINA RESULT:    -3.315     21.360     22.460
REMARK INTER + INTRA:          -4.910
REMARK INTER:                  -4.723
REMARK INTRA:                  -0.186
REMARK UNBOUND:                -0.431
REMARK SMILES CCCCCCCC(=O)[O-]
REMARK SMILES IDX 5 1 6 2 7 3 8 4 9 5 10 6 4 7 3 8 2 9 1 10
REMARK H PARENT
REMARK Flexibility Score: inf
ROOT
ATOM      1  C   UNL     1      34.258  13.472  -2.936  1.00  0.00     0.000 C 
ENDROOT
BRANCH   1   2
ATOM      2  C   UNL     1      33.870  13.328  -1.457  1.00  0.00     0.006 C 
BRANCH   2   3
ATOM      3  C   UNL     1      33.394  14.650  -0.839  1.00  0.00     0.053 C 
BRANCH   3   4
ATOM      4  C   UNL     1      31.916  14.615  -0.609  1.00  0.00     0.041 C 
ATOM      5  O   UNL     1      31.318  15.635  -0.174  1.00  0.00    -0.550 OA
ATOM      6  O   UNL     1      31.205  13.441  -0.827  1.00  0.00    -0.550 OA
ENDBRANCH   3   4
ENDBRANCH   2   3
ENDBRANCH   1   2
BRANCH   1   7
ATOM      7  C   UNL     1      34.966  14.802  -3.236  1.00  0.00     0.000 C 
BRANCH   7   8
ATOM      8  C   UNL     1      36.286  14.567  -3.980  1.00  0.00    -0.000 C 
BRANCH   8   9
ATOM      9  C   UNL     1      36.079  14.612  -5.497  1.00  0.00    -0.003 C 
ATOM     10  C   UNL     1      35.807  13.219  -6.059  1.00  0.00     0.004 C 
ENDBRANCH   8   9
ENDBRANCH   7   8
ENDBRANCH   1   7
TORSDOF 6
ENDMDL
MODEL 7
REMARK VINA RESULT:    -3.230     13.977     15.384
REMARK INTER + INTRA:          -4.795
REMARK INTER:                  -4.525
REMARK INTRA:                  -0.270
REMARK UNBOUND:                -0.431
REMARK SMILES CCCCCCCC(=O)[O-]
REMARK SMILES IDX 5 1 6 2 7 3 8 4 9 5 10 6 4 7 3 8 2 9 1 10
REMARK H PARENT
REMARK Flexibility Score: inf
ROOT
ATOM      1  C   UNL     1      34.607  15.030 -16.697  1.00  0.00     0.000 C 
ENDROOT
BRANCH   1   2
ATOM      2  C   UNL     1      34.139  15.670 -18.014  1.00  0.00     0.006 C 
BRANCH   2   3
ATOM      3  C   UNL     1      34.521  17.152 -18.119  1.00  0.00     0.053 C 
BRANCH   3   4
ATOM      4  C   UNL     1      33.313  17.982 -18.420  1.00  0.00     0.041 C 
ATOM      5  O   UNL     1      33.351  19.233 -18.275  1.00  0.00    -0.550 OA
ATOM      6  O   UNL     1      32.129  17.370 -18.813  1.00  0.00    -0.550 OA
ENDBRANCH   3   4
ENDBRANCH   2   3
ENDBRANCH   1   2
BRANCH   1   7
ATOM      7  C   UNL     1      33.587  14.032 -16.129  1.00  0.00     0.000 C 
BRANCH   7   8
ATOM      8  C   UNL     1      32.167  14.367 -16.601  1.00  0.00    -0.000 C 
BRANCH   8   9
ATOM      9  C   UNL     1      31.123  13.896 -15.583  1.00  0.00    -0.003 C 
ATOM     10  C   UNL     1      29.878  14.778 -15.622  1.00  0.00     0.004 C 
ENDBRANCH   8   9
ENDBRANCH   7   8
ENDBRANCH   1   7
TORSDOF 6
ENDMDL
MODEL 8
REMARK VINA RESULT:    -3.215     13.516     14.709
REMARK INTER + INTRA:          -4.775
REMARK INTER:                  -4.246
REMARK INTRA:                  -0.529
REMARK UNBOUND:                -0.431
REMARK SMILES CCCCCCCC(=O)[O-]
REMARK SMILES IDX 5 1 6 2 7 3 8 4 9 5 10 6 4 7 3 8 2 9 1 10
REMARK H PARENT
REMARK Flexibility Score: inf
ROOT
ATOM      1  C   UNL     1      34.434  17.359 -18.206  1.00  0.00     0.000 C 
ENDROOT
BRANCH   1   2
ATOM      2  C   UNL     1      33.268  18.271 -18.616  1.00  0.00     0.006 C 
BRANCH   2   3
ATOM      3  C   UNL     1      32.238  17.553 -19.500  1.00  0.00     0.053 C 
BRANCH   3   4
ATOM      4  C   UNL     1      31.038  17.168 -18.694  1.00  0.00     0.041 C 
ATOM      5  O   UNL     1      30.042  17.936 -18.633  1.00  0.00    -0.550 OA
ATOM      6  O   UNL     1      31.038  15.983 -17.968  1.00  0.00    -0.550 OA
ENDBRANCH   3   4
ENDBRANCH   2   3
ENDBRANCH   1   2
BRANCH   1   7
ATOM      7  C   UNL     1      34.587  16.142 -19.131  1.00  0.00     0.000 C 
BRANCH   7   8
ATOM      8  C   UNL     1      34.408  14.833 -18.351  1.00  0.00    -0.000 C 
BRANCH   8   9
ATOM      9  C   UNL     1      34.476  15.080 -16.840  1.00  0.00    -0.003 C 
ATOM     10  C   UNL     1      33.573  14.110 -16.082  1.00  0.00     0.004 C 
ENDBRANCH   8   9
ENDBRANCH   7   8
ENDBRANCH   1   7
TORSDOF 6
ENDMDL
MODEL 9
REMARK VINA RESULT:    -3.193     14.088     15.115
REMARK INTER + INTRA:          -4.745
REMARK INTER:                  -4.456
REMARK INTRA:                  -0.289
REMARK UNBOUND:                -0.431
REMARK SMILES CCCCCCCC(=O)[O-]
REMARK SMILES IDX 5 1 6 2 7 3 8 4 9 5 10 6 4 7 3 8 2 9 1 10
REMARK H PARENT
REMARK Flexibility Score: inf
ROOT
ATOM      1  C   UNL     1      33.548  14.082 -15.994  1.00  0.00     0.000 C 
ENDROOT
BRANCH   1   2
ATOM      2  C   UNL     1      32.218  13.973 -16.755  1.00  0.00     0.006 C 
BRANCH   2   3
ATOM      3  C   UNL     1      31.000  13.991 -15.821  1.00  0.00     0.053 C 
BRANCH   3   4
ATOM      4  C   UNL     1      30.067  15.097 -16.201  1.00  0.00     0.041 C 
ATOM      5  O   UNL     1      29.091  15.387 -15.459  1.00  0.00    -0.550 OA
ATOM      6  O   UNL     1      30.243  15.774 -17.402  1.00  0.00    -0.550 OA
ENDBRANCH   3   4
ENDBRANCH   2   3
ENDBRANCH   1   2
BRANCH   1   7
ATOM      7  C   UNL     1      34.609  14.881 -16.768  1.00  0.00     0.000 C 
BRANCH   7   8
ATOM      8  C   UNL     1      33.961  15.742 -17.859  1.00  0.00    -0.000 C 
BRANCH   8   9
ATOM      9  C   UNL     1      34.597  17.136 -17.910  1.00  0.00    -0.003 C 
ATOM     10  C   UNL     1      33.647  18.153 -18.536  1.00  0.00     0.004 C 
ENDBRANCH   8   9
ENDBRANCH   7   8
ENDBRANCH   1   7
TORSDOF 6
ENDMDL
