MODEL 1
REMARK VINA RESULT:    -7.480      0.000      0.000
REMARK INTER + INTRA:          -8.592
REMARK INTER:                  -8.792
REMARK INTRA:                   0.200
REMARK UNBOUND:                 0.200
REMARK SMILES O=c1c(O)c(-c2ccc(O)c(O)c2)oc2cc(O)ccc12
REMARK SMILES IDX 5 1 3 2 2 3 1 4 21 5 15 6 14 7 16 8 17 9 19 10 20 11 6 12
REMARK SMILES IDX 7 13 8 14 9 15 13 16 11 17 10 18 12 20 4 22 18 24
REMARK H PARENT 10 19 12 21 4 23 18 25
REMARK Flexibility Score: inf
ROOT
ATOM      1  C   UNL     1      10.670 -18.660 -27.969  1.00  0.00     0.180 A 
ATOM      2  C   UNL     1      11.286 -18.455 -26.717  1.00  0.00     0.208 A 
ATOM      3  C   UNL     1      12.202 -19.411 -26.251  1.00  0.00     0.235 A 
ATOM      4  O   UNL     1      12.759 -19.257 -25.129  1.00  0.00    -0.285 OA
ATOM      5  C   UNL     1      12.495 -20.532 -27.044  1.00  0.00     0.069 A 
ATOM      6  C   UNL     1      11.854 -20.651 -28.297  1.00  0.00     0.142 A 
ATOM      7  O   UNL     1      10.987 -19.728 -28.698  1.00  0.00    -0.452 OA
ATOM      8  C   UNL     1      12.128 -21.748 -29.121  1.00  0.00     0.094 A 
ATOM      9  C   UNL     1      13.035 -22.730 -28.711  1.00  0.00     0.119 A 
ATOM     10  C   UNL     1      13.673 -22.615 -27.468  1.00  0.00     0.047 A 
ATOM     11  C   UNL     1      13.407 -21.523 -26.637  1.00  0.00     0.020 A 
ENDROOT
BRANCH   1  12
ATOM     12  C   UNL     1       9.680 -17.707 -28.523  1.00  0.00     0.025 A 
ATOM     13  C   UNL     1       8.764 -17.084 -27.661  1.00  0.00     0.016 A 
ATOM     14  C   UNL     1       7.835 -16.167 -28.158  1.00  0.00     0.051 A 
ATOM     15  C   UNL     1       7.817 -15.847 -29.519  1.00  0.00     0.157 A 
ATOM     16  C   UNL     1       9.674 -17.368 -29.888  1.00  0.00     0.062 A 
ATOM     17  C   UNL     1       8.744 -16.445 -30.389  1.00  0.00     0.158 A 
BRANCH  15  18
ATOM     18  O   UNL     1       6.876 -14.929 -29.987  1.00  0.00    -0.504 OA
ATOM     19  H   UNL     1       6.766 -14.729 -30.974  1.00  0.00     0.293 HD
ENDBRANCH  15  18
BRANCH  17  20
ATOM     20  O   UNL     1       8.741 -16.119 -31.744  1.00  0.00    -0.504 OA
ATOM     21  H   UNL     1       9.535 -15.667 -32.182  1.00  0.00     0.293 HD
ENDBRANCH  17  20
ENDBRANCH   1  12
BRANCH   2  22
ATOM     22  O   UNL     1      11.011 -17.307 -25.972  1.00  0.00    -0.502 OA
ATOM     23  H   UNL     1      10.597 -17.347 -25.048  1.00  0.00     0.293 HD
ENDBRANCH   2  22
BRANCH   9  24
ATOM     24  O   UNL     1      13.295 -23.816 -29.543  1.00  0.00    -0.508 OA
ATOM     25  H   UNL     1      12.640 -24.104 -30.261  1.00  0.00     0.293 HD
ENDBRANCH   9  24
TORSDOF 5
ENDMDL
MODEL 2
REMARK VINA RESULT:    -7.079      4.167      7.274
REMARK INTER + INTRA:          -8.121
REMARK INTER:                  -8.006
REMARK INTRA:                  -0.114
REMARK UNBOUND:                 0.200
REMARK SMILES O=c1c(O)c(-c2ccc(O)c(O)c2)oc2cc(O)ccc12
REMARK SMILES IDX 5 1 3 2 2 3 1 4 21 5 15 6 14 7 16 8 17 9 19 10 20 11 6 12
REMARK SMILES IDX 7 13 8 14 9 15 13 16 11 17 10 18 12 20 4 22 18 24
REMARK H PARENT 10 19 12 21 4 23 18 25
REMARK Flexibility Score: inf
ROOT
ATOM      1  C   UNL     1      15.292 -24.033 -28.442  1.00  0.00     0.180 A 
ATOM      2  C   UNL     1      16.526 -23.687 -27.853  1.00  0.00     0.208 A 
ATOM      3  C   UNL     1      17.539 -24.657 -27.786  1.00  0.00     0.235 A 
ATOM      4  O   UNL     1      18.648 -24.376 -27.254  1.00  0.00    -0.285 OA
ATOM      5  C   UNL     1      17.308 -25.935 -28.320  1.00  0.00     0.069 A 
ATOM      6  C   UNL     1      16.054 -26.195 -28.914  1.00  0.00     0.142 A 
ATOM      7  O   UNL     1      15.119 -25.252 -28.951  1.00  0.00    -0.452 OA
ATOM      8  C   UNL     1      15.790 -27.453 -29.468  1.00  0.00     0.094 A 
ATOM      9  C   UNL     1      16.761 -28.457 -29.433  1.00  0.00     0.119 A 
ATOM     10  C   UNL     1      18.007 -28.202 -28.843  1.00  0.00     0.047 A 
ATOM     11  C   UNL     1      18.282 -26.949 -28.288  1.00  0.00     0.020 A 
ENDROOT
BRANCH   1  12
ATOM     12  C   UNL     1      14.169 -23.073 -28.535  1.00  0.00     0.025 A 
ATOM     13  C   UNL     1      13.601 -22.794 -29.788  1.00  0.00     0.016 A 
ATOM     14  C   UNL     1      12.527 -21.907 -29.897  1.00  0.00     0.051 A 
ATOM     15  C   UNL     1      11.994 -21.299 -28.756  1.00  0.00     0.157 A 
ATOM     16  C   UNL     1      13.617 -22.477 -27.386  1.00  0.00     0.062 A 
ATOM     17  C   UNL     1      12.538 -21.588 -27.493  1.00  0.00     0.158 A 
BRANCH  15  18
ATOM     18  O   UNL     1      10.923 -20.416 -28.896  1.00  0.00    -0.504 OA
ATOM     19  H   UNL     1      10.221 -20.304 -28.175  1.00  0.00     0.293 HD
ENDBRANCH  15  18
BRANCH  17  20
ATOM     20  O   UNL     1      12.002 -20.996 -26.350  1.00  0.00    -0.504 OA
ATOM     21  H   UNL     1      11.099 -20.536 -26.365  1.00  0.00     0.293 HD
ENDBRANCH  17  20
ENDBRANCH   1  12
BRANCH   2  22
ATOM     22  O   UNL     1      16.743 -22.393 -27.374  1.00  0.00    -0.502 OA
ATOM     23  H   UNL     1      16.246 -21.590 -27.742  1.00  0.00     0.293 HD
ENDBRANCH   2  22
BRANCH   9  24
ATOM     24  O   UNL     1      16.482 -29.704 -29.987  1.00  0.00    -0.508 OA
ATOM     25  H   UNL     1      16.401 -30.534 -29.412  1.00  0.00     0.293 HD
ENDBRANCH   9  24
TORSDOF 5
ENDMDL
MODEL 3
REMARK VINA RESULT:    -6.782      5.198      7.637
REMARK INTER + INTRA:          -7.771
REMARK INTER:                  -7.537
REMARK INTRA:                  -0.235
REMARK UNBOUND:                 0.200
REMARK SMILES O=c1c(O)c(-c2ccc(O)c(O)c2)oc2cc(O)ccc12
REMARK SMILES IDX 5 1 3 2 2 3 1 4 21 5 15 6 14 7 16 8 17 9 19 10 20 11 6 12
REMARK SMILES IDX 7 13 8 14 9 15 13 16 11 17 10 18 12 20 4 22 18 24
REMARK H PARENT 10 19 12 21 4 23 18 25
REMARK Flexibility Score: inf
ROOT
ATOM      1  C   UNL     1      15.476 -23.376 -28.165  1.00  0.00     0.180 A 
ATOM      2  C   UNL     1      16.208 -24.436 -28.740  1.00  0.00     0.208 A 
ATOM      3  C   UNL     1      17.583 -24.531 -28.473  1.00  0.00     0.235 A 
ATOM      4  O   UNL     1      18.262 -25.463 -28.984  1.00  0.00    -0.285 OA
ATOM      5  C   UNL     1      18.190 -23.586 -27.631  1.00  0.00     0.069 A 
ATOM      6  C   UNL     1      17.383 -22.569 -27.075  1.00  0.00     0.142 A 
ATOM      7  O   UNL     1      16.087 -22.510 -27.359  1.00  0.00    -0.452 OA
ATOM      8  C   UNL     1      17.949 -21.616 -26.221  1.00  0.00     0.094 A 
ATOM      9  C   UNL     1      19.313 -21.662 -25.916  1.00  0.00     0.119 A 
ATOM     10  C   UNL     1      20.117 -22.670 -26.467  1.00  0.00     0.047 A 
ATOM     11  C   UNL     1      19.562 -23.628 -27.320  1.00  0.00     0.020 A 
ENDROOT
BRANCH   1  12
ATOM     12  C   UNL     1      14.027 -23.196 -28.412  1.00  0.00     0.025 A 
ATOM     13  C   UNL     1      13.591 -22.753 -29.670  1.00  0.00     0.016 A 
ATOM     14  C   UNL     1      12.228 -22.596 -29.932  1.00  0.00     0.051 A 
ATOM     15  C   UNL     1      11.280 -22.894 -28.948  1.00  0.00     0.157 A 
ATOM     16  C   UNL     1      13.072 -23.516 -27.431  1.00  0.00     0.062 A 
ATOM     17  C   UNL     1      11.703 -23.361 -27.692  1.00  0.00     0.158 A 
BRANCH  15  18
ATOM     18  O   UNL     1       9.926 -22.726 -29.238  1.00  0.00    -0.504 OA
ATOM     19  H   UNL     1       9.281 -22.315 -28.573  1.00  0.00     0.293 HD
ENDBRANCH  15  18
BRANCH  17  20
ATOM     20  O   UNL     1      10.762 -23.674 -26.712  1.00  0.00    -0.504 OA
ATOM     21  H   UNL     1       9.818 -23.307 -26.745  1.00  0.00     0.293 HD
ENDBRANCH  17  20
ENDBRANCH   1  12
BRANCH   2  22
ATOM     22  O   UNL     1      15.567 -25.388 -29.535  1.00  0.00    -0.502 OA
ATOM     23  H   UNL     1      15.432 -25.259 -30.531  1.00  0.00     0.293 HD
ENDBRANCH   2  22
BRANCH   9  24
ATOM     24  O   UNL     1      19.860 -20.705 -25.066  1.00  0.00    -0.508 OA
ATOM     25  H   UNL     1      19.786 -20.785 -24.058  1.00  0.00     0.293 HD
ENDBRANCH   9  24
TORSDOF 5
ENDMDL
MODEL 4
REMARK VINA RESULT:    -6.754      9.123     11.000
REMARK INTER + INTRA:          -7.739
REMARK INTER:                  -7.417
REMARK INTRA:                  -0.322
REMARK UNBOUND:                 0.200
REMARK SMILES O=c1c(O)c(-c2ccc(O)c(O)c2)oc2cc(O)ccc12
REMARK SMILES IDX 5 1 3 2 2 3 1 4 21 5 15 6 14 7 16 8 17 9 19 10 20 11 6 12
REMARK SMILES IDX 7 13 8 14 9 15 13 16 11 17 10 18 12 20 4 22 18 24
REMARK H PARENT 10 19 12 21 4 23 18 25
REMARK Flexibility Score: inf
ROOT
ATOM      1  C   UNL     1      17.841 -25.535 -28.418  1.00  0.00     0.180 A 
ATOM      2  C   UNL     1      18.518 -24.877 -29.466  1.00  0.00     0.208 A 
ATOM      3  C   UNL     1      18.468 -25.429 -30.756  1.00  0.00     0.235 A 
ATOM      4  O   UNL     1      19.075 -24.866 -31.707  1.00  0.00    -0.285 OA
ATOM      5  C   UNL     1      17.735 -26.606 -30.975  1.00  0.00     0.069 A 
ATOM      6  C   UNL     1      17.065 -27.191 -29.878  1.00  0.00     0.142 A 
ATOM      7  O   UNL     1      17.144 -26.641 -28.671  1.00  0.00    -0.452 OA
ATOM      8  C   UNL     1      16.314 -28.358 -30.058  1.00  0.00     0.094 A 
ATOM      9  C   UNL     1      16.226 -28.952 -31.321  1.00  0.00     0.119 A 
ATOM     10  C   UNL     1      16.890 -28.375 -32.412  1.00  0.00     0.047 A 
ATOM     11  C   UNL     1      17.641 -27.208 -32.243  1.00  0.00     0.020 A 
ENDROOT
BRANCH   1  12
ATOM     12  C   UNL     1      17.860 -25.026 -27.028  1.00  0.00     0.025 A 
ATOM     13  C   UNL     1      16.803 -24.222 -26.572  1.00  0.00     0.016 A 
ATOM     14  C   UNL     1      16.790 -23.747 -25.259  1.00  0.00     0.051 A 
ATOM     15  C   UNL     1      17.822 -24.081 -24.376  1.00  0.00     0.157 A 
ATOM     16  C   UNL     1      18.886 -25.377 -26.133  1.00  0.00     0.062 A 
ATOM     17  C   UNL     1      18.874 -24.904 -24.813  1.00  0.00     0.158 A 
BRANCH  15  18
ATOM     18  O   UNL     1      17.783 -23.591 -23.071  1.00  0.00    -0.504 OA
ATOM     19  H   UNL     1      17.227 -24.031 -22.348  1.00  0.00     0.293 HD
ENDBRANCH  15  18
BRANCH  17  20
ATOM     20  O   UNL     1      19.898 -25.252 -23.934  1.00  0.00    -0.504 OA
ATOM     21  H   UNL     1      19.901 -24.937 -22.971  1.00  0.00     0.293 HD
ENDBRANCH  17  20
ENDBRANCH   1  12
BRANCH   2  22
ATOM     22  O   UNL     1      19.199 -23.681 -29.227  1.00  0.00    -0.502 OA
ATOM     23  H   UNL     1      18.893 -23.015 -28.527  1.00  0.00     0.293 HD
ENDBRANCH   2  22
BRANCH   9  24
ATOM     24  O   UNL     1      15.476 -30.115 -31.483  1.00  0.00    -0.508 OA
ATOM     25  H   UNL     1      15.301 -30.746 -30.709  1.00  0.00     0.293 HD
ENDBRANCH   9  24
TORSDOF 5
ENDMDL
MODEL 5
REMARK VINA RESULT:    -6.744     10.876     12.047
REMARK INTER + INTRA:          -7.726
REMARK INTER:                  -7.405
REMARK INTRA:                  -0.321
REMARK UNBOUND:                 0.200
REMARK SMILES O=c1c(O)c(-c2ccc(O)c(O)c2)oc2cc(O)ccc12
REMARK SMILES IDX 5 1 3 2 2 3 1 4 21 5 15 6 14 7 16 8 17 9 19 10 20 11 6 12
REMARK SMILES IDX 7 13 8 14 9 15 13 16 11 17 10 18 12 20 4 22 18 24
REMARK H PARENT 10 19 12 21 4 23 18 25
REMARK Flexibility Score: inf
ROOT
ATOM      1  C   UNL     1      17.156 -27.467 -31.245  1.00  0.00     0.180 A 
ATOM      2  C   UNL     1      16.378 -28.229 -30.349  1.00  0.00     0.208 A 
ATOM      3  C   UNL     1      16.553 -28.036 -28.970  1.00  0.00     0.235 A 
ATOM      4  O   UNL     1      15.878 -28.714 -28.148  1.00  0.00    -0.285 OA
ATOM      5  C   UNL     1      17.477 -27.082 -28.518  1.00  0.00     0.069 A 
ATOM      6  C   UNL     1      18.200 -26.341 -29.479  1.00  0.00     0.142 A 
ATOM      7  O   UNL     1      18.011 -26.560 -30.776  1.00  0.00    -0.452 OA
ATOM      8  C   UNL     1      19.122 -25.373 -29.068  1.00  0.00     0.094 A 
ATOM      9  C   UNL     1      19.335 -25.134 -27.707  1.00  0.00     0.119 A 
ATOM     10  C   UNL     1      18.621 -25.868 -26.750  1.00  0.00     0.047 A 
ATOM     11  C   UNL     1      17.696 -26.837 -27.149  1.00  0.00     0.020 A 
ENDROOT
BRANCH   1  12
ATOM     12  C   UNL     1      17.043 -27.624 -32.714  1.00  0.00     0.025 A 
ATOM     13  C   UNL     1      16.240 -26.734 -33.444  1.00  0.00     0.016 A 
ATOM     14  C   UNL     1      16.136 -26.851 -34.832  1.00  0.00     0.051 A 
ATOM     15  C   UNL     1      16.844 -27.846 -35.513  1.00  0.00     0.157 A 
ATOM     16  C   UNL     1      17.771 -28.611 -33.403  1.00  0.00     0.062 A 
ATOM     17  C   UNL     1      17.669 -28.729 -34.796  1.00  0.00     0.158 A 
BRANCH  15  18
ATOM     18  O   UNL     1      16.718 -27.940 -36.899  1.00  0.00    -0.504 OA
ATOM     19  H   UNL     1      16.015 -27.420 -37.411  1.00  0.00     0.293 HD
ENDBRANCH  15  18
BRANCH  17  20
ATOM     20  O   UNL     1      18.389 -29.714 -35.471  1.00  0.00    -0.504 OA
ATOM     21  H   UNL     1      18.624 -30.595 -35.029  1.00  0.00     0.293 HD
ENDBRANCH  17  20
ENDBRANCH   1  12
BRANCH   2  22
ATOM     22  O   UNL     1      15.432 -29.137 -30.830  1.00  0.00    -0.502 OA
ATOM     23  H   UNL     1      14.593 -29.370 -30.311  1.00  0.00     0.293 HD
ENDBRANCH   2  22
BRANCH   9  24
ATOM     24  O   UNL     1      20.258 -24.168 -27.315  1.00  0.00    -0.508 OA
ATOM     25  H   UNL     1      20.616 -24.128 -26.368  1.00  0.00     0.293 HD
ENDBRANCH   9  24
TORSDOF 5
ENDMDL
MODEL 6
REMARK VINA RESULT:    -6.698      5.515      9.340
REMARK INTER + INTRA:          -7.672
REMARK INTER:                  -7.364
REMARK INTRA:                  -0.308
REMARK UNBOUND:                 0.200
REMARK SMILES O=c1c(O)c(-c2ccc(O)c(O)c2)oc2cc(O)ccc12
REMARK SMILES IDX 5 1 3 2 2 3 1 4 21 5 15 6 14 7 16 8 17 9 19 10 20 11 6 12
REMARK SMILES IDX 7 13 8 14 9 15 13 16 11 17 10 18 12 20 4 22 18 24
REMARK H PARENT 10 19 12 21 4 23 18 25
REMARK Flexibility Score: inf
ROOT
ATOM      1  C   UNL     1      15.469 -24.721 -29.538  1.00  0.00     0.180 A 
ATOM      2  C   UNL     1      16.164 -23.812 -28.713  1.00  0.00     0.208 A 
ATOM      3  C   UNL     1      15.435 -23.036 -27.798  1.00  0.00     0.235 A 
ATOM      4  O   UNL     1      16.032 -22.208 -27.057  1.00  0.00    -0.285 OA
ATOM      5  C   UNL     1      14.043 -23.195 -27.713  1.00  0.00     0.069 A 
ATOM      6  C   UNL     1      13.424 -24.143 -28.557  1.00  0.00     0.142 A 
ATOM      7  O   UNL     1      14.149 -24.852 -29.415  1.00  0.00    -0.452 OA
ATOM      8  C   UNL     1      12.040 -24.339 -28.494  1.00  0.00     0.094 A 
ATOM      9  C   UNL     1      11.263 -23.597 -27.599  1.00  0.00     0.119 A 
ATOM     10  C   UNL     1      11.874 -22.654 -26.760  1.00  0.00     0.047 A 
ATOM     11  C   UNL     1      13.256 -22.452 -26.814  1.00  0.00     0.020 A 
ENDROOT
BRANCH   1  12
ATOM     12  C   UNL     1      16.162 -25.562 -30.540  1.00  0.00     0.025 A 
ATOM     13  C   UNL     1      16.415 -26.912 -30.253  1.00  0.00     0.016 A 
ATOM     14  C   UNL     1      17.049 -27.730 -31.191  1.00  0.00     0.051 A 
ATOM     15  C   UNL     1      17.426 -27.216 -32.436  1.00  0.00     0.157 A 
ATOM     16  C   UNL     1      16.524 -25.052 -31.801  1.00  0.00     0.062 A 
ATOM     17  C   UNL     1      17.159 -25.872 -32.745  1.00  0.00     0.158 A 
BRANCH  15  18
ATOM     18  O   UNL     1      18.061 -28.055 -33.352  1.00  0.00    -0.504 OA
ATOM     19  H   UNL     1      18.572 -28.880 -33.060  1.00  0.00     0.293 HD
ENDBRANCH  15  18
BRANCH  17  20
ATOM     20  O   UNL     1      17.520 -25.357 -33.989  1.00  0.00    -0.504 OA
ATOM     21  H   UNL     1      17.161 -24.469 -34.321  1.00  0.00     0.293 HD
ENDBRANCH  17  20
ENDBRANCH   1  12
BRANCH   2  22
ATOM     22  O   UNL     1      17.555 -23.712 -28.787  1.00  0.00    -0.502 OA
ATOM     23  H   UNL     1      18.065 -22.942 -28.369  1.00  0.00     0.293 HD
ENDBRANCH   2  22
BRANCH   9  24
ATOM     24  O   UNL     1       9.887 -23.802 -27.550  1.00  0.00    -0.508 OA
ATOM     25  H   UNL     1       9.239 -23.171 -28.006  1.00  0.00     0.293 HD
ENDBRANCH   9  24
TORSDOF 5
ENDMDL
MODEL 7
REMARK VINA RESULT:    -6.666      9.800     11.527
REMARK INTER + INTRA:          -7.635
REMARK INTER:                  -7.485
REMARK INTRA:                  -0.150
REMARK UNBOUND:                 0.200
REMARK SMILES O=c1c(O)c(-c2ccc(O)c(O)c2)oc2cc(O)ccc12
REMARK SMILES IDX 5 1 3 2 2 3 1 4 21 5 15 6 14 7 16 8 17 9 19 10 20 11 6 12
REMARK SMILES IDX 7 13 8 14 9 15 13 16 11 17 10 18 12 20 4 22 18 24
REMARK H PARENT 10 19 12 21 4 23 18 25
REMARK Flexibility Score: inf
ROOT
ATOM      1  C   UNL     1      18.781 -25.074 -28.006  1.00  0.00     0.180 A 
ATOM      2  C   UNL     1      18.306 -24.323 -26.911  1.00  0.00     0.208 A 
ATOM      3  C   UNL     1      19.089 -23.264 -26.426  1.00  0.00     0.235 A 
ATOM      4  O   UNL     1      18.691 -22.585 -25.441  1.00  0.00    -0.285 OA
ATOM      5  C   UNL     1      20.311 -22.967 -27.051  1.00  0.00     0.069 A 
ATOM      6  C   UNL     1      20.705 -23.751 -28.157  1.00  0.00     0.142 A 
ATOM      7  O   UNL     1      19.938 -24.750 -28.580  1.00  0.00    -0.452 OA
ATOM      8  C   UNL     1      21.911 -23.479 -28.813  1.00  0.00     0.094 A 
ATOM      9  C   UNL     1      22.731 -22.434 -28.377  1.00  0.00     0.119 A 
ATOM     10  C   UNL     1      22.343 -21.655 -27.278  1.00  0.00     0.047 A 
ATOM     11  C   UNL     1      21.141 -21.917 -26.617  1.00  0.00     0.020 A 
ENDROOT
BRANCH   1  12
ATOM     12  C   UNL     1      18.022 -26.217 -28.565  1.00  0.00     0.025 A 
ATOM     13  C   UNL     1      17.634 -26.195 -29.913  1.00  0.00     0.016 A 
ATOM     14  C   UNL     1      16.936 -27.271 -30.467  1.00  0.00     0.051 A 
ATOM     15  C   UNL     1      16.629 -28.390 -29.687  1.00  0.00     0.157 A 
ATOM     16  C   UNL     1      17.730 -27.352 -27.787  1.00  0.00     0.062 A 
ATOM     17  C   UNL     1      17.031 -28.434 -28.341  1.00  0.00     0.158 A 
BRANCH  15  18
ATOM     18  O   UNL     1      15.928 -29.448 -30.266  1.00  0.00    -0.504 OA
ATOM     19  H   UNL     1      15.959 -29.632 -31.261  1.00  0.00     0.293 HD
ENDBRANCH  15  18
BRANCH  17  20
ATOM     20  O   UNL     1      16.740 -29.553 -27.562  1.00  0.00    -0.504 OA
ATOM     21  H   UNL     1      17.228 -30.432 -27.693  1.00  0.00     0.293 HD
ENDBRANCH  17  20
ENDBRANCH   1  12
BRANCH   2  22
ATOM     22  O   UNL     1      17.063 -24.612 -26.342  1.00  0.00    -0.502 OA
ATOM     23  H   UNL     1      16.416 -25.269 -26.761  1.00  0.00     0.293 HD
ENDBRANCH   2  22
BRANCH   9  24
ATOM     24  O   UNL     1      23.929 -22.178 -29.041  1.00  0.00    -0.508 OA
ATOM     25  H   UNL     1      24.808 -22.565 -28.718  1.00  0.00     0.293 HD
ENDBRANCH   9  24
TORSDOF 5
ENDMDL
MODEL 8
REMARK VINA RESULT:    -6.629      8.600     11.500
REMARK INTER + INTRA:          -7.592
REMARK INTER:                  -7.272
REMARK INTRA:                  -0.320
REMARK UNBOUND:                 0.200
REMARK SMILES O=c1c(O)c(-c2ccc(O)c(O)c2)oc2cc(O)ccc12
REMARK SMILES IDX 5 1 3 2 2 3 1 4 21 5 15 6 14 7 16 8 17 9 19 10 20 11 6 12
REMARK SMILES IDX 7 13 8 14 9 15 13 16 11 17 10 18 12 20 4 22 18 24
REMARK H PARENT 10 19 12 21 4 23 18 25
REMARK Flexibility Score: inf
ROOT
ATOM      1  C   UNL     1      17.351 -26.888 -29.866  1.00  0.00     0.180 A 
ATOM      2  C   UNL     1      16.531 -28.035 -29.909  1.00  0.00     0.208 A 
ATOM      3  C   UNL     1      16.385 -28.716 -31.128  1.00  0.00     0.235 A 
ATOM      4  O   UNL     1      15.648 -29.738 -31.195  1.00  0.00    -0.285 OA
ATOM      5  C   UNL     1      17.069 -28.254 -32.263  1.00  0.00     0.069 A 
ATOM      6  C   UNL     1      17.890 -27.112 -32.132  1.00  0.00     0.142 A 
ATOM      7  O   UNL     1      17.995 -26.492 -30.962  1.00  0.00    -0.452 OA
ATOM      8  C   UNL     1      18.596 -26.628 -33.238  1.00  0.00     0.094 A 
ATOM      9  C   UNL     1      18.492 -27.267 -34.477  1.00  0.00     0.119 A 
ATOM     10  C   UNL     1      17.677 -28.400 -34.611  1.00  0.00     0.047 A 
ATOM     11  C   UNL     1      16.968 -28.893 -33.513  1.00  0.00     0.020 A 
ENDROOT
BRANCH   1  12
ATOM     12  C   UNL     1      17.543 -26.105 -28.623  1.00  0.00     0.025 A 
ATOM     13  C   UNL     1      18.587 -26.442 -27.749  1.00  0.00     0.016 A 
ATOM     14  C   UNL     1      18.799 -25.704 -26.582  1.00  0.00     0.051 A 
ATOM     15  C   UNL     1      17.982 -24.611 -26.279  1.00  0.00     0.157 A 
ATOM     16  C   UNL     1      16.735 -24.992 -28.327  1.00  0.00     0.062 A 
ATOM     17  C   UNL     1      16.947 -24.248 -27.157  1.00  0.00     0.158 A 
BRANCH  15  18
ATOM     18  O   UNL     1      18.216 -23.894 -25.105  1.00  0.00    -0.504 OA
ATOM     19  H   UNL     1      17.511 -23.297 -24.690  1.00  0.00     0.293 HD
ENDBRANCH  15  18
BRANCH  17  20
ATOM     20  O   UNL     1      16.139 -23.151 -26.868  1.00  0.00    -0.504 OA
ATOM     21  H   UNL     1      15.941 -22.440 -27.563  1.00  0.00     0.293 HD
ENDBRANCH  17  20
ENDBRANCH   1  12
BRANCH   2  22
ATOM     22  O   UNL     1      15.903 -28.499 -28.751  1.00  0.00    -0.502 OA
ATOM     23  H   UNL     1      16.301 -28.366 -27.829  1.00  0.00     0.293 HD
ENDBRANCH   2  22
BRANCH   9  24
ATOM     24  O   UNL     1      19.201 -26.770 -35.568  1.00  0.00    -0.508 OA
ATOM     25  H   UNL     1      19.621 -25.848 -35.554  1.00  0.00     0.293 HD
ENDBRANCH   9  24
TORSDOF 5
ENDMDL
MODEL 9
REMARK VINA RESULT:    -6.627      9.064     10.592
REMARK INTER + INTRA:          -7.590
REMARK INTER:                  -7.268
REMARK INTRA:                  -0.321
REMARK UNBOUND:                 0.200
REMARK SMILES O=c1c(O)c(-c2ccc(O)c(O)c2)oc2cc(O)ccc12
REMARK SMILES IDX 5 1 3 2 2 3 1 4 21 5 15 6 14 7 16 8 17 9 19 10 20 11 6 12
REMARK SMILES IDX 7 13 8 14 9 15 13 16 11 17 10 18 12 20 4 22 18 24
REMARK H PARENT 10 19 12 21 4 23 18 25
REMARK Flexibility Score: inf
ROOT
ATOM      1  C   UNL     1      18.554 -24.147 -28.017  1.00  0.00     0.180 A 
ATOM      2  C   UNL     1      18.473 -24.052 -29.422  1.00  0.00     0.208 A 
ATOM      3  C   UNL     1      18.018 -25.162 -30.150  1.00  0.00     0.235 A 
ATOM      4  O   UNL     1      17.947 -25.106 -31.408  1.00  0.00    -0.285 OA
ATOM      5  C   UNL     1      17.639 -26.328 -29.466  1.00  0.00     0.069 A 
ATOM      6  C   UNL     1      17.727 -26.336 -28.056  1.00  0.00     0.142 A 
ATOM      7  O   UNL     1      18.170 -25.266 -27.405  1.00  0.00    -0.452 OA
ATOM      8  C   UNL     1      17.348 -27.475 -27.338  1.00  0.00     0.094 A 
ATOM      9  C   UNL     1      16.883 -28.611 -28.009  1.00  0.00     0.119 A 
ATOM     10  C   UNL     1      16.796 -28.607 -29.408  1.00  0.00     0.047 A 
ATOM     11  C   UNL     1      17.171 -27.474 -30.136  1.00  0.00     0.020 A 
ENDROOT
BRANCH   1  12
ATOM     12  C   UNL     1      19.041 -23.027 -27.180  1.00  0.00     0.025 A 
ATOM     13  C   UNL     1      18.114 -22.175 -26.560  1.00  0.00     0.016 A 
ATOM     14  C   UNL     1      18.549 -21.124 -25.749  1.00  0.00     0.051 A 
ATOM     15  C   UNL     1      19.915 -20.919 -25.532  1.00  0.00     0.157 A 
ATOM     16  C   UNL     1      20.414 -22.831 -26.944  1.00  0.00     0.062 A 
ATOM     17  C   UNL     1      20.853 -21.778 -26.128  1.00  0.00     0.158 A 
BRANCH  15  18
ATOM     18  O   UNL     1      20.321 -19.859 -24.719  1.00  0.00    -0.504 OA
ATOM     19  H   UNL     1      21.098 -19.259 -24.967  1.00  0.00     0.293 HD
ENDBRANCH  15  18
BRANCH  17  20
ATOM     20  O   UNL     1      22.216 -21.587 -25.904  1.00  0.00    -0.504 OA
ATOM     21  H   UNL     1      22.909 -21.856 -26.592  1.00  0.00     0.293 HD
ENDBRANCH  17  20
ENDBRANCH   1  12
BRANCH   2  22
ATOM     22  O   UNL     1      18.811 -22.862 -30.070  1.00  0.00    -0.502 OA
ATOM     23  H   UNL     1      19.289 -22.104 -29.596  1.00  0.00     0.293 HD
ENDBRANCH   2  22
BRANCH   9  24
ATOM     24  O   UNL     1      16.511 -29.736 -27.279  1.00  0.00    -0.508 OA
ATOM     25  H   UNL     1      16.206 -29.667 -26.315  1.00  0.00     0.293 HD
ENDBRANCH   9  24
TORSDOF 5
ENDMDL
