MODEL 1
REMARK VINA RESULT:    -4.653      0.000      0.000
REMARK INTER + INTRA:          -6.811
REMARK INTER:                  -6.285
REMARK INTRA:                  -0.527
REMARK UNBOUND:                -0.527
REMARK SMILES CCCCCCCC(=O)[O-]
REMARK SMILES IDX 5 1 6 2 7 3 8 4 9 5 10 6 4 7 3 8 2 9 1 10
REMARK H PARENT
REMARK Flexibility Score: inf
ROOT
ATOM      1  C   UNL     1      -0.964  31.139  42.674  1.00  0.00     0.000 C 
ENDROOT
BRANCH   1   2
ATOM      2  C   UNL     1      -2.305  31.020  43.413  1.00  0.00     0.006 C 
BRANCH   2   3
ATOM      3  C   UNL     1      -2.775  29.564  43.532  1.00  0.00     0.053 C 
BRANCH   3   4
ATOM      4  C   UNL     1      -1.989  28.809  44.560  1.00  0.00     0.041 C 
ATOM      5  O   UNL     1      -1.709  27.595  44.380  1.00  0.00    -0.550 OA
ATOM      6  O   UNL     1      -1.539  29.457  45.704  1.00  0.00    -0.550 OA
ENDBRANCH   3   4
ENDBRANCH   2   3
ENDBRANCH   1   2
BRANCH   1   7
ATOM      7  C   UNL     1      -1.177  31.209  41.156  1.00  0.00     0.000 C 
BRANCH   7   8
ATOM      8  C   UNL     1      -0.276  30.199  40.428  1.00  0.00    -0.000 C 
BRANCH   8   9
ATOM      9  C   UNL     1      -0.774  28.753  40.575  1.00  0.00    -0.003 C 
ATOM     10  C   UNL     1       0.164  27.887  41.417  1.00  0.00     0.004 C 
ENDBRANCH   8   9
ENDBRANCH   7   8
ENDBRANCH   1   7
TORSDOF 6
ENDMDL
MODEL 2
REMARK VINA RESULT:    -4.649      2.559      4.112
REMARK INTER + INTRA:          -6.806
REMARK INTER:                  -6.281
REMARK INTRA:                  -0.525
REMARK UNBOUND:                -0.527
REMARK SMILES CCCCCCCC(=O)[O-]
REMARK SMILES IDX 5 1 6 2 7 3 8 4 9 5 10 6 4 7 3 8 2 9 1 10
REMARK H PARENT
REMARK Flexibility Score: inf
ROOT
ATOM      1  C   UNL     1      -2.364  29.267  42.244  1.00  0.00     0.000 C 
ENDROOT
BRANCH   1   2
ATOM      2  C   UNL     1      -2.337  30.393  41.200  1.00  0.00     0.006 C 
BRANCH   2   3
ATOM      3  C   UNL     1      -0.975  31.098  41.142  1.00  0.00     0.053 C 
BRANCH   3   4
ATOM      4  C   UNL     1       0.114  30.165  40.705  1.00  0.00     0.041 C 
ATOM      5  O   UNL     1       1.185  30.088  41.362  1.00  0.00    -0.550 OA
ATOM      6  O   UNL     1      -0.070  29.358  39.590  1.00  0.00    -0.550 OA
ENDBRANCH   3   4
ENDBRANCH   2   3
ENDBRANCH   1   2
BRANCH   1   7
ATOM      7  C   UNL     1      -2.935  29.766  43.577  1.00  0.00     0.000 C 
BRANCH   7   8
ATOM      8  C   UNL     1      -2.082  29.277  44.758  1.00  0.00    -0.000 C 
BRANCH   8   9
ATOM      9  C   UNL     1      -0.639  29.800  44.699  1.00  0.00    -0.003 C 
ATOM     10  C   UNL     1       0.389  28.680  44.543  1.00  0.00     0.004 C 
ENDBRANCH   8   9
ENDBRANCH   7   8
ENDBRANCH   1   7
TORSDOF 6
ENDMDL
MODEL 3
REMARK VINA RESULT:    -4.619      1.955      3.510
REMARK INTER + INTRA:          -6.766
REMARK INTER:                  -6.170
REMARK INTRA:                  -0.596
REMARK UNBOUND:                -0.527
REMARK SMILES CCCCCCCC(=O)[O-]
REMARK SMILES IDX 5 1 6 2 7 3 8 4 9 5 10 6 4 7 3 8 2 9 1 10
REMARK H PARENT
REMARK Flexibility Score: inf
ROOT
ATOM      1  C   UNL     1      -0.886  31.124  42.174  1.00  0.00     0.000 C 
ENDROOT
BRANCH   1   2
ATOM      2  C   UNL     1      -0.486  30.637  40.774  1.00  0.00     0.006 C 
BRANCH   2   3
ATOM      3  C   UNL     1       0.833  29.852  40.787  1.00  0.00     0.053 C 
BRANCH   3   4
ATOM      4  C   UNL     1       0.761  28.663  41.695  1.00  0.00     0.041 C 
ATOM      5  O   UNL     1      -0.001  27.700  41.421  1.00  0.00    -0.550 OA
ATOM      6  O   UNL     1       1.563  28.605  42.829  1.00  0.00    -0.550 OA
ENDBRANCH   3   4
ENDBRANCH   2   3
ENDBRANCH   1   2
BRANCH   1   7
ATOM      7  C   UNL     1      -2.392  30.950  42.408  1.00  0.00     0.000 C 
BRANCH   7   8
ATOM      8  C   UNL     1      -2.706  29.546  42.945  1.00  0.00    -0.000 C 
BRANCH   8   9
ATOM      9  C   UNL     1      -2.182  29.330  44.373  1.00  0.00    -0.003 C 
ATOM     10  C   UNL     1      -1.620  27.926  44.591  1.00  0.00     0.004 C 
ENDBRANCH   8   9
ENDBRANCH   7   8
ENDBRANCH   1   7
TORSDOF 6
ENDMDL
MODEL 4
REMARK VINA RESULT:    -4.602      1.533      2.067
REMARK INTER + INTRA:          -6.743
REMARK INTER:                  -6.165
REMARK INTRA:                  -0.577
REMARK UNBOUND:                -0.527
REMARK SMILES CCCCCCCC(=O)[O-]
REMARK SMILES IDX 5 1 6 2 7 3 8 4 9 5 10 6 4 7 3 8 2 9 1 10
REMARK H PARENT
REMARK Flexibility Score: inf
ROOT
ATOM      1  C   UNL     1      -2.453  29.503  42.575  1.00  0.00     0.000 C 
ENDROOT
BRANCH   1   2
ATOM      2  C   UNL     1      -2.373  29.273  44.091  1.00  0.00     0.006 C 
BRANCH   2   3
ATOM      3  C   UNL     1      -1.636  27.975  44.444  1.00  0.00     0.053 C 
BRANCH   3   4
ATOM      4  C   UNL     1      -0.213  28.000  43.976  1.00  0.00     0.041 C 
ATOM      5  O   UNL     1       0.221  27.096  43.216  1.00  0.00    -0.550 OA
ATOM      6  O   UNL     1       0.625  29.042  44.355  1.00  0.00    -0.550 OA
ENDBRANCH   3   4
ENDBRANCH   2   3
ENDBRANCH   1   2
BRANCH   1   7
ATOM      7  C   UNL     1      -2.353  30.996  42.239  1.00  0.00     0.000 C 
BRANCH   7   8
ATOM      8  C   UNL     1      -0.959  31.346  41.696  1.00  0.00    -0.000 C 
BRANCH   8   9
ATOM      9  C   UNL     1      -0.460  30.331  40.657  1.00  0.00    -0.003 C 
ATOM     10  C   UNL     1       0.979  29.883  40.911  1.00  0.00     0.004 C 
ENDBRANCH   8   9
ENDBRANCH   7   8
ENDBRANCH   1   7
TORSDOF 6
ENDMDL
MODEL 5
REMARK VINA RESULT:    -4.579     19.743     21.701
REMARK INTER + INTRA:          -6.712
REMARK INTER:                  -6.075
REMARK INTRA:                  -0.637
REMARK UNBOUND:                -0.527
REMARK SMILES CCCCCCCC(=O)[O-]
REMARK SMILES IDX 5 1 6 2 7 3 8 4 9 5 10 6 4 7 3 8 2 9 1 10
REMARK H PARENT
REMARK Flexibility Score: inf
ROOT
ATOM      1  C   UNL     1      14.631  13.352  45.385  1.00  0.00     0.000 C 
ENDROOT
BRANCH   1   2
ATOM      2  C   UNL     1      14.468  13.980  43.994  1.00  0.00     0.006 C 
BRANCH   2   3
ATOM      3  C   UNL     1      13.069  14.573  43.784  1.00  0.00     0.053 C 
BRANCH   3   4
ATOM      4  C   UNL     1      12.929  15.912  44.444  1.00  0.00     0.041 C 
ATOM      5  O   UNL     1      13.848  16.767  44.344  1.00  0.00    -0.550 OA
ATOM      6  O   UNL     1      11.770  16.225  45.141  1.00  0.00    -0.550 OA
ENDBRANCH   3   4
ENDBRANCH   2   3
ENDBRANCH   1   2
BRANCH   1   7
ATOM      7  C   UNL     1      15.973  13.748  46.014  1.00  0.00     0.000 C 
BRANCH   7   8
ATOM      8  C   UNL     1      15.869  15.108  46.721  1.00  0.00    -0.000 C 
BRANCH   8   9
ATOM      9  C   UNL     1      14.722  15.155  47.741  1.00  0.00    -0.003 C 
ATOM     10  C   UNL     1      14.163  16.564  47.939  1.00  0.00     0.004 C 
ENDBRANCH   8   9
ENDBRANCH   7   8
ENDBRANCH   1   7
TORSDOF 6
ENDMDL
MODEL 6
REMARK VINA RESULT:    -4.575     19.863     21.527
REMARK INTER + INTRA:          -6.707
REMARK INTER:                  -6.075
REMARK INTRA:                  -0.632
REMARK UNBOUND:                -0.527
REMARK SMILES CCCCCCCC(=O)[O-]
REMARK SMILES IDX 5 1 6 2 7 3 8 4 9 5 10 6 4 7 3 8 2 9 1 10
REMARK H PARENT
REMARK Flexibility Score: inf
ROOT
ATOM      1  C   UNL     1      15.860  14.930  46.592  1.00  0.00     0.000 C 
ENDROOT
BRANCH   1   2
ATOM      2  C   UNL     1      14.937  15.245  47.777  1.00  0.00     0.006 C 
BRANCH   2   3
ATOM      3  C   UNL     1      14.254  16.612  47.634  1.00  0.00     0.053 C 
BRANCH   3   4
ATOM      4  C   UNL     1      13.185  16.590  46.584  1.00  0.00     0.041 C 
ATOM      5  O   UNL     1      12.229  15.775  46.668  1.00  0.00    -0.550 OA
ATOM      6  O   UNL     1      13.229  17.494  45.530  1.00  0.00    -0.550 OA
ENDBRANCH   3   4
ENDBRANCH   2   3
ENDBRANCH   1   2
BRANCH   1   7
ATOM      7  C   UNL     1      15.659  13.489  46.106  1.00  0.00     0.000 C 
BRANCH   7   8
ATOM      8  C   UNL     1      14.397  13.373  45.237  1.00  0.00    -0.000 C 
BRANCH   8   9
ATOM      9  C   UNL     1      14.498  14.191  43.941  1.00  0.00    -0.003 C 
ATOM     10  C   UNL     1      13.130  14.576  43.376  1.00  0.00     0.004 C 
ENDBRANCH   8   9
ENDBRANCH   7   8
ENDBRANCH   1   7
TORSDOF 6
ENDMDL
MODEL 7
REMARK VINA RESULT:    -4.566     19.990     22.016
REMARK INTER + INTRA:          -6.694
REMARK INTER:                  -6.133
REMARK INTRA:                  -0.561
REMARK UNBOUND:                -0.527
REMARK SMILES CCCCCCCC(=O)[O-]
REMARK SMILES IDX 5 1 6 2 7 3 8 4 9 5 10 6 4 7 3 8 2 9 1 10
REMARK H PARENT
REMARK Flexibility Score: inf
ROOT
ATOM      1  C   UNL     1      15.899  15.162  46.017  1.00  0.00     0.000 C 
ENDROOT
BRANCH   1   2
ATOM      2  C   UNL     1      15.849  13.951  45.075  1.00  0.00     0.006 C 
BRANCH   2   3
ATOM      3  C   UNL     1      14.410  13.514  44.767  1.00  0.00     0.053 C 
BRANCH   3   4
ATOM      4  C   UNL     1      13.789  14.365  43.701  1.00  0.00     0.041 C 
ATOM      5  O   UNL     1      12.542  14.535  43.671  1.00  0.00    -0.550 OA
ATOM      6  O   UNL     1      14.592  14.996  42.760  1.00  0.00    -0.550 OA
ENDBRANCH   3   4
ENDBRANCH   2   3
ENDBRANCH   1   2
BRANCH   1   7
ATOM      7  C   UNL     1      15.656  14.739  47.471  1.00  0.00     0.000 C 
BRANCH   7   8
ATOM      8  C   UNL     1      14.520  15.560  48.100  1.00  0.00    -0.000 C 
BRANCH   8   9
ATOM      9  C   UNL     1      13.927  16.589  47.126  1.00  0.00    -0.003 C 
ATOM     10  C   UNL     1      12.460  16.316  46.798  1.00  0.00     0.004 C 
ENDBRANCH   8   9
ENDBRANCH   7   8
ENDBRANCH   1   7
TORSDOF 6
ENDMDL
MODEL 8
REMARK VINA RESULT:    -4.494     19.897     21.833
REMARK INTER + INTRA:          -6.596
REMARK INTER:                  -5.919
REMARK INTRA:                  -0.677
REMARK UNBOUND:                -0.527
REMARK SMILES CCCCCCCC(=O)[O-]
REMARK SMILES IDX 5 1 6 2 7 3 8 4 9 5 10 6 4 7 3 8 2 9 1 10
REMARK H PARENT
REMARK Flexibility Score: inf
ROOT
ATOM      1  C   UNL     1      15.565  14.836  44.478  1.00  0.00     0.000 C 
ENDROOT
BRANCH   1   2
ATOM      2  C   UNL     1      16.008  14.026  45.705  1.00  0.00     0.006 C 
BRANCH   2   3
ATOM      3  C   UNL     1      15.999  14.865  46.990  1.00  0.00     0.053 C 
BRANCH   3   4
ATOM      4  C   UNL     1      14.679  14.786  47.694  1.00  0.00     0.041 C 
ATOM      5  O   UNL     1      14.355  15.665  48.535  1.00  0.00    -0.550 OA
ATOM      6  O   UNL     1      13.793  13.759  47.396  1.00  0.00    -0.550 OA
ENDBRANCH   3   4
ENDBRANCH   2   3
ENDBRANCH   1   2
BRANCH   1   7
ATOM      7  C   UNL     1      14.428  14.127  43.732  1.00  0.00     0.000 C 
BRANCH   7   8
ATOM      8  C   UNL     1      13.081  14.814  44.002  1.00  0.00    -0.000 C 
BRANCH   8   9
ATOM      9  C   UNL     1      13.244  16.261  44.490  1.00  0.00    -0.003 C 
ATOM     10  C   UNL     1      12.255  16.628  45.596  1.00  0.00     0.004 C 
ENDBRANCH   8   9
ENDBRANCH   7   8
ENDBRANCH   1   7
TORSDOF 6
ENDMDL
MODEL 9
REMARK VINA RESULT:    -4.387     10.804     11.778
REMARK INTER + INTRA:          -6.452
REMARK INTER:                  -5.856
REMARK INTRA:                  -0.596
REMARK UNBOUND:                -0.527
REMARK SMILES CCCCCCCC(=O)[O-]
REMARK SMILES IDX 5 1 6 2 7 3 8 4 9 5 10 6 4 7 3 8 2 9 1 10
REMARK H PARENT
REMARK Flexibility Score: inf
ROOT
ATOM      1  C   UNL     1       7.773  22.379  42.113  1.00  0.00     0.000 C 
ENDROOT
BRANCH   1   2
ATOM      2  C   UNL     1       6.304  21.956  41.969  1.00  0.00     0.006 C 
BRANCH   2   3
ATOM      3  C   UNL     1       6.075  20.499  42.389  1.00  0.00     0.053 C 
BRANCH   3   4
ATOM      4  C   UNL     1       6.300  20.303  43.858  1.00  0.00     0.041 C 
ATOM      5  O   UNL     1       5.490  20.782  44.693  1.00  0.00    -0.550 OA
ATOM      6  O   UNL     1       7.389  19.563  44.300  1.00  0.00    -0.550 OA
ENDBRANCH   3   4
ENDBRANCH   2   3
ENDBRANCH   1   2
BRANCH   1   7
ATOM      7  C   UNL     1       7.884  23.861  42.493  1.00  0.00     0.000 C 
BRANCH   7   8
ATOM      8  C   UNL     1       7.601  24.068  43.988  1.00  0.00    -0.000 C 
BRANCH   8   9
ATOM      9  C   UNL     1       8.544  23.253  44.885  1.00  0.00    -0.003 C 
ATOM     10  C   UNL     1       7.918  22.898  46.234  1.00  0.00     0.004 C 
ENDBRANCH   8   9
ENDBRANCH   7   8
ENDBRANCH   1   7
TORSDOF 6
ENDMDL
