MODEL 1
REMARK VINA RESULT:    -5.437      0.000      0.000
REMARK INTER + INTRA:          -5.913
REMARK INTER:                  -5.913
REMARK INTRA:                   0.000
REMARK UNBOUND:                 0.000
REMARK SMILES Cc1cc(O)c2c(c1)C(=O)c1cc(O)cc(O)c1C2=O
REMARK SMILES IDX 1 1 2 2 8 3 7 4 6 5 4 6 3 7 19 8 20 9 18 10 11 11 9 12 10 13
REMARK SMILES IDX 12 14 13 15 15 16 16 17 5 18 17 20 14 22
REMARK H PARENT 5 19 17 21 14 23
REMARK Flexibility Score: inf
ROOT
ATOM      1  C   UNL     1      11.797  40.368   7.001  1.00  0.00     0.044 C 
ATOM      2  C   UNL     1      12.873  39.687   6.208  1.00  0.00    -0.047 A 
ATOM      3  C   UNL     1      13.504  38.546   6.713  1.00  0.00     0.016 A 
ATOM      4  C   UNL     1      14.498  37.887   5.969  1.00  0.00     0.038 A 
ATOM      5  C   UNL     1      14.866  38.377   4.694  1.00  0.00     0.076 A 
ATOM      6  C   UNL     1      14.150  39.475   4.148  1.00  0.00     0.127 A 
ATOM      7  C   UNL     1      13.185  40.131   4.920  1.00  0.00     0.050 A 
ATOM      8  C   UNL     1      16.027  37.751   4.003  1.00  0.00     0.201 C 
ATOM      9  O   UNL     1      16.645  38.383   3.105  1.00  0.00    -0.288 OA
ATOM     10  C   UNL     1      16.536  36.427   4.447  1.00  0.00     0.076 A 
ATOM     11  C   UNL     1      16.113  35.910   5.690  1.00  0.00     0.041 A 
ATOM     12  C   UNL     1      15.147  36.671   6.514  1.00  0.00     0.194 C 
ATOM     13  O   UNL     1      14.865  36.273   7.679  1.00  0.00    -0.289 OA
ATOM     14  C   UNL     1      16.613  34.675   6.140  1.00  0.00     0.059 A 
ATOM     15  C   UNL     1      17.522  33.952   5.363  1.00  0.00     0.120 A 
ATOM     16  C   UNL     1      17.935  34.456   4.130  1.00  0.00     0.093 A 
ATOM     17  C   UNL     1      17.451  35.685   3.663  1.00  0.00     0.131 A 
ENDROOT
BRANCH   6  18
ATOM     18  O   UNL     1      14.331  39.926   2.838  1.00  0.00    -0.507 OA
ATOM     19  H   UNL     1      13.704  40.567   2.373  1.00  0.00     0.293 HD
ENDBRANCH   6  18
BRANCH  17  20
ATOM     20  O   UNL     1      17.872  36.159   2.421  1.00  0.00    -0.507 OA
ATOM     21  H   UNL     1      18.788  35.936   2.048  1.00  0.00     0.293 HD
ENDBRANCH  17  20
BRANCH  15  22
ATOM     22  O   UNL     1      18.019  32.728   5.805  1.00  0.00    -0.508 OA
ATOM     23  H   UNL     1      18.701  32.206   5.265  1.00  0.00     0.293 HD
ENDBRANCH  15  22
TORSDOF 3
ENDMDL
MODEL 2
REMARK VINA RESULT:    -5.399      2.012      2.024
REMARK INTER + INTRA:          -5.872
REMARK INTER:                  -5.872
REMARK INTRA:                   0.000
REMARK UNBOUND:                 0.000
REMARK SMILES Cc1cc(O)c2c(c1)C(=O)c1cc(O)cc(O)c1C2=O
REMARK SMILES IDX 1 1 2 2 8 3 7 4 6 5 4 6 3 7 19 8 20 9 18 10 11 11 9 12 10 13
REMARK SMILES IDX 12 14 13 15 15 16 16 17 5 18 17 20 14 22
REMARK H PARENT 5 19 17 21 14 23
REMARK Flexibility Score: inf
ROOT
ATOM      1  C   UNL     1      12.292  40.080   7.103  1.00  0.00     0.044 C 
ATOM      2  C   UNL     1      12.777  39.001   6.181  1.00  0.00    -0.047 A 
ATOM      3  C   UNL     1      13.885  38.222   6.530  1.00  0.00     0.016 A 
ATOM      4  C   UNL     1      14.334  37.193   5.685  1.00  0.00     0.038 A 
ATOM      5  C   UNL     1      13.663  36.937   4.467  1.00  0.00     0.076 A 
ATOM      6  C   UNL     1      12.481  37.667   4.169  1.00  0.00     0.127 A 
ATOM      7  C   UNL     1      12.070  38.704   5.012  1.00  0.00     0.050 A 
ATOM      8  C   UNL     1      14.257  35.949   3.524  1.00  0.00     0.201 C 
ATOM      9  O   UNL     1      13.959  35.984   2.300  1.00  0.00    -0.288 OA
ATOM     10  C   UNL     1      15.291  34.993   3.999  1.00  0.00     0.076 A 
ATOM     11  C   UNL     1      15.911  35.214   5.246  1.00  0.00     0.041 A 
ATOM     12  C   UNL     1      15.502  36.369   6.078  1.00  0.00     0.194 C 
ATOM     13  O   UNL     1      16.140  36.641   7.133  1.00  0.00    -0.289 OA
ATOM     14  C   UNL     1      16.917  34.339   5.693  1.00  0.00     0.059 A 
ATOM     15  C   UNL     1      17.303  33.246   4.912  1.00  0.00     0.120 A 
ATOM     16  C   UNL     1      16.686  33.019   3.682  1.00  0.00     0.093 A 
ATOM     17  C   UNL     1      15.683  33.880   3.218  1.00  0.00     0.131 A 
ENDROOT
BRANCH   6  18
ATOM     18  O   UNL     1      11.663  37.375   3.073  1.00  0.00    -0.507 OA
ATOM     19  H   UNL     1      10.692  37.646   3.010  1.00  0.00     0.293 HD
ENDBRANCH   6  18
BRANCH  17  20
ATOM     20  O   UNL     1      15.075  33.622   1.990  1.00  0.00    -0.507 OA
ATOM     21  H   UNL     1      15.055  32.690   1.590  1.00  0.00     0.293 HD
ENDBRANCH  17  20
BRANCH  15  22
ATOM     22  O   UNL     1      18.299  32.375   5.351  1.00  0.00    -0.508 OA
ATOM     23  H   UNL     1      19.267  32.669   5.421  1.00  0.00     0.293 HD
ENDBRANCH  15  22
TORSDOF 3
ENDMDL
MODEL 3
REMARK VINA RESULT:    -5.177      1.499      5.538
REMARK INTER + INTRA:          -5.631
REMARK INTER:                  -5.631
REMARK INTRA:                   0.000
REMARK UNBOUND:                 0.000
REMARK SMILES Cc1cc(O)c2c(c1)C(=O)c1cc(O)cc(O)c1C2=O
REMARK SMILES IDX 1 1 2 2 8 3 7 4 6 5 4 6 3 7 19 8 20 9 18 10 11 11 9 12 10 13
REMARK SMILES IDX 12 14 13 15 15 16 16 17 5 18 17 20 14 22
REMARK H PARENT 5 19 17 21 14 23
REMARK Flexibility Score: inf
ROOT
ATOM      1  C   UNL     1      18.251  33.662   6.157  1.00  0.00     0.044 C 
ATOM      2  C   UNL     1      17.467  34.820   5.614  1.00  0.00    -0.047 A 
ATOM      3  C   UNL     1      16.429  35.381   6.366  1.00  0.00     0.016 A 
ATOM      4  C   UNL     1      15.703  36.480   5.878  1.00  0.00     0.038 A 
ATOM      5  C   UNL     1      16.020  37.031   4.615  1.00  0.00     0.076 A 
ATOM      6  C   UNL     1      17.139  36.518   3.904  1.00  0.00     0.127 A 
ATOM      7  C   UNL     1      17.828  35.406   4.398  1.00  0.00     0.050 A 
ATOM      8  C   UNL     1      15.132  38.090   4.060  1.00  0.00     0.201 C 
ATOM      9  O   UNL     1      15.110  38.311   2.820  1.00  0.00    -0.288 OA
ATOM     10  C   UNL     1      14.184  38.811   4.949  1.00  0.00     0.076 A 
ATOM     11  C   UNL     1      13.921  38.295   6.236  1.00  0.00     0.041 A 
ATOM     12  C   UNL     1      14.615  37.070   6.694  1.00  0.00     0.194 C 
ATOM     13  O   UNL     1      14.289  36.537   7.792  1.00  0.00    -0.289 OA
ATOM     14  C   UNL     1      12.999  38.945   7.075  1.00  0.00     0.059 A 
ATOM     15  C   UNL     1      12.345  40.104   6.646  1.00  0.00     0.120 A 
ATOM     16  C   UNL     1      12.609  40.621   5.379  1.00  0.00     0.093 A 
ATOM     17  C   UNL     1      13.523  39.988   4.526  1.00  0.00     0.131 A 
ENDROOT
BRANCH   6  18
ATOM     18  O   UNL     1      17.626  37.099   2.731  1.00  0.00    -0.507 OA
ATOM     19  H   UNL     1      17.201  37.898   2.282  1.00  0.00     0.293 HD
ENDBRANCH   6  18
BRANCH  17  20
ATOM     20  O   UNL     1      13.777  40.535   3.268  1.00  0.00    -0.507 OA
ATOM     21  H   UNL     1      13.221  41.297   2.896  1.00  0.00     0.293 HD
ENDBRANCH  17  20
BRANCH  15  22
ATOM     22  O   UNL     1      11.431  40.752   7.475  1.00  0.00    -0.508 OA
ATOM     23  H   UNL     1      11.293  41.756   7.430  1.00  0.00     0.293 HD
ENDBRANCH  15  22
TORSDOF 3
ENDMDL
MODEL 4
REMARK VINA RESULT:    -5.115      4.435      5.970
REMARK INTER + INTRA:          -5.563
REMARK INTER:                  -5.563
REMARK INTRA:                   0.000
REMARK UNBOUND:                 0.000
REMARK SMILES Cc1cc(O)c2c(c1)C(=O)c1cc(O)cc(O)c1C2=O
REMARK SMILES IDX 1 1 2 2 8 3 7 4 6 5 4 6 3 7 19 8 20 9 18 10 11 11 9 12 10 13
REMARK SMILES IDX 12 14 13 15 15 16 16 17 5 18 17 20 14 22
REMARK H PARENT 5 19 17 21 14 23
REMARK Flexibility Score: inf
ROOT
ATOM      1  C   UNL     1      12.998  42.125   7.868  1.00  0.00     0.044 C 
ATOM      2  C   UNL     1      12.171  41.447   6.816  1.00  0.00    -0.047 A 
ATOM      3  C   UNL     1      12.479  40.144   6.411  1.00  0.00     0.016 A 
ATOM      4  C   UNL     1      11.697  39.490   5.443  1.00  0.00     0.038 A 
ATOM      5  C   UNL     1      10.586  40.150   4.870  1.00  0.00     0.076 A 
ATOM      6  C   UNL     1      10.223  41.434   5.360  1.00  0.00     0.127 A 
ATOM      7  C   UNL     1      11.033  42.074   6.303  1.00  0.00     0.050 A 
ATOM      8  C   UNL     1       9.876  39.492   3.738  1.00  0.00     0.201 C 
ATOM      9  O   UNL     1       9.181  40.178   2.942  1.00  0.00    -0.288 OA
ATOM     10  C   UNL     1      10.076  38.044   3.473  1.00  0.00     0.076 A 
ATOM     11  C   UNL     1      11.147  37.372   4.099  1.00  0.00     0.041 A 
ATOM     12  C   UNL     1      12.030  38.104   5.035  1.00  0.00     0.194 C 
ATOM     13  O   UNL     1      13.061  37.540   5.498  1.00  0.00    -0.289 OA
ATOM     14  C   UNL     1      11.371  36.010   3.830  1.00  0.00     0.059 A 
ATOM     15  C   UNL     1      10.537  35.314   2.951  1.00  0.00     0.120 A 
ATOM     16  C   UNL     1       9.473  35.973   2.336  1.00  0.00     0.093 A 
ATOM     17  C   UNL     1       9.232  37.330   2.589  1.00  0.00     0.131 A 
ENDROOT
BRANCH   6  18
ATOM     18  O   UNL     1       9.053  42.093   4.972  1.00  0.00    -0.507 OA
ATOM     19  H   UNL     1       8.881  43.075   5.137  1.00  0.00     0.293 HD
ENDBRANCH   6  18
BRANCH  17  20
ATOM     20  O   UNL     1       8.153  37.960   1.970  1.00  0.00    -0.507 OA
ATOM     21  H   UNL     1       7.408  37.432   1.530  1.00  0.00     0.293 HD
ENDBRANCH  17  20
BRANCH  15  22
ATOM     22  O   UNL     1      10.755  33.964   2.682  1.00  0.00    -0.508 OA
ATOM     23  H   UNL     1      11.056  33.321   3.407  1.00  0.00     0.293 HD
ENDBRANCH  15  22
TORSDOF 3
ENDMDL
MODEL 5
REMARK VINA RESULT:    -5.018      3.467      6.790
REMARK INTER + INTRA:          -5.458
REMARK INTER:                  -5.458
REMARK INTRA:                   0.000
REMARK UNBOUND:                 0.000
REMARK SMILES Cc1cc(O)c2c(c1)C(=O)c1cc(O)cc(O)c1C2=O
REMARK SMILES IDX 1 1 2 2 8 3 7 4 6 5 4 6 3 7 19 8 20 9 18 10 11 11 9 12 10 13
REMARK SMILES IDX 12 14 13 15 15 16 16 17 5 18 17 20 14 22
REMARK H PARENT 5 19 17 21 14 23
REMARK Flexibility Score: inf
ROOT
ATOM      1  C   UNL     1      16.703  36.844   6.630  1.00  0.00     0.044 C 
ATOM      2  C   UNL     1      15.368  36.932   5.953  1.00  0.00    -0.047 A 
ATOM      3  C   UNL     1      14.537  38.035   6.178  1.00  0.00     0.016 A 
ATOM      4  C   UNL     1      13.293  38.140   5.531  1.00  0.00     0.038 A 
ATOM      5  C   UNL     1      12.873  37.124   4.642  1.00  0.00     0.076 A 
ATOM      6  C   UNL     1      13.766  36.059   4.344  1.00  0.00     0.127 A 
ATOM      7  C   UNL     1      14.985  35.963   5.022  1.00  0.00     0.050 A 
ATOM      8  C   UNL     1      11.488  37.187   4.097  1.00  0.00     0.201 C 
ATOM      9  O   UNL     1      10.931  36.144   3.661  1.00  0.00    -0.288 OA
ATOM     10  C   UNL     1      10.713  38.453   4.172  1.00  0.00     0.076 A 
ATOM     11  C   UNL     1      11.173  39.492   5.010  1.00  0.00     0.041 A 
ATOM     12  C   UNL     1      12.431  39.322   5.771  1.00  0.00     0.194 C 
ATOM     13  O   UNL     1      12.778  40.195   6.615  1.00  0.00    -0.289 OA
ATOM     14  C   UNL     1      10.432  40.681   5.119  1.00  0.00     0.059 A 
ATOM     15  C   UNL     1       9.245  40.847   4.399  1.00  0.00     0.120 A 
ATOM     16  C   UNL     1       8.792  39.826   3.564  1.00  0.00     0.093 A 
ATOM     17  C   UNL     1       9.515  38.632   3.442  1.00  0.00     0.131 A 
ENDROOT
BRANCH   6  18
ATOM     18  O   UNL     1      13.505  35.100   3.362  1.00  0.00    -0.507 OA
ATOM     19  H   UNL     1      12.850  35.236   2.605  1.00  0.00     0.293 HD
ENDBRANCH   6  18
BRANCH  17  20
ATOM     20  O   UNL     1       9.045  37.633   2.589  1.00  0.00    -0.507 OA
ATOM     21  H   UNL     1       9.251  36.653   2.752  1.00  0.00     0.293 HD
ENDBRANCH  17  20
BRANCH  15  22
ATOM     22  O   UNL     1       8.508  42.025   4.504  1.00  0.00    -0.508 OA
ATOM     23  H   UNL     1       8.199  42.532   3.682  1.00  0.00     0.293 HD
ENDBRANCH  15  22
TORSDOF 3
ENDMDL
MODEL 6
REMARK VINA RESULT:    -4.948      1.983      6.552
REMARK INTER + INTRA:          -5.381
REMARK INTER:                  -5.381
REMARK INTRA:                   0.000
REMARK UNBOUND:                 0.000
REMARK SMILES Cc1cc(O)c2c(c1)C(=O)c1cc(O)cc(O)c1C2=O
REMARK SMILES IDX 1 1 2 2 8 3 7 4 6 5 4 6 3 7 19 8 20 9 18 10 11 11 9 12 10 13
REMARK SMILES IDX 12 14 13 15 15 16 16 17 5 18 17 20 14 22
REMARK H PARENT 5 19 17 21 14 23
REMARK Flexibility Score: inf
ROOT
ATOM      1  C   UNL     1      17.936  35.350   5.233  1.00  0.00     0.044 C 
ATOM      2  C   UNL     1      16.735  36.215   5.477  1.00  0.00    -0.047 A 
ATOM      3  C   UNL     1      16.338  37.153   4.519  1.00  0.00     0.016 A 
ATOM      4  C   UNL     1      15.201  37.953   4.726  1.00  0.00     0.038 A 
ATOM      5  C   UNL     1      14.445  37.810   5.912  1.00  0.00     0.076 A 
ATOM      6  C   UNL     1      14.798  36.786   6.832  1.00  0.00     0.127 A 
ATOM      7  C   UNL     1      15.950  36.023   6.617  1.00  0.00     0.050 A 
ATOM      8  C   UNL     1      13.342  38.778   6.170  1.00  0.00     0.201 C 
ATOM      9  O   UNL     1      12.927  38.964   7.345  1.00  0.00    -0.288 OA
ATOM     10  C   UNL     1      12.807  39.612   5.063  1.00  0.00     0.076 A 
ATOM     11  C   UNL     1      13.531  39.698   3.855  1.00  0.00     0.041 A 
ATOM     12  C   UNL     1      14.788  38.934   3.694  1.00  0.00     0.194 C 
ATOM     13  O   UNL     1      15.501  39.106   2.665  1.00  0.00    -0.289 OA
ATOM     14  C   UNL     1      13.056  40.512   2.812  1.00  0.00     0.059 A 
ATOM     15  C   UNL     1      11.867  41.233   2.960  1.00  0.00     0.120 A 
ATOM     16  C   UNL     1      11.145  41.144   4.149  1.00  0.00     0.093 A 
ATOM     17  C   UNL     1      11.601  40.340   5.202  1.00  0.00     0.131 A 
ENDROOT
BRANCH   6  18
ATOM     18  O   UNL     1      14.020  36.465   7.947  1.00  0.00    -0.507 OA
ATOM     19  H   UNL     1      13.198  35.879   7.908  1.00  0.00     0.293 HD
ENDBRANCH   6  18
BRANCH  17  20
ATOM     20  O   UNL     1      10.852  40.259   6.376  1.00  0.00    -0.507 OA
ATOM     21  H   UNL     1       9.850  40.416   6.380  1.00  0.00     0.293 HD
ENDBRANCH  17  20
BRANCH  15  22
ATOM     22  O   UNL     1      11.392  42.040   1.928  1.00  0.00    -0.508 OA
ATOM     23  H   UNL     1      10.793  42.837   2.111  1.00  0.00     0.293 HD
ENDBRANCH  15  22
TORSDOF 3
ENDMDL
MODEL 7
REMARK VINA RESULT:    -4.890     16.174     17.187
REMARK INTER + INTRA:          -5.318
REMARK INTER:                  -5.318
REMARK INTRA:                   0.000
REMARK UNBOUND:                 0.000
REMARK SMILES Cc1cc(O)c2c(c1)C(=O)c1cc(O)cc(O)c1C2=O
REMARK SMILES IDX 1 1 2 2 8 3 7 4 6 5 4 6 3 7 19 8 20 9 18 10 11 11 9 12 10 13
REMARK SMILES IDX 12 14 13 15 15 16 16 17 5 18 17 20 14 22
REMARK H PARENT 5 19 17 21 14 23
REMARK Flexibility Score: inf
ROOT
ATOM      1  C   UNL     1      -0.125  25.960   2.574  1.00  0.00     0.044 C 
ATOM      2  C   UNL     1       1.184  25.316   2.924  1.00  0.00    -0.047 A 
ATOM      3  C   UNL     1       1.965  25.831   3.964  1.00  0.00     0.016 A 
ATOM      4  C   UNL     1       3.182  25.222   4.316  1.00  0.00     0.038 A 
ATOM      5  C   UNL     1       3.625  24.076   3.617  1.00  0.00     0.076 A 
ATOM      6  C   UNL     1       2.778  23.503   2.631  1.00  0.00     0.127 A 
ATOM      7  C   UNL     1       1.585  24.143   2.279  1.00  0.00     0.050 A 
ATOM      8  C   UNL     1       4.989  23.550   3.909  1.00  0.00     0.201 C 
ATOM      9  O   UNL     1       5.583  22.829   3.064  1.00  0.00    -0.288 OA
ATOM     10  C   UNL     1       5.701  23.969   5.144  1.00  0.00     0.076 A 
ATOM     11  C   UNL     1       5.216  25.072   5.877  1.00  0.00     0.041 A 
ATOM     12  C   UNL     1       3.991  25.773   5.429  1.00  0.00     0.194 C 
ATOM     13  O   UNL     1       3.627  26.835   6.009  1.00  0.00    -0.289 OA
ATOM     14  C   UNL     1       5.900  25.503   7.027  1.00  0.00     0.059 A 
ATOM     15  C   UNL     1       7.054  24.841   7.455  1.00  0.00     0.120 A 
ATOM     16  C   UNL     1       7.532  23.745   6.738  1.00  0.00     0.093 A 
ATOM     17  C   UNL     1       6.867  23.301   5.588  1.00  0.00     0.131 A 
ENDROOT
BRANCH   6  18
ATOM     18  O   UNL     1       3.056  22.285   2.004  1.00  0.00    -0.507 OA
ATOM     19  H   UNL     1       2.495  21.897   1.258  1.00  0.00     0.293 HD
ENDBRANCH   6  18
BRANCH  17  20
ATOM     20  O   UNL     1       7.359  22.194   4.897  1.00  0.00    -0.507 OA
ATOM     21  H   UNL     1       8.322  22.147   4.583  1.00  0.00     0.293 HD
ENDBRANCH  17  20
BRANCH  15  22
ATOM     22  O   UNL     1       7.735  25.264   8.596  1.00  0.00    -0.508 OA
ATOM     23  H   UNL     1       7.615  26.200   8.967  1.00  0.00     0.293 HD
ENDBRANCH  15  22
TORSDOF 3
ENDMDL
MODEL 8
REMARK VINA RESULT:    -4.721      1.244      3.410
REMARK INTER + INTRA:          -5.135
REMARK INTER:                  -5.135
REMARK INTRA:                   0.000
REMARK UNBOUND:                 0.000
REMARK SMILES Cc1cc(O)c2c(c1)C(=O)c1cc(O)cc(O)c1C2=O
REMARK SMILES IDX 1 1 2 2 8 3 7 4 6 5 4 6 3 7 19 8 20 9 18 10 11 11 9 12 10 13
REMARK SMILES IDX 12 14 13 15 15 16 16 17 5 18 17 20 14 22
REMARK H PARENT 5 19 17 21 14 23
REMARK Flexibility Score: inf
ROOT
ATOM      1  C   UNL     1      12.014  40.412   6.171  1.00  0.00     0.044 C 
ATOM      2  C   UNL     1      13.027  39.309   6.105  1.00  0.00    -0.047 A 
ATOM      3  C   UNL     1      13.969  39.280   5.071  1.00  0.00     0.016 A 
ATOM      4  C   UNL     1      14.938  38.265   5.011  1.00  0.00     0.038 A 
ATOM      5  C   UNL     1      14.968  37.259   6.005  1.00  0.00     0.076 A 
ATOM      6  C   UNL     1      14.072  37.353   7.104  1.00  0.00     0.127 A 
ATOM      7  C   UNL     1      13.099  38.357   7.125  1.00  0.00     0.050 A 
ATOM      8  C   UNL     1      15.904  36.113   5.827  1.00  0.00     0.201 C 
ATOM      9  O   UNL     1      15.690  35.024   6.422  1.00  0.00    -0.288 OA
ATOM     10  C   UNL     1      17.026  36.210   4.857  1.00  0.00     0.076 A 
ATOM     11  C   UNL     1      17.027  37.256   3.910  1.00  0.00     0.041 A 
ATOM     12  C   UNL     1      15.937  38.257   3.916  1.00  0.00     0.194 C 
ATOM     13  O   UNL     1      15.869  39.117   2.994  1.00  0.00    -0.289 OA
ATOM     14  C   UNL     1      18.063  37.339   2.962  1.00  0.00     0.059 A 
ATOM     15  C   UNL     1      19.096  36.398   2.956  1.00  0.00     0.120 A 
ATOM     16  C   UNL     1      19.102  35.368   3.896  1.00  0.00     0.093 A 
ATOM     17  C   UNL     1      18.079  35.265   4.848  1.00  0.00     0.131 A 
ENDROOT
BRANCH   6  18
ATOM     18  O   UNL     1      14.134  36.502   8.210  1.00  0.00    -0.507 OA
ATOM     19  H   UNL     1      13.605  35.645   8.289  1.00  0.00     0.293 HD
ENDBRANCH   6  18
BRANCH  17  20
ATOM     20  O   UNL     1      18.117  34.232   5.784  1.00  0.00    -0.507 OA
ATOM     21  H   UNL     1      18.006  33.262   5.512  1.00  0.00     0.293 HD
ENDBRANCH  17  20
BRANCH  15  22
ATOM     22  O   UNL     1      20.125  36.478   2.019  1.00  0.00    -0.508 OA
ATOM     23  H   UNL     1      20.140  35.885   1.197  1.00  0.00     0.293 HD
ENDBRANCH  15  22
TORSDOF 3
ENDMDL
MODEL 9
REMARK VINA RESULT:    -4.694     14.536     15.790
REMARK INTER + INTRA:          -5.105
REMARK INTER:                  -5.105
REMARK INTRA:                   0.000
REMARK UNBOUND:                 0.000
REMARK SMILES Cc1cc(O)c2c(c1)C(=O)c1cc(O)cc(O)c1C2=O
REMARK SMILES IDX 1 1 2 2 8 3 7 4 6 5 4 6 3 7 19 8 20 9 18 10 11 11 9 12 10 13
REMARK SMILES IDX 12 14 13 15 15 16 16 17 5 18 17 20 14 22
REMARK H PARENT 5 19 17 21 14 23
REMARK Flexibility Score: inf
ROOT
ATOM      1  C   UNL     1       9.202  21.875   6.750  1.00  0.00     0.044 C 
ATOM      2  C   UNL     1       8.514  22.818   5.808  1.00  0.00    -0.047 A 
ATOM      3  C   UNL     1       7.505  23.667   6.274  1.00  0.00     0.016 A 
ATOM      4  C   UNL     1       6.870  24.572   5.406  1.00  0.00     0.038 A 
ATOM      5  C   UNL     1       7.253  24.631   4.046  1.00  0.00     0.076 A 
ATOM      6  C   UNL     1       8.346  23.836   3.606  1.00  0.00     0.127 A 
ATOM      7  C   UNL     1       8.942  22.924   4.482  1.00  0.00     0.050 A 
ATOM      8  C   UNL     1       6.456  25.484   3.121  1.00  0.00     0.201 C 
ATOM      9  O   UNL     1       6.475  25.263   1.882  1.00  0.00    -0.288 OA
ATOM     10  C   UNL     1       5.545  26.525   3.666  1.00  0.00     0.076 A 
ATOM     11  C   UNL     1       5.218  26.503   5.038  1.00  0.00     0.041 A 
ATOM     12  C   UNL     1       5.812  25.473   5.920  1.00  0.00     0.194 C 
ATOM     13  O   UNL     1       5.426  25.374   7.119  1.00  0.00    -0.289 OA
ATOM     14  C   UNL     1       4.329  27.459   5.560  1.00  0.00     0.059 A 
ATOM     15  C   UNL     1       3.770  28.435   4.731  1.00  0.00     0.120 A 
ATOM     16  C   UNL     1       4.096  28.464   3.376  1.00  0.00     0.093 A 
ATOM     17  C   UNL     1       4.979  27.521   2.835  1.00  0.00     0.131 A 
ENDROOT
BRANCH   6  18
ATOM     18  O   UNL     1       8.897  23.944   2.326  1.00  0.00    -0.507 OA
ATOM     19  H   UNL     1       9.883  23.847   2.130  1.00  0.00     0.293 HD
ENDBRANCH   6  18
BRANCH  17  20
ATOM     20  O   UNL     1       5.298  27.581   1.478  1.00  0.00    -0.507 OA
ATOM     21  H   UNL     1       4.596  27.780   0.774  1.00  0.00     0.293 HD
ENDBRANCH  17  20
BRANCH  15  22
ATOM     22  O   UNL     1       2.889  29.385   5.245  1.00  0.00    -0.508 OA
ATOM     23  H   UNL     1       1.905  29.383   4.999  1.00  0.00     0.293 HD
ENDBRANCH  15  22
TORSDOF 3
ENDMDL
