MODEL 1
REMARK VINA RESULT:    -3.361      0.000      0.000
REMARK INTER + INTRA:          -4.477
REMARK INTER:                  -4.147
REMARK INTRA:                  -0.330
REMARK UNBOUND:                -0.330
REMARK SMILES CCOC(=O)c1ccc(O)c(O)c1
REMARK SMILES IDX 4 1 5 2 3 3 2 4 1 5 6 6 13 7 7 8 11 9 8 10 9 11 12 12 10 14
REMARK H PARENT 12 13 10 15
REMARK Flexibility Score: inf
ROOT
ATOM      1  C   UNL     1      -7.904  -8.311 -13.091  1.00  0.00     0.338 C 
ATOM      2  O   UNL     1      -7.532  -9.041 -14.051  1.00  0.00    -0.246 OA
ENDROOT
BRANCH   1   3
ATOM      3  O   UNL     1      -8.440  -8.893 -11.938  1.00  0.00    -0.462 OA
BRANCH   3   4
ATOM      4  C   UNL     1      -7.776  -8.863 -10.679  1.00  0.00     0.230 C 
ATOM      5  C   UNL     1      -8.536  -7.956  -9.724  1.00  0.00     0.049 C 
ENDBRANCH   3   4
ENDBRANCH   1   3
BRANCH   1   6
ATOM      6  C   UNL     1      -7.775  -6.840 -13.181  1.00  0.00     0.064 A 
ATOM      7  C   UNL     1      -6.530  -6.253 -13.463  1.00  0.00     0.065 A 
ATOM      8  C   UNL     1      -8.890  -6.009 -12.989  1.00  0.00     0.020 A 
ATOM      9  C   UNL     1      -6.392  -4.862 -13.553  1.00  0.00     0.158 A 
ATOM     10  C   UNL     1      -8.762  -4.622 -13.075  1.00  0.00     0.051 A 
ATOM     11  C   UNL     1      -7.523  -4.035 -13.356  1.00  0.00     0.157 A 
BRANCH   9  12
ATOM     12  O   UNL     1      -5.124  -4.350 -13.836  1.00  0.00    -0.504 OA
ATOM     13  H   UNL     1      -4.721  -4.320 -14.761  1.00  0.00     0.293 HD
ENDBRANCH   9  12
BRANCH  11  14
ATOM     14  O   UNL     1      -7.462  -2.641 -13.430  1.00  0.00    -0.504 OA
ATOM     15  H   UNL     1      -7.063  -2.135 -14.207  1.00  0.00     0.293 HD
ENDBRANCH  11  14
ENDBRANCH   1   6
TORSDOF 5
ENDMDL
MODEL 2
REMARK VINA RESULT:    -3.230      2.407      5.295
REMARK INTER + INTRA:          -4.315
REMARK INTER:                  -4.158
REMARK INTRA:                  -0.157
REMARK UNBOUND:                -0.330
REMARK SMILES CCOC(=O)c1ccc(O)c(O)c1
REMARK SMILES IDX 4 1 5 2 3 3 2 4 1 5 6 6 13 7 7 8 11 9 8 10 9 11 12 12 10 14
REMARK H PARENT 12 13 10 15
REMARK Flexibility Score: inf
ROOT
ATOM      1  C   UNL     1      -9.154  -2.702 -13.024  1.00  0.00     0.338 C 
ATOM      2  O   UNL     1     -10.125  -2.928 -12.250  1.00  0.00    -0.246 OA
ENDROOT
BRANCH   1   3
ATOM      3  O   UNL     1      -9.038  -1.459 -13.655  1.00  0.00    -0.462 OA
BRANCH   3   4
ATOM      4  C   UNL     1     -10.057  -0.467 -13.595  1.00  0.00     0.230 C 
ATOM      5  C   UNL     1      -9.451   0.859 -13.164  1.00  0.00     0.049 C 
ENDBRANCH   3   4
ENDBRANCH   1   3
BRANCH   1   6
ATOM      6  C   UNL     1      -8.138  -3.750 -13.268  1.00  0.00     0.064 A 
ATOM      7  C   UNL     1      -6.816  -3.397 -13.583  1.00  0.00     0.065 A 
ATOM      8  C   UNL     1      -8.478  -5.110 -13.187  1.00  0.00     0.020 A 
ATOM      9  C   UNL     1      -5.843  -4.377 -13.816  1.00  0.00     0.158 A 
ATOM     10  C   UNL     1      -7.515  -6.094 -13.418  1.00  0.00     0.051 A 
ATOM     11  C   UNL     1      -6.197  -5.744 -13.732  1.00  0.00     0.157 A 
BRANCH   9  12
ATOM     12  O   UNL     1      -4.550  -3.952 -14.125  1.00  0.00    -0.504 OA
ATOM     13  H   UNL     1      -4.333  -3.055 -14.536  1.00  0.00     0.293 HD
ENDBRANCH   9  12
BRANCH  11  14
ATOM     14  O   UNL     1      -5.282  -6.777 -13.951  1.00  0.00    -0.504 OA
ATOM     15  H   UNL     1      -5.351  -7.691 -13.526  1.00  0.00     0.293 HD
ENDBRANCH  11  14
ENDBRANCH   1   6
TORSDOF 5
ENDMDL
MODEL 3
REMARK VINA RESULT:    -3.199      1.136      2.119
REMARK INTER + INTRA:          -4.277
REMARK INTER:                  -4.057
REMARK INTRA:                  -0.220
REMARK UNBOUND:                -0.330
REMARK SMILES CCOC(=O)c1ccc(O)c(O)c1
REMARK SMILES IDX 4 1 5 2 3 3 2 4 1 5 6 6 13 7 7 8 11 9 8 10 9 11 12 12 10 14
REMARK H PARENT 12 13 10 15
REMARK Flexibility Score: inf
ROOT
ATOM      1  C   UNL     1      -8.299  -8.341 -12.420  1.00  0.00     0.338 C 
ATOM      2  O   UNL     1      -9.364  -8.806 -12.913  1.00  0.00    -0.246 OA
ENDROOT
BRANCH   1   3
ATOM      3  O   UNL     1      -7.501  -9.144 -11.597  1.00  0.00    -0.462 OA
BRANCH   3   4
ATOM      4  C   UNL     1      -7.493  -9.023 -10.178  1.00  0.00     0.230 C 
ATOM      5  C   UNL     1      -6.123  -9.410  -9.643  1.00  0.00     0.049 C 
ENDBRANCH   3   4
ENDBRANCH   1   3
BRANCH   1   6
ATOM      6  C   UNL     1      -7.891  -6.948 -12.708  1.00  0.00     0.064 A 
ATOM      7  C   UNL     1      -8.618  -5.872 -12.175  1.00  0.00     0.065 A 
ATOM      8  C   UNL     1      -6.775  -6.681 -13.517  1.00  0.00     0.020 A 
ATOM      9  C   UNL     1      -8.245  -4.547 -12.439  1.00  0.00     0.158 A 
ATOM     10  C   UNL     1      -6.396  -5.365 -13.786  1.00  0.00     0.051 A 
ATOM     11  C   UNL     1      -7.119  -4.290 -13.255  1.00  0.00     0.157 A 
BRANCH   9  12
ATOM     12  O   UNL     1      -9.015  -3.529 -11.875  1.00  0.00    -0.504 OA
ATOM     13  H   UNL     1      -8.641  -2.643 -11.566  1.00  0.00     0.293 HD
ENDBRANCH   9  12
BRANCH  11  14
ATOM     14  O   UNL     1      -6.686  -2.998 -13.562  1.00  0.00    -0.504 OA
ATOM     15  H   UNL     1      -6.864  -2.538 -14.443  1.00  0.00     0.293 HD
ENDBRANCH  11  14
ENDBRANCH   1   6
TORSDOF 5
ENDMDL
MODEL 4
REMARK VINA RESULT:    -3.197     15.114     17.340
REMARK INTER + INTRA:          -4.274
REMARK INTER:                  -3.983
REMARK INTRA:                  -0.291
REMARK UNBOUND:                -0.330
REMARK SMILES CCOC(=O)c1ccc(O)c(O)c1
REMARK SMILES IDX 4 1 5 2 3 3 2 4 1 5 6 6 13 7 7 8 11 9 8 10 9 11 12 12 10 14
REMARK H PARENT 12 13 10 15
REMARK Flexibility Score: inf
ROOT
ATOM      1  C   UNL     1      -8.933  -3.929   5.230  1.00  0.00     0.338 C 
ATOM      2  O   UNL     1      -7.845  -3.779   5.852  1.00  0.00    -0.246 OA
ENDROOT
BRANCH   1   3
ATOM      3  O   UNL     1     -10.016  -3.088   5.504  1.00  0.00    -0.462 OA
BRANCH   3   4
ATOM      4  C   UNL     1      -9.953  -1.674   5.343  1.00  0.00     0.230 C 
ATOM      5  C   UNL     1      -9.715  -1.339   3.879  1.00  0.00     0.049 C 
ENDBRANCH   3   4
ENDBRANCH   1   3
BRANCH   1   6
ATOM      6  C   UNL     1      -9.066  -4.995   4.212  1.00  0.00     0.064 A 
ATOM      7  C   UNL     1      -8.254  -6.138   4.272  1.00  0.00     0.065 A 
ATOM      8  C   UNL     1     -10.004  -4.880   3.173  1.00  0.00     0.020 A 
ATOM      9  C   UNL     1      -8.368  -7.156   3.316  1.00  0.00     0.158 A 
ATOM     10  C   UNL     1     -10.125  -5.889   2.216  1.00  0.00     0.051 A 
ATOM     11  C   UNL     1      -9.317  -7.030   2.274  1.00  0.00     0.157 A 
BRANCH   9  12
ATOM     12  O   UNL     1      -7.528  -8.264   3.439  1.00  0.00    -0.504 OA
ATOM     13  H   UNL     1      -6.727  -8.434   2.848  1.00  0.00     0.293 HD
ENDBRANCH   9  12
BRANCH  11  14
ATOM     14  O   UNL     1      -9.489  -8.002   1.286  1.00  0.00    -0.504 OA
ATOM     15  H   UNL     1      -9.243  -7.869   0.315  1.00  0.00     0.293 HD
ENDBRANCH  11  14
ENDBRANCH   1   6
TORSDOF 5
ENDMDL
MODEL 5
REMARK VINA RESULT:    -2.778     15.448     16.385
REMARK INTER + INTRA:          -3.758
REMARK INTER:                  -3.511
REMARK INTRA:                  -0.247
REMARK UNBOUND:                -0.330
REMARK SMILES CCOC(=O)c1ccc(O)c(O)c1
REMARK SMILES IDX 4 1 5 2 3 3 2 4 1 5 6 6 13 7 7 8 11 9 8 10 9 11 12 12 10 14
REMARK H PARENT 12 13 10 15
REMARK Flexibility Score: inf
ROOT
ATOM      1  C   UNL     1      -7.336   9.805 -10.879  1.00  0.00     0.338 C 
ATOM      2  O   UNL     1      -6.086   9.868 -11.048  1.00  0.00    -0.246 OA
ENDROOT
BRANCH   1   3
ATOM      3  O   UNL     1      -8.201  10.124 -11.930  1.00  0.00    -0.462 OA
BRANCH   3   4
ATOM      4  C   UNL     1      -8.345   9.303 -13.085  1.00  0.00     0.230 C 
ATOM      5  C   UNL     1      -9.786   8.830 -13.195  1.00  0.00     0.049 C 
ENDBRANCH   3   4
ENDBRANCH   1   3
BRANCH   1   6
ATOM      6  C   UNL     1      -7.889   9.395  -9.569  1.00  0.00     0.064 A 
ATOM      7  C   UNL     1      -7.114   8.634  -8.679  1.00  0.00     0.065 A 
ATOM      8  C   UNL     1      -9.192   9.759  -9.195  1.00  0.00     0.020 A 
ATOM      9  C   UNL     1      -7.623   8.237  -7.435  1.00  0.00     0.158 A 
ATOM     10  C   UNL     1      -9.708   9.369  -7.958  1.00  0.00     0.051 A 
ATOM     11  C   UNL     1      -8.938   8.610  -7.070  1.00  0.00     0.157 A 
BRANCH   9  12
ATOM     12  O   UNL     1      -6.795   7.482  -6.603  1.00  0.00    -0.504 OA
ATOM     13  H   UNL     1      -5.832   7.261  -6.814  1.00  0.00     0.293 HD
ENDBRANCH   9  12
BRANCH  11  14
ATOM     14  O   UNL     1      -9.513   8.253  -5.848  1.00  0.00    -0.504 OA
ATOM     15  H   UNL     1      -8.997   8.175  -4.983  1.00  0.00     0.293 HD
ENDBRANCH  11  14
ENDBRANCH   1   6
TORSDOF 5
ENDMDL
MODEL 6
REMARK VINA RESULT:    -2.761      2.068      5.053
REMARK INTER + INTRA:          -3.736
REMARK INTER:                  -3.498
REMARK INTRA:                  -0.238
REMARK UNBOUND:                -0.330
REMARK SMILES CCOC(=O)c1ccc(O)c(O)c1
REMARK SMILES IDX 4 1 5 2 3 3 2 4 1 5 6 6 13 7 7 8 11 9 8 10 9 11 12 12 10 14
REMARK H PARENT 12 13 10 15
REMARK Flexibility Score: inf
ROOT
ATOM      1  C   UNL     1      -8.101  -7.910 -13.289  1.00  0.00     0.338 C 
ATOM      2  O   UNL     1      -7.522  -8.703 -14.083  1.00  0.00    -0.246 OA
ENDROOT
BRANCH   1   3
ATOM      3  O   UNL     1      -8.288  -6.572 -13.650  1.00  0.00    -0.462 OA
BRANCH   3   4
ATOM      4  C   UNL     1      -7.211  -5.647 -13.765  1.00  0.00     0.230 C 
ATOM      5  C   UNL     1      -7.542  -4.382 -12.989  1.00  0.00     0.049 C 
ENDBRANCH   3   4
ENDBRANCH   1   3
BRANCH   1   6
ATOM      6  C   UNL     1      -8.581  -8.392 -11.975  1.00  0.00     0.064 A 
ATOM      7  C   UNL     1      -8.237  -7.706 -10.799  1.00  0.00     0.065 A 
ATOM      8  C   UNL     1      -9.387  -9.539 -11.883  1.00  0.00     0.020 A 
ATOM      9  C   UNL     1      -8.684  -8.150  -9.547  1.00  0.00     0.158 A 
ATOM     10  C   UNL     1      -9.836  -9.988 -10.640  1.00  0.00     0.051 A 
ATOM     11  C   UNL     1      -9.495  -9.307  -9.467  1.00  0.00     0.157 A 
BRANCH   9  12
ATOM     12  O   UNL     1      -8.302  -7.418  -8.421  1.00  0.00    -0.504 OA
ATOM     13  H   UNL     1      -7.466  -7.602  -7.886  1.00  0.00     0.293 HD
ENDBRANCH   9  12
BRANCH  11  14
ATOM     14  O   UNL     1      -9.978  -9.809  -8.256  1.00  0.00    -0.504 OA
ATOM     15  H   UNL     1     -10.833  -9.496  -7.818  1.00  0.00     0.293 HD
ENDBRANCH  11  14
ENDBRANCH   1   6
TORSDOF 5
ENDMDL
MODEL 7
REMARK VINA RESULT:    -2.729      2.711      4.355
REMARK INTER + INTRA:          -3.698
REMARK INTER:                  -3.521
REMARK INTRA:                  -0.177
REMARK UNBOUND:                -0.330
REMARK SMILES CCOC(=O)c1ccc(O)c(O)c1
REMARK SMILES IDX 4 1 5 2 3 3 2 4 1 5 6 6 13 7 7 8 11 9 8 10 9 11 12 12 10 14
REMARK H PARENT 12 13 10 15
REMARK Flexibility Score: inf
ROOT
ATOM      1  C   UNL     1      -8.348  -9.741  -8.969  1.00  0.00     0.338 C 
ATOM      2  O   UNL     1      -9.426 -10.124  -8.436  1.00  0.00    -0.246 OA
ENDROOT
BRANCH   1   3
ATOM      3  O   UNL     1      -7.133  -9.931  -8.303  1.00  0.00    -0.462 OA
BRANCH   3   4
ATOM      4  C   UNL     1      -6.128  -8.925  -8.231  1.00  0.00     0.230 C 
ATOM      5  C   UNL     1      -5.604  -8.832  -6.807  1.00  0.00     0.049 C 
ENDBRANCH   3   4
ENDBRANCH   1   3
BRANCH   1   6
ATOM      6  C   UNL     1      -8.366  -9.089 -10.297  1.00  0.00     0.064 A 
ATOM      7  C   UNL     1      -8.006  -9.811 -11.446  1.00  0.00     0.065 A 
ATOM      8  C   UNL     1      -8.743  -7.743 -10.430  1.00  0.00     0.020 A 
ATOM      9  C   UNL     1      -8.018  -9.208 -12.711  1.00  0.00     0.158 A 
ATOM     10  C   UNL     1      -8.758  -7.134 -11.686  1.00  0.00     0.051 A 
ATOM     11  C   UNL     1      -8.399  -7.851 -12.832  1.00  0.00     0.157 A 
BRANCH   9  12
ATOM     12  O   UNL     1      -7.647  -9.987 -13.808  1.00  0.00    -0.504 OA
ATOM     13  H   UNL     1      -6.987  -9.692 -14.513  1.00  0.00     0.293 HD
ENDBRANCH   9  12
BRANCH  11  14
ATOM     14  O   UNL     1      -8.436  -7.182 -14.058  1.00  0.00    -0.504 OA
ATOM     15  H   UNL     1      -8.451  -7.648 -14.954  1.00  0.00     0.293 HD
ENDBRANCH  11  14
ENDBRANCH   1   6
TORSDOF 5
ENDMDL
MODEL 8
REMARK VINA RESULT:    -2.585     25.283     26.887
REMARK INTER + INTRA:          -3.519
REMARK INTER:                  -3.233
REMARK INTRA:                  -0.286
REMARK UNBOUND:                -0.330
REMARK SMILES CCOC(=O)c1ccc(O)c(O)c1
REMARK SMILES IDX 4 1 5 2 3 3 2 4 1 5 6 6 13 7 7 8 11 9 8 10 9 11 12 12 10 14
REMARK H PARENT 12 13 10 15
REMARK Flexibility Score: inf
ROOT
ATOM      1  C   UNL     1       9.411   8.963  -0.022  1.00  0.00     0.338 C 
ATOM      2  O   UNL     1       9.999   7.871  -0.257  1.00  0.00    -0.246 OA
ENDROOT
BRANCH   1   3
ATOM      3  O   UNL     1       9.229   9.894  -1.051  1.00  0.00    -0.462 OA
BRANCH   3   4
ATOM      4  C   UNL     1       8.642   9.553  -2.303  1.00  0.00     0.230 C 
ATOM      5  C   UNL     1       7.145   9.356  -2.126  1.00  0.00     0.049 C 
ENDBRANCH   3   4
ENDBRANCH   1   3
BRANCH   1   6
ATOM      6  C   UNL     1       8.915   9.263   1.339  1.00  0.00     0.064 A 
ATOM      7  C   UNL     1       7.540   9.212   1.620  1.00  0.00     0.065 A 
ATOM      8  C   UNL     1       9.808   9.602   2.369  1.00  0.00     0.020 A 
ATOM      9  C   UNL     1       7.055   9.493   2.904  1.00  0.00     0.158 A 
ATOM     10  C   UNL     1       9.333   9.883   3.651  1.00  0.00     0.051 A 
ATOM     11  C   UNL     1       7.963   9.833   3.933  1.00  0.00     0.157 A 
BRANCH   9  12
ATOM     12  O   UNL     1       5.676   9.422   3.109  1.00  0.00    -0.504 OA
ATOM     13  H   UNL     1       5.020   9.074   2.424  1.00  0.00     0.293 HD
ENDBRANCH   9  12
BRANCH  11  14
ATOM     14  O   UNL     1       7.555  10.125   5.237  1.00  0.00    -0.504 OA
ATOM     15  H   UNL     1       8.187  10.219   6.018  1.00  0.00     0.293 HD
ENDBRANCH  11  14
ENDBRANCH   1   6
TORSDOF 5
ENDMDL
MODEL 9
REMARK VINA RESULT:    -1.423     24.715     26.413
REMARK INTER + INTRA:          -2.085
REMARK INTER:                  -1.883
REMARK INTRA:                  -0.203
REMARK UNBOUND:                -0.330
REMARK SMILES CCOC(=O)c1ccc(O)c(O)c1
REMARK SMILES IDX 4 1 5 2 3 3 2 4 1 5 6 6 13 7 7 8 11 9 8 10 9 11 12 12 10 14
REMARK H PARENT 12 13 10 15
REMARK Flexibility Score: inf
ROOT
ATOM      1  C   UNL     1       8.343   8.650  -1.329  1.00  0.00     0.338 C 
ATOM      2  O   UNL     1       7.151   8.640  -1.743  1.00  0.00    -0.246 OA
ENDROOT
BRANCH   1   3
ATOM      3  O   UNL     1       9.400   8.622  -2.244  1.00  0.00    -0.462 OA
BRANCH   3   4
ATOM      4  C   UNL     1      10.038   9.803  -2.721  1.00  0.00     0.230 C 
ATOM      5  C   UNL     1       9.533  10.125  -4.118  1.00  0.00     0.049 C 
ENDBRANCH   3   4
ENDBRANCH   1   3
BRANCH   1   6
ATOM      6  C   UNL     1       8.626   8.689   0.123  1.00  0.00     0.064 A 
ATOM      7  C   UNL     1       7.757   9.361   0.997  1.00  0.00     0.065 A 
ATOM      8  C   UNL     1       9.764   8.056   0.649  1.00  0.00     0.020 A 
ATOM      9  C   UNL     1       8.011   9.407   2.374  1.00  0.00     0.158 A 
ATOM     10  C   UNL     1      10.025   8.096   2.019  1.00  0.00     0.051 A 
ATOM     11  C   UNL     1       9.161   8.765   2.892  1.00  0.00     0.157 A 
BRANCH   9  12
ATOM     12  O   UNL     1       7.103  10.094   3.182  1.00  0.00    -0.504 OA
ATOM     13  H   UNL     1       6.657  10.961   2.919  1.00  0.00     0.293 HD
ENDBRANCH   9  12
BRANCH  11  14
ATOM     14  O   UNL     1       9.479   8.767   4.252  1.00  0.00    -0.504 OA
ATOM     15  H   UNL     1       9.578   9.606   4.807  1.00  0.00     0.293 HD
ENDBRANCH  11  14
ENDBRANCH   1   6
TORSDOF 5
ENDMDL
