MODEL 1
REMARK VINA RESULT:    -4.867      0.000      0.000
REMARK INTER + INTRA:          -6.590
REMARK INTER:                  -6.006
REMARK INTRA:                  -0.584
REMARK UNBOUND:                -0.584
REMARK SMILES CC(C)=CCC[C@@H](C)c1ccc(C)cc1
REMARK SMILES IDX 6 1 7 2 8 3 9 4 13 5 12 6 11 7 14 8 10 9 15 10 5 11 4 12
REMARK SMILES IDX 2 13 1 14 3 15
REMARK H PARENT
REMARK Flexibility Score: inf
ROOT
ATOM      1  C   UNL     1       3.510   6.722   7.991  1.00  0.00     0.012 C 
ENDROOT
BRANCH   1   2
ATOM      2  C   UNL     1       2.688   6.484   9.279  1.00  0.00     0.016 C 
ATOM      3  C   UNL     1       3.169   7.362  10.446  1.00  0.00     0.013 C 
BRANCH   2   4
ATOM      4  C   UNL     1       1.212   6.721   9.016  1.00  0.00    -0.045 A 
ATOM      5  C   UNL     1      -2.976   7.423   8.223  1.00  0.00     0.044 C 
ATOM      6  C   UNL     1      -1.528   7.151   8.508  1.00  0.00    -0.051 A 
ATOM      7  C   UNL     1      -0.986   7.458   9.764  1.00  0.00     0.004 A 
ATOM      8  C   UNL     1      -0.691   6.653   7.499  1.00  0.00     0.004 A 
ATOM      9  C   UNL     1       0.371   7.239  10.019  1.00  0.00     0.004 A 
ATOM     10  C   UNL     1       0.667   6.434   7.753  1.00  0.00     0.004 A 
ENDBRANCH   2   4
ENDBRANCH   1   2
BRANCH   1  11
ATOM     11  C   UNL     1       4.295   5.476   7.552  1.00  0.00     0.028 C 
BRANCH  11  12
ATOM     12  C   UNL     1       4.989   4.842   8.733  1.00  0.00    -0.028 C 
ATOM     13  C   UNL     1       5.929   3.876   8.637  1.00  0.00    -0.080 C 
ATOM     14  C   UNL     1       6.424   3.367   7.303  1.00  0.00     0.039 C 
ATOM     15  C   UNL     1       6.507   3.309   9.909  1.00  0.00     0.039 C 
ENDBRANCH  11  12
ENDBRANCH   1  11
TORSDOF 4
ENDMDL
MODEL 2
REMARK VINA RESULT:    -4.862      0.110      1.255
REMARK INTER + INTRA:          -6.583
REMARK INTER:                  -6.019
REMARK INTRA:                  -0.564
REMARK UNBOUND:                -0.584
REMARK SMILES CC(C)=CCC[C@@H](C)c1ccc(C)cc1
REMARK SMILES IDX 6 1 7 2 8 3 9 4 13 5 12 6 11 7 14 8 10 9 15 10 5 11 4 12
REMARK SMILES IDX 2 13 1 14 3 15
REMARK H PARENT
REMARK Flexibility Score: inf
ROOT
ATOM      1  C   UNL     1       3.432   6.746   8.019  1.00  0.00     0.012 C 
ENDROOT
BRANCH   1   2
ATOM      2  C   UNL     1       2.577   6.436   9.269  1.00  0.00     0.016 C 
ATOM      3  C   UNL     1       3.036   7.233  10.500  1.00  0.00     0.013 C 
BRANCH   2   4
ATOM      4  C   UNL     1       1.109   6.703   8.985  1.00  0.00    -0.045 A 
ATOM      5  C   UNL     1      -3.078   7.436   8.223  1.00  0.00     0.044 C 
ATOM      6  C   UNL     1      -1.617   7.209   8.476  1.00  0.00    -0.051 A 
ATOM      7  C   UNL     1      -0.816   6.605   7.497  1.00  0.00     0.004 A 
ATOM      8  C   UNL     1      -1.057   7.535   9.719  1.00  0.00     0.004 A 
ATOM      9  C   UNL     1       0.538   6.359   7.746  1.00  0.00     0.004 A 
ATOM     10  C   UNL     1       0.297   7.289   9.970  1.00  0.00     0.004 A 
ENDBRANCH   2   4
ENDBRANCH   1   2
BRANCH   1  11
ATOM     11  C   UNL     1       4.263   5.540   7.555  1.00  0.00     0.028 C 
BRANCH  11  12
ATOM     12  C   UNL     1       4.933   4.873   8.731  1.00  0.00    -0.028 C 
ATOM     13  C   UNL     1       5.875   3.908   8.628  1.00  0.00    -0.080 C 
ATOM     14  C   UNL     1       6.395   3.435   7.290  1.00  0.00     0.039 C 
ATOM     15  C   UNL     1       6.428   3.307   9.895  1.00  0.00     0.039 C 
ENDBRANCH  11  12
ENDBRANCH   1  11
TORSDOF 4
ENDMDL
MODEL 3
REMARK VINA RESULT:    -4.624     15.075     16.058
REMARK INTER + INTRA:          -6.289
REMARK INTER:                  -4.832
REMARK INTRA:                  -1.457
REMARK UNBOUND:                -0.584
REMARK SMILES CC(C)=CCC[C@@H](C)c1ccc(C)cc1
REMARK SMILES IDX 6 1 7 2 8 3 9 4 13 5 12 6 11 7 14 8 10 9 15 10 5 11 4 12
REMARK SMILES IDX 2 13 1 14 3 15
REMARK H PARENT
REMARK Flexibility Score: inf
ROOT
ATOM      1  C   UNL     1      -6.366  -6.483  12.028  1.00  0.00     0.012 C 
ENDROOT
BRANCH   1   2
ATOM      2  C   UNL     1      -6.128  -6.682  10.513  1.00  0.00     0.016 C 
ATOM      3  C   UNL     1      -6.517  -5.439   9.695  1.00  0.00     0.013 C 
BRANCH   2   4
ATOM      4  C   UNL     1      -4.680  -7.054  10.249  1.00  0.00    -0.045 A 
ATOM      5  C   UNL     1      -0.571  -8.162   9.509  1.00  0.00     0.044 C 
ATOM      6  C   UNL     1      -1.996  -7.756   9.744  1.00  0.00    -0.051 A 
ATOM      7  C   UNL     1      -2.301  -6.762  10.685  1.00  0.00     0.004 A 
ATOM      8  C   UNL     1      -3.038  -8.415   9.076  1.00  0.00     0.004 A 
ATOM      9  C   UNL     1      -3.631  -6.408  10.932  1.00  0.00     0.004 A 
ATOM     10  C   UNL     1      -4.369  -8.063   9.322  1.00  0.00     0.004 A 
ENDBRANCH   2   4
ENDBRANCH   1   2
BRANCH   1  11
ATOM     11  C   UNL     1      -6.453  -7.814  12.792  1.00  0.00     0.028 C 
BRANCH  11  12
ATOM     12  C   UNL     1      -5.340  -7.917  13.805  1.00  0.00    -0.028 C 
ATOM     13  C   UNL     1      -4.326  -8.809  13.738  1.00  0.00    -0.080 C 
ATOM     14  C   UNL     1      -4.181  -9.773  12.583  1.00  0.00     0.039 C 
ATOM     15  C   UNL     1      -3.304  -8.819  14.847  1.00  0.00     0.039 C 
ENDBRANCH  11  12
ENDBRANCH   1  11
TORSDOF 4
ENDMDL
MODEL 4
REMARK VINA RESULT:    -4.585     15.138     15.761
REMARK INTER + INTRA:          -6.241
REMARK INTER:                  -4.663
REMARK INTRA:                  -1.578
REMARK UNBOUND:                -0.584
REMARK SMILES CC(C)=CCC[C@@H](C)c1ccc(C)cc1
REMARK SMILES IDX 6 1 7 2 8 3 9 4 13 5 12 6 11 7 14 8 10 9 15 10 5 11 4 12
REMARK SMILES IDX 2 13 1 14 3 15
REMARK H PARENT
REMARK Flexibility Score: inf
ROOT
ATOM      1  C   UNL     1      -1.621  -7.890  10.205  1.00  0.00     0.012 C 
ENDROOT
BRANCH   1   2
ATOM      2  C   UNL     1      -2.845  -7.902   9.260  1.00  0.00     0.016 C 
ATOM      3  C   UNL     1      -3.042  -9.266   8.580  1.00  0.00     0.013 C 
BRANCH   2   4
ATOM      4  C   UNL     1      -4.100  -7.503  10.016  1.00  0.00    -0.045 A 
ATOM      5  C   UNL     1      -7.696  -6.369  12.121  1.00  0.00     0.044 C 
ATOM      6  C   UNL     1      -6.440  -6.781  11.414  1.00  0.00    -0.051 A 
ATOM      7  C   UNL     1      -5.254  -6.056  11.598  1.00  0.00     0.004 A 
ATOM      8  C   UNL     1      -6.458  -7.852  10.509  1.00  0.00     0.004 A 
ATOM      9  C   UNL     1      -4.092  -6.417  10.911  1.00  0.00     0.004 A 
ATOM     10  C   UNL     1      -5.296  -8.214   9.820  1.00  0.00     0.004 A 
ENDBRANCH   2   4
ENDBRANCH   1   2
BRANCH   1  11
ATOM     11  C   UNL     1      -1.574  -9.117  11.128  1.00  0.00     0.028 C 
BRANCH  11  12
ATOM     12  C   UNL     1      -1.670  -8.697  12.574  1.00  0.00    -0.028 C 
ATOM     13  C   UNL     1      -2.733  -8.945  13.372  1.00  0.00    -0.080 C 
ATOM     14  C   UNL     1      -3.931  -9.733  12.892  1.00  0.00     0.039 C 
ATOM     15  C   UNL     1      -2.703  -8.429  14.788  1.00  0.00     0.039 C 
ENDBRANCH  11  12
ENDBRANCH   1  11
TORSDOF 4
ENDMDL
MODEL 5
REMARK VINA RESULT:    -4.549     15.017     16.147
REMARK INTER + INTRA:          -6.197
REMARK INTER:                  -4.649
REMARK INTRA:                  -1.549
REMARK UNBOUND:                -0.584
REMARK SMILES CC(C)=CCC[C@@H](C)c1ccc(C)cc1
REMARK SMILES IDX 6 1 7 2 8 3 9 4 13 5 12 6 11 7 14 8 10 9 15 10 5 11 4 12
REMARK SMILES IDX 2 13 1 14 3 15
REMARK H PARENT
REMARK Flexibility Score: inf
ROOT
ATOM      1  C   UNL     1      -5.607  -8.291  11.724  1.00  0.00     0.012 C 
ENDROOT
BRANCH   1   2
ATOM      2  C   UNL     1      -4.984  -7.531  10.530  1.00  0.00     0.016 C 
ATOM      3  C   UNL     1      -4.976  -6.010  10.749  1.00  0.00     0.013 C 
BRANCH   2   4
ATOM      4  C   UNL     1      -3.577  -8.033  10.260  1.00  0.00    -0.045 A 
ATOM      5  C   UNL     1       0.427  -9.433   9.448  1.00  0.00     0.044 C 
ATOM      6  C   UNL     1      -0.956  -8.945   9.760  1.00  0.00    -0.051 A 
ATOM      7  C   UNL     1      -1.975  -9.857  10.066  1.00  0.00     0.004 A 
ATOM      8  C   UNL     1      -1.257  -7.578   9.680  1.00  0.00     0.004 A 
ATOM      9  C   UNL     1      -3.274  -9.406  10.320  1.00  0.00     0.004 A 
ATOM     10  C   UNL     1      -2.556  -7.124   9.933  1.00  0.00     0.004 A 
ENDBRANCH   2   4
ENDBRANCH   1   2
BRANCH   1  11
ATOM     11  C   UNL     1      -5.218  -7.682  13.080  1.00  0.00     0.028 C 
BRANCH  11  12
ATOM     12  C   UNL     1      -4.131  -8.498  13.735  1.00  0.00    -0.028 C 
ATOM     13  C   UNL     1      -2.844  -8.101  13.853  1.00  0.00    -0.080 C 
ATOM     14  C   UNL     1      -2.376  -6.746  13.375  1.00  0.00     0.039 C 
ATOM     15  C   UNL     1      -1.859  -9.042  14.500  1.00  0.00     0.039 C 
ENDBRANCH  11  12
ENDBRANCH   1  11
TORSDOF 4
ENDMDL
MODEL 6
REMARK VINA RESULT:    -4.515      1.044      7.049
REMARK INTER + INTRA:          -6.155
REMARK INTER:                  -5.553
REMARK INTRA:                  -0.602
REMARK UNBOUND:                -0.584
REMARK SMILES CC(C)=CCC[C@@H](C)c1ccc(C)cc1
REMARK SMILES IDX 6 1 7 2 8 3 9 4 13 5 12 6 11 7 14 8 10 9 15 10 5 11 4 12
REMARK SMILES IDX 2 13 1 14 3 15
REMARK H PARENT
REMARK Flexibility Score: inf
ROOT
ATOM      1  C   UNL     1       3.654   6.651   9.248  1.00  0.00     0.012 C 
ENDROOT
BRANCH   1   2
ATOM      2  C   UNL     1       4.019   5.629   8.146  1.00  0.00     0.016 C 
ATOM      3  C   UNL     1       4.358   6.311   6.811  1.00  0.00     0.013 C 
BRANCH   2   4
ATOM      4  C   UNL     1       5.173   4.752   8.599  1.00  0.00    -0.045 A 
ATOM      5  C   UNL     1       8.476   2.299   9.911  1.00  0.00     0.044 C 
ATOM      6  C   UNL     1       7.310   3.127   9.459  1.00  0.00    -0.051 A 
ATOM      7  C   UNL     1       6.966   3.182   8.101  1.00  0.00     0.004 A 
ATOM      8  C   UNL     1       6.599   3.908  10.382  1.00  0.00     0.004 A 
ATOM      9  C   UNL     1       5.902   3.982   7.674  1.00  0.00     0.004 A 
ATOM     10  C   UNL     1       5.534   4.709   9.956  1.00  0.00     0.004 A 
ENDBRANCH   2   4
ENDBRANCH   1   2
BRANCH   1  11
ATOM     11  C   UNL     1       2.222   6.470   9.773  1.00  0.00     0.028 C 
BRANCH  11  12
ATOM     12  C   UNL     1       1.238   6.430   8.630  1.00  0.00    -0.028 C 
ATOM     13  C   UNL     1      -0.035   6.879   8.701  1.00  0.00    -0.080 C 
ATOM     14  C   UNL     1      -0.587   7.530   9.949  1.00  0.00     0.039 C 
ATOM     15  C   UNL     1      -0.915   6.738   7.485  1.00  0.00     0.039 C 
ENDBRANCH  11  12
ENDBRANCH   1  11
TORSDOF 4
ENDMDL
MODEL 7
REMARK VINA RESULT:    -4.418     17.740     19.389
REMARK INTER + INTRA:          -6.035
REMARK INTER:                  -5.408
REMARK INTRA:                  -0.627
REMARK UNBOUND:                -0.584
REMARK SMILES CC(C)=CCC[C@@H](C)c1ccc(C)cc1
REMARK SMILES IDX 6 1 7 2 8 3 9 4 13 5 12 6 11 7 14 8 10 9 15 10 5 11 4 12
REMARK SMILES IDX 2 13 1 14 3 15
REMARK H PARENT
REMARK Flexibility Score: inf
ROOT
ATOM      1  C   UNL     1      -6.094  -4.180  20.192  1.00  0.00     0.012 C 
ENDROOT
BRANCH   1   2
ATOM      2  C   UNL     1      -6.669  -5.558  20.597  1.00  0.00     0.016 C 
ATOM      3  C   UNL     1      -7.517  -6.185  19.479  1.00  0.00     0.013 C 
BRANCH   2   4
ATOM      4  C   UNL     1      -5.548  -6.500  21.000  1.00  0.00    -0.045 A 
ATOM      5  C   UNL     1      -2.328  -9.139  22.147  1.00  0.00     0.044 C 
ATOM      6  C   UNL     1      -3.466  -8.238  21.767  1.00  0.00    -0.051 A 
ATOM      7  C   UNL     1      -4.266  -8.541  20.657  1.00  0.00     0.004 A 
ATOM      8  C   UNL     1      -3.693  -7.051  22.477  1.00  0.00     0.004 A 
ATOM      9  C   UNL     1      -5.303  -7.683  20.279  1.00  0.00     0.004 A 
ATOM     10  C   UNL     1      -4.730  -6.191  22.101  1.00  0.00     0.004 A 
ENDBRANCH   2   4
ENDBRANCH   1   2
BRANCH   1  11
ATOM     11  C   UNL     1      -6.696  -3.025  21.008  1.00  0.00     0.028 C 
BRANCH  11  12
ATOM     12  C   UNL     1      -5.668  -2.449  21.951  1.00  0.00    -0.028 C 
ATOM     13  C   UNL     1      -5.436  -1.127  22.113  1.00  0.00    -0.080 C 
ATOM     14  C   UNL     1      -6.244  -0.076  21.387  1.00  0.00     0.039 C 
ATOM     15  C   UNL     1      -4.347  -0.701  23.065  1.00  0.00     0.039 C 
ENDBRANCH  11  12
ENDBRANCH   1  11
TORSDOF 4
ENDMDL
MODEL 8
REMARK VINA RESULT:    -4.400     15.655     16.380
REMARK INTER + INTRA:          -6.013
REMARK INTER:                  -4.494
REMARK INTRA:                  -1.519
REMARK UNBOUND:                -0.584
REMARK SMILES CC(C)=CCC[C@@H](C)c1ccc(C)cc1
REMARK SMILES IDX 6 1 7 2 8 3 9 4 13 5 12 6 11 7 14 8 10 9 15 10 5 11 4 12
REMARK SMILES IDX 2 13 1 14 3 15
REMARK H PARENT
REMARK Flexibility Score: inf
ROOT
ATOM      1  C   UNL     1      -1.979  -8.342  13.649  1.00  0.00     0.012 C 
ENDROOT
BRANCH   1   2
ATOM      2  C   UNL     1      -2.030  -8.535  12.116  1.00  0.00     0.016 C 
ATOM      3  C   UNL     1      -2.080 -10.019  11.718  1.00  0.00     0.013 C 
BRANCH   2   4
ATOM      4  C   UNL     1      -3.216  -7.791  11.528  1.00  0.00    -0.045 A 
ATOM      5  C   UNL     1      -6.563  -5.670   9.809  1.00  0.00     0.044 C 
ATOM      6  C   UNL     1      -5.420  -6.425  10.421  1.00  0.00    -0.051 A 
ATOM      7  C   UNL     1      -4.869  -6.007  11.640  1.00  0.00     0.004 A 
ATOM      8  C   UNL     1      -4.850  -7.513   9.744  1.00  0.00     0.004 A 
ATOM      9  C   UNL     1      -3.780  -6.687  12.193  1.00  0.00     0.004 A 
ATOM     10  C   UNL     1      -3.760  -8.195  10.296  1.00  0.00     0.004 A 
ENDBRANCH   2   4
ENDBRANCH   1   2
BRANCH   1  11
ATOM     11  C   UNL     1      -2.707  -9.460  14.411  1.00  0.00     0.028 C 
BRANCH  11  12
ATOM     12  C   UNL     1      -3.935  -8.921  15.101  1.00  0.00    -0.028 C 
ATOM     13  C   UNL     1      -5.197  -9.067  14.639  1.00  0.00    -0.080 C 
ATOM     14  C   UNL     1      -5.506  -9.852  13.385  1.00  0.00     0.039 C 
ATOM     15  C   UNL     1      -6.324  -8.439  15.419  1.00  0.00     0.039 C 
ENDBRANCH  11  12
ENDBRANCH   1  11
TORSDOF 4
ENDMDL
MODEL 9
REMARK VINA RESULT:    -4.289     15.623     16.692
REMARK INTER + INTRA:          -5.876
REMARK INTER:                  -4.281
REMARK INTRA:                  -1.595
REMARK UNBOUND:                -0.584
REMARK SMILES CC(C)=CCC[C@@H](C)c1ccc(C)cc1
REMARK SMILES IDX 6 1 7 2 8 3 9 4 13 5 12 6 11 7 14 8 10 9 15 10 5 11 4 12
REMARK SMILES IDX 2 13 1 14 3 15
REMARK H PARENT
REMARK Flexibility Score: inf
ROOT
ATOM      1  C   UNL     1      -3.262  -9.107   9.250  1.00  0.00     0.012 C 
ENDROOT
BRANCH   1   2
ATOM      2  C   UNL     1      -2.224  -8.636  10.295  1.00  0.00     0.016 C 
ATOM      3  C   UNL     1      -1.776  -7.185  10.057  1.00  0.00     0.013 C 
BRANCH   2   4
ATOM      4  C   UNL     1      -2.779  -8.794  11.699  1.00  0.00    -0.045 A 
ATOM      5  C   UNL     1      -4.406  -9.248  15.674  1.00  0.00     0.044 C 
ATOM      6  C   UNL     1      -3.815  -9.105  14.303  1.00  0.00    -0.051 A 
ATOM      7  C   UNL     1      -3.043  -7.981  13.980  1.00  0.00     0.004 A 
ATOM      8  C   UNL     1      -4.089 -10.061  13.313  1.00  0.00     0.004 A 
ATOM      9  C   UNL     1      -2.523  -7.828  12.691  1.00  0.00     0.004 A 
ATOM     10  C   UNL     1      -3.570  -9.909  12.023  1.00  0.00     0.004 A 
ENDBRANCH   2   4
ENDBRANCH   1   2
BRANCH   1  11
ATOM     11  C   UNL     1      -4.236  -7.992   8.839  1.00  0.00     0.028 C 
BRANCH  11  12
ATOM     12  C   UNL     1      -5.555  -8.148   9.555  1.00  0.00    -0.028 C 
ATOM     13  C   UNL     1      -6.009  -7.307  10.511  1.00  0.00    -0.080 C 
ATOM     14  C   UNL     1      -5.243  -6.070  10.922  1.00  0.00     0.039 C 
ATOM     15  C   UNL     1      -7.332  -7.613  11.167  1.00  0.00     0.039 C 
ENDBRANCH  11  12
ENDBRANCH   1  11
TORSDOF 4
ENDMDL
