MODEL 1
REMARK VINA RESULT:    -2.951      0.000      0.000
REMARK INTER + INTRA:         -10.579
REMARK INTER:                  -6.401
REMARK INTRA:                  -4.177
REMARK UNBOUND:                -4.177
REMARK SMILES CCCCCCCCCCCCCCCCCCCCCC(=O)[O-]
REMARK SMILES IDX 12 1 11 2 10 3 9 4 8 5 7 6 6 7 5 8 4 9 3 10 2 11 1 12 13 13
REMARK SMILES IDX 14 14 15 15 16 16 17 17 18 18 19 19 20 20 21 21 22 22 23 23
REMARK SMILES IDX 24 24
REMARK H PARENT
REMARK Flexibility Score: inf
ROOT
ATOM      1  C   UNL     1      52.981  52.247  48.102  1.00  0.00     0.000 C 
ENDROOT
BRANCH   1   2
ATOM      2  C   UNL     1      52.136  53.004  49.139  1.00  0.00     0.000 C 
BRANCH   2   3
ATOM      3  C   UNL     1      52.183  52.349  50.531  1.00  0.00     0.000 C 
BRANCH   3   4
ATOM      4  C   UNL     1      52.029  53.371  51.670  1.00  0.00    -0.000 C 
BRANCH   4   5
ATOM      5  C   UNL     1      52.521  54.775  51.274  1.00  0.00    -0.000 C 
BRANCH   5   6
ATOM      6  C   UNL     1      54.028  54.961  51.517  1.00  0.00    -0.000 C 
BRANCH   6   7
ATOM      7  C   UNL     1      54.794  55.333  50.238  1.00  0.00    -0.000 C 
BRANCH   7   8
ATOM      8  C   UNL     1      55.922  54.330  49.965  1.00  0.00    -0.000 C 
BRANCH   8   9
ATOM      9  C   UNL     1      55.787  53.088  50.860  1.00  0.00    -0.000 C 
BRANCH   9  10
ATOM     10  C   UNL     1      56.268  51.803  50.152  1.00  0.00    -0.000 C 
BRANCH  10  11
ATOM     11  C   UNL     1      55.369  50.584  50.414  1.00  0.00    -0.003 C 
ATOM     12  C   UNL     1      55.278  49.638  49.219  1.00  0.00     0.004 C 
ENDBRANCH  10  11
ENDBRANCH   9  10
ENDBRANCH   8   9
ENDBRANCH   7   8
ENDBRANCH   6   7
ENDBRANCH   5   6
ENDBRANCH   4   5
ENDBRANCH   3   4
ENDBRANCH   2   3
ENDBRANCH   1   2
BRANCH   1  13
ATOM     13  C   UNL     1      53.640  53.187  47.074  1.00  0.00     0.000 C 
BRANCH  13  14
ATOM     14  C   UNL     1      55.093  52.798  46.762  1.00  0.00     0.000 C 
BRANCH  14  15
ATOM     15  C   UNL     1      55.740  53.714  45.713  1.00  0.00     0.000 C 
BRANCH  15  16
ATOM     16  C   UNL     1      55.990  55.113  46.291  1.00  0.00     0.000 C 
BRANCH  16  17
ATOM     17  C   UNL     1      55.613  56.205  45.280  1.00  0.00     0.000 C 
BRANCH  17  18
ATOM     18  C   UNL     1      54.285  55.920  44.557  1.00  0.00     0.000 C 
BRANCH  18  19
ATOM     19  C   UNL     1      53.159  56.911  44.918  1.00  0.00     0.000 C 
BRANCH  19  20
ATOM     20  C   UNL     1      52.260  56.379  46.049  1.00  0.00     0.006 C 
BRANCH  20  21
ATOM     21  C   UNL     1      52.789  56.757  47.438  1.00  0.00     0.053 C 
BRANCH  21  22
ATOM     22  C   UNL     1      52.928  58.241  47.596  1.00  0.00     0.041 C 
ATOM     23  O   UNL     1      51.920  58.948  47.867  1.00  0.00    -0.550 OA
ATOM     24  O   UNL     1      54.178  58.840  47.461  1.00  0.00    -0.550 OA
ENDBRANCH  21  22
ENDBRANCH  20  21
ENDBRANCH  19  20
ENDBRANCH  18  19
ENDBRANCH  17  18
ENDBRANCH  16  17
ENDBRANCH  15  16
ENDBRANCH  14  15
ENDBRANCH  13  14
ENDBRANCH   1  13
TORSDOF 20
ENDMDL
MODEL 2
REMARK VINA RESULT:    -2.907      1.906      5.645
REMARK INTER + INTRA:         -10.484
REMARK INTER:                  -6.316
REMARK INTRA:                  -4.168
REMARK UNBOUND:                -4.177
REMARK SMILES CCCCCCCCCCCCCCCCCCCCCC(=O)[O-]
REMARK SMILES IDX 12 1 11 2 10 3 9 4 8 5 7 6 6 7 5 8 4 9 3 10 2 11 1 12 13 13
REMARK SMILES IDX 14 14 15 15 16 16 17 17 18 18 19 19 20 20 21 21 22 22 23 23
REMARK SMILES IDX 24 24
REMARK H PARENT
REMARK Flexibility Score: inf
ROOT
ATOM      1  C   UNL     1      54.799  52.199  47.117  1.00  0.00     0.000 C 
ENDROOT
BRANCH   1   2
ATOM      2  C   UNL     1      55.673  53.166  46.301  1.00  0.00     0.000 C 
BRANCH   2   3
ATOM      3  C   UNL     1      56.406  54.189  47.188  1.00  0.00     0.000 C 
BRANCH   3   4
ATOM      4  C   UNL     1      56.437  53.772  48.668  1.00  0.00    -0.000 C 
BRANCH   4   5
ATOM      5  C   UNL     1      55.915  54.875  49.605  1.00  0.00    -0.000 C 
BRANCH   5   6
ATOM      6  C   UNL     1      55.238  56.025  48.841  1.00  0.00    -0.000 C 
BRANCH   6   7
ATOM      7  C   UNL     1      53.704  55.919  48.846  1.00  0.00    -0.000 C 
BRANCH   7   8
ATOM      8  C   UNL     1      53.061  57.274  48.525  1.00  0.00    -0.000 C 
BRANCH   8   9
ATOM      9  C   UNL     1      52.958  57.492  47.008  1.00  0.00    -0.000 C 
BRANCH   9  10
ATOM     10  C   UNL     1      52.513  56.215  46.264  1.00  0.00    -0.000 C 
BRANCH  10  11
ATOM     11  C   UNL     1      53.465  55.801  45.130  1.00  0.00    -0.003 C 
ATOM     12  C   UNL     1      54.672  56.726  44.992  1.00  0.00     0.004 C 
ENDBRANCH  10  11
ENDBRANCH   9  10
ENDBRANCH   8   9
ENDBRANCH   7   8
ENDBRANCH   6   7
ENDBRANCH   5   6
ENDBRANCH   4   5
ENDBRANCH   3   4
ENDBRANCH   2   3
ENDBRANCH   1   2
BRANCH   1  13
ATOM     13  C   UNL     1      53.321  52.633  47.164  1.00  0.00     0.000 C 
BRANCH  13  14
ATOM     14  C   UNL     1      52.682  52.409  48.543  1.00  0.00     0.000 C 
BRANCH  14  15
ATOM     15  C   UNL     1      53.532  51.507  49.450  1.00  0.00     0.000 C 
BRANCH  15  16
ATOM     16  C   UNL     1      53.169  51.721  50.925  1.00  0.00     0.000 C 
BRANCH  16  17
ATOM     17  C   UNL     1      51.916  52.596  51.066  1.00  0.00     0.000 C 
BRANCH  17  18
ATOM     18  C   UNL     1      52.227  54.006  51.601  1.00  0.00     0.000 C 
BRANCH  18  19
ATOM     19  C   UNL     1      53.641  54.141  52.203  1.00  0.00     0.000 C 
BRANCH  19  20
ATOM     20  C   UNL     1      53.756  55.355  53.144  1.00  0.00     0.006 C 
BRANCH  20  21
ATOM     21  C   UNL     1      54.039  56.655  52.383  1.00  0.00     0.053 C 
BRANCH  21  22
ATOM     22  C   UNL     1      52.906  57.628  52.503  1.00  0.00     0.041 C 
ATOM     23  O   UNL     1      53.066  58.715  53.122  1.00  0.00    -0.550 OA
ATOM     24  O   UNL     1      51.677  57.341  51.914  1.00  0.00    -0.550 OA
ENDBRANCH  21  22
ENDBRANCH  20  21
ENDBRANCH  19  20
ENDBRANCH  18  19
ENDBRANCH  17  18
ENDBRANCH  16  17
ENDBRANCH  15  16
ENDBRANCH  14  15
ENDBRANCH  13  14
ENDBRANCH   1  13
TORSDOF 20
ENDMDL
MODEL 3
REMARK VINA RESULT:    -2.877      3.244      5.831
REMARK INTER + INTRA:         -10.419
REMARK INTER:                  -7.339
REMARK INTRA:                  -3.080
REMARK UNBOUND:                -4.177
REMARK SMILES CCCCCCCCCCCCCCCCCCCCCC(=O)[O-]
REMARK SMILES IDX 12 1 11 2 10 3 9 4 8 5 7 6 6 7 5 8 4 9 3 10 2 11 1 12 13 13
REMARK SMILES IDX 14 14 15 15 16 16 17 17 18 18 19 19 20 20 21 21 22 22 23 23
REMARK SMILES IDX 24 24
REMARK H PARENT
REMARK Flexibility Score: inf
ROOT
ATOM      1  C   UNL     1      55.682  54.155  51.702  1.00  0.00     0.000 C 
ENDROOT
BRANCH   1   2
ATOM      2  C   UNL     1      55.679  52.629  51.512  1.00  0.00     0.000 C 
BRANCH   2   3
ATOM      3  C   UNL     1      56.081  52.211  50.086  1.00  0.00     0.000 C 
BRANCH   3   4
ATOM      4  C   UNL     1      56.023  50.688  49.880  1.00  0.00    -0.000 C 
BRANCH   4   5
ATOM      5  C   UNL     1      55.266  49.966  51.010  1.00  0.00    -0.000 C 
BRANCH   5   6
ATOM      6  C   UNL     1      54.335  48.862  50.484  1.00  0.00    -0.000 C 
BRANCH   6   7
ATOM      7  C   UNL     1      53.093  48.662  51.366  1.00  0.00    -0.000 C 
BRANCH   7   8
ATOM      8  C   UNL     1      53.052  47.240  51.940  1.00  0.00    -0.000 C 
BRANCH   8   9
ATOM      9  C   UNL     1      52.241  46.301  51.035  1.00  0.00    -0.000 C 
BRANCH   9  10
ATOM     10  C   UNL     1      52.122  44.879  51.625  1.00  0.00    -0.000 C 
BRANCH  10  11
ATOM     11  C   UNL     1      51.079  44.764  52.747  1.00  0.00    -0.003 C 
ATOM     12  C   UNL     1      51.696  44.463  54.111  1.00  0.00     0.004 C 
ENDBRANCH  10  11
ENDBRANCH   9  10
ENDBRANCH   8   9
ENDBRANCH   7   8
ENDBRANCH   6   7
ENDBRANCH   5   6
ENDBRANCH   4   5
ENDBRANCH   3   4
ENDBRANCH   2   3
ENDBRANCH   1   2
BRANCH   1  13
ATOM     13  C   UNL     1      54.353  54.807  51.276  1.00  0.00     0.000 C 
BRANCH  13  14
ATOM     14  C   UNL     1      53.150  54.273  52.071  1.00  0.00     0.000 C 
BRANCH  14  15
ATOM     15  C   UNL     1      52.000  53.810  51.165  1.00  0.00     0.000 C 
BRANCH  15  16
ATOM     16  C   UNL     1      52.004  52.283  51.016  1.00  0.00     0.000 C 
BRANCH  16  17
ATOM     17  C   UNL     1      52.451  51.866  49.608  1.00  0.00     0.000 C 
BRANCH  17  18
ATOM     18  C   UNL     1      52.358  53.012  48.585  1.00  0.00     0.000 C 
BRANCH  18  19
ATOM     19  C   UNL     1      53.457  52.967  47.504  1.00  0.00     0.000 C 
BRANCH  19  20
ATOM     20  C   UNL     1      54.339  54.230  47.522  1.00  0.00     0.006 C 
BRANCH  20  21
ATOM     21  C   UNL     1      53.512  55.517  47.407  1.00  0.00     0.053 C 
BRANCH  21  22
ATOM     22  C   UNL     1      53.020  55.739  46.010  1.00  0.00     0.041 C 
ATOM     23  O   UNL     1      53.811  55.634  45.034  1.00  0.00    -0.550 OA
ATOM     24  O   UNL     1      51.679  56.044  45.785  1.00  0.00    -0.550 OA
ENDBRANCH  21  22
ENDBRANCH  20  21
ENDBRANCH  19  20
ENDBRANCH  18  19
ENDBRANCH  17  18
ENDBRANCH  16  17
ENDBRANCH  15  16
ENDBRANCH  14  15
ENDBRANCH  13  14
ENDBRANCH   1  13
TORSDOF 20
ENDMDL
MODEL 4
REMARK VINA RESULT:    -2.872      2.795      5.452
REMARK INTER + INTRA:         -10.407
REMARK INTER:                  -6.247
REMARK INTRA:                  -4.160
REMARK UNBOUND:                -4.177
REMARK SMILES CCCCCCCCCCCCCCCCCCCCCC(=O)[O-]
REMARK SMILES IDX 12 1 11 2 10 3 9 4 8 5 7 6 6 7 5 8 4 9 3 10 2 11 1 12 13 13
REMARK SMILES IDX 14 14 15 15 16 16 17 17 18 18 19 19 20 20 21 21 22 22 23 23
REMARK SMILES IDX 24 24
REMARK H PARENT
REMARK Flexibility Score: inf
ROOT
ATOM      1  C   UNL     1      51.878  56.657  46.162  1.00  0.00     0.000 C 
ENDROOT
BRANCH   1   2
ATOM      2  C   UNL     1      52.757  56.893  47.401  1.00  0.00     0.000 C 
BRANCH   2   3
ATOM      3  C   UNL     1      52.685  58.344  47.909  1.00  0.00     0.000 C 
BRANCH   3   4
ATOM      4  C   UNL     1      53.943  59.156  47.556  1.00  0.00    -0.000 C 
BRANCH   4   5
ATOM      5  C   UNL     1      55.239  58.346  47.736  1.00  0.00    -0.000 C 
BRANCH   5   6
ATOM      6  C   UNL     1      55.685  58.267  49.206  1.00  0.00    -0.000 C 
BRANCH   6   7
ATOM      7  C   UNL     1      55.937  56.825  49.673  1.00  0.00    -0.000 C 
BRANCH   7   8
ATOM      8  C   UNL     1      55.121  56.506  50.933  1.00  0.00    -0.000 C 
BRANCH   8   9
ATOM      9  C   UNL     1      53.931  55.593  50.604  1.00  0.00    -0.000 C 
BRANCH   9  10
ATOM     10  C   UNL     1      52.611  56.111  51.214  1.00  0.00    -0.000 C 
BRANCH  10  11
ATOM     11  C   UNL     1      52.641  57.607  51.564  1.00  0.00    -0.003 C 
ATOM     12  C   UNL     1      52.677  57.872  53.068  1.00  0.00     0.004 C 
ENDBRANCH  10  11
ENDBRANCH   9  10
ENDBRANCH   8   9
ENDBRANCH   7   8
ENDBRANCH   6   7
ENDBRANCH   5   6
ENDBRANCH   4   5
ENDBRANCH   3   4
ENDBRANCH   2   3
ENDBRANCH   1   2
BRANCH   1  13
ATOM     13  C   UNL     1      52.654  56.010  45.000  1.00  0.00     0.000 C 
BRANCH  13  14
ATOM     14  C   UNL     1      53.818  56.884  44.506  1.00  0.00     0.000 C 
BRANCH  14  15
ATOM     15  C   UNL     1      55.186  56.216  44.707  1.00  0.00     0.000 C 
BRANCH  15  16
ATOM     16  C   UNL     1      55.027  54.820  45.323  1.00  0.00     0.000 C 
BRANCH  16  17
ATOM     17  C   UNL     1      55.769  54.718  46.663  1.00  0.00     0.000 C 
BRANCH  17  18
ATOM     18  C   UNL     1      55.078  53.771  47.659  1.00  0.00     0.000 C 
BRANCH  18  19
ATOM     19  C   UNL     1      53.704  53.261  47.177  1.00  0.00     0.000 C 
BRANCH  19  20
ATOM     20  C   UNL     1      52.757  52.952  48.352  1.00  0.00     0.006 C 
BRANCH  20  21
ATOM     21  C   UNL     1      53.174  51.691  49.119  1.00  0.00     0.053 C 
BRANCH  21  22
ATOM     22  C   UNL     1      52.441  51.563  50.419  1.00  0.00     0.041 C 
ATOM     23  O   UNL     1      52.475  50.479  51.063  1.00  0.00    -0.550 OA
ATOM     24  O   UNL     1      51.734  52.649  50.929  1.00  0.00    -0.550 OA
ENDBRANCH  21  22
ENDBRANCH  20  21
ENDBRANCH  19  20
ENDBRANCH  18  19
ENDBRANCH  17  18
ENDBRANCH  16  17
ENDBRANCH  15  16
ENDBRANCH  14  15
ENDBRANCH  13  14
ENDBRANCH   1  13
TORSDOF 20
ENDMDL
MODEL 5
REMARK VINA RESULT:    -2.868      3.979      5.860
REMARK INTER + INTRA:         -10.399
REMARK INTER:                  -7.874
REMARK INTRA:                  -2.525
REMARK UNBOUND:                -4.177
REMARK SMILES CCCCCCCCCCCCCCCCCCCCCC(=O)[O-]
REMARK SMILES IDX 12 1 11 2 10 3 9 4 8 5 7 6 6 7 5 8 4 9 3 10 2 11 1 12 13 13
REMARK SMILES IDX 14 14 15 15 16 16 17 17 18 18 19 19 20 20 21 21 22 22 23 23
REMARK SMILES IDX 24 24
REMARK H PARENT
REMARK Flexibility Score: inf
ROOT
ATOM      1  C   UNL     1      51.984  53.015  51.250  1.00  0.00     0.000 C 
ENDROOT
BRANCH   1   2
ATOM      2  C   UNL     1      52.951  51.863  51.567  1.00  0.00     0.000 C 
BRANCH   2   3
ATOM      3  C   UNL     1      52.757  50.655  50.631  1.00  0.00     0.000 C 
BRANCH   3   4
ATOM      4  C   UNL     1      54.045  49.832  50.457  1.00  0.00    -0.000 C 
BRANCH   4   5
ATOM      5  C   UNL     1      53.806  48.320  50.615  1.00  0.00    -0.000 C 
BRANCH   5   6
ATOM      6  C   UNL     1      53.666  47.897  52.087  1.00  0.00    -0.000 C 
BRANCH   6   7
ATOM      7  C   UNL     1      52.441  47.001  52.333  1.00  0.00    -0.000 C 
BRANCH   7   8
ATOM      8  C   UNL     1      52.539  45.704  51.521  1.00  0.00    -0.000 C 
BRANCH   8   9
ATOM      9  C   UNL     1      51.433  44.716  51.920  1.00  0.00    -0.000 C 
BRANCH   9  10
ATOM     10  C   UNL     1      51.256  44.625  53.451  1.00  0.00    -0.000 C 
BRANCH  10  11
ATOM     11  C   UNL     1      52.419  43.917  54.164  1.00  0.00    -0.003 C 
ATOM     12  C   UNL     1      52.174  42.424  54.374  1.00  0.00     0.004 C 
ENDBRANCH  10  11
ENDBRANCH   9  10
ENDBRANCH   8   9
ENDBRANCH   7   8
ENDBRANCH   6   7
ENDBRANCH   5   6
ENDBRANCH   4   5
ENDBRANCH   3   4
ENDBRANCH   2   3
ENDBRANCH   1   2
BRANCH   1  13
ATOM     13  C   UNL     1      52.705  54.255  50.687  1.00  0.00     0.000 C 
BRANCH  13  14
ATOM     14  C   UNL     1      54.161  54.362  51.167  1.00  0.00     0.000 C 
BRANCH  14  15
ATOM     15  C   UNL     1      55.158  54.506  50.008  1.00  0.00     0.000 C 
BRANCH  15  16
ATOM     16  C   UNL     1      55.689  53.134  49.572  1.00  0.00     0.000 C 
BRANCH  16  17
ATOM     17  C   UNL     1      55.533  52.935  48.058  1.00  0.00     0.000 C 
BRANCH  17  18
ATOM     18  C   UNL     1      54.202  52.265  47.676  1.00  0.00     0.000 C 
BRANCH  18  19
ATOM     19  C   UNL     1      53.120  53.260  47.207  1.00  0.00     0.000 C 
BRANCH  19  20
ATOM     20  C   UNL     1      53.732  54.516  46.558  1.00  0.00     0.006 C 
BRANCH  20  21
ATOM     21  C   UNL     1      52.869  55.764  46.781  1.00  0.00     0.053 C 
BRANCH  21  22
ATOM     22  C   UNL     1      52.157  56.179  45.529  1.00  0.00     0.041 C 
ATOM     23  O   UNL     1      52.725  56.066  44.409  1.00  0.00    -0.550 OA
ATOM     24  O   UNL     1      50.857  56.674  45.600  1.00  0.00    -0.550 OA
ENDBRANCH  21  22
ENDBRANCH  20  21
ENDBRANCH  19  20
ENDBRANCH  18  19
ENDBRANCH  17  18
ENDBRANCH  16  17
ENDBRANCH  15  16
ENDBRANCH  14  15
ENDBRANCH  13  14
ENDBRANCH   1  13
TORSDOF 20
ENDMDL
MODEL 6
REMARK VINA RESULT:    -2.837      3.865      6.685
REMARK INTER + INTRA:         -10.331
REMARK INTER:                  -6.268
REMARK INTRA:                  -4.063
REMARK UNBOUND:                -4.177
REMARK SMILES CCCCCCCCCCCCCCCCCCCCCC(=O)[O-]
REMARK SMILES IDX 12 1 11 2 10 3 9 4 8 5 7 6 6 7 5 8 4 9 3 10 2 11 1 12 13 13
REMARK SMILES IDX 14 14 15 15 16 16 17 17 18 18 19 19 20 20 21 21 22 22 23 23
REMARK SMILES IDX 24 24
REMARK H PARENT
REMARK Flexibility Score: inf
ROOT
ATOM      1  C   UNL     1      53.104  52.248  47.723  1.00  0.00     0.000 C 
ENDROOT
BRANCH   1   2
ATOM      2  C   UNL     1      52.370  53.187  48.694  1.00  0.00     0.000 C 
BRANCH   2   3
ATOM      3  C   UNL     1      53.276  54.316  49.220  1.00  0.00     0.000 C 
BRANCH   3   4
ATOM      4  C   UNL     1      52.783  54.891  50.559  1.00  0.00    -0.000 C 
BRANCH   4   5
ATOM      5  C   UNL     1      52.903  56.424  50.624  1.00  0.00    -0.000 C 
BRANCH   5   6
ATOM      6  C   UNL     1      53.603  57.013  49.389  1.00  0.00    -0.000 C 
BRANCH   6   7
ATOM      7  C   UNL     1      52.850  58.214  48.795  1.00  0.00    -0.000 C 
BRANCH   7   8
ATOM      8  C   UNL     1      52.868  58.167  47.261  1.00  0.00    -0.000 C 
BRANCH   8   9
ATOM      9  C   UNL     1      52.428  56.789  46.745  1.00  0.00    -0.000 C 
BRANCH   9  10
ATOM     10  C   UNL     1      53.105  56.423  45.407  1.00  0.00    -0.000 C 
BRANCH  10  11
ATOM     11  C   UNL     1      54.130  55.284  45.528  1.00  0.00    -0.003 C 
ATOM     12  C   UNL     1      55.377  55.679  46.315  1.00  0.00     0.004 C 
ENDBRANCH  10  11
ENDBRANCH   9  10
ENDBRANCH   8   9
ENDBRANCH   7   8
ENDBRANCH   6   7
ENDBRANCH   5   6
ENDBRANCH   4   5
ENDBRANCH   3   4
ENDBRANCH   2   3
ENDBRANCH   1   2
BRANCH   1  13
ATOM     13  C   UNL     1      54.634  52.411  47.784  1.00  0.00     0.000 C 
BRANCH  13  14
ATOM     14  C   UNL     1      55.360  51.088  48.071  1.00  0.00     0.000 C 
BRANCH  14  15
ATOM     15  C   UNL     1      56.301  51.178  49.282  1.00  0.00     0.000 C 
BRANCH  15  16
ATOM     16  C   UNL     1      56.247  52.576  49.911  1.00  0.00     0.000 C 
BRANCH  16  17
ATOM     17  C   UNL     1      55.738  52.515  51.357  1.00  0.00     0.000 C 
BRANCH  17  18
ATOM     18  C   UNL     1      54.996  51.204  51.676  1.00  0.00     0.000 C 
BRANCH  18  19
ATOM     19  C   UNL     1      53.460  51.350  51.687  1.00  0.00     0.000 C 
BRANCH  19  20
ATOM     20  C   UNL     1      52.767  50.230  50.888  1.00  0.00     0.006 C 
BRANCH  20  21
ATOM     21  C   UNL     1      53.656  48.991  50.734  1.00  0.00     0.053 C 
BRANCH  21  22
ATOM     22  C   UNL     1      53.252  47.895  51.673  1.00  0.00     0.041 C 
ATOM     23  O   UNL     1      53.847  47.753  52.775  1.00  0.00    -0.550 OA
ATOM     24  O   UNL     1      52.204  47.042  51.336  1.00  0.00    -0.550 OA
ENDBRANCH  21  22
ENDBRANCH  20  21
ENDBRANCH  19  20
ENDBRANCH  18  19
ENDBRANCH  17  18
ENDBRANCH  16  17
ENDBRANCH  15  16
ENDBRANCH  14  15
ENDBRANCH  13  14
ENDBRANCH   1  13
TORSDOF 20
ENDMDL
MODEL 7
REMARK VINA RESULT:    -2.835      4.299      7.655
REMARK INTER + INTRA:         -10.326
REMARK INTER:                  -7.044
REMARK INTRA:                  -3.282
REMARK UNBOUND:                -4.177
REMARK SMILES CCCCCCCCCCCCCCCCCCCCCC(=O)[O-]
REMARK SMILES IDX 12 1 11 2 10 3 9 4 8 5 7 6 6 7 5 8 4 9 3 10 2 11 1 12 13 13
REMARK SMILES IDX 14 14 15 15 16 16 17 17 18 18 19 19 20 20 21 21 22 22 23 23
REMARK SMILES IDX 24 24
REMARK H PARENT
REMARK Flexibility Score: inf
ROOT
ATOM      1  C   UNL     1      55.109  52.027  47.182  1.00  0.00     0.000 C 
ENDROOT
BRANCH   1   2
ATOM      2  C   UNL     1      56.096  52.453  48.281  1.00  0.00     0.000 C 
BRANCH   2   3
ATOM      3  C   UNL     1      56.197  53.983  48.422  1.00  0.00     0.000 C 
BRANCH   3   4
ATOM      4  C   UNL     1      55.915  54.464  49.856  1.00  0.00    -0.000 C 
BRANCH   4   5
ATOM      5  C   UNL     1      54.902  55.622  49.903  1.00  0.00    -0.000 C 
BRANCH   5   6
ATOM      6  C   UNL     1      54.504  56.113  48.501  1.00  0.00    -0.000 C 
BRANCH   6   7
ATOM      7  C   UNL     1      53.107  56.753  48.471  1.00  0.00    -0.000 C 
BRANCH   7   8
ATOM      8  C   UNL     1      52.763  57.253  47.062  1.00  0.00    -0.000 C 
BRANCH   8   9
ATOM      9  C   UNL     1      52.362  56.088  46.145  1.00  0.00    -0.000 C 
BRANCH   9  10
ATOM     10  C   UNL     1      52.910  56.258  44.712  1.00  0.00    -0.000 C 
BRANCH  10  11
ATOM     11  C   UNL     1      54.417  56.557  44.661  1.00  0.00    -0.003 C 
ATOM     12  C   UNL     1      55.281  55.348  45.011  1.00  0.00     0.004 C 
ENDBRANCH  10  11
ENDBRANCH   9  10
ENDBRANCH   8   9
ENDBRANCH   7   8
ENDBRANCH   6   7
ENDBRANCH   5   6
ENDBRANCH   4   5
ENDBRANCH   3   4
ENDBRANCH   2   3
ENDBRANCH   1   2
BRANCH   1  13
ATOM     13  C   UNL     1      53.820  52.870  47.184  1.00  0.00     0.000 C 
BRANCH  13  14
ATOM     14  C   UNL     1      52.707  52.247  48.042  1.00  0.00     0.000 C 
BRANCH  14  15
ATOM     15  C   UNL     1      52.312  53.131  49.234  1.00  0.00     0.000 C 
BRANCH  15  16
ATOM     16  C   UNL     1      52.528  52.388  50.559  1.00  0.00     0.000 C 
BRANCH  16  17
ATOM     17  C   UNL     1      53.338  51.101  50.346  1.00  0.00     0.000 C 
BRANCH  17  18
ATOM     18  C   UNL     1      52.679  49.866  50.986  1.00  0.00     0.000 C 
BRANCH  18  19
ATOM     19  C   UNL     1      53.691  48.817  51.492  1.00  0.00     0.000 C 
BRANCH  19  20
ATOM     20  C   UNL     1      52.995  47.620  52.165  1.00  0.00     0.006 C 
BRANCH  20  21
ATOM     21  C   UNL     1      52.420  46.631  51.143  1.00  0.00     0.053 C 
BRANCH  21  22
ATOM     22  C   UNL     1      53.489  46.045  50.273  1.00  0.00     0.041 C 
ATOM     23  O   UNL     1      53.476  46.246  49.028  1.00  0.00    -0.550 OA
ATOM     24  O   UNL     1      54.513  45.292  50.842  1.00  0.00    -0.550 OA
ENDBRANCH  21  22
ENDBRANCH  20  21
ENDBRANCH  19  20
ENDBRANCH  18  19
ENDBRANCH  17  18
ENDBRANCH  16  17
ENDBRANCH  15  16
ENDBRANCH  14  15
ENDBRANCH  13  14
ENDBRANCH   1  13
TORSDOF 20
ENDMDL
MODEL 8
REMARK VINA RESULT:    -2.830      1.944      4.180
REMARK INTER + INTRA:         -10.315
REMARK INTER:                  -7.067
REMARK INTRA:                  -3.248
REMARK UNBOUND:                -4.177
REMARK SMILES CCCCCCCCCCCCCCCCCCCCCC(=O)[O-]
REMARK SMILES IDX 12 1 11 2 10 3 9 4 8 5 7 6 6 7 5 8 4 9 3 10 2 11 1 12 13 13
REMARK SMILES IDX 14 14 15 15 16 16 17 17 18 18 19 19 20 20 21 21 22 22 23 23
REMARK SMILES IDX 24 24
REMARK H PARENT
REMARK Flexibility Score: inf
ROOT
ATOM      1  C   UNL     1      52.342  53.004  48.583  1.00  0.00     0.000 C 
ENDROOT
BRANCH   1   2
ATOM      2  C   UNL     1      53.336  52.332  47.622  1.00  0.00     0.000 C 
BRANCH   2   3
ATOM      3  C   UNL     1      54.254  53.346  46.917  1.00  0.00     0.000 C 
BRANCH   3   4
ATOM      4  C   UNL     1      55.455  53.758  47.785  1.00  0.00    -0.000 C 
BRANCH   4   5
ATOM      5  C   UNL     1      56.092  52.564  48.518  1.00  0.00    -0.000 C 
BRANCH   5   6
ATOM      6  C   UNL     1      56.118  52.754  50.043  1.00  0.00    -0.000 C 
BRANCH   6   7
ATOM      7  C   UNL     1      55.675  51.496  50.806  1.00  0.00    -0.000 C 
BRANCH   7   8
ATOM      8  C   UNL     1      55.907  50.234  49.965  1.00  0.00    -0.000 C 
BRANCH   8   9
ATOM      9  C   UNL     1      54.577  49.551  49.613  1.00  0.00    -0.000 C 
BRANCH   9  10
ATOM     10  C   UNL     1      54.444  48.159  50.266  1.00  0.00    -0.000 C 
BRANCH  10  11
ATOM     11  C   UNL     1      53.155  47.984  51.083  1.00  0.00    -0.003 C 
ATOM     12  C   UNL     1      53.393  47.997  52.591  1.00  0.00     0.004 C 
ENDBRANCH  10  11
ENDBRANCH   9  10
ENDBRANCH   8   9
ENDBRANCH   7   8
ENDBRANCH   6   7
ENDBRANCH   5   6
ENDBRANCH   4   5
ENDBRANCH   3   4
ENDBRANCH   2   3
ENDBRANCH   1   2
BRANCH   1  13
ATOM     13  C   UNL     1      52.323  52.343  49.974  1.00  0.00     0.000 C 
BRANCH  13  14
ATOM     14  C   UNL     1      52.001  53.339  51.099  1.00  0.00     0.000 C 
BRANCH  14  15
ATOM     15  C   UNL     1      53.016  54.489  51.181  1.00  0.00     0.000 C 
BRANCH  15  16
ATOM     16  C   UNL     1      52.304  55.830  51.399  1.00  0.00     0.000 C 
BRANCH  16  17
ATOM     17  C   UNL     1      52.873  56.915  50.474  1.00  0.00     0.000 C 
BRANCH  17  18
ATOM     18  C   UNL     1      53.429  56.348  49.156  1.00  0.00     0.000 C 
BRANCH  18  19
ATOM     19  C   UNL     1      53.922  57.432  48.175  1.00  0.00     0.000 C 
BRANCH  19  20
ATOM     20  C   UNL     1      52.918  57.680  47.034  1.00  0.00     0.006 C 
BRANCH  20  21
ATOM     21  C   UNL     1      52.328  56.374  46.486  1.00  0.00     0.053 C 
BRANCH  21  22
ATOM     22  C   UNL     1      52.310  56.357  44.988  1.00  0.00     0.041 C 
ATOM     23  O   UNL     1      51.214  56.350  44.365  1.00  0.00    -0.550 OA
ATOM     24  O   UNL     1      53.509  56.368  44.278  1.00  0.00    -0.550 OA
ENDBRANCH  21  22
ENDBRANCH  20  21
ENDBRANCH  19  20
ENDBRANCH  18  19
ENDBRANCH  17  18
ENDBRANCH  16  17
ENDBRANCH  15  16
ENDBRANCH  14  15
ENDBRANCH  13  14
ENDBRANCH   1  13
TORSDOF 20
ENDMDL
MODEL 9
REMARK VINA RESULT:    -2.812      2.000      5.785
REMARK INTER + INTRA:         -10.278
REMARK INTER:                  -6.264
REMARK INTRA:                  -4.014
REMARK UNBOUND:                -4.177
REMARK SMILES CCCCCCCCCCCCCCCCCCCCCC(=O)[O-]
REMARK SMILES IDX 12 1 11 2 10 3 9 4 8 5 7 6 6 7 5 8 4 9 3 10 2 11 1 12 13 13
REMARK SMILES IDX 14 14 15 15 16 16 17 17 18 18 19 19 20 20 21 21 22 22 23 23
REMARK SMILES IDX 24 24
REMARK H PARENT
REMARK Flexibility Score: inf
ROOT
ATOM      1  C   UNL     1      55.606  54.452  47.437  1.00  0.00     0.000 C 
ENDROOT
BRANCH   1   2
ATOM      2  C   UNL     1      55.458  54.523  45.908  1.00  0.00     0.000 C 
BRANCH   2   3
ATOM      3  C   UNL     1      55.552  55.963  45.373  1.00  0.00     0.000 C 
BRANCH   3   4
ATOM      4  C   UNL     1      54.211  56.475  44.819  1.00  0.00    -0.000 C 
BRANCH   4   5
ATOM      5  C   UNL     1      53.009  55.669  45.343  1.00  0.00    -0.000 C 
BRANCH   5   6
ATOM      6  C   UNL     1      51.963  56.557  46.038  1.00  0.00    -0.000 C 
BRANCH   6   7
ATOM      7  C   UNL     1      52.594  57.574  47.002  1.00  0.00    -0.000 C 
BRANCH   7   8
ATOM      8  C   UNL     1      53.122  56.879  48.263  1.00  0.00    -0.000 C 
BRANCH   8   9
ATOM      9  C   UNL     1      54.335  57.626  48.840  1.00  0.00    -0.000 C 
BRANCH   9  10
ATOM     10  C   UNL     1      54.924  58.643  47.839  1.00  0.00    -0.000 C 
BRANCH  10  11
ATOM     11  C   UNL     1      56.428  58.896  48.034  1.00  0.00    -0.003 C 
ATOM     12  C   UNL     1      57.222  57.619  48.297  1.00  0.00     0.004 C 
ENDBRANCH  10  11
ENDBRANCH   9  10
ENDBRANCH   8   9
ENDBRANCH   7   8
ENDBRANCH   6   7
ENDBRANCH   5   6
ENDBRANCH   4   5
ENDBRANCH   3   4
ENDBRANCH   2   3
ENDBRANCH   1   2
BRANCH   1  13
ATOM     13  C   UNL     1      55.059  53.136  48.024  1.00  0.00     0.000 C 
BRANCH  13  14
ATOM     14  C   UNL     1      53.822  52.621  47.271  1.00  0.00     0.000 C 
BRANCH  14  15
ATOM     15  C   UNL     1      52.662  52.264  48.212  1.00  0.00     0.000 C 
BRANCH  15  16
ATOM     16  C   UNL     1      52.393  53.405  49.203  1.00  0.00     0.000 C 
BRANCH  16  17
ATOM     17  C   UNL     1      52.042  52.859  50.594  1.00  0.00     0.000 C 
BRANCH  17  18
ATOM     18  C   UNL     1      52.893  53.483  51.714  1.00  0.00     0.000 C 
BRANCH  18  19
ATOM     19  C   UNL     1      53.626  54.773  51.290  1.00  0.00     0.000 C 
BRANCH  19  20
ATOM     20  C   UNL     1      53.304  55.955  52.223  1.00  0.00     0.006 C 
BRANCH  20  21
ATOM     21  C   UNL     1      52.046  56.715  51.785  1.00  0.00     0.053 C 
BRANCH  21  22
ATOM     22  C   UNL     1      52.263  58.197  51.787  1.00  0.00     0.041 C 
ATOM     23  O   UNL     1      51.733  58.918  50.899  1.00  0.00    -0.550 OA
ATOM     24  O   UNL     1      53.037  58.785  52.784  1.00  0.00    -0.550 OA
ENDBRANCH  21  22
ENDBRANCH  20  21
ENDBRANCH  19  20
ENDBRANCH  18  19
ENDBRANCH  17  18
ENDBRANCH  16  17
ENDBRANCH  15  16
ENDBRANCH  14  15
ENDBRANCH  13  14
ENDBRANCH   1  13
TORSDOF 20
ENDMDL
