MODEL 1
REMARK VINA RESULT:    -3.679      0.000      0.000
REMARK INTER + INTRA:          -5.556
REMARK INTER:                  -4.970
REMARK INTRA:                  -0.587
REMARK UNBOUND:                -0.587
REMARK SMILES CCCCCCC=CC(=O)[O-]
REMARK SMILES IDX 5 1 6 2 7 3 8 4 9 5 10 6 11 7 4 8 3 9 2 10 1 11
REMARK H PARENT
REMARK Flexibility Score: inf
ROOT
ATOM      1  C   UNL     1       4.150  -6.768   7.913  1.00  0.00     0.004 C 
ENDROOT
BRANCH   1   2
ATOM      2  C   UNL     1       3.534  -7.067   6.538  1.00  0.00     0.027 C 
BRANCH   2   3
ATOM      3  C   UNL     1       2.998  -8.475   6.455  1.00  0.00    -0.025 C 
ATOM      4  C   UNL     1       2.846  -9.217   5.345  1.00  0.00     0.020 C 
BRANCH   4   5
ATOM      5  C   UNL     1       3.152  -8.826   3.952  1.00  0.00     0.064 C 
ATOM      6  O   UNL     1       2.270  -8.778   3.058  1.00  0.00    -0.545 OA
ATOM      7  O   UNL     1       4.467  -8.531   3.616  1.00  0.00    -0.545 OA
ENDBRANCH   4   5
ENDBRANCH   2   3
ENDBRANCH   1   2
BRANCH   1   8
ATOM      8  C   UNL     1       5.683  -6.868   7.909  1.00  0.00     0.000 C 
BRANCH   8   9
ATOM      9  C   UNL     1       6.254  -7.257   6.533  1.00  0.00    -0.000 C 
BRANCH   9  10
ATOM     10  C   UNL     1       6.738  -8.714   6.420  1.00  0.00    -0.003 C 
ATOM     11  C   UNL     1       6.796  -9.432   7.768  1.00  0.00     0.004 C 
ENDBRANCH   9  10
ENDBRANCH   8   9
ENDBRANCH   1   8
TORSDOF 6
ENDMDL
MODEL 2
REMARK VINA RESULT:    -3.610      1.349      2.227
REMARK INTER + INTRA:          -5.462
REMARK INTER:                  -5.177
REMARK INTRA:                  -0.285
REMARK UNBOUND:                -0.587
REMARK SMILES CCCCCCC=CC(=O)[O-]
REMARK SMILES IDX 5 1 6 2 7 3 8 4 9 5 10 6 11 7 4 8 3 9 2 10 1 11
REMARK H PARENT
REMARK Flexibility Score: inf
ROOT
ATOM      1  C   UNL     1       5.529  -7.946   6.285  1.00  0.00     0.004 C 
ENDROOT
BRANCH   1   2
ATOM      2  C   UNL     1       4.032  -7.606   6.294  1.00  0.00     0.027 C 
BRANCH   2   3
ATOM      3  C   UNL     1       3.172  -8.845   6.265  1.00  0.00    -0.025 C 
ATOM      4  C   UNL     1       2.695  -9.472   5.177  1.00  0.00     0.020 C 
BRANCH   4   5
ATOM      5  C   UNL     1       2.886  -9.088   3.762  1.00  0.00     0.064 C 
ATOM      6  O   UNL     1       1.920  -8.936   2.970  1.00  0.00    -0.545 OA
ATOM      7  O   UNL     1       4.178  -8.920   3.284  1.00  0.00    -0.545 OA
ENDBRANCH   4   5
ENDBRANCH   2   3
ENDBRANCH   1   2
BRANCH   1   8
ATOM      8  C   UNL     1       6.335  -7.094   7.278  1.00  0.00     0.000 C 
BRANCH   8   9
ATOM      9  C   UNL     1       7.357  -6.174   6.585  1.00  0.00    -0.000 C 
BRANCH   9  10
ATOM     10  C   UNL     1       7.237  -4.682   6.945  1.00  0.00    -0.003 C 
ATOM     11  C   UNL     1       5.888  -4.324   7.568  1.00  0.00     0.004 C 
ENDBRANCH   9  10
ENDBRANCH   8   9
ENDBRANCH   1   8
TORSDOF 6
ENDMDL
MODEL 3
REMARK VINA RESULT:    -3.587     12.222     13.829
REMARK INTER + INTRA:          -5.431
REMARK INTER:                  -5.196
REMARK INTRA:                  -0.236
REMARK UNBOUND:                -0.587
REMARK SMILES CCCCCCC=CC(=O)[O-]
REMARK SMILES IDX 5 1 6 2 7 3 8 4 9 5 10 6 11 7 4 8 3 9 2 10 1 11
REMARK H PARENT
REMARK Flexibility Score: inf
ROOT
ATOM      1  C   UNL     1      15.083  -9.611  -3.731  1.00  0.00     0.004 C 
ENDROOT
BRANCH   1   2
ATOM      2  C   UNL     1      14.485  -9.206  -2.376  1.00  0.00     0.027 C 
BRANCH   2   3
ATOM      3  C   UNL     1      13.867 -10.381  -1.660  1.00  0.00    -0.025 C 
ATOM      4  C   UNL     1      13.174 -10.351  -0.509  1.00  0.00     0.020 C 
BRANCH   4   5
ATOM      5  C   UNL     1      12.869  -9.171   0.328  1.00  0.00     0.064 C 
ATOM      6  O   UNL     1      12.181  -8.207  -0.095  1.00  0.00    -0.545 OA
ATOM      7  O   UNL     1      13.385  -9.113   1.615  1.00  0.00    -0.545 OA
ENDBRANCH   4   5
ENDBRANCH   2   3
ENDBRANCH   1   2
BRANCH   1   8
ATOM      8  C   UNL     1      14.981 -11.122  -3.995  1.00  0.00     0.000 C 
BRANCH   8   9
ATOM      9  C   UNL     1      15.125 -11.480  -5.486  1.00  0.00    -0.000 C 
BRANCH   9  10
ATOM     10  C   UNL     1      14.553 -12.853  -5.881  1.00  0.00    -0.003 C 
ATOM     11  C   UNL     1      13.963 -12.872  -7.290  1.00  0.00     0.004 C 
ENDBRANCH   9  10
ENDBRANCH   8   9
ENDBRANCH   1   8
TORSDOF 6
ENDMDL
MODEL 4
REMARK VINA RESULT:    -3.542      1.651      3.121
REMARK INTER + INTRA:          -5.371
REMARK INTER:                  -5.110
REMARK INTRA:                  -0.261
REMARK UNBOUND:                -0.587
REMARK SMILES CCCCCCC=CC(=O)[O-]
REMARK SMILES IDX 5 1 6 2 7 3 8 4 9 5 10 6 11 7 4 8 3 9 2 10 1 11
REMARK H PARENT
REMARK Flexibility Score: inf
ROOT
ATOM      1  C   UNL     1       5.590  -8.061   4.954  1.00  0.00     0.004 C 
ENDROOT
BRANCH   1   2
ATOM      2  C   UNL     1       4.439  -8.441   4.012  1.00  0.00     0.027 C 
BRANCH   2   3
ATOM      3  C   UNL     1       3.203  -8.857   4.770  1.00  0.00    -0.025 C 
ATOM      4  C   UNL     1       2.075  -9.373   4.254  1.00  0.00     0.020 C 
BRANCH   4   5
ATOM      5  C   UNL     1       1.774  -9.638   2.831  1.00  0.00     0.064 C 
ATOM      6  O   UNL     1       2.618 -10.146   2.049  1.00  0.00    -0.545 OA
ATOM      7  O   UNL     1       0.526  -9.286   2.335  1.00  0.00    -0.545 OA
ENDBRANCH   4   5
ENDBRANCH   2   3
ENDBRANCH   1   2
BRANCH   1   8
ATOM      8  C   UNL     1       5.182  -8.108   6.435  1.00  0.00     0.000 C 
BRANCH   8   9
ATOM      9  C   UNL     1       5.042  -6.709   7.063  1.00  0.00    -0.000 C 
BRANCH   9  10
ATOM     10  C   UNL     1       3.593  -6.234   7.274  1.00  0.00    -0.003 C 
ATOM     11  C   UNL     1       3.475  -4.717   7.409  1.00  0.00     0.004 C 
ENDBRANCH   9  10
ENDBRANCH   8   9
ENDBRANCH   1   8
TORSDOF 6
ENDMDL
MODEL 5
REMARK VINA RESULT:    -3.494      9.683     11.407
REMARK INTER + INTRA:          -5.307
REMARK INTER:                  -4.697
REMARK INTRA:                  -0.610
REMARK UNBOUND:                -0.587
REMARK SMILES CCCCCCC=CC(=O)[O-]
REMARK SMILES IDX 5 1 6 2 7 3 8 4 9 5 10 6 11 7 4 8 3 9 2 10 1 11
REMARK H PARENT
REMARK Flexibility Score: inf
ROOT
ATOM      1  C   UNL     1      14.032 -10.809  -1.156  1.00  0.00     0.004 C 
ENDROOT
BRANCH   1   2
ATOM      2  C   UNL     1      15.013 -10.016  -0.281  1.00  0.00     0.027 C 
BRANCH   2   3
ATOM      3  C   UNL     1      14.520  -9.882   1.138  1.00  0.00    -0.025 C 
ATOM      4  C   UNL     1      13.625  -8.993   1.602  1.00  0.00     0.020 C 
BRANCH   4   5
ATOM      5  C   UNL     1      12.929  -7.935   0.839  1.00  0.00     0.064 C 
ATOM      6  O   UNL     1      12.031  -8.194  -0.004  1.00  0.00    -0.545 OA
ATOM      7  O   UNL     1      13.301  -6.613   1.038  1.00  0.00    -0.545 OA
ENDBRANCH   4   5
ENDBRANCH   2   3
ENDBRANCH   1   2
BRANCH   1   8
ATOM      8  C   UNL     1      14.071 -12.319  -0.870  1.00  0.00     0.000 C 
BRANCH   8   9
ATOM      9  C   UNL     1      12.713 -12.875  -0.406  1.00  0.00    -0.000 C 
BRANCH   9  10
ATOM     10  C   UNL     1      11.671 -11.809  -0.024  1.00  0.00    -0.003 C 
ATOM     11  C   UNL     1      10.237 -12.336  -0.050  1.00  0.00     0.004 C 
ENDBRANCH   9  10
ENDBRANCH   8   9
ENDBRANCH   1   8
TORSDOF 6
ENDMDL
MODEL 6
REMARK VINA RESULT:    -3.472     11.395     14.145
REMARK INTER + INTRA:          -5.277
REMARK INTER:                  -4.970
REMARK INTRA:                  -0.307
REMARK UNBOUND:                -0.587
REMARK SMILES CCCCCCC=CC(=O)[O-]
REMARK SMILES IDX 5 1 6 2 7 3 8 4 9 5 10 6 11 7 4 8 3 9 2 10 1 11
REMARK H PARENT
REMARK Flexibility Score: inf
ROOT
ATOM      1  C   UNL     1       1.759 -14.000  -6.152  1.00  0.00     0.004 C 
ENDROOT
BRANCH   1   2
ATOM      2  C   UNL     1       1.426 -12.785  -5.274  1.00  0.00     0.027 C 
BRANCH   2   3
ATOM      3  C   UNL     1       0.171 -12.085  -5.735  1.00  0.00    -0.025 C 
ATOM      4  C   UNL     1      -0.752 -11.491  -4.961  1.00  0.00     0.020 C 
BRANCH   4   5
ATOM      5  C   UNL     1      -0.765 -11.397  -3.485  1.00  0.00     0.064 C 
ATOM      6  O   UNL     1      -0.294 -10.406  -2.870  1.00  0.00    -0.545 OA
ATOM      7  O   UNL     1      -1.288 -12.455  -2.754  1.00  0.00    -0.545 OA
ENDBRANCH   4   5
ENDBRANCH   2   3
ENDBRANCH   1   2
BRANCH   1   8
ATOM      8  C   UNL     1       1.294 -13.825  -7.606  1.00  0.00     0.000 C 
BRANCH   8   9
ATOM      9  C   UNL     1       2.438 -13.989  -8.624  1.00  0.00    -0.000 C 
BRANCH   9  10
ATOM     10  C   UNL     1       2.263 -13.194  -9.930  1.00  0.00    -0.003 C 
ATOM     11  C   UNL     1       3.592 -12.810 -10.579  1.00  0.00     0.004 C 
ENDBRANCH   9  10
ENDBRANCH   8   9
ENDBRANCH   1   8
TORSDOF 6
ENDMDL
MODEL 7
REMARK VINA RESULT:    -3.435      2.993      4.826
REMARK INTER + INTRA:          -5.226
REMARK INTER:                  -4.831
REMARK INTRA:                  -0.395
REMARK UNBOUND:                -0.587
REMARK SMILES CCCCCCC=CC(=O)[O-]
REMARK SMILES IDX 5 1 6 2 7 3 8 4 9 5 10 6 11 7 4 8 3 9 2 10 1 11
REMARK H PARENT
REMARK Flexibility Score: inf
ROOT
ATOM      1  C   UNL     1       3.138  -7.287   6.731  1.00  0.00     0.004 C 
ENDROOT
BRANCH   1   2
ATOM      2  C   UNL     1       4.408  -6.482   7.041  1.00  0.00     0.027 C 
BRANCH   2   3
ATOM      3  C   UNL     1       5.654  -7.192   6.573  1.00  0.00    -0.025 C 
ATOM      4  C   UNL     1       6.905  -6.702   6.558  1.00  0.00     0.020 C 
BRANCH   4   5
ATOM      5  C   UNL     1       7.350  -5.356   6.979  1.00  0.00     0.064 C 
ATOM      6  O   UNL     1       8.244  -5.185   7.847  1.00  0.00    -0.545 OA
ATOM      7  O   UNL     1       6.737  -4.244   6.418  1.00  0.00    -0.545 OA
ENDBRANCH   4   5
ENDBRANCH   2   3
ENDBRANCH   1   2
BRANCH   1   8
ATOM      8  C   UNL     1       3.433  -8.765   6.428  1.00  0.00     0.000 C 
BRANCH   8   9
ATOM      9  C   UNL     1       2.439  -9.381   5.428  1.00  0.00    -0.000 C 
BRANCH   9  10
ATOM     10  C   UNL     1       2.721  -9.059   3.949  1.00  0.00    -0.003 C 
ATOM     11  C   UNL     1       4.196  -8.773   3.670  1.00  0.00     0.004 C 
ENDBRANCH   9  10
ENDBRANCH   8   9
ENDBRANCH   1   8
TORSDOF 6
ENDMDL
MODEL 8
REMARK VINA RESULT:    -3.353      1.400      2.697
REMARK INTER + INTRA:          -5.115
REMARK INTER:                  -4.608
REMARK INTRA:                  -0.507
REMARK UNBOUND:                -0.587
REMARK SMILES CCCCCCC=CC(=O)[O-]
REMARK SMILES IDX 5 1 6 2 7 3 8 4 9 5 10 6 11 7 4 8 3 9 2 10 1 11
REMARK H PARENT
REMARK Flexibility Score: inf
ROOT
ATOM      1  C   UNL     1       5.824  -8.236   6.859  1.00  0.00     0.004 C 
ENDROOT
BRANCH   1   2
ATOM      2  C   UNL     1       4.738  -9.320   6.878  1.00  0.00     0.027 C 
BRANCH   2   3
ATOM      3  C   UNL     1       3.380  -8.764   6.527  1.00  0.00    -0.025 C 
ATOM      4  C   UNL     1       2.887  -8.557   5.295  1.00  0.00     0.020 C 
BRANCH   4   5
ATOM      5  C   UNL     1       3.559  -8.809   4.002  1.00  0.00     0.064 C 
ATOM      6  O   UNL     1       3.230  -9.759   3.247  1.00  0.00    -0.545 OA
ATOM      7  O   UNL     1       4.609  -7.983   3.624  1.00  0.00    -0.545 OA
ENDBRANCH   4   5
ENDBRANCH   2   3
ENDBRANCH   1   2
BRANCH   1   8
ATOM      8  C   UNL     1       5.656  -7.209   7.989  1.00  0.00     0.000 C 
BRANCH   8   9
ATOM      9  C   UNL     1       5.468  -5.772   7.470  1.00  0.00    -0.000 C 
BRANCH   9  10
ATOM     10  C   UNL     1       4.003  -5.326   7.311  1.00  0.00    -0.003 C 
ATOM     11  C   UNL     1       3.842  -3.808   7.263  1.00  0.00     0.004 C 
ENDBRANCH   9  10
ENDBRANCH   8   9
ENDBRANCH   1   8
TORSDOF 6
ENDMDL
MODEL 9
REMARK VINA RESULT:    -3.315     11.321     13.358
REMARK INTER + INTRA:          -5.064
REMARK INTER:                  -4.402
REMARK INTRA:                  -0.662
REMARK UNBOUND:                -0.587
REMARK SMILES CCCCCCC=CC(=O)[O-]
REMARK SMILES IDX 5 1 6 2 7 3 8 4 9 5 10 6 11 7 4 8 3 9 2 10 1 11
REMARK H PARENT
REMARK Flexibility Score: inf
ROOT
ATOM      1  C   UNL     1      -1.978 -11.833  -7.269  1.00  0.00     0.004 C 
ENDROOT
BRANCH   1   2
ATOM      2  C   UNL     1      -1.483 -10.770  -6.278  1.00  0.00     0.027 C 
BRANCH   2   3
ATOM      3  C   UNL     1      -2.522 -10.448  -5.232  1.00  0.00    -0.025 C 
ATOM      4  C   UNL     1      -2.416 -10.629  -3.905  1.00  0.00     0.020 C 
BRANCH   4   5
ATOM      5  C   UNL     1      -1.269 -11.195  -3.163  1.00  0.00     0.064 C 
ATOM      6  O   UNL     1      -0.298 -10.490  -2.785  1.00  0.00    -0.545 OA
ATOM      7  O   UNL     1      -1.251 -12.558  -2.902  1.00  0.00    -0.545 OA
ENDBRANCH   4   5
ENDBRANCH   2   3
ENDBRANCH   1   2
BRANCH   1   8
ATOM      8  C   UNL     1      -0.922 -12.912  -7.555  1.00  0.00     0.000 C 
BRANCH   8   9
ATOM      9  C   UNL     1      -0.281 -13.477  -6.275  1.00  0.00    -0.000 C 
BRANCH   9  10
ATOM     10  C   UNL     1       1.240 -13.270  -6.164  1.00  0.00    -0.003 C 
ATOM     11  C   UNL     1       1.683 -12.822  -4.772  1.00  0.00     0.004 C 
ENDBRANCH   9  10
ENDBRANCH   8   9
ENDBRANCH   1   8
TORSDOF 6
ENDMDL
