MODEL 1
REMARK VINA RESULT:    -4.679      0.000      0.000
REMARK INTER + INTRA:          -5.439
REMARK INTER:                  -5.363
REMARK INTRA:                  -0.075
REMARK UNBOUND:                -0.075
REMARK SMILES COc1cc(C(=O)[O-])ccc1O
REMARK SMILES IDX 5 1 9 2 4 3 10 4 3 5 11 6 6 7 7 8 8 9 2 10 1 11 12 12
REMARK H PARENT 12 13
REMARK Flexibility Score: inf
ROOT
ATOM      1  C   UNL     1       0.136   6.552   4.593  1.00  0.00     0.001 A 
ATOM      2  C   UNL     1       1.013   6.466   5.686  1.00  0.00     0.014 A 
ATOM      3  C   UNL     1      -1.223   6.244   4.782  1.00  0.00     0.060 A 
ATOM      4  C   UNL     1       0.543   6.080   6.942  1.00  0.00     0.051 A 
ATOM      5  C   UNL     1      -1.704   5.853   6.049  1.00  0.00     0.161 A 
ATOM      6  C   UNL     1      -0.807   5.773   7.129  1.00  0.00     0.157 A 
ENDROOT
BRANCH   1   7
ATOM      7  C   UNL     1       0.631   6.961   3.260  1.00  0.00     0.072 C 
ATOM      8  O   UNL     1       0.946   8.160   3.034  1.00  0.00    -0.545 OA
ATOM      9  O   UNL     1       0.756   6.028   2.236  1.00  0.00    -0.545 OA
ENDBRANCH   1   7
BRANCH   5  10
ATOM     10  O   UNL     1      -3.055   5.539   6.267  1.00  0.00    -0.493 OA
ATOM     11  C   UNL     1      -4.141   6.065   5.510  1.00  0.00     0.278 C 
ENDBRANCH   5  10
BRANCH   6  12
ATOM     12  O   UNL     1      -1.240   5.392   8.398  1.00  0.00    -0.504 OA
ATOM     13  H   UNL     1      -2.195   5.107   8.581  1.00  0.00     0.293 HD
ENDBRANCH   6  12
TORSDOF 3
ENDMDL
MODEL 2
REMARK VINA RESULT:    -4.649     14.995     15.962
REMARK INTER + INTRA:          -5.404
REMARK INTER:                  -5.311
REMARK INTRA:                  -0.093
REMARK UNBOUND:                -0.075
REMARK SMILES COc1cc(C(=O)[O-])ccc1O
REMARK SMILES IDX 5 1 9 2 4 3 10 4 3 5 11 6 6 7 7 8 8 9 2 10 1 11 12 12
REMARK H PARENT 12 13
REMARK Flexibility Score: inf
ROOT
ATOM      1  C   UNL     1      -3.482  -8.228   0.746  1.00  0.00     0.001 A 
ATOM      2  C   UNL     1      -2.134  -8.276   1.135  1.00  0.00     0.014 A 
ATOM      3  C   UNL     1      -3.807  -7.731  -0.529  1.00  0.00     0.060 A 
ATOM      4  C   UNL     1      -1.131  -7.838   0.270  1.00  0.00     0.051 A 
ATOM      5  C   UNL     1      -2.798  -7.286  -1.408  1.00  0.00     0.161 A 
ATOM      6  C   UNL     1      -1.455  -7.343  -0.996  1.00  0.00     0.157 A 
ENDROOT
BRANCH   1   7
ATOM      7  C   UNL     1      -4.548  -8.693   1.661  1.00  0.00     0.072 C 
ATOM      8  O   UNL     1      -4.682  -9.919   1.917  1.00  0.00    -0.545 OA
ATOM      9  O   UNL     1      -5.418  -7.783   2.252  1.00  0.00    -0.545 OA
ENDBRANCH   1   7
BRANCH   5  10
ATOM     10  O   UNL     1      -3.093  -6.785  -2.686  1.00  0.00    -0.493 OA
ATOM     11  C   UNL     1      -3.592  -7.567  -3.767  1.00  0.00     0.278 C 
ENDBRANCH   5  10
BRANCH   6  12
ATOM     12  O   UNL     1      -0.425  -6.914  -1.834  1.00  0.00    -0.504 OA
ATOM     13  H   UNL     1      -0.240  -7.350  -2.729  1.00  0.00     0.293 HD
ENDBRANCH   6  12
TORSDOF 3
ENDMDL
MODEL 3
REMARK VINA RESULT:    -4.529      1.529      3.151
REMARK INTER + INTRA:          -5.266
REMARK INTER:                  -5.190
REMARK INTRA:                  -0.076
REMARK UNBOUND:                -0.075
REMARK SMILES COc1cc(C(=O)[O-])ccc1O
REMARK SMILES IDX 5 1 9 2 4 3 10 4 3 5 11 6 6 7 7 8 8 9 2 10 1 11 12 12
REMARK H PARENT 12 13
REMARK Flexibility Score: inf
ROOT
ATOM      1  C   UNL     1      -1.712   6.614   3.173  1.00  0.00     0.001 A 
ATOM      2  C   UNL     1      -3.007   7.000   2.793  1.00  0.00     0.014 A 
ATOM      3  C   UNL     1      -1.504   6.101   4.466  1.00  0.00     0.060 A 
ATOM      4  C   UNL     1      -4.073   6.875   3.685  1.00  0.00     0.051 A 
ATOM      5  C   UNL     1      -2.577   5.973   5.372  1.00  0.00     0.161 A 
ATOM      6  C   UNL     1      -3.866   6.366   4.969  1.00  0.00     0.157 A 
ENDROOT
BRANCH   1   7
ATOM      7  C   UNL     1      -0.580   6.745   2.229  1.00  0.00     0.072 C 
ATOM      8  O   UNL     1       0.262   7.673   2.364  1.00  0.00    -0.545 OA
ATOM      9  O   UNL     1      -0.427   5.846   1.179  1.00  0.00    -0.545 OA
ENDBRANCH   1   7
BRANCH   5  10
ATOM     10  O   UNL     1      -2.398   5.465   6.668  1.00  0.00    -0.493 OA
ATOM     11  C   UNL     1      -1.214   5.623   7.444  1.00  0.00     0.278 C 
ENDBRANCH   5  10
BRANCH   6  12
ATOM     12  O   UNL     1      -4.955   6.256   5.833  1.00  0.00    -0.504 OA
ATOM     13  H   UNL     1      -5.911   6.239   5.498  1.00  0.00     0.293 HD
ENDBRANCH   6  12
TORSDOF 3
ENDMDL
MODEL 4
REMARK VINA RESULT:    -4.520      1.297      4.343
REMARK INTER + INTRA:          -5.256
REMARK INTER:                  -5.174
REMARK INTRA:                  -0.082
REMARK UNBOUND:                -0.075
REMARK SMILES COc1cc(C(=O)[O-])ccc1O
REMARK SMILES IDX 5 1 9 2 4 3 10 4 3 5 11 6 6 7 7 8 8 9 2 10 1 11 12 12
REMARK H PARENT 12 13
REMARK Flexibility Score: inf
ROOT
ATOM      1  C   UNL     1      -0.166   5.953   6.283  1.00  0.00     0.001 A 
ATOM      2  C   UNL     1       1.149   5.925   6.773  1.00  0.00     0.014 A 
ATOM      3  C   UNL     1      -0.386   6.285   4.934  1.00  0.00     0.060 A 
ATOM      4  C   UNL     1       2.223   6.221   5.933  1.00  0.00     0.051 A 
ATOM      5  C   UNL     1       0.695   6.585   4.080  1.00  0.00     0.161 A 
ATOM      6  C   UNL     1       2.004   6.551   4.592  1.00  0.00     0.157 A 
ENDROOT
BRANCH   1   7
ATOM      7  C   UNL     1      -1.307   5.640   7.171  1.00  0.00     0.072 C 
ATOM      8  O   UNL     1      -2.448   5.407   6.690  1.00  0.00    -0.545 OA
ATOM      9  O   UNL     1      -1.139   5.598   8.551  1.00  0.00    -0.545 OA
ENDBRANCH   1   7
BRANCH   5  10
ATOM     10  O   UNL     1       0.505   6.920   2.730  1.00  0.00    -0.493 OA
ATOM     11  C   UNL     1      -0.590   6.480   1.933  1.00  0.00     0.278 C 
ENDBRANCH   5  10
BRANCH   6  12
ATOM     12  O   UNL     1       3.102   6.840   3.783  1.00  0.00    -0.504 OA
ATOM     13  H   UNL     1       3.946   7.265   4.148  1.00  0.00     0.293 HD
ENDBRANCH   6  12
TORSDOF 3
ENDMDL
MODEL 5
REMARK VINA RESULT:    -4.432     15.382     16.440
REMARK INTER + INTRA:          -5.156
REMARK INTER:                  -5.082
REMARK INTRA:                  -0.073
REMARK UNBOUND:                -0.075
REMARK SMILES COc1cc(C(=O)[O-])ccc1O
REMARK SMILES IDX 5 1 9 2 4 3 10 4 3 5 11 6 6 7 7 8 8 9 2 10 1 11 12 12
REMARK H PARENT 12 13
REMARK Flexibility Score: inf
ROOT
ATOM      1  C   UNL     1      -4.336  -7.880  -0.362  1.00  0.00     0.001 A 
ATOM      2  C   UNL     1      -2.981  -7.520  -0.449  1.00  0.00     0.014 A 
ATOM      3  C   UNL     1      -5.124  -7.859  -1.527  1.00  0.00     0.060 A 
ATOM      4  C   UNL     1      -2.424  -7.148  -1.673  1.00  0.00     0.051 A 
ATOM      5  C   UNL     1      -4.567  -7.483  -2.768  1.00  0.00     0.161 A 
ATOM      6  C   UNL     1      -3.208  -7.127  -2.830  1.00  0.00     0.157 A 
ENDROOT
BRANCH   1   7
ATOM      7  C   UNL     1      -4.929  -8.275   0.934  1.00  0.00     0.072 C 
ATOM      8  O   UNL     1      -5.506  -7.422   1.660  1.00  0.00    -0.545 OA
ATOM      9  O   UNL     1      -4.859  -9.593   1.371  1.00  0.00    -0.545 OA
ENDBRANCH   1   7
BRANCH   5  10
ATOM     10  O   UNL     1      -5.329  -7.453  -3.946  1.00  0.00    -0.493 OA
ATOM     11  C   UNL     1      -6.752  -7.499  -3.991  1.00  0.00     0.278 C 
ENDBRANCH   5  10
BRANCH   6  12
ATOM     12  O   UNL     1      -2.617  -6.750  -4.036  1.00  0.00    -0.504 OA
ATOM     13  H   UNL     1      -1.764  -7.177  -4.376  1.00  0.00     0.293 HD
ENDBRANCH   6  12
TORSDOF 3
ENDMDL
MODEL 6
REMARK VINA RESULT:    -4.408     14.951     15.952
REMARK INTER + INTRA:          -5.128
REMARK INTER:                  -5.041
REMARK INTRA:                  -0.087
REMARK UNBOUND:                -0.075
REMARK SMILES COc1cc(C(=O)[O-])ccc1O
REMARK SMILES IDX 5 1 9 2 4 3 10 4 3 5 11 6 6 7 7 8 8 9 2 10 1 11 12 12
REMARK H PARENT 12 13
REMARK Flexibility Score: inf
ROOT
ATOM      1  C   UNL     1      -3.468  -7.924  -0.181  1.00  0.00     0.001 A 
ATOM      2  C   UNL     1      -3.502  -7.599  -1.546  1.00  0.00     0.014 A 
ATOM      3  C   UNL     1      -2.236  -7.900   0.497  1.00  0.00     0.060 A 
ATOM      4  C   UNL     1      -2.330  -7.257  -2.221  1.00  0.00     0.051 A 
ATOM      5  C   UNL     1      -1.048  -7.555  -0.180  1.00  0.00     0.161 A 
ATOM      6  C   UNL     1      -1.106  -7.234  -1.548  1.00  0.00     0.157 A 
ENDROOT
BRANCH   1   7
ATOM      7  C   UNL     1      -4.710  -8.287   0.538  1.00  0.00     0.072 C 
ATOM      8  O   UNL     1      -5.271  -7.459   1.305  1.00  0.00    -0.545 OA
ATOM      9  O   UNL     1      -5.276  -9.547   0.379  1.00  0.00    -0.545 OA
ENDBRANCH   1   7
BRANCH   5  10
ATOM     10  O   UNL     1       0.196  -7.523   0.471  1.00  0.00    -0.493 OA
ATOM     11  C   UNL     1       1.073  -8.638   0.597  1.00  0.00     0.278 C 
ENDBRANCH   5  10
BRANCH   6  12
ATOM     12  O   UNL     1       0.045  -6.887  -2.256  1.00  0.00    -0.504 OA
ATOM     13  H   UNL     1       0.173  -7.129  -3.230  1.00  0.00     0.293 HD
ENDBRANCH   6  12
TORSDOF 3
ENDMDL
MODEL 7
REMARK VINA RESULT:    -4.404      3.906      5.046
REMARK INTER + INTRA:          -5.123
REMARK INTER:                  -5.045
REMARK INTRA:                  -0.079
REMARK UNBOUND:                -0.075
REMARK SMILES COc1cc(C(=O)[O-])ccc1O
REMARK SMILES IDX 5 1 9 2 4 3 10 4 3 5 11 6 6 7 7 8 8 9 2 10 1 11 12 12
REMARK H PARENT 12 13
REMARK Flexibility Score: inf
ROOT
ATOM      1  C   UNL     1      -2.597   6.831   1.820  1.00  0.00     0.001 A 
ATOM      2  C   UNL     1      -2.723   6.826   3.219  1.00  0.00     0.014 A 
ATOM      3  C   UNL     1      -3.757   6.732   1.030  1.00  0.00     0.060 A 
ATOM      4  C   UNL     1      -3.981   6.727   3.816  1.00  0.00     0.051 A 
ATOM      5  C   UNL     1      -5.030   6.630   1.627  1.00  0.00     0.161 A 
ATOM      6  C   UNL     1      -5.132   6.628   3.030  1.00  0.00     0.157 A 
ENDROOT
BRANCH   1   7
ATOM      7  C   UNL     1      -1.266   6.936   1.184  1.00  0.00     0.072 C 
ATOM      8  O   UNL     1      -0.975   7.933   0.470  1.00  0.00    -0.545 OA
ATOM      9  O   UNL     1      -0.315   5.938   1.364  1.00  0.00    -0.545 OA
ENDBRANCH   1   7
BRANCH   5  10
ATOM     10  O   UNL     1      -6.204   6.530   0.864  1.00  0.00    -0.493 OA
ATOM     11  C   UNL     1      -6.439   7.230  -0.354  1.00  0.00     0.278 C 
ENDBRANCH   5  10
BRANCH   6  12
ATOM     12  O   UNL     1      -6.371   6.530   3.662  1.00  0.00    -0.504 OA
ATOM     13  H   UNL     1      -6.498   6.018   4.526  1.00  0.00     0.293 HD
ENDBRANCH   6  12
TORSDOF 3
ENDMDL
MODEL 8
REMARK VINA RESULT:    -4.343      2.017      5.066
REMARK INTER + INTRA:          -5.053
REMARK INTER:                  -4.963
REMARK INTRA:                  -0.089
REMARK UNBOUND:                -0.075
REMARK SMILES COc1cc(C(=O)[O-])ccc1O
REMARK SMILES IDX 5 1 9 2 4 3 10 4 3 5 11 6 6 7 7 8 8 9 2 10 1 11 12 12
REMARK H PARENT 12 13
REMARK Flexibility Score: inf
ROOT
ATOM      1  C   UNL     1      -0.176   5.976   6.247  1.00  0.00     0.001 A 
ATOM      2  C   UNL     1      -0.369   6.379   4.916  1.00  0.00     0.014 A 
ATOM      3  C   UNL     1       1.133   5.904   6.755  1.00  0.00     0.060 A 
ATOM      4  C   UNL     1       0.722   6.703   4.109  1.00  0.00     0.051 A 
ATOM      5  C   UNL     1       2.241   6.229   5.945  1.00  0.00     0.161 A 
ATOM      6  C   UNL     1       2.023   6.630   4.614  1.00  0.00     0.157 A 
ENDROOT
BRANCH   1   7
ATOM      7  C   UNL     1      -1.331   5.633   7.106  1.00  0.00     0.072 C 
ATOM      8  O   UNL     1      -2.459   5.397   6.596  1.00  0.00    -0.545 OA
ATOM      9  O   UNL     1      -1.189   5.565   8.487  1.00  0.00    -0.545 OA
ENDBRANCH   1   7
BRANCH   5  10
ATOM     10  O   UNL     1       3.558   6.165   6.425  1.00  0.00    -0.493 OA
ATOM     11  C   UNL     1       4.009   6.768   7.634  1.00  0.00     0.278 C 
ENDBRANCH   5  10
BRANCH   6  12
ATOM     12  O   UNL     1       3.089   6.961   3.778  1.00  0.00    -0.504 OA
ATOM     13  H   UNL     1       3.333   6.406   2.968  1.00  0.00     0.293 HD
ENDBRANCH   6  12
TORSDOF 3
ENDMDL
MODEL 9
REMARK VINA RESULT:    -4.274     15.020     15.731
REMARK INTER + INTRA:          -4.974
REMARK INTER:                  -4.875
REMARK INTRA:                  -0.100
REMARK UNBOUND:                -0.075
REMARK SMILES COc1cc(C(=O)[O-])ccc1O
REMARK SMILES IDX 5 1 9 2 4 3 10 4 3 5 11 6 6 7 7 8 8 9 2 10 1 11 12 12
REMARK H PARENT 12 13
REMARK Flexibility Score: inf
ROOT
ATOM      1  C   UNL     1      -3.338  -7.914   0.472  1.00  0.00     0.001 A 
ATOM      2  C   UNL     1      -2.600  -8.320   1.596  1.00  0.00     0.014 A 
ATOM      3  C   UNL     1      -2.651  -7.515  -0.688  1.00  0.00     0.060 A 
ATOM      4  C   UNL     1      -1.205  -8.329   1.561  1.00  0.00     0.051 A 
ATOM      5  C   UNL     1      -1.241  -7.521  -0.730  1.00  0.00     0.161 A 
ATOM      6  C   UNL     1      -0.523  -7.932   0.408  1.00  0.00     0.157 A 
ENDROOT
BRANCH   1   7
ATOM      7  C   UNL     1      -4.817  -7.905   0.506  1.00  0.00     0.072 C 
ATOM      8  O   UNL     1      -5.431  -7.513   1.534  1.00  0.00    -0.545 OA
ATOM      9  O   UNL     1      -5.552  -8.327  -0.596  1.00  0.00    -0.545 OA
ENDBRANCH   1   7
BRANCH   5  10
ATOM     10  O   UNL     1      -0.530  -7.128  -1.874  1.00  0.00    -0.493 OA
ATOM     11  C   UNL     1      -0.340  -7.941  -3.028  1.00  0.00     0.278 C 
ENDBRANCH   5  10
BRANCH   6  12
ATOM     12  O   UNL     1       0.871  -7.954   0.410  1.00  0.00    -0.504 OA
ATOM     13  H   UNL     1       1.409  -8.235  -0.401  1.00  0.00     0.293 HD
ENDBRANCH   6  12
TORSDOF 3
ENDMDL
