MODEL 1
REMARK VINA RESULT:    -7.049      0.000      0.000
REMARK INTER + INTRA:         -12.311
REMARK INTER:                 -10.964
REMARK INTRA:                  -1.347
REMARK UNBOUND:                -1.347
REMARK SMILES C[C@]12C[C@]3(O)O[C@H](O1)[C@@]1(COC(=O)c4ccccc4)[C@@H]3C[C@]12O[C@H]1O[C@@H](CO)[C@H](O)[C@H](O)[C@@H]1O
REMARK SMILES IDX 1 1 2 2 3 3 4 4 20 5 21 6 22 7 9 8 7 9 8 10 6 11 23 12 24 13
REMARK SMILES IDX 33 14 25 15 31 16 26 17 29 18 34 19 32 21 27 23 28 24 30 26
REMARK SMILES IDX 5 28 10 30 11 31 12 32 13 33 14 34 15 35 19 36 16 37 18 38
REMARK SMILES IDX 17 39
REMARK H PARENT 34 20 32 22 28 25 30 27 5 29
REMARK Flexibility Score: inf
ROOT
ATOM      1  C   UNL     1      31.169   0.137 103.312  1.00  0.00     0.046 C 
ATOM      2  C   UNL     1      29.741   0.606 103.603  1.00  0.00     0.104 C 
ATOM      3  C   UNL     1      28.894  -0.546 104.253  1.00  0.00     0.104 C 
ATOM      4  C   UNL     1      27.517   0.137 104.541  1.00  0.00     0.175 C 
ATOM      5  C   UNL     1      27.731   1.501 105.272  1.00  0.00     0.070 C 
ATOM      6  C   UNL     1      29.139   1.641 105.894  1.00  0.00     0.050 C 
ATOM      7  C   UNL     1      29.640   1.924 104.473  1.00  0.00     0.115 C 
ATOM      8  C   UNL     1      28.197   2.337 104.072  1.00  0.00     0.096 C 
ATOM      9  C   UNL     1      27.857   1.517 102.835  1.00  0.00     0.267 C 
ATOM     10  O   UNL     1      29.075   0.934 102.399  1.00  0.00    -0.342 OA
ATOM     11  O   UNL     1      26.987   0.491 103.279  1.00  0.00    -0.320 OA
ENDROOT
BRANCH   7  12
ATOM     12  O   UNL     1      30.836   2.709 104.378  1.00  0.00    -0.339 OA
BRANCH  12  13
ATOM     13  C   UNL     1      30.898   3.714 103.386  1.00  0.00     0.282 C 
ATOM     14  C   UNL     1      32.264   3.647 102.642  1.00  0.00     0.202 C 
ATOM     15  O   UNL     1      30.710   4.994 103.974  1.00  0.00    -0.341 OA
ATOM     16  C   UNL     1      33.402   4.403 103.385  1.00  0.00     0.179 C 
ATOM     17  C   UNL     1      31.662   5.334 104.984  1.00  0.00     0.178 C 
ATOM     18  C   UNL     1      33.034   4.608 104.863  1.00  0.00     0.177 C 
BRANCH  14  19
ATOM     19  O   UNL     1      32.135   4.107 101.317  1.00  0.00    -0.385 OA
ATOM     20  H   UNL     1      31.801   3.351 100.764  1.00  0.00     0.211 HD
ENDBRANCH  14  19
BRANCH  16  21
ATOM     21  O   UNL     1      33.657   5.655 102.789  1.00  0.00    -0.387 OA
ATOM     22  H   UNL     1      33.135   6.330 103.299  1.00  0.00     0.211 HD
ENDBRANCH  16  21
BRANCH  17  23
ATOM     23  C   UNL     1      31.029   5.147 106.372  1.00  0.00     0.191 C 
BRANCH  23  24
ATOM     24  O   UNL     1      31.630   4.062 107.031  1.00  0.00    -0.394 OA
ATOM     25  H   UNL     1      32.091   3.532 106.329  1.00  0.00     0.210 HD
ENDBRANCH  23  24
ENDBRANCH  17  23
BRANCH  18  26
ATOM     26  O   UNL     1      34.052   5.297 105.551  1.00  0.00    -0.387 OA
ATOM     27  H   UNL     1      33.628   5.943 106.176  1.00  0.00     0.211 HD
ENDBRANCH  18  26
ENDBRANCH  12  13
ENDBRANCH   7  12
BRANCH   4  28
ATOM     28  O   UNL     1      26.633  -0.710 105.225  1.00  0.00    -0.365 OA
ATOM     29  H   UNL     1      26.517  -0.328 106.135  1.00  0.00     0.214 HD
ENDBRANCH   4  28
BRANCH   8  30
ATOM     30  C   UNL     1      27.582   3.752 104.109  1.00  0.00     0.249 C 
BRANCH  30  31
ATOM     31  O   UNL     1      26.344   3.752 103.404  1.00  0.00    -0.461 OA
BRANCH  31  32
ATOM     32  C   UNL     1      25.339   4.692 103.643  1.00  0.00     0.338 C 
ATOM     33  O   UNL     1      25.467   5.527 104.579  1.00  0.00    -0.246 OA
BRANCH  32  34
ATOM     34  C   UNL     1      24.124   4.704 102.800  1.00  0.00     0.060 A 
ATOM     35  C   UNL     1      23.011   3.908 103.135  1.00  0.00     0.015 A 
ATOM     36  C   UNL     1      24.061   5.528 101.661  1.00  0.00     0.015 A 
ATOM     37  C   UNL     1      21.859   3.937 102.340  1.00  0.00     0.001 A 
ATOM     38  C   UNL     1      22.912   5.542 100.864  1.00  0.00     0.001 A 
ATOM     39  C   UNL     1      21.808   4.753 101.207  1.00  0.00     0.000 A 
ENDBRANCH  32  34
ENDBRANCH  31  32
ENDBRANCH  30  31
ENDBRANCH   8  30
TORSDOF 12
ENDMDL
MODEL 2
REMARK VINA RESULT:    -7.005      2.956      7.067
REMARK INTER + INTRA:         -12.242
REMARK INTER:                 -10.261
REMARK INTRA:                  -1.981
REMARK UNBOUND:                -1.347
REMARK SMILES C[C@]12C[C@]3(O)O[C@H](O1)[C@@]1(COC(=O)c4ccccc4)[C@@H]3C[C@]12O[C@H]1O[C@@H](CO)[C@H](O)[C@H](O)[C@@H]1O
REMARK SMILES IDX 1 1 2 2 3 3 4 4 20 5 21 6 22 7 9 8 7 9 8 10 6 11 23 12 24 13
REMARK SMILES IDX 33 14 25 15 31 16 26 17 29 18 34 19 32 21 27 23 28 24 30 26
REMARK SMILES IDX 5 28 10 30 11 31 12 32 13 33 14 34 15 35 19 36 16 37 18 38
REMARK SMILES IDX 17 39
REMARK H PARENT 34 20 32 22 28 25 30 27 5 29
REMARK Flexibility Score: inf
ROOT
ATOM      1  C   UNL     1      29.788   5.542 104.487  1.00  0.00     0.046 C 
ATOM      2  C   UNL     1      31.199   4.979 104.680  1.00  0.00     0.104 C 
ATOM      3  C   UNL     1      31.801   5.435 106.056  1.00  0.00     0.104 C 
ATOM      4  C   UNL     1      33.186   4.710 106.103  1.00  0.00     0.175 C 
ATOM      5  C   UNL     1      33.018   3.198 105.750  1.00  0.00     0.070 C 
ATOM      6  C   UNL     1      31.557   2.708 105.862  1.00  0.00     0.050 C 
ATOM      7  C   UNL     1      31.315   3.408 104.520  1.00  0.00     0.115 C 
ATOM      8  C   UNL     1      32.839   3.332 104.232  1.00  0.00     0.096 C 
ATOM      9  C   UNL     1      33.269   4.751 103.885  1.00  0.00     0.267 C 
ATOM     10  O   UNL     1      32.075   5.492 103.694  1.00  0.00    -0.342 OA
ATOM     11  O   UNL     1      33.939   5.243 105.031  1.00  0.00    -0.320 OA
ENDROOT
BRANCH   7  12
ATOM     12  O   UNL     1      30.243   2.882 103.726  1.00  0.00    -0.339 OA
BRANCH  12  13
ATOM     13  C   UNL     1      30.394   1.589 103.174  1.00  0.00     0.282 C 
ATOM     14  C   UNL     1      29.921   1.582 101.691  1.00  0.00     0.202 C 
ATOM     15  O   UNL     1      29.659   0.642 103.939  1.00  0.00    -0.341 OA
ATOM     16  C   UNL     1      28.383   1.395 101.542  1.00  0.00     0.179 C 
ATOM     17  C   UNL     1      28.258   0.905 104.031  1.00  0.00     0.178 C 
ATOM     18  C   UNL     1      27.670   1.742 102.857  1.00  0.00     0.177 C 
BRANCH  14  19
ATOM     19  O   UNL     1      30.621   0.614 100.947  1.00  0.00    -0.385 OA
ATOM     20  H   UNL     1      31.038   1.071 100.169  1.00  0.00     0.211 HD
ENDBRANCH  14  19
BRANCH  16  21
ATOM     21  O   UNL     1      28.064   0.073 101.172  1.00  0.00    -0.387 OA
ATOM     22  H   UNL     1      28.353  -0.515 101.920  1.00  0.00     0.211 HD
ENDBRANCH  16  21
BRANCH  17  23
ATOM     23  C   UNL     1      27.939   1.524 105.400  1.00  0.00     0.191 C 
BRANCH  23  24
ATOM     24  O   UNL     1      27.573   2.871 105.245  1.00  0.00    -0.394 OA
ATOM     25  H   UNL     1      27.853   3.130 104.328  1.00  0.00     0.210 HD
ENDBRANCH  23  24
ENDBRANCH  17  23
BRANCH  18  26
ATOM     26  O   UNL     1      26.276   1.573 102.741  1.00  0.00    -0.387 OA
ATOM     27  H   UNL     1      25.992   0.864 103.377  1.00  0.00     0.211 HD
ENDBRANCH  18  26
ENDBRANCH  12  13
ENDBRANCH   7  12
BRANCH   4  28
ATOM     28  O   UNL     1      33.854   4.911 107.320  1.00  0.00    -0.365 OA
ATOM     29  H   UNL     1      34.810   5.068 107.099  1.00  0.00     0.214 HD
ENDBRANCH   4  28
BRANCH   8  30
ATOM     30  C   UNL     1      33.597   2.216 103.482  1.00  0.00     0.249 C 
BRANCH  30  31
ATOM     31  O   UNL     1      34.080   2.720 102.240  1.00  0.00    -0.461 OA
BRANCH  31  32
ATOM     32  C   UNL     1      33.577   2.298 101.007  1.00  0.00     0.338 C 
ATOM     33  O   UNL     1      33.608   1.076 100.699  1.00  0.00    -0.246 OA
BRANCH  32  34
ATOM     34  C   UNL     1      33.013   3.287 100.064  1.00  0.00     0.060 A 
ATOM     35  C   UNL     1      32.395   2.868  98.869  1.00  0.00     0.015 A 
ATOM     36  C   UNL     1      33.069   4.661 100.362  1.00  0.00     0.015 A 
ATOM     37  C   UNL     1      31.849   3.810  97.990  1.00  0.00     0.001 A 
ATOM     38  C   UNL     1      32.533   5.598  99.473  1.00  0.00     0.001 A 
ATOM     39  C   UNL     1      31.916   5.173  98.290  1.00  0.00     0.000 A 
ENDBRANCH  32  34
ENDBRANCH  31  32
ENDBRANCH  30  31
ENDBRANCH   8  30
TORSDOF 12
ENDMDL
MODEL 3
REMARK VINA RESULT:    -6.995      1.303      2.350
REMARK INTER + INTRA:         -12.227
REMARK INTER:                 -11.218
REMARK INTRA:                  -1.010
REMARK UNBOUND:                -1.347
REMARK SMILES C[C@]12C[C@]3(O)O[C@H](O1)[C@@]1(COC(=O)c4ccccc4)[C@@H]3C[C@]12O[C@H]1O[C@@H](CO)[C@H](O)[C@H](O)[C@@H]1O
REMARK SMILES IDX 1 1 2 2 3 3 4 4 20 5 21 6 22 7 9 8 7 9 8 10 6 11 23 12 24 13
REMARK SMILES IDX 33 14 25 15 31 16 26 17 29 18 34 19 32 21 27 23 28 24 30 26
REMARK SMILES IDX 5 28 10 30 11 31 12 32 13 33 14 34 15 35 19 36 16 37 18 38
REMARK SMILES IDX 17 39
REMARK H PARENT 34 20 32 22 28 25 30 27 5 29
REMARK Flexibility Score: inf
ROOT
ATOM      1  C   UNL     1      30.328  -0.090 101.683  1.00  0.00     0.046 C 
ATOM      2  C   UNL     1      28.969   0.339 102.243  1.00  0.00     0.104 C 
ATOM      3  C   UNL     1      28.172  -0.898 102.789  1.00  0.00     0.104 C 
ATOM      4  C   UNL     1      26.871  -0.259 103.377  1.00  0.00     0.175 C 
ATOM      5  C   UNL     1      27.231   0.949 104.300  1.00  0.00     0.070 C 
ATOM      6  C   UNL     1      28.712   0.956 104.740  1.00  0.00     0.050 C 
ATOM      7  C   UNL     1      29.032   1.482 103.336  1.00  0.00     0.115 C 
ATOM      8  C   UNL     1      27.566   1.980 103.213  1.00  0.00     0.096 C 
ATOM      9  C   UNL     1      27.037   1.399 101.909  1.00  0.00     0.267 C 
ATOM     10  O   UNL     1      28.164   0.887 101.216  1.00  0.00    -0.342 OA
ATOM     11  O   UNL     1      26.194   0.323 102.280  1.00  0.00    -0.320 OA
ENDROOT
BRANCH   7  12
ATOM     12  O   UNL     1      30.235   2.254 103.218  1.00  0.00    -0.339 OA
BRANCH  12  13
ATOM     13  C   UNL     1      30.836   2.738 104.403  1.00  0.00     0.282 C 
ATOM     14  C   UNL     1      30.464   4.233 104.618  1.00  0.00     0.202 C 
ATOM     15  O   UNL     1      32.247   2.577 104.337  1.00  0.00    -0.341 OA
ATOM     16  C   UNL     1      31.383   5.211 103.831  1.00  0.00     0.179 C 
ATOM     17  C   UNL     1      32.874   3.242 103.239  1.00  0.00     0.178 C 
ATOM     18  C   UNL     1      32.097   4.474 102.688  1.00  0.00     0.177 C 
BRANCH  14  19
ATOM     19  O   UNL     1      30.446   4.552 105.989  1.00  0.00    -0.385 OA
ATOM     20  H   UNL     1      31.061   5.321 106.131  1.00  0.00     0.211 HD
ENDBRANCH  14  19
BRANCH  16  21
ATOM     21  O   UNL     1      32.343   5.802 104.678  1.00  0.00    -0.387 OA
ATOM     22  H   UNL     1      32.021   6.719 104.884  1.00  0.00     0.211 HD
ENDBRANCH  16  21
BRANCH  17  23
ATOM     23  C   UNL     1      33.199   2.222 102.137  1.00  0.00     0.191 C 
BRANCH  23  24
ATOM     24  O   UNL     1      32.481   2.532 100.970  1.00  0.00    -0.394 OA
ATOM     25  H   UNL     1      31.721   1.895 100.936  1.00  0.00     0.210 HD
ENDBRANCH  23  24
ENDBRANCH  17  23
BRANCH  18  26
ATOM     26  O   UNL     1      32.939   5.344 101.967  1.00  0.00    -0.387 OA
ATOM     27  H   UNL     1      32.627   6.276 102.113  1.00  0.00     0.211 HD
ENDBRANCH  18  26
ENDBRANCH  12  13
ENDBRANCH   7  12
BRANCH   4  28
ATOM     28  O   UNL     1      26.052  -1.202 104.015  1.00  0.00    -0.365 OA
ATOM     29  H   UNL     1      26.151  -2.053 103.511  1.00  0.00     0.214 HD
ENDBRANCH   4  28
BRANCH   8  30
ATOM     30  C   UNL     1      27.016   3.374 103.581  1.00  0.00     0.249 C 
BRANCH  30  31
ATOM     31  O   UNL     1      25.883   3.669 102.768  1.00  0.00    -0.461 OA
BRANCH  31  32
ATOM     32  C   UNL     1      24.949   4.652 103.102  1.00  0.00     0.338 C 
ATOM     33  O   UNL     1      25.026   5.242 104.213  1.00  0.00    -0.246 OA
BRANCH  32  34
ATOM     34  C   UNL     1      23.870   4.997 102.152  1.00  0.00     0.060 A 
ATOM     35  C   UNL     1      22.625   4.338 102.211  1.00  0.00     0.015 A 
ATOM     36  C   UNL     1      24.068   6.003 101.190  1.00  0.00     0.015 A 
ATOM     37  C   UNL     1      21.603   4.682 101.319  1.00  0.00     0.001 A 
ATOM     38  C   UNL     1      23.047   6.333 100.293  1.00  0.00     0.001 A 
ATOM     39  C   UNL     1      21.813   5.678 100.362  1.00  0.00     0.000 A 
ENDBRANCH  32  34
ENDBRANCH  31  32
ENDBRANCH  30  31
ENDBRANCH   8  30
TORSDOF 12
ENDMDL
MODEL 4
REMARK VINA RESULT:    -6.971      6.085      9.350
REMARK INTER + INTRA:         -12.190
REMARK INTER:                 -11.238
REMARK INTRA:                  -0.953
REMARK UNBOUND:                -1.347
REMARK SMILES C[C@]12C[C@]3(O)O[C@H](O1)[C@@]1(COC(=O)c4ccccc4)[C@@H]3C[C@]12O[C@H]1O[C@@H](CO)[C@H](O)[C@H](O)[C@@H]1O
REMARK SMILES IDX 1 1 2 2 3 3 4 4 20 5 21 6 22 7 9 8 7 9 8 10 6 11 23 12 24 13
REMARK SMILES IDX 33 14 25 15 31 16 26 17 29 18 34 19 32 21 27 23 28 24 30 26
REMARK SMILES IDX 5 28 10 30 11 31 12 32 13 33 14 34 15 35 19 36 16 37 18 38
REMARK SMILES IDX 17 39
REMARK H PARENT 34 20 32 22 28 25 30 27 5 29
REMARK Flexibility Score: inf
ROOT
ATOM      1  C   UNL     1      27.127  -4.108 102.273  1.00  0.00     0.046 C 
ATOM      2  C   UNL     1      26.303  -2.903 101.810  1.00  0.00     0.104 C 
ATOM      3  C   UNL     1      26.863  -2.326 100.461  1.00  0.00     0.104 C 
ATOM      4  C   UNL     1      25.862  -1.174 100.119  1.00  0.00     0.175 C 
ATOM      5  C   UNL     1      24.390  -1.681 100.238  1.00  0.00     0.070 C 
ATOM      6  C   UNL     1      24.277  -3.222 100.236  1.00  0.00     0.050 C 
ATOM      7  C   UNL     1      24.747  -3.168 101.695  1.00  0.00     0.115 C 
ATOM      8  C   UNL     1      24.271  -1.691 101.768  1.00  0.00     0.096 C 
ATOM      9  C   UNL     1      25.461  -0.895 102.285  1.00  0.00     0.267 C 
ATOM     10  O   UNL     1      26.405  -1.847 102.746  1.00  0.00    -0.342 OA
ATOM     11  O   UNL     1      25.995  -0.223 101.157  1.00  0.00    -0.320 OA
ENDROOT
BRANCH   7  12
ATOM     12  O   UNL     1      24.339  -4.265 102.523  1.00  0.00    -0.339 OA
BRANCH  12  13
ATOM     13  C   UNL     1      23.640  -5.334 101.918  1.00  0.00     0.282 C 
ATOM     14  C   UNL     1      22.119  -5.222 102.228  1.00  0.00     0.202 C 
ATOM     15  O   UNL     1      24.155  -6.577 102.376  1.00  0.00    -0.341 OA
ATOM     16  C   UNL     1      21.730  -5.835 103.604  1.00  0.00     0.179 C 
ATOM     17  C   UNL     1      24.084  -6.769 103.790  1.00  0.00     0.178 C 
ATOM     18  C   UNL     1      22.967  -5.955 104.507  1.00  0.00     0.177 C 
BRANCH  14  19
ATOM     19  O   UNL     1      21.354  -5.788 101.191  1.00  0.00    -0.385 OA
ATOM     20  H   UNL     1      21.575  -6.757 101.143  1.00  0.00     0.211 HD
ENDBRANCH  14  19
BRANCH  16  21
ATOM     21  O   UNL     1      21.139  -7.105 103.449  1.00  0.00    -0.387 OA
ATOM     22  H   UNL     1      21.380  -7.636 104.255  1.00  0.00     0.211 HD
ENDBRANCH  16  21
BRANCH  17  23
ATOM     23  C   UNL     1      25.468  -6.525 104.413  1.00  0.00     0.191 C 
BRANCH  23  24
ATOM     24  O   UNL     1      25.458  -5.333 105.154  1.00  0.00    -0.394 OA
ATOM     25  H   UNL     1      26.059  -4.704 104.675  1.00  0.00     0.210 HD
ENDBRANCH  23  24
ENDBRANCH  17  23
BRANCH  18  26
ATOM     26  O   UNL     1      22.634  -6.513 105.757  1.00  0.00    -0.387 OA
ATOM     27  H   UNL     1      21.871  -7.136 105.630  1.00  0.00     0.211 HD
ENDBRANCH  18  26
ENDBRANCH  12  13
ENDBRANCH   7  12
BRANCH   4  28
ATOM     28  O   UNL     1      26.132  -0.583  98.875  1.00  0.00    -0.365 OA
ATOM     29  H   UNL     1      25.817   0.358  98.932  1.00  0.00     0.214 HD
ENDBRANCH   4  28
BRANCH   8  30
ATOM     30  C   UNL     1      22.889  -1.173 102.221  1.00  0.00     0.249 C 
BRANCH  30  31
ATOM     31  O   UNL     1      22.999   0.192 102.616  1.00  0.00    -0.461 OA
BRANCH  31  32
ATOM     32  C   UNL     1      21.947   1.102 102.485  1.00  0.00     0.338 C 
ATOM     33  O   UNL     1      21.064   0.921 101.604  1.00  0.00    -0.246 OA
BRANCH  32  34
ATOM     34  C   UNL     1      21.876   2.280 103.376  1.00  0.00     0.060 A 
ATOM     35  C   UNL     1      21.024   2.279 104.499  1.00  0.00     0.015 A 
ATOM     36  C   UNL     1      22.676   3.409 103.123  1.00  0.00     0.015 A 
ATOM     37  C   UNL     1      20.975   3.391 105.347  1.00  0.00     0.001 A 
ATOM     38  C   UNL     1      22.613   4.522 103.967  1.00  0.00     0.001 A 
ATOM     39  C   UNL     1      21.767   4.511 105.083  1.00  0.00     0.000 A 
ENDBRANCH  32  34
ENDBRANCH  31  32
ENDBRANCH  30  31
ENDBRANCH   8  30
TORSDOF 12
ENDMDL
MODEL 5
REMARK VINA RESULT:    -6.888      2.599      6.335
REMARK INTER + INTRA:         -12.060
REMARK INTER:                 -10.868
REMARK INTRA:                  -1.192
REMARK UNBOUND:                -1.347
REMARK SMILES C[C@]12C[C@]3(O)O[C@H](O1)[C@@]1(COC(=O)c4ccccc4)[C@@H]3C[C@]12O[C@H]1O[C@@H](CO)[C@H](O)[C@H](O)[C@@H]1O
REMARK SMILES IDX 1 1 2 2 3 3 4 4 20 5 21 6 22 7 9 8 7 9 8 10 6 11 23 12 24 13
REMARK SMILES IDX 33 14 25 15 31 16 26 17 29 18 34 19 32 21 27 23 28 24 30 26
REMARK SMILES IDX 5 28 10 30 11 31 12 32 13 33 14 34 15 35 19 36 16 37 18 38
REMARK SMILES IDX 17 39
REMARK H PARENT 34 20 32 22 28 25 30 27 5 29
REMARK Flexibility Score: inf
ROOT
ATOM      1  C   UNL     1      28.145  -1.165 104.842  1.00  0.00     0.046 C 
ATOM      2  C   UNL     1      28.352   0.251 104.298  1.00  0.00     0.104 C 
ATOM      3  C   UNL     1      29.878   0.619 104.257  1.00  0.00     0.104 C 
ATOM      4  C   UNL     1      29.889   2.044 103.614  1.00  0.00     0.175 C 
ATOM      5  C   UNL     1      29.013   2.062 102.321  1.00  0.00     0.070 C 
ATOM      6  C   UNL     1      28.716   0.649 101.770  1.00  0.00     0.050 C 
ATOM      7  C   UNL     1      27.679   0.528 102.893  1.00  0.00     0.115 C 
ATOM      8  C   UNL     1      27.627   2.078 102.979  1.00  0.00     0.096 C 
ATOM      9  C   UNL     1      27.864   2.421 104.443  1.00  0.00     0.267 C 
ATOM     10  O   UNL     1      27.755   1.202 105.160  1.00  0.00    -0.342 OA
ATOM     11  O   UNL     1      29.201   2.884 104.520  1.00  0.00    -0.320 OA
ENDROOT
BRANCH   7  12
ATOM     12  O   UNL     1      26.593  -0.376 102.644  1.00  0.00    -0.339 OA
BRANCH  12  13
ATOM     13  C   UNL     1      26.706  -1.271 101.556  1.00  0.00     0.282 C 
ATOM     14  C   UNL     1      25.873  -0.752 100.348  1.00  0.00     0.202 C 
ATOM     15  O   UNL     1      26.273  -2.568 101.944  1.00  0.00    -0.341 OA
ATOM     16  C   UNL     1      24.370  -1.145 100.430  1.00  0.00     0.179 C 
ATOM     17  C   UNL     1      24.924  -2.634 102.411  1.00  0.00     0.178 C 
ATOM     18  C   UNL     1      23.988  -1.512 101.872  1.00  0.00     0.177 C 
BRANCH  14  19
ATOM     19  O   UNL     1      26.439  -1.177  99.131  1.00  0.00    -0.385 OA
ATOM     20  H   UNL     1      27.219  -1.756  99.344  1.00  0.00     0.211 HD
ENDBRANCH  14  19
BRANCH  16  21
ATOM     21  O   UNL     1      24.079  -2.229  99.579  1.00  0.00    -0.387 OA
ATOM     22  H   UNL     1      24.880  -2.372  99.008  1.00  0.00     0.211 HD
ENDBRANCH  16  21
BRANCH  17  23
ATOM     23  C   UNL     1      24.914  -2.708 103.946  1.00  0.00     0.191 C 
BRANCH  23  24
ATOM     24  O   UNL     1      24.619  -1.445 104.485  1.00  0.00    -0.394 OA
ATOM     25  H   UNL     1      24.440  -0.849 103.713  1.00  0.00     0.210 HD
ENDBRANCH  23  24
ENDBRANCH  17  23
BRANCH  18  26
ATOM     26  O   UNL     1      22.630  -1.875 101.964  1.00  0.00    -0.387 OA
ATOM     27  H   UNL     1      22.347  -1.796 102.913  1.00  0.00     0.211 HD
ENDBRANCH  18  26
ENDBRANCH  12  13
ENDBRANCH   7  12
BRANCH   4  28
ATOM     28  O   UNL     1      31.190   2.521 103.393  1.00  0.00    -0.365 OA
ATOM     29  H   UNL     1      31.099   3.452 103.056  1.00  0.00     0.214 HD
ENDBRANCH   4  28
BRANCH   8  30
ATOM     30  C   UNL     1      26.667   3.027 102.231  1.00  0.00     0.249 C 
BRANCH  30  31
ATOM     31  O   UNL     1      25.466   3.180 102.983  1.00  0.00    -0.461 OA
BRANCH  31  32
ATOM     32  C   UNL     1      24.842   4.416 103.164  1.00  0.00     0.338 C 
ATOM     33  O   UNL     1      25.180   5.157 104.127  1.00  0.00    -0.246 OA
BRANCH  32  34
ATOM     34  C   UNL     1      23.783   4.852 102.229  1.00  0.00     0.060 A 
ATOM     35  C   UNL     1      24.037   5.856 101.274  1.00  0.00     0.015 A 
ATOM     36  C   UNL     1      22.512   4.250 102.270  1.00  0.00     0.015 A 
ATOM     37  C   UNL     1      23.034   6.251 100.382  1.00  0.00     0.001 A 
ATOM     38  C   UNL     1      21.509   4.658 101.384  1.00  0.00     0.001 A 
ATOM     39  C   UNL     1      21.772   5.654 100.435  1.00  0.00     0.000 A 
ENDBRANCH  32  34
ENDBRANCH  31  32
ENDBRANCH  30  31
ENDBRANCH   8  30
TORSDOF 12
ENDMDL
MODEL 6
REMARK VINA RESULT:    -6.874      5.714      9.649
REMARK INTER + INTRA:         -12.038
REMARK INTER:                 -10.591
REMARK INTRA:                  -1.447
REMARK UNBOUND:                -1.347
REMARK SMILES C[C@]12C[C@]3(O)O[C@H](O1)[C@@]1(COC(=O)c4ccccc4)[C@@H]3C[C@]12O[C@H]1O[C@@H](CO)[C@H](O)[C@H](O)[C@@H]1O
REMARK SMILES IDX 1 1 2 2 3 3 4 4 20 5 21 6 22 7 9 8 7 9 8 10 6 11 23 12 24 13
REMARK SMILES IDX 33 14 25 15 31 16 26 17 29 18 34 19 32 21 27 23 28 24 30 26
REMARK SMILES IDX 5 28 10 30 11 31 12 32 13 33 14 34 15 35 19 36 16 37 18 38
REMARK SMILES IDX 17 39
REMARK H PARENT 34 20 32 22 28 25 30 27 5 29
REMARK Flexibility Score: inf
ROOT
ATOM      1  C   UNL     1      25.857  -4.993 103.326  1.00  0.00     0.046 C 
ATOM      2  C   UNL     1      25.667  -3.484 103.148  1.00  0.00     0.104 C 
ATOM      3  C   UNL     1      27.044  -2.734 103.217  1.00  0.00     0.104 C 
ATOM      4  C   UNL     1      26.658  -1.244 102.943  1.00  0.00     0.175 C 
ATOM      5  C   UNL     1      25.740  -1.145 101.682  1.00  0.00     0.070 C 
ATOM      6  C   UNL     1      25.785  -2.412 100.799  1.00  0.00     0.050 C 
ATOM      7  C   UNL     1      24.873  -3.064 101.845  1.00  0.00     0.115 C 
ATOM      8  C   UNL     1      24.432  -1.648 102.308  1.00  0.00     0.096 C 
ATOM      9  C   UNL     1      24.650  -1.616 103.814  1.00  0.00     0.267 C 
ATOM     10  O   UNL     1      24.893  -2.956 104.209  1.00  0.00    -0.342 OA
ATOM     11  O   UNL     1      25.826  -0.854 104.018  1.00  0.00    -0.320 OA
ENDROOT
BRANCH   7  12
ATOM     12  O   UNL     1      24.042  -4.131 101.369  1.00  0.00    -0.339 OA
BRANCH  12  13
ATOM     13  C   UNL     1      22.701  -4.182 101.813  1.00  0.00     0.282 C 
ATOM     14  C   UNL     1      22.388  -5.584 102.410  1.00  0.00     0.202 C 
ATOM     15  O   UNL     1      21.819  -3.886 100.739  1.00  0.00    -0.341 OA
ATOM     16  C   UNL     1      22.001  -6.635 101.330  1.00  0.00     0.179 C 
ATOM     17  C   UNL     1      21.929  -4.763  99.616  1.00  0.00     0.178 C 
ATOM     18  C   UNL     1      22.481  -6.182  99.943  1.00  0.00     0.177 C 
BRANCH  14  19
ATOM     19  O   UNL     1      21.396  -5.495 103.405  1.00  0.00    -0.385 OA
ATOM     20  H   UNL     1      20.570  -5.141 102.979  1.00  0.00     0.211 HD
ENDBRANCH  14  19
BRANCH  16  21
ATOM     21  O   UNL     1      20.607  -6.843 101.298  1.00  0.00    -0.387 OA
ATOM     22  H   UNL     1      20.369  -7.063 100.358  1.00  0.00     0.211 HD
ENDBRANCH  16  21
BRANCH  17  23
ATOM     23  C   UNL     1      22.730  -4.074  98.501  1.00  0.00     0.191 C 
BRANCH  23  24
ATOM     24  O   UNL     1      24.010  -4.644  98.406  1.00  0.00    -0.394 OA
ATOM     25  H   UNL     1      24.162  -4.825  97.442  1.00  0.00     0.210 HD
ENDBRANCH  23  24
ENDBRANCH  17  23
BRANCH  18  26
ATOM     26  O   UNL     1      22.133  -7.120  98.951  1.00  0.00    -0.387 OA
ATOM     27  H   UNL     1      22.948  -7.338  98.426  1.00  0.00     0.211 HD
ENDBRANCH  18  26
ENDBRANCH  12  13
ENDBRANCH   7  12
BRANCH   4  28
ATOM     28  O   UNL     1      27.780  -0.406 102.861  1.00  0.00    -0.365 OA
ATOM     29  H   UNL     1      27.588   0.385 103.431  1.00  0.00     0.214 HD
ENDBRANCH   4  28
BRANCH   8  30
ATOM     30  C   UNL     1      23.224  -0.831 101.803  1.00  0.00     0.249 C 
BRANCH  30  31
ATOM     31  O   UNL     1      22.806   0.078 102.817  1.00  0.00    -0.461 OA
BRANCH  31  32
ATOM     32  C   UNL     1      21.867   1.087 102.587  1.00  0.00     0.338 C 
ATOM     33  O   UNL     1      20.993   0.941 101.691  1.00  0.00    -0.246 OA
BRANCH  32  34
ATOM     34  C   UNL     1      21.904   2.326 103.394  1.00  0.00     0.060 A 
ATOM     35  C   UNL     1      21.058   2.481 104.509  1.00  0.00     0.015 A 
ATOM     36  C   UNL     1      22.803   3.357 103.066  1.00  0.00     0.015 A 
ATOM     37  C   UNL     1      21.110   3.650 105.277  1.00  0.00     0.001 A 
ATOM     38  C   UNL     1      22.842   4.528 103.829  1.00  0.00     0.001 A 
ATOM     39  C   UNL     1      22.001   4.672 104.939  1.00  0.00     0.000 A 
ENDBRANCH  32  34
ENDBRANCH  31  32
ENDBRANCH  30  31
ENDBRANCH   8  30
TORSDOF 12
ENDMDL
MODEL 7
REMARK VINA RESULT:    -6.787      3.411      5.528
REMARK INTER + INTRA:         -11.903
REMARK INTER:                 -10.712
REMARK INTRA:                  -1.191
REMARK UNBOUND:                -1.347
REMARK SMILES C[C@]12C[C@]3(O)O[C@H](O1)[C@@]1(COC(=O)c4ccccc4)[C@@H]3C[C@]12O[C@H]1O[C@@H](CO)[C@H](O)[C@H](O)[C@@H]1O
REMARK SMILES IDX 1 1 2 2 3 3 4 4 20 5 21 6 22 7 9 8 7 9 8 10 6 11 23 12 24 13
REMARK SMILES IDX 33 14 25 15 31 16 26 17 29 18 34 19 32 21 27 23 28 24 30 26
REMARK SMILES IDX 5 28 10 30 11 31 12 32 13 33 14 34 15 35 19 36 16 37 18 38
REMARK SMILES IDX 17 39
REMARK H PARENT 34 20 32 22 28 25 30 27 5 29
REMARK Flexibility Score: inf
ROOT
ATOM      1  C   UNL     1      27.460  -1.553 100.501  1.00  0.00     0.046 C 
ATOM      2  C   UNL     1      26.090  -1.819 101.132  1.00  0.00     0.104 C 
ATOM      3  C   UNL     1      25.718  -3.342 101.041  1.00  0.00     0.104 C 
ATOM      4  C   UNL     1      24.349  -3.424 101.793  1.00  0.00     0.175 C 
ATOM      5  C   UNL     1      24.440  -2.690 103.168  1.00  0.00     0.070 C 
ATOM      6  C   UNL     1      25.895  -2.450 103.631  1.00  0.00     0.050 C 
ATOM      7  C   UNL     1      25.932  -1.299 102.619  1.00  0.00     0.115 C 
ATOM      8  C   UNL     1      24.380  -1.242 102.663  1.00  0.00     0.096 C 
ATOM      9  C   UNL     1      23.919  -1.324 101.214  1.00  0.00     0.267 C 
ATOM     10  O   UNL     1      25.077  -1.137 100.417  1.00  0.00    -0.342 OA
ATOM     11  O   UNL     1      23.443  -2.646 101.035  1.00  0.00    -0.320 OA
ENDROOT
BRANCH   7  12
ATOM     12  O   UNL     1      26.858  -0.244 102.906  1.00  0.00    -0.339 OA
BRANCH  12  13
ATOM     13  C   UNL     1      27.812  -0.453 103.929  1.00  0.00     0.282 C 
ATOM     14  C   UNL     1      27.356   0.255 105.238  1.00  0.00     0.202 C 
ATOM     15  O   UNL     1      29.085   0.027 103.517  1.00  0.00    -0.341 OA
ATOM     16  C   UNL     1      27.738   1.762 105.282  1.00  0.00     0.179 C 
ATOM     17  C   UNL     1      29.120   1.415 103.180  1.00  0.00     0.178 C 
ATOM     18  C   UNL     1      28.026   2.285 103.866  1.00  0.00     0.177 C 
BRANCH  14  19
ATOM     19  O   UNL     1      27.847  -0.422 106.370  1.00  0.00    -0.385 OA
ATOM     20  H   UNL     1      28.109  -1.338 106.087  1.00  0.00     0.211 HD
ENDBRANCH  14  19
BRANCH  16  21
ATOM     21  O   UNL     1      28.866   1.980 106.098  1.00  0.00    -0.387 OA
ATOM     22  H   UNL     1      29.259   2.850 105.823  1.00  0.00     0.211 HD
ENDBRANCH  16  21
BRANCH  17  23
ATOM     23  C   UNL     1      29.112   1.574 101.651  1.00  0.00     0.191 C 
BRANCH  23  24
ATOM     24  O   UNL     1      27.825   1.923 101.212  1.00  0.00    -0.394 OA
ATOM     25  H   UNL     1      27.274   1.101 101.286  1.00  0.00     0.210 HD
ENDBRANCH  23  24
ENDBRANCH  17  23
BRANCH  18  26
ATOM     26  O   UNL     1      28.379   3.648 103.887  1.00  0.00    -0.387 OA
ATOM     27  H   UNL     1      27.994   4.085 103.082  1.00  0.00     0.211 HD
ENDBRANCH  18  26
ENDBRANCH  12  13
ENDBRANCH   7  12
BRANCH   4  28
ATOM     28  O   UNL     1      23.883  -4.742 101.913  1.00  0.00    -0.365 OA
ATOM     29  H   UNL     1      23.811  -5.105 100.990  1.00  0.00     0.214 HD
ENDBRANCH   4  28
BRANCH   8  30
ATOM     30  C   UNL     1      23.500  -0.369 103.582  1.00  0.00     0.249 C 
BRANCH  30  31
ATOM     31  O   UNL     1      23.304   0.908 102.982  1.00  0.00    -0.461 OA
BRANCH  31  32
ATOM     32  C   UNL     1      22.046   1.507 102.873  1.00  0.00     0.338 C 
ATOM     33  O   UNL     1      21.295   1.221 101.902  1.00  0.00    -0.246 OA
BRANCH  32  34
ATOM     34  C   UNL     1      21.601   2.477 103.896  1.00  0.00     0.060 A 
ATOM     35  C   UNL     1      22.109   3.791 103.908  1.00  0.00     0.015 A 
ATOM     36  C   UNL     1      20.646   2.102 104.858  1.00  0.00     0.015 A 
ATOM     37  C   UNL     1      21.670   4.708 104.870  1.00  0.00     0.001 A 
ATOM     38  C   UNL     1      20.220   3.019 105.825  1.00  0.00     0.001 A 
ATOM     39  C   UNL     1      20.727   4.324 105.827  1.00  0.00     0.000 A 
ENDBRANCH  32  34
ENDBRANCH  31  32
ENDBRANCH  30  31
ENDBRANCH   8  30
TORSDOF 12
ENDMDL
MODEL 8
REMARK VINA RESULT:    -6.780      5.433      9.367
REMARK INTER + INTRA:         -11.893
REMARK INTER:                 -10.823
REMARK INTRA:                  -1.070
REMARK UNBOUND:                -1.347
REMARK SMILES C[C@]12C[C@]3(O)O[C@H](O1)[C@@]1(COC(=O)c4ccccc4)[C@@H]3C[C@]12O[C@H]1O[C@@H](CO)[C@H](O)[C@H](O)[C@@H]1O
REMARK SMILES IDX 1 1 2 2 3 3 4 4 20 5 21 6 22 7 9 8 7 9 8 10 6 11 23 12 24 13
REMARK SMILES IDX 33 14 25 15 31 16 26 17 29 18 34 19 32 21 27 23 28 24 30 26
REMARK SMILES IDX 5 28 10 30 11 31 12 32 13 33 14 34 15 35 19 36 16 37 18 38
REMARK SMILES IDX 17 39
REMARK H PARENT 34 20 32 22 28 25 30 27 5 29
REMARK Flexibility Score: inf
ROOT
ATOM      1  C   UNL     1      26.414  -4.278 103.721  1.00  0.00     0.046 C 
ATOM      2  C   UNL     1      26.018  -2.864 103.286  1.00  0.00     0.104 C 
ATOM      3  C   UNL     1      27.288  -1.998 102.970  1.00  0.00     0.104 C 
ATOM      4  C   UNL     1      26.687  -0.641 102.480  1.00  0.00     0.175 C 
ATOM      5  C   UNL     1      25.587  -0.894 101.401  1.00  0.00     0.070 C 
ATOM      6  C   UNL     1      25.653  -2.311 100.788  1.00  0.00     0.050 C 
ATOM      7  C   UNL     1      24.993  -2.803 102.081  1.00  0.00     0.115 C 
ATOM      8  C   UNL     1      24.457  -1.366 102.327  1.00  0.00     0.096 C 
ATOM      9  C   UNL     1      24.892  -0.994 103.738  1.00  0.00     0.267 C 
ATOM     10  O   UNL     1      25.353  -2.193 104.340  1.00  0.00    -0.342 OA
ATOM     11  O   UNL     1      25.984  -0.105 103.584  1.00  0.00    -0.320 OA
ENDROOT
BRANCH   7  12
ATOM     12  O   UNL     1      24.237  -4.016 101.974  1.00  0.00    -0.339 OA
BRANCH  12  13
ATOM     13  C   UNL     1      23.817  -4.429 100.689  1.00  0.00     0.282 C 
ATOM     14  C   UNL     1      22.347  -3.986 100.438  1.00  0.00     0.202 C 
ATOM     15  O   UNL     1      23.945  -5.840 100.563  1.00  0.00    -0.341 OA
ATOM     16  C   UNL     1      21.302  -4.978 101.025  1.00  0.00     0.179 C 
ATOM     17  C   UNL     1      23.197  -6.595 101.517  1.00  0.00     0.178 C 
ATOM     18  C   UNL     1      21.949  -5.867 102.098  1.00  0.00     0.177 C 
BRANCH  14  19
ATOM     19  O   UNL     1      22.117  -3.767  99.067  1.00  0.00    -0.385 OA
ATOM     20  H   UNL     1      21.209  -4.109  98.852  1.00  0.00     0.211 HD
ENDBRANCH  14  19
BRANCH  16  21
ATOM     21  O   UNL     1      20.747  -5.792 100.017  1.00  0.00    -0.387 OA
ATOM     22  H   UNL     1      21.308  -6.610  99.964  1.00  0.00     0.211 HD
ENDBRANCH  16  21
BRANCH  17  23
ATOM     23  C   UNL     1      24.137  -7.102 102.622  1.00  0.00     0.191 C 
BRANCH  23  24
ATOM     24  O   UNL     1      23.806  -6.502 103.848  1.00  0.00    -0.394 OA
ATOM     25  H   UNL     1      22.899  -6.831 104.081  1.00  0.00     0.210 HD
ENDBRANCH  23  24
ENDBRANCH  17  23
BRANCH  18  26
ATOM     26  O   UNL     1      21.018  -6.777 102.637  1.00  0.00    -0.387 OA
ATOM     27  H   UNL     1      20.492  -6.309 103.339  1.00  0.00     0.211 HD
ENDBRANCH  18  26
ENDBRANCH  12  13
ENDBRANCH   7  12
BRANCH   4  28
ATOM     28  O   UNL     1      27.675   0.256 102.045  1.00  0.00    -0.365 OA
ATOM     29  H   UNL     1      28.548  -0.203 102.161  1.00  0.00     0.214 HD
ENDBRANCH   4  28
BRANCH   8  30
ATOM     30  C   UNL     1      23.097  -0.784 101.886  1.00  0.00     0.249 C 
BRANCH  30  31
ATOM     31  O   UNL     1      22.616   0.112 102.884  1.00  0.00    -0.461 OA
BRANCH  31  32
ATOM     32  C   UNL     1      21.768   1.183 102.592  1.00  0.00     0.338 C 
ATOM     33  O   UNL     1      21.003   1.126 101.592  1.00  0.00    -0.246 OA
BRANCH  32  34
ATOM     34  C   UNL     1      21.774   2.384 103.454  1.00  0.00     0.060 A 
ATOM     35  C   UNL     1      22.521   3.523 103.094  1.00  0.00     0.015 A 
ATOM     36  C   UNL     1      21.013   2.409 104.637  1.00  0.00     0.015 A 
ATOM     37  C   UNL     1      22.508   4.661 103.908  1.00  0.00     0.001 A 
ATOM     38  C   UNL     1      21.014   3.545 105.453  1.00  0.00     0.001 A 
ATOM     39  C   UNL     1      21.756   4.674 105.085  1.00  0.00     0.000 A 
ENDBRANCH  32  34
ENDBRANCH  31  32
ENDBRANCH  30  31
ENDBRANCH   8  30
TORSDOF 12
ENDMDL
MODEL 9
REMARK VINA RESULT:    -6.560      3.037      5.475
REMARK INTER + INTRA:         -11.551
REMARK INTER:                  -9.638
REMARK INTRA:                  -1.913
REMARK UNBOUND:                -1.347
REMARK SMILES C[C@]12C[C@]3(O)O[C@H](O1)[C@@]1(COC(=O)c4ccccc4)[C@@H]3C[C@]12O[C@H]1O[C@@H](CO)[C@H](O)[C@H](O)[C@@H]1O
REMARK SMILES IDX 1 1 2 2 3 3 4 4 20 5 21 6 22 7 9 8 7 9 8 10 6 11 23 12 24 13
REMARK SMILES IDX 33 14 25 15 31 16 26 17 29 18 34 19 32 21 27 23 28 24 30 26
REMARK SMILES IDX 5 28 10 30 11 31 12 32 13 33 14 34 15 35 19 36 16 37 18 38
REMARK SMILES IDX 17 39
REMARK H PARENT 34 20 32 22 28 25 30 27 5 29
REMARK Flexibility Score: inf
ROOT
ATOM      1  C   UNL     1      28.447  -0.078 106.030  1.00  0.00     0.046 C 
ATOM      2  C   UNL     1      28.365   0.090 104.510  1.00  0.00     0.104 C 
ATOM      3  C   UNL     1      26.940  -0.301 103.979  1.00  0.00     0.104 C 
ATOM      4  C   UNL     1      27.029   0.006 102.448  1.00  0.00     0.175 C 
ATOM      5  C   UNL     1      27.621   1.432 102.214  1.00  0.00     0.070 C 
ATOM      6  C   UNL     1      27.573   2.323 103.476  1.00  0.00     0.050 C 
ATOM      7  C   UNL     1      28.780   1.522 103.978  1.00  0.00     0.115 C 
ATOM      8  C   UNL     1      29.095   1.123 102.510  1.00  0.00     0.096 C 
ATOM      9  C   UNL     1      29.212  -0.395 102.507  1.00  0.00     0.267 C 
ATOM     10  O   UNL     1      29.265  -0.792 103.867  1.00  0.00    -0.342 OA
ATOM     11  O   UNL     1      28.009  -0.874 101.933  1.00  0.00    -0.320 OA
ENDROOT
BRANCH   7  12
ATOM     12  O   UNL     1      29.636   2.199 104.907  1.00  0.00    -0.339 OA
BRANCH  12  13
ATOM     13  C   UNL     1      31.026   1.951 104.837  1.00  0.00     0.282 C 
ATOM     14  C   UNL     1      31.591   1.675 106.261  1.00  0.00     0.202 C 
ATOM     15  O   UNL     1      31.691   3.056 104.239  1.00  0.00    -0.341 OA
ATOM     16  C   UNL     1      31.930   2.975 107.046  1.00  0.00     0.179 C 
ATOM     17  C   UNL     1      31.514   4.300 104.920  1.00  0.00     0.178 C 
ATOM     18  C   UNL     1      31.191   4.177 106.438  1.00  0.00     0.177 C 
BRANCH  14  19
ATOM     19  O   UNL     1      32.708   0.820 106.198  1.00  0.00    -0.385 OA
ATOM     20  H   UNL     1      32.895   0.634 105.240  1.00  0.00     0.211 HD
ENDBRANCH  14  19
BRANCH  16  21
ATOM     21  O   UNL     1      33.317   3.228 107.041  1.00  0.00    -0.387 OA
ATOM     22  H   UNL     1      33.465   4.015 106.453  1.00  0.00     0.211 HD
ENDBRANCH  16  21
BRANCH  17  23
ATOM     23  C   UNL     1      30.474   5.152 104.174  1.00  0.00     0.191 C 
BRANCH  23  24
ATOM     24  O   UNL     1      29.278   5.200 104.909  1.00  0.00    -0.394 OA
ATOM     25  H   UNL     1      29.448   4.700 105.749  1.00  0.00     0.210 HD
ENDBRANCH  23  24
ENDBRANCH  17  23
BRANCH  18  26
ATOM     26  O   UNL     1      31.491   5.365 107.134  1.00  0.00    -0.387 OA
ATOM     27  H   UNL     1      32.467   5.536 107.059  1.00  0.00     0.211 HD
ENDBRANCH  18  26
ENDBRANCH  12  13
ENDBRANCH   7  12
BRANCH   4  28
ATOM     28  O   UNL     1      25.803  -0.186 101.793  1.00  0.00    -0.365 OA
ATOM     29  H   UNL     1      25.917  -0.975 101.200  1.00  0.00     0.214 HD
ENDBRANCH   4  28
BRANCH   8  30
ATOM     30  C   UNL     1      30.025   1.854 101.519  1.00  0.00     0.249 C 
BRANCH  30  31
ATOM     31  O   UNL     1      31.221   1.099 101.343  1.00  0.00    -0.461 OA
BRANCH  31  32
ATOM     32  C   UNL     1      32.409   1.664 100.874  1.00  0.00     0.338 C 
ATOM     33  O   UNL     1      33.491   1.024 100.966  1.00  0.00    -0.246 OA
BRANCH  32  34
ATOM     34  C   UNL     1      32.396   3.016 100.274  1.00  0.00     0.060 A 
ATOM     35  C   UNL     1      32.741   4.145 101.043  1.00  0.00     0.015 A 
ATOM     36  C   UNL     1      32.058   3.186  98.919  1.00  0.00     0.015 A 
ATOM     37  C   UNL     1      32.741   5.419 100.463  1.00  0.00     0.001 A 
ATOM     38  C   UNL     1      32.047   4.463  98.349  1.00  0.00     0.001 A 
ATOM     39  C   UNL     1      32.396   5.579  99.119  1.00  0.00     0.000 A 
ENDBRANCH  32  34
ENDBRANCH  31  32
ENDBRANCH  30  31
ENDBRANCH   8  30
TORSDOF 12
ENDMDL
