MODEL 1
REMARK VINA RESULT:    -3.551      0.000      0.000
REMARK INTER + INTRA:          -5.606
REMARK INTER:                  -5.212
REMARK INTRA:                  -0.394
REMARK UNBOUND:                -0.394
REMARK SMILES O=C([O-])CCCCCCCC(=O)[O-]
REMARK SMILES IDX 7 1 6 2 5 3 4 4 2 5 1 6 3 7 8 8 9 9 10 10 11 11 12 12 13 13
REMARK H PARENT
REMARK Flexibility Score: inf
ROOT
ATOM      1  C   UNL     1      62.209  32.388  60.297  1.00  0.00     0.000 C 
ENDROOT
BRANCH   1   2
ATOM      2  C   UNL     1      61.140  31.489  60.943  1.00  0.00     0.000 C 
BRANCH   2   3
ATOM      3  C   UNL     1      61.705  30.134  61.399  1.00  0.00     0.006 C 
BRANCH   3   4
ATOM      4  C   UNL     1      63.234  30.061  61.285  1.00  0.00     0.053 C 
BRANCH   4   5
ATOM      5  C   UNL     1      63.644  28.815  60.566  1.00  0.00     0.041 C 
ATOM      6  O   UNL     1      63.073  27.721  60.818  1.00  0.00    -0.550 OA
ATOM      7  O   UNL     1      64.690  28.851  59.652  1.00  0.00    -0.550 OA
ENDBRANCH   4   5
ENDBRANCH   3   4
ENDBRANCH   2   3
ENDBRANCH   1   2
BRANCH   1   8
ATOM      8  C   UNL     1      61.689  33.804  60.001  1.00  0.00     0.000 C 
BRANCH   8   9
ATOM      9  C   UNL     1      62.539  34.899  60.662  1.00  0.00     0.006 C 
BRANCH   9  10
ATOM     10  C   UNL     1      63.964  34.402  60.924  1.00  0.00     0.053 C 
BRANCH  10  11
ATOM     11  C   UNL     1      64.883  35.554  61.183  1.00  0.00     0.041 C 
ATOM     12  O   UNL     1      66.041  35.564  60.691  1.00  0.00    -0.550 OA
ATOM     13  O   UNL     1      64.441  36.641  61.927  1.00  0.00    -0.550 OA
ENDBRANCH  10  11
ENDBRANCH   9  10
ENDBRANCH   8   9
ENDBRANCH   1   8
TORSDOF 8
ENDMDL
MODEL 2
REMARK VINA RESULT:    -3.503     12.481     14.217
REMARK INTER + INTRA:          -5.536
REMARK INTER:                  -5.040
REMARK INTRA:                  -0.496
REMARK UNBOUND:                -0.394
REMARK SMILES O=C([O-])CCCCCCCC(=O)[O-]
REMARK SMILES IDX 7 1 6 2 5 3 4 4 2 5 1 6 3 7 8 8 9 9 10 10 11 11 12 12 13 13
REMARK H PARENT
REMARK Flexibility Score: inf
ROOT
ATOM      1  C   UNL     1      58.365  28.920  50.522  1.00  0.00     0.000 C 
ENDROOT
BRANCH   1   2
ATOM      2  C   UNL     1      59.254  29.260  49.314  1.00  0.00     0.000 C 
BRANCH   2   3
ATOM      3  C   UNL     1      60.291  28.165  49.017  1.00  0.00     0.006 C 
BRANCH   3   4
ATOM      4  C   UNL     1      59.768  26.755  49.325  1.00  0.00     0.053 C 
BRANCH   4   5
ATOM      5  C   UNL     1      60.895  25.860  49.735  1.00  0.00     0.041 C 
ATOM      6  O   UNL     1      62.078  26.291  49.737  1.00  0.00    -0.550 OA
ATOM      7  O   UNL     1      60.644  24.536  50.070  1.00  0.00    -0.550 OA
ENDBRANCH   4   5
ENDBRANCH   3   4
ENDBRANCH   2   3
ENDBRANCH   1   2
BRANCH   1   8
ATOM      8  C   UNL     1      56.873  28.849  50.158  1.00  0.00     0.000 C 
BRANCH   8   9
ATOM      9  C   UNL     1      56.152  27.674  50.834  1.00  0.00     0.006 C 
BRANCH   9  10
ATOM     10  C   UNL     1      56.051  26.475  49.886  1.00  0.00     0.053 C 
BRANCH  10  11
ATOM     11  C   UNL     1      54.655  26.331  49.368  1.00  0.00     0.041 C 
ATOM     12  O   UNL     1      54.279  25.247  48.851  1.00  0.00    -0.550 OA
ATOM     13  O   UNL     1      53.753  27.379  49.502  1.00  0.00    -0.550 OA
ENDBRANCH  10  11
ENDBRANCH   9  10
ENDBRANCH   8   9
ENDBRANCH   1   8
TORSDOF 8
ENDMDL
MODEL 3
REMARK VINA RESULT:    -3.494      0.744      5.712
REMARK INTER + INTRA:          -5.522
REMARK INTER:                  -5.030
REMARK INTRA:                  -0.491
REMARK UNBOUND:                -0.394
REMARK SMILES O=C([O-])CCCCCCCC(=O)[O-]
REMARK SMILES IDX 7 1 6 2 5 3 4 4 2 5 1 6 3 7 8 8 9 9 10 10 11 11 12 12 13 13
REMARK H PARENT
REMARK Flexibility Score: inf
ROOT
ATOM      1  C   UNL     1      62.228  32.580  60.254  1.00  0.00     0.000 C 
ENDROOT
BRANCH   1   2
ATOM      2  C   UNL     1      61.662  34.011  60.279  1.00  0.00     0.000 C 
BRANCH   2   3
ATOM      3  C   UNL     1      62.725  35.060  60.640  1.00  0.00     0.006 C 
BRANCH   3   4
ATOM      4  C   UNL     1      64.067  34.431  61.040  1.00  0.00     0.053 C 
BRANCH   4   5
ATOM      5  C   UNL     1      65.184  35.044  60.255  1.00  0.00     0.041 C 
ATOM      6  O   UNL     1      66.053  35.747  60.834  1.00  0.00    -0.550 OA
ATOM      7  O   UNL     1      65.238  34.878  58.877  1.00  0.00    -0.550 OA
ENDBRANCH   4   5
ENDBRANCH   3   4
ENDBRANCH   2   3
ENDBRANCH   1   2
BRANCH   1   8
ATOM      8  C   UNL     1      61.176  31.521  60.620  1.00  0.00     0.000 C 
BRANCH   8   9
ATOM      9  C   UNL     1      61.776  30.323  61.369  1.00  0.00     0.006 C 
BRANCH   9  10
ATOM     10  C   UNL     1      63.304  30.322  61.267  1.00  0.00     0.053 C 
BRANCH  10  11
ATOM     11  C   UNL     1      63.799  28.986  60.809  1.00  0.00     0.041 C 
ATOM     12  O   UNL     1      63.021  27.997  60.785  1.00  0.00    -0.550 OA
ATOM     13  O   UNL     1      65.107  28.846  60.363  1.00  0.00    -0.550 OA
ENDBRANCH  10  11
ENDBRANCH   9  10
ENDBRANCH   8   9
ENDBRANCH   1   8
TORSDOF 8
ENDMDL
MODEL 4
REMARK VINA RESULT:    -3.406      1.298      5.653
REMARK INTER + INTRA:          -5.394
REMARK INTER:                  -4.862
REMARK INTRA:                  -0.532
REMARK UNBOUND:                -0.394
REMARK SMILES O=C([O-])CCCCCCCC(=O)[O-]
REMARK SMILES IDX 7 1 6 2 5 3 4 4 2 5 1 6 3 7 8 8 9 9 10 10 11 11 12 12 13 13
REMARK H PARENT
REMARK Flexibility Score: inf
ROOT
ATOM      1  C   UNL     1      60.757  30.987  61.161  1.00  0.00     0.000 C 
ENDROOT
BRANCH   1   2
ATOM      2  C   UNL     1      61.261  31.749  59.923  1.00  0.00     0.000 C 
BRANCH   2   3
ATOM      3  C   UNL     1      61.726  33.176  60.257  1.00  0.00     0.006 C 
BRANCH   3   4
ATOM      4  C   UNL     1      63.252  33.287  60.380  1.00  0.00     0.053 C 
BRANCH   4   5
ATOM      5  C   UNL     1      63.637  34.641  60.888  1.00  0.00     0.041 C 
ATOM      6  O   UNL     1      64.783  34.834  61.373  1.00  0.00    -0.550 OA
ATOM      7  O   UNL     1      62.712  35.678  60.871  1.00  0.00    -0.550 OA
ENDBRANCH   4   5
ENDBRANCH   3   4
ENDBRANCH   2   3
ENDBRANCH   1   2
BRANCH   1   8
ATOM      8  C   UNL     1      61.785  29.974  61.690  1.00  0.00     0.000 C 
BRANCH   8   9
ATOM      9  C   UNL     1      62.753  29.487  60.602  1.00  0.00     0.006 C 
BRANCH   9  10
ATOM     10  C   UNL     1      64.203  29.805  60.978  1.00  0.00     0.053 C 
BRANCH  10  11
ATOM     11  C   UNL     1      65.111  28.694  60.552  1.00  0.00     0.041 C 
ATOM     12  O   UNL     1      64.657  27.532  60.390  1.00  0.00    -0.550 OA
ATOM     13  O   UNL     1      66.450  28.955  60.286  1.00  0.00    -0.550 OA
ENDBRANCH  10  11
ENDBRANCH   9  10
ENDBRANCH   8   9
ENDBRANCH   1   8
TORSDOF 8
ENDMDL
MODEL 5
REMARK VINA RESULT:    -3.404      2.505      3.280
REMARK INTER + INTRA:          -5.391
REMARK INTER:                  -5.002
REMARK INTRA:                  -0.389
REMARK UNBOUND:                -0.394
REMARK SMILES O=C([O-])CCCCCCCC(=O)[O-]
REMARK SMILES IDX 7 1 6 2 5 3 4 4 2 5 1 6 3 7 8 8 9 9 10 10 11 11 12 12 13 13
REMARK H PARENT
REMARK Flexibility Score: inf
ROOT
ATOM      1  C   UNL     1      63.411  32.465  60.353  1.00  0.00     0.000 C 
ENDROOT
BRANCH   1   2
ATOM      2  C   UNL     1      64.162  31.159  60.664  1.00  0.00     0.000 C 
BRANCH   2   3
ATOM      3  C   UNL     1      63.237  30.063  61.217  1.00  0.00     0.006 C 
BRANCH   3   4
ATOM      4  C   UNL     1      62.070  29.742  60.274  1.00  0.00     0.053 C 
BRANCH   4   5
ATOM      5  C   UNL     1      60.765  29.880  60.994  1.00  0.00     0.041 C 
ATOM      6  O   UNL     1      59.828  29.071  60.766  1.00  0.00    -0.550 OA
ATOM      7  O   UNL     1      60.568  30.932  61.879  1.00  0.00    -0.550 OA
ENDBRANCH   4   5
ENDBRANCH   3   4
ENDBRANCH   2   3
ENDBRANCH   1   2
BRANCH   1   8
ATOM      8  C   UNL     1      64.113  33.703  60.934  1.00  0.00     0.000 C 
BRANCH   8   9
ATOM      9  C   UNL     1      63.356  35.007  60.640  1.00  0.00     0.006 C 
BRANCH   9  10
ATOM     10  C   UNL     1      61.877  34.728  60.352  1.00  0.00     0.053 C 
BRANCH  10  11
ATOM     11  C   UNL     1      61.092  36.002  60.363  1.00  0.00     0.041 C 
ATOM     12  O   UNL     1      61.555  37.028  60.926  1.00  0.00    -0.550 OA
ATOM     13  O   UNL     1      59.868  36.069  59.708  1.00  0.00    -0.550 OA
ENDBRANCH  10  11
ENDBRANCH   9  10
ENDBRANCH   8   9
ENDBRANCH   1   8
TORSDOF 8
ENDMDL
MODEL 6
REMARK VINA RESULT:    -3.385      1.409      2.035
REMARK INTER + INTRA:          -5.362
REMARK INTER:                  -4.892
REMARK INTRA:                  -0.470
REMARK UNBOUND:                -0.394
REMARK SMILES O=C([O-])CCCCCCCC(=O)[O-]
REMARK SMILES IDX 7 1 6 2 5 3 4 4 2 5 1 6 3 7 8 8 9 9 10 10 11 11 12 12 13 13
REMARK H PARENT
REMARK Flexibility Score: inf
ROOT
ATOM      1  C   UNL     1      61.306  33.297  58.941  1.00  0.00     0.000 C 
ENDROOT
BRANCH   1   2
ATOM      2  C   UNL     1      61.665  32.507  60.212  1.00  0.00     0.000 C 
BRANCH   2   3
ATOM      3  C   UNL     1      60.813  31.239  60.380  1.00  0.00     0.006 C 
BRANCH   3   4
ATOM      4  C   UNL     1      61.126  30.484  61.679  1.00  0.00     0.053 C 
BRANCH   4   5
ATOM      5  C   UNL     1      62.161  29.431  61.434  1.00  0.00     0.041 C 
ATOM      6  O   UNL     1      63.380  29.742  61.383  1.00  0.00    -0.550 OA
ATOM      7  O   UNL     1      61.776  28.115  61.213  1.00  0.00    -0.550 OA
ENDBRANCH   4   5
ENDBRANCH   3   4
ENDBRANCH   2   3
ENDBRANCH   1   2
BRANCH   1   8
ATOM      8  C   UNL     1      61.260  34.814  59.181  1.00  0.00     0.000 C 
BRANCH   8   9
ATOM      9  C   UNL     1      61.677  35.202  60.608  1.00  0.00     0.006 C 
BRANCH   9  10
ATOM     10  C   UNL     1      62.960  36.039  60.595  1.00  0.00     0.053 C 
BRANCH  10  11
ATOM     11  C   UNL     1      64.164  35.151  60.556  1.00  0.00     0.041 C 
ATOM     12  O   UNL     1      64.608  34.638  61.616  1.00  0.00    -0.550 OA
ATOM     13  O   UNL     1      64.767  34.852  59.340  1.00  0.00    -0.550 OA
ENDBRANCH  10  11
ENDBRANCH   9  10
ENDBRANCH   8   9
ENDBRANCH   1   8
TORSDOF 8
ENDMDL
MODEL 7
REMARK VINA RESULT:    -3.378     12.493     13.924
REMARK INTER + INTRA:          -5.353
REMARK INTER:                  -5.004
REMARK INTRA:                  -0.349
REMARK UNBOUND:                -0.394
REMARK SMILES O=C([O-])CCCCCCCC(=O)[O-]
REMARK SMILES IDX 7 1 6 2 5 3 4 4 2 5 1 6 3 7 8 8 9 9 10 10 11 11 12 12 13 13
REMARK H PARENT
REMARK Flexibility Score: inf
ROOT
ATOM      1  C   UNL     1      58.483  29.378  49.971  1.00  0.00     0.000 C 
ENDROOT
BRANCH   1   2
ATOM      2  C   UNL     1      57.888  28.082  50.548  1.00  0.00     0.000 C 
BRANCH   2   3
ATOM      3  C   UNL     1      56.424  27.869  50.132  1.00  0.00     0.006 C 
BRANCH   3   4
ATOM      4  C   UNL     1      56.095  26.394  49.860  1.00  0.00     0.053 C 
BRANCH   4   5
ATOM      5  C   UNL     1      54.673  26.251  49.415  1.00  0.00     0.041 C 
ATOM      6  O   UNL     1      53.930  27.265  49.333  1.00  0.00    -0.550 OA
ATOM      7  O   UNL     1      54.154  24.993  49.138  1.00  0.00    -0.550 OA
ENDBRANCH   4   5
ENDBRANCH   3   4
ENDBRANCH   2   3
ENDBRANCH   1   2
BRANCH   1   8
ATOM      8  C   UNL     1      59.629  29.113  48.981  1.00  0.00     0.000 C 
BRANCH   8   9
ATOM      9  C   UNL     1      60.204  27.694  49.105  1.00  0.00     0.006 C 
BRANCH   9  10
ATOM     10  C   UNL     1      61.721  27.735  49.313  1.00  0.00     0.053 C 
BRANCH  10  11
ATOM     11  C   UNL     1      62.233  26.386  49.712  1.00  0.00     0.041 C 
ATOM     12  O   UNL     1      61.442  25.412  49.808  1.00  0.00    -0.550 OA
ATOM     13  O   UNL     1      63.591  26.195  49.929  1.00  0.00    -0.550 OA
ENDBRANCH  10  11
ENDBRANCH   9  10
ENDBRANCH   8   9
ENDBRANCH   1   8
TORSDOF 8
ENDMDL
MODEL 8
REMARK VINA RESULT:    -3.363     12.345     14.207
REMARK INTER + INTRA:          -5.331
REMARK INTER:                  -4.846
REMARK INTRA:                  -0.484
REMARK UNBOUND:                -0.394
REMARK SMILES O=C([O-])CCCCCCCC(=O)[O-]
REMARK SMILES IDX 7 1 6 2 5 3 4 4 2 5 1 6 3 7 8 8 9 9 10 10 11 11 12 12 13 13
REMARK H PARENT
REMARK Flexibility Score: inf
ROOT
ATOM      1  C   UNL     1      56.837  28.468  51.357  1.00  0.00     0.000 C 
ENDROOT
BRANCH   1   2
ATOM      2  C   UNL     1      58.075  29.328  51.048  1.00  0.00     0.000 C 
BRANCH   2   3
ATOM      3  C   UNL     1      58.544  29.185  49.592  1.00  0.00     0.006 C 
BRANCH   3   4
ATOM      4  C   UNL     1      60.066  29.325  49.443  1.00  0.00     0.053 C 
BRANCH   4   5
ATOM      5  C   UNL     1      60.690  27.987  49.200  1.00  0.00     0.041 C 
ATOM      6  O   UNL     1      59.971  26.955  49.130  1.00  0.00    -0.550 OA
ATOM      7  O   UNL     1      62.071  27.872  49.100  1.00  0.00    -0.550 OA
ENDBRANCH   4   5
ENDBRANCH   3   4
ENDBRANCH   2   3
ENDBRANCH   1   2
BRANCH   1   8
ATOM      8  C   UNL     1      55.544  29.065  50.779  1.00  0.00     0.000 C 
BRANCH   8   9
ATOM      9  C   UNL     1      54.796  28.084  49.863  1.00  0.00     0.006 C 
BRANCH   9  10
ATOM     10  C   UNL     1      55.533  26.744  49.778  1.00  0.00     0.053 C 
BRANCH  10  11
ATOM     11  C   UNL     1      54.600  25.613  50.075  1.00  0.00     0.041 C 
ATOM     12  O   UNL     1      54.045  24.986  49.135  1.00  0.00    -0.550 OA
ATOM     13  O   UNL     1      54.381  25.219  51.389  1.00  0.00    -0.550 OA
ENDBRANCH  10  11
ENDBRANCH   9  10
ENDBRANCH   8   9
ENDBRANCH   1   8
TORSDOF 8
ENDMDL
MODEL 9
REMARK VINA RESULT:    -3.312     12.404     13.746
REMARK INTER + INTRA:          -5.255
REMARK INTER:                  -4.866
REMARK INTRA:                  -0.389
REMARK UNBOUND:                -0.394
REMARK SMILES O=C([O-])CCCCCCCC(=O)[O-]
REMARK SMILES IDX 7 1 6 2 5 3 4 4 2 5 1 6 3 7 8 8 9 9 10 10 11 11 12 12 13 13
REMARK H PARENT
REMARK Flexibility Score: inf
ROOT
ATOM      1  C   UNL     1      56.857  29.041  51.371  1.00  0.00     0.000 C 
ENDROOT
BRANCH   1   2
ATOM      2  C   UNL     1      55.356  29.298  51.150  1.00  0.00     0.000 C 
BRANCH   2   3
ATOM      3  C   UNL     1      54.539  27.998  51.073  1.00  0.00     0.006 C 
BRANCH   3   4
ATOM      4  C   UNL     1      54.203  27.594  49.631  1.00  0.00     0.053 C 
BRANCH   4   5
ATOM      5  C   UNL     1      54.769  26.244  49.323  1.00  0.00     0.041 C 
ATOM      6  O   UNL     1      54.051  25.366  48.775  1.00  0.00    -0.550 OA
ATOM      7  O   UNL     1      56.075  25.938  49.684  1.00  0.00    -0.550 OA
ENDBRANCH   4   5
ENDBRANCH   3   4
ENDBRANCH   2   3
ENDBRANCH   1   2
BRANCH   1   8
ATOM      8  C   UNL     1      57.640  28.944  50.052  1.00  0.00     0.000 C 
BRANCH   8   9
ATOM      9  C   UNL     1      59.120  29.322  50.211  1.00  0.00     0.006 C 
BRANCH   9  10
ATOM     10  C   UNL     1      59.907  29.003  48.936  1.00  0.00     0.053 C 
BRANCH  10  11
ATOM     11  C   UNL     1      60.762  27.792  49.136  1.00  0.00     0.041 C 
ATOM     12  O   UNL     1      60.238  26.649  49.199  1.00  0.00    -0.550 OA
ATOM     13  O   UNL     1      62.144  27.921  49.204  1.00  0.00    -0.550 OA
ENDBRANCH  10  11
ENDBRANCH   9  10
ENDBRANCH   8   9
ENDBRANCH   1   8
TORSDOF 8
ENDMDL
