MODEL 1
REMARK VINA RESULT:    -5.230      0.000      0.000
REMARK INTER + INTRA:          -6.300
REMARK INTER:                  -5.995
REMARK INTRA:                  -0.305
REMARK UNBOUND:                -0.305
REMARK SMILES O=C1C[C@H](c2ccc(O)cc2)Oc2cc(O)cc(O)c21
REMARK SMILES IDX 3 1 4 2 12 3 13 4 14 5 15 6 17 7 18 8 20 9 2 10 1 11 5 12
REMARK SMILES IDX 6 13 11 14 7 15 10 16 8 17 9 18 19 20 16 22
REMARK H PARENT 9 19 19 21 16 23
REMARK Flexibility Score: inf
ROOT
ATOM      1  C   UNL     1      -5.586  90.139 -10.379  1.00  0.00     0.131 C 
ATOM      2  C   UNL     1      -5.210  91.156  -9.292  1.00  0.00     0.211 C 
ATOM      3  O   UNL     1      -4.288  90.580  -8.363  1.00  0.00    -0.484 OA
ATOM      4  C   UNL     1      -4.387  89.253  -7.922  1.00  0.00     0.138 A 
ATOM      5  C   UNL     1      -3.631  88.848  -6.819  1.00  0.00     0.093 A 
ATOM      6  C   UNL     1      -3.719  87.537  -6.347  1.00  0.00     0.123 A 
ATOM      7  C   UNL     1      -4.545  86.617  -7.001  1.00  0.00     0.093 A 
ATOM      8  C   UNL     1      -5.281  86.992  -8.132  1.00  0.00     0.133 A 
ATOM      9  C   UNL     1      -5.231  88.337  -8.585  1.00  0.00     0.102 A 
ATOM     10  C   UNL     1      -6.020  88.860  -9.728  1.00  0.00     0.174 C 
ATOM     11  O   UNL     1      -7.070  88.291 -10.126  1.00  0.00    -0.294 OA
ENDROOT
BRANCH   2  12
ATOM     12  C   UNL     1      -4.618  92.400  -9.905  1.00  0.00    -0.007 A 
ATOM     13  C   UNL     1      -3.996  93.369  -9.097  1.00  0.00     0.011 A 
ATOM     14  C   UNL     1      -4.632  92.578 -11.299  1.00  0.00     0.011 A 
ATOM     15  C   UNL     1      -3.421  94.506  -9.673  1.00  0.00     0.046 A 
ATOM     16  C   UNL     1      -4.056  93.717 -11.872  1.00  0.00     0.046 A 
ATOM     17  C   UNL     1      -3.451  94.684 -11.059  1.00  0.00     0.115 A 
BRANCH  17  18
ATOM     18  O   UNL     1      -2.875  95.823 -11.619  1.00  0.00    -0.508 OA
ATOM     19  H   UNL     1      -2.797  96.688 -11.097  1.00  0.00     0.293 HD
ENDBRANCH  17  18
ENDBRANCH   2  12
BRANCH   8  20
ATOM     20  O   UNL     1      -6.010  85.994  -8.784  1.00  0.00    -0.507 OA
ATOM     21  H   UNL     1      -5.592  85.250  -9.322  1.00  0.00     0.293 HD
ENDBRANCH   8  20
BRANCH   6  22
ATOM     22  O   UNL     1      -2.974  87.157  -5.233  1.00  0.00    -0.508 OA
ATOM     23  H   UNL     1      -2.442  87.832  -4.696  1.00  0.00     0.293 HD
ENDBRANCH   6  22
TORSDOF 4
ENDMDL
MODEL 2
REMARK VINA RESULT:    -5.146      5.115      7.127
REMARK INTER + INTRA:          -6.203
REMARK INTER:                  -5.902
REMARK INTRA:                  -0.302
REMARK UNBOUND:                -0.305
REMARK SMILES O=C1C[C@H](c2ccc(O)cc2)Oc2cc(O)cc(O)c21
REMARK SMILES IDX 3 1 4 2 12 3 13 4 14 5 15 6 17 7 18 8 20 9 2 10 1 11 5 12
REMARK SMILES IDX 6 13 11 14 7 15 10 16 8 17 9 18 19 20 16 22
REMARK H PARENT 9 19 19 21 16 23
REMARK Flexibility Score: inf
ROOT
ATOM      1  C   UNL     1      -4.229  92.480 -14.774  1.00  0.00     0.131 C 
ATOM      2  C   UNL     1      -4.075  91.131 -15.491  1.00  0.00     0.211 C 
ATOM      3  O   UNL     1      -5.073  90.209 -15.047  1.00  0.00    -0.484 OA
ATOM      4  C   UNL     1      -5.483  90.123 -13.709  1.00  0.00     0.138 A 
ATOM      5  C   UNL     1      -6.246  89.026 -13.304  1.00  0.00     0.093 A 
ATOM      6  C   UNL     1      -6.657  88.905 -11.975  1.00  0.00     0.123 A 
ATOM      7  C   UNL     1      -6.327  89.903 -11.052  1.00  0.00     0.093 A 
ATOM      8  C   UNL     1      -5.596  91.030 -11.446  1.00  0.00     0.133 A 
ATOM      9  C   UNL     1      -5.136  91.133 -12.785  1.00  0.00     0.102 A 
ATOM     10  C   UNL     1      -4.297  92.246 -13.294  1.00  0.00     0.174 C 
ATOM     11  O   UNL     1      -3.602  92.959 -12.524  1.00  0.00    -0.294 OA
ENDROOT
BRANCH   2  12
ATOM     12  C   UNL     1      -4.161  91.308 -16.986  1.00  0.00    -0.007 A 
ATOM     13  C   UNL     1      -5.412  91.370 -17.628  1.00  0.00     0.011 A 
ATOM     14  C   UNL     1      -2.992  91.469 -17.750  1.00  0.00     0.011 A 
ATOM     15  C   UNL     1      -5.488  91.565 -19.010  1.00  0.00     0.046 A 
ATOM     16  C   UNL     1      -3.072  91.664 -19.132  1.00  0.00     0.046 A 
ATOM     17  C   UNL     1      -4.321  91.710 -19.765  1.00  0.00     0.115 A 
BRANCH  17  18
ATOM     18  O   UNL     1      -4.412  91.903 -21.142  1.00  0.00    -0.508 OA
ATOM     19  H   UNL     1      -3.633  91.703 -21.758  1.00  0.00     0.293 HD
ENDBRANCH  17  18
ENDBRANCH   2  12
BRANCH   8  20
ATOM     20  O   UNL     1      -5.387  92.027 -10.489  1.00  0.00    -0.507 OA
ATOM     21  H   UNL     1      -5.918  92.110  -9.635  1.00  0.00     0.293 HD
ENDBRANCH   8  20
BRANCH   6  22
ATOM     22  O   UNL     1      -7.400  87.793 -11.585  1.00  0.00    -0.508 OA
ATOM     23  H   UNL     1      -7.021  86.855 -11.642  1.00  0.00     0.293 HD
ENDBRANCH   6  22
TORSDOF 4
ENDMDL
MODEL 3
REMARK VINA RESULT:    -5.102      5.655      8.555
REMARK INTER + INTRA:          -6.153
REMARK INTER:                  -5.840
REMARK INTRA:                  -0.313
REMARK UNBOUND:                -0.305
REMARK SMILES O=C1C[C@H](c2ccc(O)cc2)Oc2cc(O)cc(O)c21
REMARK SMILES IDX 3 1 4 2 12 3 13 4 14 5 15 6 17 7 18 8 20 9 2 10 1 11 5 12
REMARK SMILES IDX 6 13 11 14 7 15 10 16 8 17 9 18 19 20 16 22
REMARK H PARENT 9 19 19 21 16 23
REMARK Flexibility Score: inf
ROOT
ATOM      1  C   UNL     1      -7.690  89.350 -13.518  1.00  0.00     0.131 C 
ATOM      2  C   UNL     1      -8.436  90.673 -13.293  1.00  0.00     0.211 C 
ATOM      3  O   UNL     1      -8.025  91.651 -14.251  1.00  0.00    -0.484 OA
ATOM      4  C   UNL     1      -6.694  91.787 -14.671  1.00  0.00     0.138 A 
ATOM      5  C   UNL     1      -6.324  92.928 -15.386  1.00  0.00     0.093 A 
ATOM      6  C   UNL     1      -5.004  93.100 -15.805  1.00  0.00     0.123 A 
ATOM      7  C   UNL     1      -4.054  92.109 -15.533  1.00  0.00     0.093 A 
ATOM      8  C   UNL     1      -4.413  90.940 -14.851  1.00  0.00     0.133 A 
ATOM      9  C   UNL     1      -5.744  90.785 -14.382  1.00  0.00     0.102 A 
ATOM     10  C   UNL     1      -6.217  89.622 -13.591  1.00  0.00     0.174 C 
ATOM     11  O   UNL     1      -5.422  88.895 -12.938  1.00  0.00    -0.294 OA
ENDROOT
BRANCH   2  12
ATOM     12  C   UNL     1      -9.928  90.465 -13.371  1.00  0.00    -0.007 A 
ATOM     13  C   UNL     1     -10.508  89.266 -12.918  1.00  0.00     0.011 A 
ATOM     14  C   UNL     1     -10.762  91.491 -13.847  1.00  0.00     0.011 A 
ATOM     15  C   UNL     1     -11.894  89.090 -12.964  1.00  0.00     0.046 A 
ATOM     16  C   UNL     1     -12.148  91.312 -13.892  1.00  0.00     0.046 A 
ATOM     17  C   UNL     1     -12.717  90.110 -13.452  1.00  0.00     0.115 A 
BRANCH  17  18
ATOM     18  O   UNL     1     -14.097  89.920 -13.492  1.00  0.00    -0.508 OA
ATOM     19  H   UNL     1     -14.697  90.240 -12.742  1.00  0.00     0.293 HD
ENDBRANCH  17  18
ENDBRANCH   2  12
BRANCH   8  20
ATOM     20  O   UNL     1      -3.430  89.958 -14.700  1.00  0.00    -0.507 OA
ATOM     21  H   UNL     1      -3.225  89.254 -15.392  1.00  0.00     0.293 HD
ENDBRANCH   8  20
BRANCH   6  22
ATOM     22  O   UNL     1      -4.648  94.254 -16.500  1.00  0.00    -0.508 OA
ATOM     23  H   UNL     1      -3.999  94.928 -16.110  1.00  0.00     0.293 HD
ENDBRANCH   6  22
TORSDOF 4
ENDMDL
MODEL 4
REMARK VINA RESULT:    -5.096      8.090      9.461
REMARK INTER + INTRA:          -6.146
REMARK INTER:                  -5.855
REMARK INTRA:                  -0.291
REMARK UNBOUND:                -0.305
REMARK SMILES O=C1C[C@H](c2ccc(O)cc2)Oc2cc(O)cc(O)c21
REMARK SMILES IDX 3 1 4 2 12 3 13 4 14 5 15 6 17 7 18 8 20 9 2 10 1 11 5 12
REMARK SMILES IDX 6 13 11 14 7 15 10 16 8 17 9 18 19 20 16 22
REMARK H PARENT 9 19 19 21 16 23
REMARK Flexibility Score: inf
ROOT
ATOM      1  C   UNL     1      -8.907  83.532  -6.931  1.00  0.00     0.131 C 
ATOM      2  C   UNL     1      -9.065  84.145  -8.330  1.00  0.00     0.211 C 
ATOM      3  O   UNL     1      -8.125  83.570  -9.240  1.00  0.00    -0.484 OA
ATOM      4  C   UNL     1      -6.806  83.265  -8.874  1.00  0.00     0.138 A 
ATOM      5  C   UNL     1      -5.877  82.970  -9.875  1.00  0.00     0.093 A 
ATOM      6  C   UNL     1      -4.554  82.677  -9.544  1.00  0.00     0.123 A 
ATOM      7  C   UNL     1      -4.163  82.650  -8.201  1.00  0.00     0.093 A 
ATOM      8  C   UNL     1      -5.087  82.904  -7.180  1.00  0.00     0.133 A 
ATOM      9  C   UNL     1      -6.423  83.249  -7.516  1.00  0.00     0.102 A 
ATOM     10  C   UNL     1      -7.466  83.604  -6.522  1.00  0.00     0.174 C 
ATOM     11  O   UNL     1      -7.171  84.016  -5.369  1.00  0.00    -0.294 OA
ENDROOT
BRANCH   2  12
ATOM     12  C   UNL     1     -10.470  83.950  -8.843  1.00  0.00    -0.007 A 
ATOM     13  C   UNL     1     -11.296  85.058  -9.107  1.00  0.00     0.011 A 
ATOM     14  C   UNL     1     -10.950  82.658  -9.118  1.00  0.00     0.011 A 
ATOM     15  C   UNL     1     -12.586  84.873  -9.612  1.00  0.00     0.046 A 
ATOM     16  C   UNL     1     -12.242  82.477  -9.623  1.00  0.00     0.046 A 
ATOM     17  C   UNL     1     -13.063  83.584  -9.869  1.00  0.00     0.115 A 
BRANCH  17  18
ATOM     18  O   UNL     1     -14.352  83.416 -10.372  1.00  0.00    -0.508 OA
ATOM     19  H   UNL     1     -14.555  83.533 -11.358  1.00  0.00     0.293 HD
ENDBRANCH  17  18
ENDBRANCH   2  12
BRANCH   8  20
ATOM     20  O   UNL     1      -4.643  82.766  -5.862  1.00  0.00    -0.507 OA
ATOM     21  H   UNL     1      -3.701  82.961  -5.561  1.00  0.00     0.293 HD
ENDBRANCH   8  20
BRANCH   6  22
ATOM     22  O   UNL     1      -3.636  82.406 -10.556  1.00  0.00    -0.508 OA
ATOM     23  H   UNL     1      -3.285  83.138 -11.163  1.00  0.00     0.293 HD
ENDBRANCH   6  22
TORSDOF 4
ENDMDL
MODEL 5
REMARK VINA RESULT:    -5.051      3.362      8.075
REMARK INTER + INTRA:          -6.095
REMARK INTER:                  -5.801
REMARK INTRA:                  -0.294
REMARK UNBOUND:                -0.305
REMARK SMILES O=C1C[C@H](c2ccc(O)cc2)Oc2cc(O)cc(O)c21
REMARK SMILES IDX 3 1 4 2 12 3 13 4 14 5 15 6 17 7 18 8 20 9 2 10 1 11 5 12
REMARK SMILES IDX 6 13 11 14 7 15 10 16 8 17 9 18 19 20 16 22
REMARK H PARENT 9 19 19 21 16 23
REMARK Flexibility Score: inf
ROOT
ATOM      1  C   UNL     1      -5.758  84.922  -9.051  1.00  0.00     0.131 C 
ATOM      2  C   UNL     1      -4.245  84.784  -8.835  1.00  0.00     0.211 C 
ATOM      3  O   UNL     1      -3.764  85.818  -7.971  1.00  0.00    -0.484 OA
ATOM      4  C   UNL     1      -4.235  87.137  -8.036  1.00  0.00     0.138 A 
ATOM      5  C   UNL     1      -3.532  88.139  -7.363  1.00  0.00     0.093 A 
ATOM      6  C   UNL     1      -3.966  89.464  -7.420  1.00  0.00     0.123 A 
ATOM      7  C   UNL     1      -5.129  89.785  -8.130  1.00  0.00     0.093 A 
ATOM      8  C   UNL     1      -5.870  88.789  -8.779  1.00  0.00     0.133 A 
ATOM      9  C   UNL     1      -5.404  87.448  -8.762  1.00  0.00     0.102 A 
ATOM     10  C   UNL     1      -6.070  86.327  -9.470  1.00  0.00     0.174 C 
ATOM     11  O   UNL     1      -6.842  86.523 -10.446  1.00  0.00    -0.294 OA
ENDROOT
BRANCH   2  12
ATOM     12  C   UNL     1      -3.908  83.431  -8.260  1.00  0.00    -0.007 A 
ATOM     13  C   UNL     1      -3.213  82.480  -9.029  1.00  0.00     0.011 A 
ATOM     14  C   UNL     1      -4.236  83.125  -6.927  1.00  0.00     0.011 A 
ATOM     15  C   UNL     1      -2.875  81.239  -8.482  1.00  0.00     0.046 A 
ATOM     16  C   UNL     1      -3.897  81.882  -6.383  1.00  0.00     0.046 A 
ATOM     17  C   UNL     1      -3.217  80.936  -7.160  1.00  0.00     0.115 A 
BRANCH  17  18
ATOM     18  O   UNL     1      -2.875  79.694  -6.629  1.00  0.00    -0.508 OA
ATOM     19  H   UNL     1      -3.545  78.935  -6.584  1.00  0.00     0.293 HD
ENDBRANCH  17  18
ENDBRANCH   2  12
BRANCH   8  20
ATOM     20  O   UNL     1      -7.068  89.174  -9.387  1.00  0.00    -0.507 OA
ATOM     21  H   UNL     1      -7.347  90.133  -9.526  1.00  0.00     0.293 HD
ENDBRANCH   8  20
BRANCH   6  22
ATOM     22  O   UNL     1      -3.241  90.454  -6.761  1.00  0.00    -0.508 OA
ATOM     23  H   UNL     1      -3.163  90.470  -5.751  1.00  0.00     0.293 HD
ENDBRANCH   6  22
TORSDOF 4
ENDMDL
MODEL 6
REMARK VINA RESULT:    -5.047     11.094     12.623
REMARK INTER + INTRA:          -6.090
REMARK INTER:                  -5.796
REMARK INTRA:                  -0.294
REMARK UNBOUND:                -0.305
REMARK SMILES O=C1C[C@H](c2ccc(O)cc2)Oc2cc(O)cc(O)c21
REMARK SMILES IDX 3 1 4 2 12 3 13 4 14 5 15 6 17 7 18 8 20 9 2 10 1 11 5 12
REMARK SMILES IDX 6 13 11 14 7 15 10 16 8 17 9 18 19 20 16 22
REMARK H PARENT 9 19 19 21 16 23
REMARK Flexibility Score: inf
ROOT
ATOM      1  C   UNL     1     -15.007  81.184  -8.058  1.00  0.00     0.131 C 
ATOM      2  C   UNL     1     -14.207  82.331  -7.424  1.00  0.00     0.211 C 
ATOM      3  O   UNL     1     -12.830  81.970  -7.291  1.00  0.00    -0.484 OA
ATOM      4  C   UNL     1     -12.418  80.683  -6.915  1.00  0.00     0.138 A 
ATOM      5  C   UNL     1     -11.088  80.482  -6.538  1.00  0.00     0.093 A 
ATOM      6  C   UNL     1     -10.651  79.217  -6.145  1.00  0.00     0.123 A 
ATOM      7  C   UNL     1     -11.542  78.139  -6.156  1.00  0.00     0.093 A 
ATOM      8  C   UNL     1     -12.870  78.311  -6.568  1.00  0.00     0.133 A 
ATOM      9  C   UNL     1     -13.329  79.606  -6.923  1.00  0.00     0.102 A 
ATOM     10  C   UNL     1     -14.729  79.917  -7.307  1.00  0.00     0.174 C 
ATOM     11  O   UNL     1     -15.690  79.175  -6.971  1.00  0.00    -0.294 OA
ENDROOT
BRANCH   2  12
ATOM     12  C   UNL     1     -14.335  83.590  -8.245  1.00  0.00    -0.007 A 
ATOM     13  C   UNL     1     -15.049  84.697  -7.751  1.00  0.00     0.011 A 
ATOM     14  C   UNL     1     -13.693  83.691  -9.492  1.00  0.00     0.011 A 
ATOM     15  C   UNL     1     -15.139  85.872  -8.502  1.00  0.00     0.046 A 
ATOM     16  C   UNL     1     -13.786  84.868 -10.241  1.00  0.00     0.046 A 
ATOM     17  C   UNL     1     -14.511  85.961  -9.748  1.00  0.00     0.115 A 
BRANCH  17  18
ATOM     18  O   UNL     1     -14.610  87.139 -10.486  1.00  0.00    -0.508 OA
ATOM     19  H   UNL     1     -15.393  87.311 -11.105  1.00  0.00     0.293 HD
ENDBRANCH  17  18
ENDBRANCH   2  12
BRANCH   8  20
ATOM     20  O   UNL     1     -13.673  77.169  -6.641  1.00  0.00    -0.507 OA
ATOM     21  H   UNL     1     -13.448  76.292  -6.198  1.00  0.00     0.293 HD
ENDBRANCH   8  20
BRANCH   6  22
ATOM     22  O   UNL     1      -9.326  79.039  -5.752  1.00  0.00    -0.508 OA
ATOM     23  H   UNL     1      -8.601  78.812  -6.423  1.00  0.00     0.293 HD
ENDBRANCH   6  22
TORSDOF 4
ENDMDL
MODEL 7
REMARK VINA RESULT:    -4.928      3.598      5.746
REMARK INTER + INTRA:          -5.954
REMARK INTER:                  -5.634
REMARK INTRA:                  -0.319
REMARK UNBOUND:                -0.305
REMARK SMILES O=C1C[C@H](c2ccc(O)cc2)Oc2cc(O)cc(O)c21
REMARK SMILES IDX 3 1 4 2 12 3 13 4 14 5 15 6 17 7 18 8 20 9 2 10 1 11 5 12
REMARK SMILES IDX 6 13 11 14 7 15 10 16 8 17 9 18 19 20 16 22
REMARK H PARENT 9 19 19 21 16 23
REMARK Flexibility Score: inf
ROOT
ATOM      1  C   UNL     1      -4.300  93.401 -12.754  1.00  0.00     0.131 C 
ATOM      2  C   UNL     1      -4.018  91.931 -13.097  1.00  0.00     0.211 C 
ATOM      3  O   UNL     1      -4.701  91.063 -12.189  1.00  0.00    -0.484 OA
ATOM      4  C   UNL     1      -4.813  91.339 -10.818  1.00  0.00     0.138 A 
ATOM      5  C   UNL     1      -5.242  90.326  -9.958  1.00  0.00     0.093 A 
ATOM      6  C   UNL     1      -5.350  90.565  -8.587  1.00  0.00     0.123 A 
ATOM      7  C   UNL     1      -5.056  91.835  -8.077  1.00  0.00     0.093 A 
ATOM      8  C   UNL     1      -4.662  92.875  -8.928  1.00  0.00     0.133 A 
ATOM      9  C   UNL     1      -4.505  92.621 -10.316  1.00  0.00     0.102 A 
ATOM     10  C   UNL     1      -4.027  93.627 -11.297  1.00  0.00     0.174 C 
ATOM     11  O   UNL     1      -3.354  94.631 -10.944  1.00  0.00    -0.294 OA
ENDROOT
BRANCH   2  12
ATOM     12  C   UNL     1      -4.431  91.625 -14.515  1.00  0.00    -0.007 A 
ATOM     13  C   UNL     1      -5.016  90.387 -14.838  1.00  0.00     0.011 A 
ATOM     14  C   UNL     1      -4.288  92.596 -15.521  1.00  0.00     0.011 A 
ATOM     15  C   UNL     1      -5.426  90.119 -16.147  1.00  0.00     0.046 A 
ATOM     16  C   UNL     1      -4.699  92.325 -16.829  1.00  0.00     0.046 A 
ATOM     17  C   UNL     1      -5.267  91.084 -17.146  1.00  0.00     0.115 A 
BRANCH  17  18
ATOM     18  O   UNL     1      -5.679  90.803 -18.447  1.00  0.00    -0.508 OA
ATOM     19  H   UNL     1      -5.651  91.506 -19.175  1.00  0.00     0.293 HD
ENDBRANCH  17  18
ENDBRANCH   2  12
BRANCH   8  20
ATOM     20  O   UNL     1      -4.476  94.136  -8.357  1.00  0.00    -0.507 OA
ATOM     21  H   UNL     1      -4.579  94.331  -7.372  1.00  0.00     0.293 HD
ENDBRANCH   8  20
BRANCH   6  22
ATOM     22  O   UNL     1      -5.760  89.537  -7.740  1.00  0.00    -0.508 OA
ATOM     23  H   UNL     1      -6.055  88.638  -8.103  1.00  0.00     0.293 HD
ENDBRANCH   6  22
TORSDOF 4
ENDMDL
MODEL 8
REMARK VINA RESULT:    -4.855      2.466      4.653
REMARK INTER + INTRA:          -5.870
REMARK INTER:                  -5.558
REMARK INTRA:                  -0.312
REMARK UNBOUND:                -0.305
REMARK SMILES O=C1C[C@H](c2ccc(O)cc2)Oc2cc(O)cc(O)c21
REMARK SMILES IDX 3 1 4 2 12 3 13 4 14 5 15 6 17 7 18 8 20 9 2 10 1 11 5 12
REMARK SMILES IDX 6 13 11 14 7 15 10 16 8 17 9 18 19 20 16 22
REMARK H PARENT 9 19 19 21 16 23
REMARK Flexibility Score: inf
ROOT
ATOM      1  C   UNL     1      -4.042  87.435  -6.409  1.00  0.00     0.131 C 
ATOM      2  C   UNL     1      -3.870  87.837  -7.881  1.00  0.00     0.211 C 
ATOM      3  O   UNL     1      -4.515  86.892  -8.738  1.00  0.00    -0.484 OA
ATOM      4  C   UNL     1      -4.492  85.512  -8.496  1.00  0.00     0.138 A 
ATOM      5  C   UNL     1      -4.897  84.640  -9.510  1.00  0.00     0.093 A 
ATOM      6  C   UNL     1      -4.871  83.260  -9.305  1.00  0.00     0.123 A 
ATOM      7  C   UNL     1      -4.466  82.749  -8.068  1.00  0.00     0.093 A 
ATOM      8  C   UNL     1      -4.092  83.606  -7.025  1.00  0.00     0.133 A 
ATOM      9  C   UNL     1      -4.072  85.008  -7.247  1.00  0.00     0.102 A 
ATOM     10  C   UNL     1      -3.630  86.003  -6.239  1.00  0.00     0.174 C 
ATOM     11  O   UNL     1      -2.875  85.688  -5.281  1.00  0.00    -0.294 OA
ENDROOT
BRANCH   2  12
ATOM     12  C   UNL     1      -4.422  89.220  -8.125  1.00  0.00    -0.007 A 
ATOM     13  C   UNL     1      -3.922  90.325  -7.413  1.00  0.00     0.011 A 
ATOM     14  C   UNL     1      -5.403  89.427  -9.109  1.00  0.00     0.011 A 
ATOM     15  C   UNL     1      -4.415  91.609  -7.665  1.00  0.00     0.046 A 
ATOM     16  C   UNL     1      -5.894  90.713  -9.358  1.00  0.00     0.046 A 
ATOM     17  C   UNL     1      -5.402  91.806  -8.635  1.00  0.00     0.115 A 
BRANCH  17  18
ATOM     18  O   UNL     1      -5.884  93.091  -8.874  1.00  0.00    -0.508 OA
ATOM     19  H   UNL     1      -6.869  93.266  -9.035  1.00  0.00     0.293 HD
ENDBRANCH  17  18
ENDBRANCH   2  12
BRANCH   8  20
ATOM     20  O   UNL     1      -3.790  83.023  -5.792  1.00  0.00    -0.507 OA
ATOM     21  H   UNL     1      -3.069  82.332  -5.656  1.00  0.00     0.293 HD
ENDBRANCH   8  20
BRANCH   6  22
ATOM     22  O   UNL     1      -5.259  82.405 -10.334  1.00  0.00    -0.508 OA
ATOM     23  H   UNL     1      -5.703  81.514 -10.144  1.00  0.00     0.293 HD
ENDBRANCH   6  22
TORSDOF 4
ENDMDL
MODEL 9
REMARK VINA RESULT:    -4.810      3.032      7.605
REMARK INTER + INTRA:          -5.819
REMARK INTER:                  -5.504
REMARK INTRA:                  -0.315
REMARK UNBOUND:                -0.305
REMARK SMILES O=C1C[C@H](c2ccc(O)cc2)Oc2cc(O)cc(O)c21
REMARK SMILES IDX 3 1 4 2 12 3 13 4 14 5 15 6 17 7 18 8 20 9 2 10 1 11 5 12
REMARK SMILES IDX 6 13 11 14 7 15 10 16 8 17 9 18 19 20 16 22
REMARK H PARENT 9 19 19 21 16 23
REMARK Flexibility Score: inf
ROOT
ATOM      1  C   UNL     1      -5.245  90.376 -10.467  1.00  0.00     0.131 C 
ATOM      2  C   UNL     1      -6.284  89.359 -10.961  1.00  0.00     0.211 C 
ATOM      3  O   UNL     1      -6.002  88.966 -12.307  1.00  0.00    -0.484 OA
ATOM      4  C   UNL     1      -5.549  89.869 -13.280  1.00  0.00     0.138 A 
ATOM      5  C   UNL     1      -5.563  89.480 -14.621  1.00  0.00     0.093 A 
ATOM      6  C   UNL     1      -5.133  90.361 -15.615  1.00  0.00     0.123 A 
ATOM      7  C   UNL     1      -4.658  91.629 -15.261  1.00  0.00     0.093 A 
ATOM      8  C   UNL     1      -4.600  92.024 -13.919  1.00  0.00     0.133 A 
ATOM      9  C   UNL     1      -5.081  91.148 -12.911  1.00  0.00     0.102 A 
ATOM     10  C   UNL     1      -5.131  91.488 -11.467  1.00  0.00     0.174 C 
ATOM     11  O   UNL     1      -5.137  92.681 -11.066  1.00  0.00    -0.294 OA
ENDROOT
BRANCH   2  12
ATOM     12  C   UNL     1      -6.314  88.147 -10.064  1.00  0.00    -0.007 A 
ATOM     13  C   UNL     1      -6.737  86.900 -10.559  1.00  0.00     0.011 A 
ATOM     14  C   UNL     1      -5.864  88.238  -8.735  1.00  0.00     0.011 A 
ATOM     15  C   UNL     1      -6.734  85.773  -9.732  1.00  0.00     0.046 A 
ATOM     16  C   UNL     1      -5.862  87.108  -7.911  1.00  0.00     0.046 A 
ATOM     17  C   UNL     1      -6.299  85.874  -8.407  1.00  0.00     0.115 A 
BRANCH  17  18
ATOM     18  O   UNL     1      -6.302  84.742  -7.594  1.00  0.00    -0.508 OA
ATOM     19  H   UNL     1      -6.381  83.810  -7.984  1.00  0.00     0.293 HD
ENDBRANCH  17  18
ENDBRANCH   2  12
BRANCH   8  20
ATOM     20  O   UNL     1      -4.027  93.267 -13.640  1.00  0.00    -0.507 OA
ATOM     21  H   UNL     1      -4.517  94.145 -13.720  1.00  0.00     0.293 HD
ENDBRANCH   8  20
BRANCH   6  22
ATOM     22  O   UNL     1      -5.173  89.964 -16.949  1.00  0.00    -0.508 OA
ATOM     23  H   UNL     1      -4.617  90.430 -17.657  1.00  0.00     0.293 HD
ENDBRANCH   6  22
TORSDOF 4
ENDMDL
