MODEL 1
REMARK VINA RESULT:    -1.111      0.000      0.000
REMARK INTER + INTRA:          -5.109
REMARK INTER:                  -2.930
REMARK INTRA:                  -2.178
REMARK UNBOUND:                -2.178
REMARK SMILES CCCCCCCCCCCCCCCCCCCCCCCCCCCCCC(=O)[O-]
REMARK SMILES IDX 16 1 17 2 18 3 19 4 20 5 21 6 22 7 23 8 24 9 25 10 26 11
REMARK SMILES IDX 27 12 28 13 29 14 30 15 31 16 32 17 15 18 14 19 13 20 12 21
REMARK SMILES IDX 11 22 10 23 9 24 8 25 7 26 6 27 5 28 4 29 3 30 2 31 1 32
REMARK H PARENT
REMARK Flexibility Score: inf
ROOT
ATOM      1  C   UNL     1      -3.048   4.861  -2.507  1.00  0.00     0.000 C 
ENDROOT
BRANCH   1   2
ATOM      2  C   UNL     1      -3.693   5.565  -1.301  1.00  0.00     0.000 C 
BRANCH   2   3
ATOM      3  C   UNL     1      -2.896   5.376   0.002  1.00  0.00     0.000 C 
BRANCH   3   4
ATOM      4  C   UNL     1      -2.695   3.896   0.370  1.00  0.00     0.000 C 
BRANCH   4   5
ATOM      5  C   UNL     1      -4.011   3.141   0.655  1.00  0.00     0.000 C 
BRANCH   5   6
ATOM      6  C   UNL     1      -3.786   1.628   0.827  1.00  0.00     0.000 C 
BRANCH   6   7
ATOM      7  C   UNL     1      -2.777   1.064  -0.187  1.00  0.00     0.000 C 
BRANCH   7   8
ATOM      8  C   UNL     1      -3.285  -0.213  -0.874  1.00  0.00     0.000 C 
BRANCH   8   9
ATOM      9  C   UNL     1      -4.151   0.128  -2.096  1.00  0.00     0.000 C 
BRANCH   9  10
ATOM     10  C   UNL     1      -4.426  -1.089  -2.998  1.00  0.00     0.000 C 
BRANCH  10  11
ATOM     11  C   UNL     1      -3.422  -2.248  -2.855  1.00  0.00     0.000 C 
BRANCH  11  12
ATOM     12  C   UNL     1      -4.102  -3.612  -2.666  1.00  0.00     0.000 C 
BRANCH  12  13
ATOM     13  C   UNL     1      -3.488  -4.373  -1.480  1.00  0.00     0.006 C 
BRANCH  13  14
ATOM     14  C   UNL     1      -3.801  -3.699  -0.139  1.00  0.00     0.053 C 
BRANCH  14  15
ATOM     15  C   UNL     1      -4.823  -4.468   0.642  1.00  0.00     0.041 C 
ATOM     16  O   UNL     1      -5.443  -3.920   1.592  1.00  0.00    -0.550 OA
ATOM     17  O   UNL     1      -5.112  -5.783   0.299  1.00  0.00    -0.550 OA
ENDBRANCH  14  15
ENDBRANCH  13  14
ENDBRANCH  12  13
ENDBRANCH  11  12
ENDBRANCH  10  11
ENDBRANCH   9  10
ENDBRANCH   8   9
ENDBRANCH   7   8
ENDBRANCH   6   7
ENDBRANCH   5   6
ENDBRANCH   4   5
ENDBRANCH   3   4
ENDBRANCH   2   3
ENDBRANCH   1   2
BRANCH   1  18
ATOM     18  C   UNL     1      -3.888   4.865  -3.800  1.00  0.00     0.000 C 
BRANCH  18  19
ATOM     19  C   UNL     1      -5.246   5.591  -3.669  1.00  0.00     0.000 C 
BRANCH  19  20
ATOM     20  C   UNL     1      -5.591   6.501  -4.863  1.00  0.00     0.000 C 
BRANCH  20  21
ATOM     21  C   UNL     1      -6.713   5.933  -5.746  1.00  0.00     0.000 C 
BRANCH  21  22
ATOM     22  C   UNL     1      -6.773   6.668  -7.095  1.00  0.00     0.000 C 
BRANCH  22  23
ATOM     23  C   UNL     1      -8.181   6.668  -7.717  1.00  0.00     0.000 C 
BRANCH  23  24
ATOM     24  C   UNL     1      -8.282   7.378  -9.079  1.00  0.00    -0.000 C 
BRANCH  24  25
ATOM     25  C   UNL     1      -8.522   8.892  -8.949  1.00  0.00    -0.000 C 
BRANCH  25  26
ATOM     26  C   UNL     1      -7.272   9.647  -8.468  1.00  0.00    -0.000 C 
BRANCH  26  27
ATOM     27  C   UNL     1      -6.227   9.827  -9.578  1.00  0.00    -0.000 C 
BRANCH  27  28
ATOM     28  C   UNL     1      -4.829  10.052  -8.986  1.00  0.00    -0.000 C 
BRANCH  28  29
ATOM     29  C   UNL     1      -3.786   9.163  -9.681  1.00  0.00    -0.000 C 
BRANCH  29  30
ATOM     30  C   UNL     1      -4.251   7.703  -9.836  1.00  0.00    -0.000 C 
BRANCH  30  31
ATOM     31  C   UNL     1      -3.117   6.663  -9.847  1.00  0.00    -0.003 C 
ATOM     32  C   UNL     1      -3.593   5.258  -9.476  1.00  0.00     0.004 C 
ENDBRANCH  30  31
ENDBRANCH  29  30
ENDBRANCH  28  29
ENDBRANCH  27  28
ENDBRANCH  26  27
ENDBRANCH  25  26
ENDBRANCH  24  25
ENDBRANCH  23  24
ENDBRANCH  22  23
ENDBRANCH  21  22
ENDBRANCH  20  21
ENDBRANCH  19  20
ENDBRANCH  18  19
ENDBRANCH   1  18
TORSDOF 28
ENDMDL
MODEL 2
REMARK VINA RESULT:    -0.487      0.861      1.579
REMARK INTER + INTRA:          -3.461
REMARK INTER:                  -2.006
REMARK INTRA:                  -1.455
REMARK UNBOUND:                -2.178
REMARK SMILES CCCCCCCCCCCCCCCCCCCCCCCCCCCCCC(=O)[O-]
REMARK SMILES IDX 16 1 17 2 18 3 19 4 20 5 21 6 22 7 23 8 24 9 25 10 26 11
REMARK SMILES IDX 27 12 28 13 29 14 30 15 31 16 32 17 15 18 14 19 13 20 12 21
REMARK SMILES IDX 11 22 10 23 9 24 8 25 7 26 6 27 5 28 4 29 3 30 2 31 1 32
REMARK H PARENT
REMARK Flexibility Score: inf
ROOT
ATOM      1  C   UNL     1      -4.095   4.647  -3.394  1.00  0.00     0.000 C 
ENDROOT
BRANCH   1   2
ATOM      2  C   UNL     1      -2.996   4.927  -2.354  1.00  0.00     0.000 C 
BRANCH   2   3
ATOM      3  C   UNL     1      -3.552   5.140  -0.935  1.00  0.00     0.000 C 
BRANCH   3   4
ATOM      4  C   UNL     1      -3.136   4.027   0.042  1.00  0.00     0.000 C 
BRANCH   4   5
ATOM      5  C   UNL     1      -1.865   3.263  -0.387  1.00  0.00     0.000 C 
BRANCH   5   6
ATOM      6  C   UNL     1      -1.892   1.792   0.064  1.00  0.00     0.000 C 
BRANCH   6   7
ATOM      7  C   UNL     1      -3.307   1.192   0.031  1.00  0.00     0.000 C 
BRANCH   7   8
ATOM      8  C   UNL     1      -3.354  -0.163  -0.692  1.00  0.00     0.000 C 
BRANCH   8   9
ATOM      9  C   UNL     1      -4.631  -0.292  -1.536  1.00  0.00     0.000 C 
BRANCH   9  10
ATOM     10  C   UNL     1      -4.593  -1.485  -2.509  1.00  0.00     0.000 C 
BRANCH  10  11
ATOM     11  C   UNL     1      -3.185  -1.901  -2.975  1.00  0.00     0.000 C 
BRANCH  11  12
ATOM     12  C   UNL     1      -3.057  -3.411  -3.226  1.00  0.00     0.000 C 
BRANCH  12  13
ATOM     13  C   UNL     1      -3.980  -4.205  -2.289  1.00  0.00     0.006 C 
BRANCH  13  14
ATOM     14  C   UNL     1      -3.891  -3.712  -0.839  1.00  0.00     0.053 C 
BRANCH  14  15
ATOM     15  C   UNL     1      -4.567  -4.655   0.108  1.00  0.00     0.041 C 
ATOM     16  O   UNL     1      -5.128  -5.698  -0.323  1.00  0.00    -0.550 OA
ATOM     17  O   UNL     1      -4.552  -4.396   1.474  1.00  0.00    -0.550 OA
ENDBRANCH  14  15
ENDBRANCH  13  14
ENDBRANCH  12  13
ENDBRANCH  11  12
ENDBRANCH  10  11
ENDBRANCH   9  10
ENDBRANCH   8   9
ENDBRANCH   7   8
ENDBRANCH   6   7
ENDBRANCH   5   6
ENDBRANCH   4   5
ENDBRANCH   3   4
ENDBRANCH   2   3
ENDBRANCH   1   2
BRANCH   1  18
ATOM     18  C   UNL     1      -4.916   5.876  -3.835  1.00  0.00     0.000 C 
BRANCH  18  19
ATOM     19  C   UNL     1      -5.487   5.773  -5.267  1.00  0.00     0.000 C 
BRANCH  19  20
ATOM     20  C   UNL     1      -6.927   6.301  -5.409  1.00  0.00     0.000 C 
BRANCH  20  21
ATOM     21  C   UNL     1      -7.533   6.024  -6.794  1.00  0.00     0.000 C 
BRANCH  21  22
ATOM     22  C   UNL     1      -7.008   7.030  -7.832  1.00  0.00     0.000 C 
BRANCH  22  23
ATOM     23  C   UNL     1      -7.932   8.247  -8.011  1.00  0.00     0.000 C 
BRANCH  23  24
ATOM     24  C   UNL     1      -7.377   9.565  -7.443  1.00  0.00    -0.000 C 
BRANCH  24  25
ATOM     25  C   UNL     1      -5.988   9.920  -8.004  1.00  0.00    -0.000 C 
BRANCH  25  26
ATOM     26  C   UNL     1      -5.969   9.970  -9.540  1.00  0.00    -0.000 C 
BRANCH  26  27
ATOM     27  C   UNL     1      -4.583   9.662 -10.124  1.00  0.00    -0.000 C 
BRANCH  27  28
ATOM     28  C   UNL     1      -3.797   8.716  -9.206  1.00  0.00    -0.000 C 
BRANCH  28  29
ATOM     29  C   UNL     1      -3.487   7.390  -9.918  1.00  0.00    -0.000 C 
BRANCH  29  30
ATOM     30  C   UNL     1      -4.451   6.257  -9.521  1.00  0.00    -0.000 C 
BRANCH  30  31
ATOM     31  C   UNL     1      -3.779   4.898  -9.262  1.00  0.00    -0.003 C 
ATOM     32  C   UNL     1      -2.434   4.752  -9.975  1.00  0.00     0.004 C 
ENDBRANCH  30  31
ENDBRANCH  29  30
ENDBRANCH  28  29
ENDBRANCH  27  28
ENDBRANCH  26  27
ENDBRANCH  25  26
ENDBRANCH  24  25
ENDBRANCH  23  24
ENDBRANCH  22  23
ENDBRANCH  21  22
ENDBRANCH  20  21
ENDBRANCH  19  20
ENDBRANCH  18  19
ENDBRANCH   1  18
TORSDOF 28
ENDMDL
MODEL 3
REMARK VINA RESULT:     0.069      3.771     11.523
REMARK INTER + INTRA:          -1.997
REMARK INTER:                  -1.484
REMARK INTRA:                  -0.513
REMARK UNBOUND:                -2.178
REMARK SMILES CCCCCCCCCCCCCCCCCCCCCCCCCCCCCC(=O)[O-]
REMARK SMILES IDX 16 1 17 2 18 3 19 4 20 5 21 6 22 7 23 8 24 9 25 10 26 11
REMARK SMILES IDX 27 12 28 13 29 14 30 15 31 16 32 17 15 18 14 19 13 20 12 21
REMARK SMILES IDX 11 22 10 23 9 24 8 25 7 26 6 27 5 28 4 29 3 30 2 31 1 32
REMARK H PARENT
REMARK Flexibility Score: inf
ROOT
ATOM      1  C   UNL     1      -4.416   5.126  -4.501  1.00  0.00     0.000 C 
ENDROOT
BRANCH   1   2
ATOM      2  C   UNL     1      -5.626   5.943  -4.017  1.00  0.00     0.000 C 
BRANCH   2   3
ATOM      3  C   UNL     1      -5.944   7.143  -4.926  1.00  0.00     0.000 C 
BRANCH   3   4
ATOM      4  C   UNL     1      -7.353   7.071  -5.539  1.00  0.00     0.000 C 
BRANCH   4   5
ATOM      5  C   UNL     1      -7.625   5.770  -6.325  1.00  0.00     0.000 C 
BRANCH   5   6
ATOM      6  C   UNL     1      -6.963   5.782  -7.714  1.00  0.00     0.000 C 
BRANCH   6   7
ATOM      7  C   UNL     1      -6.595   7.201  -8.179  1.00  0.00     0.000 C 
BRANCH   7   8
ATOM      8  C   UNL     1      -7.716   7.862  -8.995  1.00  0.00     0.000 C 
BRANCH   8   9
ATOM      9  C   UNL     1      -7.799   9.367  -8.699  1.00  0.00     0.000 C 
BRANCH   9  10
ATOM     10  C   UNL     1      -6.467  10.102  -8.937  1.00  0.00     0.000 C 
BRANCH  10  11
ATOM     11  C   UNL     1      -5.203   9.254  -8.702  1.00  0.00     0.000 C 
BRANCH  11  12
ATOM     12  C   UNL     1      -4.135   9.455  -9.788  1.00  0.00     0.000 C 
BRANCH  12  13
ATOM     13  C   UNL     1      -3.437   8.128 -10.125  1.00  0.00     0.006 C 
BRANCH  13  14
ATOM     14  C   UNL     1      -4.047   6.946  -9.360  1.00  0.00     0.053 C 
BRANCH  14  15
ATOM     15  C   UNL     1      -3.344   5.661  -9.677  1.00  0.00     0.041 C 
ATOM     16  O   UNL     1      -2.085   5.608  -9.681  1.00  0.00    -0.550 OA
ATOM     17  O   UNL     1      -4.082   4.513  -9.938  1.00  0.00    -0.550 OA
ENDBRANCH  14  15
ENDBRANCH  13  14
ENDBRANCH  12  13
ENDBRANCH  11  12
ENDBRANCH  10  11
ENDBRANCH   9  10
ENDBRANCH   8   9
ENDBRANCH   7   8
ENDBRANCH   6   7
ENDBRANCH   5   6
ENDBRANCH   4   5
ENDBRANCH   3   4
ENDBRANCH   2   3
ENDBRANCH   1   2
BRANCH   1  18
ATOM     18  C   UNL     1      -3.235   5.046  -3.512  1.00  0.00     0.000 C 
BRANCH  18  19
ATOM     19  C   UNL     1      -3.604   4.452  -2.134  1.00  0.00     0.000 C 
BRANCH  19  20
ATOM     20  C   UNL     1      -3.603   5.477  -0.985  1.00  0.00     0.000 C 
BRANCH  20  21
ATOM     21  C   UNL     1      -2.518   5.197   0.067  1.00  0.00     0.000 C 
BRANCH  21  22
ATOM     22  C   UNL     1      -2.610   3.749   0.576  1.00  0.00     0.000 C 
BRANCH  22  23
ATOM     23  C   UNL     1      -4.010   3.385   1.102  1.00  0.00     0.000 C 
BRANCH  23  24
ATOM     24  C   UNL     1      -4.411   1.913   0.900  1.00  0.00    -0.000 C 
BRANCH  24  25
ATOM     25  C   UNL     1      -3.635   1.233  -0.243  1.00  0.00    -0.000 C 
BRANCH  25  26
ATOM     26  C   UNL     1      -4.116  -0.202  -0.508  1.00  0.00    -0.000 C 
BRANCH  26  27
ATOM     27  C   UNL     1      -3.150  -0.994  -1.400  1.00  0.00    -0.000 C 
BRANCH  27  28
ATOM     28  C   UNL     1      -3.839  -1.441  -2.696  1.00  0.00    -0.000 C 
BRANCH  28  29
ATOM     29  C   UNL     1      -4.331  -2.892  -2.586  1.00  0.00    -0.000 C 
BRANCH  29  30
ATOM     30  C   UNL     1      -3.526  -3.723  -1.569  1.00  0.00    -0.000 C 
BRANCH  30  31
ATOM     31  C   UNL     1      -4.360  -4.720  -0.746  1.00  0.00    -0.003 C 
ATOM     32  C   UNL     1      -4.626  -4.240   0.682  1.00  0.00     0.004 C 
ENDBRANCH  30  31
ENDBRANCH  29  30
ENDBRANCH  28  29
ENDBRANCH  27  28
ENDBRANCH  26  27
ENDBRANCH  25  26
ENDBRANCH  24  25
ENDBRANCH  23  24
ENDBRANCH  22  23
ENDBRANCH  21  22
ENDBRANCH  20  21
ENDBRANCH  19  20
ENDBRANCH  18  19
ENDBRANCH   1  18
TORSDOF 28
ENDMDL
MODEL 4
REMARK VINA RESULT:     0.142      4.405     11.858
REMARK INTER + INTRA:          -1.805
REMARK INTER:                  -1.118
REMARK INTRA:                  -0.687
REMARK UNBOUND:                -2.178
REMARK SMILES CCCCCCCCCCCCCCCCCCCCCCCCCCCCCC(=O)[O-]
REMARK SMILES IDX 16 1 17 2 18 3 19 4 20 5 21 6 22 7 23 8 24 9 25 10 26 11
REMARK SMILES IDX 27 12 28 13 29 14 30 15 31 16 32 17 15 18 14 19 13 20 12 21
REMARK SMILES IDX 11 22 10 23 9 24 8 25 7 26 6 27 5 28 4 29 3 30 2 31 1 32
REMARK H PARENT
REMARK Flexibility Score: inf
ROOT
ATOM      1  C   UNL     1      -3.373   5.952  -0.855  1.00  0.00     0.000 C 
ENDROOT
BRANCH   1   2
ATOM      2  C   UNL     1      -3.460   4.714  -1.763  1.00  0.00     0.000 C 
BRANCH   2   3
ATOM      3  C   UNL     1      -2.825   4.938  -3.147  1.00  0.00     0.000 C 
BRANCH   3   4
ATOM      4  C   UNL     1      -3.826   4.753  -4.300  1.00  0.00     0.000 C 
BRANCH   4   5
ATOM      5  C   UNL     1      -5.101   5.613  -4.162  1.00  0.00     0.000 C 
BRANCH   5   6
ATOM      6  C   UNL     1      -5.527   6.237  -5.504  1.00  0.00     0.000 C 
BRANCH   6   7
ATOM      7  C   UNL     1      -7.044   6.476  -5.586  1.00  0.00     0.000 C 
BRANCH   7   8
ATOM      8  C   UNL     1      -7.670   5.850  -6.841  1.00  0.00     0.000 C 
BRANCH   8   9
ATOM      9  C   UNL     1      -7.863   6.902  -7.943  1.00  0.00     0.000 C 
BRANCH   9  10
ATOM     10  C   UNL     1      -9.165   6.706  -8.743  1.00  0.00     0.000 C 
BRANCH  10  11
ATOM     11  C   UNL     1      -9.866   8.007  -9.177  1.00  0.00     0.000 C 
BRANCH  11  12
ATOM     12  C   UNL     1      -8.965   9.245  -9.054  1.00  0.00     0.000 C 
BRANCH  12  13
ATOM     13  C   UNL     1      -7.669   9.065  -9.860  1.00  0.00     0.006 C 
BRANCH  13  14
ATOM     14  C   UNL     1      -6.589  10.073  -9.448  1.00  0.00     0.053 C 
BRANCH  14  15
ATOM     15  C   UNL     1      -5.222   9.461  -9.478  1.00  0.00     0.041 C 
ATOM     16  O   UNL     1      -5.014   8.339  -8.943  1.00  0.00    -0.550 OA
ATOM     17  O   UNL     1      -4.182  10.118 -10.125  1.00  0.00    -0.550 OA
ENDBRANCH  14  15
ENDBRANCH  13  14
ENDBRANCH  12  13
ENDBRANCH  11  12
ENDBRANCH  10  11
ENDBRANCH   9  10
ENDBRANCH   8   9
ENDBRANCH   7   8
ENDBRANCH   6   7
ENDBRANCH   5   6
ENDBRANCH   4   5
ENDBRANCH   3   4
ENDBRANCH   2   3
ENDBRANCH   1   2
BRANCH   1  18
ATOM     18  C   UNL     1      -2.453   5.805   0.375  1.00  0.00     0.000 C 
BRANCH  18  19
ATOM     19  C   UNL     1      -2.866   4.673   1.342  1.00  0.00     0.000 C 
BRANCH  19  20
ATOM     20  C   UNL     1      -4.248   4.062   1.042  1.00  0.00     0.000 C 
BRANCH  20  21
ATOM     21  C   UNL     1      -4.521   2.777   1.839  1.00  0.00     0.000 C 
BRANCH  21  22
ATOM     22  C   UNL     1      -4.484   1.544   0.921  1.00  0.00     0.000 C 
BRANCH  22  23
ATOM     23  C   UNL     1      -3.645   1.767  -0.350  1.00  0.00     0.000 C 
BRANCH  23  24
ATOM     24  C   UNL     1      -2.239   1.143  -0.310  1.00  0.00    -0.000 C 
BRANCH  24  25
ATOM     25  C   UNL     1      -2.221  -0.325  -0.772  1.00  0.00    -0.000 C 
BRANCH  25  26
ATOM     26  C   UNL     1      -3.610  -0.821  -1.207  1.00  0.00    -0.000 C 
BRANCH  26  27
ATOM     27  C   UNL     1      -3.652  -1.241  -2.683  1.00  0.00    -0.000 C 
BRANCH  27  28
ATOM     28  C   UNL     1      -4.484  -2.516  -2.868  1.00  0.00    -0.000 C 
BRANCH  28  29
ATOM     29  C   UNL     1      -3.608  -3.771  -2.733  1.00  0.00    -0.000 C 
BRANCH  29  30
ATOM     30  C   UNL     1      -4.036  -4.677  -1.563  1.00  0.00    -0.000 C 
BRANCH  30  31
ATOM     31  C   UNL     1      -3.669  -4.144  -0.167  1.00  0.00    -0.003 C 
ATOM     32  C   UNL     1      -4.840  -4.192   0.816  1.00  0.00     0.004 C 
ENDBRANCH  30  31
ENDBRANCH  29  30
ENDBRANCH  28  29
ENDBRANCH  27  28
ENDBRANCH  26  27
ENDBRANCH  25  26
ENDBRANCH  24  25
ENDBRANCH  23  24
ENDBRANCH  22  23
ENDBRANCH  21  22
ENDBRANCH  20  21
ENDBRANCH  19  20
ENDBRANCH  18  19
ENDBRANCH   1  18
TORSDOF 28
ENDMDL
MODEL 5
REMARK VINA RESULT:     0.642      1.436      2.305
REMARK INTER + INTRA:          -0.485
REMARK INTER:                  -0.876
REMARK INTRA:                   0.391
REMARK UNBOUND:                -2.178
REMARK SMILES CCCCCCCCCCCCCCCCCCCCCCCCCCCCCC(=O)[O-]
REMARK SMILES IDX 16 1 17 2 18 3 19 4 20 5 21 6 22 7 23 8 24 9 25 10 26 11
REMARK SMILES IDX 27 12 28 13 29 14 30 15 31 16 32 17 15 18 14 19 13 20 12 21
REMARK SMILES IDX 11 22 10 23 9 24 8 25 7 26 6 27 5 28 4 29 3 30 2 31 1 32
REMARK H PARENT
REMARK Flexibility Score: inf
ROOT
ATOM      1  C   UNL     1      -4.592   5.840  -0.972  1.00  0.00     0.000 C 
ENDROOT
BRANCH   1   2
ATOM      2  C   UNL     1      -3.063   5.675  -0.951  1.00  0.00     0.000 C 
BRANCH   2   3
ATOM      3  C   UNL     1      -2.553   4.951   0.307  1.00  0.00     0.000 C 
BRANCH   3   4
ATOM      4  C   UNL     1      -2.638   3.419   0.190  1.00  0.00     0.000 C 
BRANCH   4   5
ATOM      5  C   UNL     1      -1.479   2.791  -0.613  1.00  0.00     0.000 C 
BRANCH   5   6
ATOM      6  C   UNL     1      -1.010   1.456  -0.007  1.00  0.00     0.000 C 
BRANCH   6   7
ATOM      7  C   UNL     1      -2.097   0.370  -0.062  1.00  0.00     0.000 C 
BRANCH   7   8
ATOM      8  C   UNL     1      -3.478   0.899   0.355  1.00  0.00     0.000 C 
BRANCH   8   9
ATOM      9  C   UNL     1      -4.588   0.275  -0.503  1.00  0.00     0.000 C 
BRANCH   9  10
ATOM     10  C   UNL     1      -4.302  -1.188  -0.889  1.00  0.00     0.000 C 
BRANCH  10  11
ATOM     11  C   UNL     1      -4.249  -1.465  -2.403  1.00  0.00     0.000 C 
BRANCH  11  12
ATOM     12  C   UNL     1      -3.324  -2.636  -2.768  1.00  0.00     0.000 C 
BRANCH  12  13
ATOM     13  C   UNL     1      -3.763  -3.925  -2.058  1.00  0.00     0.006 C 
BRANCH  13  14
ATOM     14  C   UNL     1      -3.494  -3.873  -0.549  1.00  0.00     0.053 C 
BRANCH  14  15
ATOM     15  C   UNL     1      -4.601  -4.510   0.233  1.00  0.00     0.041 C 
ATOM     16  O   UNL     1      -5.080  -3.933   1.246  1.00  0.00    -0.550 OA
ATOM     17  O   UNL     1      -5.125  -5.731  -0.175  1.00  0.00    -0.550 OA
ENDBRANCH  14  15
ENDBRANCH  13  14
ENDBRANCH  12  13
ENDBRANCH  11  12
ENDBRANCH  10  11
ENDBRANCH   9  10
ENDBRANCH   8   9
ENDBRANCH   7   8
ENDBRANCH   6   7
ENDBRANCH   5   6
ENDBRANCH   4   5
ENDBRANCH   3   4
ENDBRANCH   2   3
ENDBRANCH   1   2
BRANCH   1  18
ATOM     18  C   UNL     1      -5.208   6.115  -2.359  1.00  0.00     0.000 C 
BRANCH  18  19
ATOM     19  C   UNL     1      -4.484   5.402  -3.524  1.00  0.00     0.000 C 
BRANCH  19  20
ATOM     20  C   UNL     1      -5.148   5.609  -4.898  1.00  0.00     0.000 C 
BRANCH  20  21
ATOM     21  C   UNL     1      -6.536   6.261  -4.800  1.00  0.00     0.000 C 
BRANCH  21  22
ATOM     22  C   UNL     1      -6.905   6.963  -6.118  1.00  0.00     0.000 C 
BRANCH  22  23
ATOM     23  C   UNL     1      -7.332   5.981  -7.223  1.00  0.00     0.000 C 
BRANCH  23  24
ATOM     24  C   UNL     1      -7.672   6.639  -8.572  1.00  0.00    -0.000 C 
BRANCH  24  25
ATOM     25  C   UNL     1      -9.160   7.011  -8.698  1.00  0.00    -0.000 C 
BRANCH  25  26
ATOM     26  C   UNL     1      -9.494   7.645 -10.058  1.00  0.00    -0.000 C 
BRANCH  26  27
ATOM     27  C   UNL     1     -10.124   9.038  -9.923  1.00  0.00    -0.000 C 
BRANCH  27  28
ATOM     28  C   UNL     1      -9.044  10.123  -9.829  1.00  0.00    -0.000 C 
BRANCH  28  29
ATOM     29  C   UNL     1      -7.647   9.499  -9.690  1.00  0.00    -0.000 C 
BRANCH  29  30
ATOM     30  C   UNL     1      -6.871  10.033  -8.471  1.00  0.00    -0.000 C 
BRANCH  30  31
ATOM     31  C   UNL     1      -5.356   9.767  -8.503  1.00  0.00    -0.003 C 
ATOM     32  C   UNL     1      -4.743   9.972  -9.889  1.00  0.00     0.004 C 
ENDBRANCH  30  31
ENDBRANCH  29  30
ENDBRANCH  28  29
ENDBRANCH  27  28
ENDBRANCH  26  27
ENDBRANCH  25  26
ENDBRANCH  24  25
ENDBRANCH  23  24
ENDBRANCH  22  23
ENDBRANCH  21  22
ENDBRANCH  20  21
ENDBRANCH  19  20
ENDBRANCH  18  19
ENDBRANCH   1  18
TORSDOF 28
ENDMDL
MODEL 6
REMARK VINA RESULT:     1.153      4.411     11.686
REMARK INTER + INTRA:           0.862
REMARK INTER:                   2.252
REMARK INTRA:                  -1.390
REMARK UNBOUND:                -2.178
REMARK SMILES CCCCCCCCCCCCCCCCCCCCCCCCCCCCCC(=O)[O-]
REMARK SMILES IDX 16 1 17 2 18 3 19 4 20 5 21 6 22 7 23 8 24 9 25 10 26 11
REMARK SMILES IDX 27 12 28 13 29 14 30 15 31 16 32 17 15 18 14 19 13 20 12 21
REMARK SMILES IDX 11 22 10 23 9 24 8 25 7 26 6 27 5 28 4 29 3 30 2 31 1 32
REMARK H PARENT
REMARK Flexibility Score: inf
ROOT
ATOM      1  C   UNL     1      -4.781   2.777   1.519  1.00  0.00     0.000 C 
ENDROOT
BRANCH   1   2
ATOM      2  C   UNL     1      -4.412   4.069   0.771  1.00  0.00     0.000 C 
BRANCH   2   3
ATOM      3  C   UNL     1      -2.923   4.435   0.902  1.00  0.00     0.000 C 
BRANCH   3   4
ATOM      4  C   UNL     1      -2.437   5.373  -0.216  1.00  0.00     0.000 C 
BRANCH   4   5
ATOM      5  C   UNL     1      -3.395   5.450  -1.425  1.00  0.00     0.000 C 
BRANCH   5   6
ATOM      6  C   UNL     1      -3.003   4.462  -2.539  1.00  0.00     0.000 C 
BRANCH   6   7
ATOM      7  C   UNL     1      -3.701   4.772  -3.873  1.00  0.00     0.000 C 
BRANCH   7   8
ATOM      8  C   UNL     1      -5.032   5.516  -3.681  1.00  0.00     0.000 C 
BRANCH   8   9
ATOM      9  C   UNL     1      -5.471   6.202  -4.983  1.00  0.00     0.000 C 
BRANCH   9  10
ATOM     10  C   UNL     1      -7.001   6.263  -5.145  1.00  0.00     0.000 C 
BRANCH  10  11
ATOM     11  C   UNL     1      -7.537   5.725  -6.486  1.00  0.00     0.000 C 
BRANCH  11  12
ATOM     12  C   UNL     1      -6.997   6.494  -7.701  1.00  0.00     0.000 C 
BRANCH  12  13
ATOM     13  C   UNL     1      -8.131   7.223  -8.439  1.00  0.00     0.006 C 
BRANCH  13  14
ATOM     14  C   UNL     1      -7.844   8.720  -8.603  1.00  0.00     0.053 C 
BRANCH  14  15
ATOM     15  C   UNL     1      -6.380   9.017  -8.498  1.00  0.00     0.041 C 
ATOM     16  O   UNL     1      -5.897   9.475  -7.427  1.00  0.00    -0.550 OA
ATOM     17  O   UNL     1      -5.540   8.760  -9.575  1.00  0.00    -0.550 OA
ENDBRANCH  14  15
ENDBRANCH  13  14
ENDBRANCH  12  13
ENDBRANCH  11  12
ENDBRANCH  10  11
ENDBRANCH   9  10
ENDBRANCH   8   9
ENDBRANCH   7   8
ENDBRANCH   6   7
ENDBRANCH   5   6
ENDBRANCH   4   5
ENDBRANCH   3   4
ENDBRANCH   2   3
ENDBRANCH   1   2
BRANCH   1  18
ATOM     18  C   UNL     1      -4.332   1.468   0.837  1.00  0.00     0.000 C 
BRANCH  18  19
ATOM     19  C   UNL     1      -3.320   1.670  -0.314  1.00  0.00     0.000 C 
BRANCH  19  20
ATOM     20  C   UNL     1      -2.070   0.777  -0.217  1.00  0.00     0.000 C 
BRANCH  20  21
ATOM     21  C   UNL     1      -2.259  -0.593  -0.887  1.00  0.00     0.000 C 
BRANCH  21  22
ATOM     22  C   UNL     1      -3.746  -0.863  -1.172  1.00  0.00     0.000 C 
BRANCH  22  23
ATOM     23  C   UNL     1      -4.031  -1.155  -2.656  1.00  0.00     0.000 C 
BRANCH  23  24
ATOM     24  C   UNL     1      -2.898  -1.888  -3.395  1.00  0.00    -0.000 C 
BRANCH  24  25
ATOM     25  C   UNL     1      -3.124  -3.408  -3.481  1.00  0.00    -0.000 C 
BRANCH  25  26
ATOM     26  C   UNL     1      -4.381  -3.859  -2.719  1.00  0.00    -0.000 C 
BRANCH  26  27
ATOM     27  C   UNL     1      -4.054  -4.779  -1.534  1.00  0.00    -0.000 C 
BRANCH  27  28
ATOM     28  C   UNL     1      -3.747  -3.962  -0.272  1.00  0.00    -0.000 C 
BRANCH  28  29
ATOM     29  C   UNL     1      -4.173  -4.722   0.994  1.00  0.00    -0.000 C 
BRANCH  29  30
ATOM     30  C   UNL     1      -5.579  -4.331   1.483  1.00  0.00    -0.000 C 
BRANCH  30  31
ATOM     31  C   UNL     1      -5.737  -2.852   1.880  1.00  0.00    -0.003 C 
ATOM     32  C   UNL     1      -5.583  -2.619   3.383  1.00  0.00     0.004 C 
ENDBRANCH  30  31
ENDBRANCH  29  30
ENDBRANCH  28  29
ENDBRANCH  27  28
ENDBRANCH  26  27
ENDBRANCH  25  26
ENDBRANCH  24  25
ENDBRANCH  23  24
ENDBRANCH  22  23
ENDBRANCH  21  22
ENDBRANCH  20  21
ENDBRANCH  19  20
ENDBRANCH  18  19
ENDBRANCH   1  18
TORSDOF 28
ENDMDL
MODEL 7
REMARK VINA RESULT:     1.442      4.443     11.788
REMARK INTER + INTRA:           1.624
REMARK INTER:                   2.755
REMARK INTRA:                  -1.132
REMARK UNBOUND:                -2.178
REMARK SMILES CCCCCCCCCCCCCCCCCCCCCCCCCCCCCC(=O)[O-]
REMARK SMILES IDX 16 1 17 2 18 3 19 4 20 5 21 6 22 7 23 8 24 9 25 10 26 11
REMARK SMILES IDX 27 12 28 13 29 14 30 15 31 16 32 17 15 18 14 19 13 20 12 21
REMARK SMILES IDX 11 22 10 23 9 24 8 25 7 26 6 27 5 28 4 29 3 30 2 31 1 32
REMARK H PARENT
REMARK Flexibility Score: inf
ROOT
ATOM      1  C   UNL     1      -2.929   5.240   0.430  1.00  0.00     0.000 C 
ENDROOT
BRANCH   1   2
ATOM      2  C   UNL     1      -2.734   5.545  -1.066  1.00  0.00     0.000 C 
BRANCH   2   3
ATOM      3  C   UNL     1      -4.063   5.684  -1.828  1.00  0.00     0.000 C 
BRANCH   3   4
ATOM      4  C   UNL     1      -4.154   4.750  -3.047  1.00  0.00     0.000 C 
BRANCH   4   5
ATOM      5  C   UNL     1      -4.545   5.469  -4.356  1.00  0.00     0.000 C 
BRANCH   5   6
ATOM      6  C   UNL     1      -5.853   6.267  -4.211  1.00  0.00     0.000 C 
BRANCH   6   7
ATOM      7  C   UNL     1      -6.614   6.400  -5.540  1.00  0.00     0.000 C 
BRANCH   7   8
ATOM      8  C   UNL     1      -5.891   5.701  -6.702  1.00  0.00     0.000 C 
BRANCH   8   9
ATOM      9  C   UNL     1      -6.675   5.860  -8.013  1.00  0.00     0.000 C 
BRANCH   9  10
ATOM     10  C   UNL     1      -8.188   5.630  -7.843  1.00  0.00     0.000 C 
BRANCH  10  11
ATOM     11  C   UNL     1      -9.084   6.778  -8.345  1.00  0.00     0.000 C 
BRANCH  11  12
ATOM     12  C   UNL     1      -8.402   7.651  -9.410  1.00  0.00     0.000 C 
BRANCH  12  13
ATOM     13  C   UNL     1      -8.998   9.067  -9.425  1.00  0.00     0.006 C 
BRANCH  13  14
ATOM     14  C   UNL     1      -7.988  10.123  -8.961  1.00  0.00     0.053 C 
BRANCH  14  15
ATOM     15  C   UNL     1      -7.235   9.673  -7.747  1.00  0.00     0.041 C 
ATOM     16  O   UNL     1      -6.017   9.358  -7.832  1.00  0.00    -0.550 OA
ATOM     17  O   UNL     1      -7.871   9.630  -6.512  1.00  0.00    -0.550 OA
ENDBRANCH  14  15
ENDBRANCH  13  14
ENDBRANCH  12  13
ENDBRANCH  11  12
ENDBRANCH  10  11
ENDBRANCH   9  10
ENDBRANCH   8   9
ENDBRANCH   7   8
ENDBRANCH   6   7
ENDBRANCH   5   6
ENDBRANCH   4   5
ENDBRANCH   3   4
ENDBRANCH   2   3
ENDBRANCH   1   2
BRANCH   1  18
ATOM     18  C   UNL     1      -3.863   4.054   0.746  1.00  0.00     0.000 C 
BRANCH  18  19
ATOM     19  C   UNL     1      -3.308   2.679   0.307  1.00  0.00     0.000 C 
BRANCH  19  20
ATOM     20  C   UNL     1      -2.071   2.762  -0.605  1.00  0.00     0.000 C 
BRANCH  20  21
ATOM     21  C   UNL     1      -0.804   2.189   0.050  1.00  0.00     0.000 C 
BRANCH  21  22
ATOM     22  C   UNL     1      -0.813   0.652   0.007  1.00  0.00     0.000 C 
BRANCH  22  23
ATOM     23  C   UNL     1      -2.233   0.061  -0.069  1.00  0.00     0.000 C 
BRANCH  23  24
ATOM     24  C   UNL     1      -2.633  -0.475  -1.455  1.00  0.00    -0.000 C 
BRANCH  24  25
ATOM     25  C   UNL     1      -4.151  -0.427  -1.700  1.00  0.00    -0.000 C 
BRANCH  25  26
ATOM     26  C   UNL     1      -4.625  -1.520  -2.671  1.00  0.00    -0.000 C 
BRANCH  26  27
ATOM     27  C   UNL     1      -3.517  -2.524  -3.018  1.00  0.00    -0.000 C 
BRANCH  27  28
ATOM     28  C   UNL     1      -3.816  -3.903  -2.417  1.00  0.00    -0.000 C 
BRANCH  28  29
ATOM     29  C   UNL     1      -3.301  -3.998  -0.972  1.00  0.00    -0.000 C 
BRANCH  29  30
ATOM     30  C   UNL     1      -4.359  -3.588   0.069  1.00  0.00    -0.000 C 
BRANCH  30  31
ATOM     31  C   UNL     1      -4.835  -4.726   0.989  1.00  0.00    -0.003 C 
ATOM     32  C   UNL     1      -5.102  -6.030   0.236  1.00  0.00     0.004 C 
ENDBRANCH  30  31
ENDBRANCH  29  30
ENDBRANCH  28  29
ENDBRANCH  27  28
ENDBRANCH  26  27
ENDBRANCH  25  26
ENDBRANCH  24  25
ENDBRANCH  23  24
ENDBRANCH  22  23
ENDBRANCH  21  22
ENDBRANCH  20  21
ENDBRANCH  19  20
ENDBRANCH  18  19
ENDBRANCH   1  18
TORSDOF 28
ENDMDL
MODEL 8
REMARK VINA RESULT:     1.467      4.426     12.439
REMARK INTER + INTRA:           1.690
REMARK INTER:                   2.409
REMARK INTRA:                  -0.719
REMARK UNBOUND:                -2.178
REMARK SMILES CCCCCCCCCCCCCCCCCCCCCCCCCCCCCC(=O)[O-]
REMARK SMILES IDX 16 1 17 2 18 3 19 4 20 5 21 6 22 7 23 8 24 9 25 10 26 11
REMARK SMILES IDX 27 12 28 13 29 14 30 15 31 16 32 17 15 18 14 19 13 20 12 21
REMARK SMILES IDX 11 22 10 23 9 24 8 25 7 26 6 27 5 28 4 29 3 30 2 31 1 32
REMARK H PARENT
REMARK Flexibility Score: inf
ROOT
ATOM      1  C   UNL     1      -2.995   4.857   0.190  1.00  0.00     0.000 C 
ENDROOT
BRANCH   1   2
ATOM      2  C   UNL     1      -3.662   5.098  -1.175  1.00  0.00     0.000 C 
BRANCH   2   3
ATOM      3  C   UNL     1      -2.818   4.584  -2.355  1.00  0.00     0.000 C 
BRANCH   3   4
ATOM      4  C   UNL     1      -3.369   5.029  -3.721  1.00  0.00     0.000 C 
BRANCH   4   5
ATOM      5  C   UNL     1      -4.799   5.608  -3.657  1.00  0.00     0.000 C 
BRANCH   5   6
ATOM      6  C   UNL     1      -5.496   5.582  -5.030  1.00  0.00     0.000 C 
BRANCH   6   7
ATOM      7  C   UNL     1      -6.864   6.283  -5.008  1.00  0.00     0.000 C 
BRANCH   7   8
ATOM      8  C   UNL     1      -7.699   5.979  -6.262  1.00  0.00     0.000 C 
BRANCH   8   9
ATOM      9  C   UNL     1      -7.484   7.053  -7.339  1.00  0.00     0.000 C 
BRANCH   9  10
ATOM     10  C   UNL     1      -8.351   6.832  -8.592  1.00  0.00     0.000 C 
BRANCH  10  11
ATOM     11  C   UNL     1      -8.865   8.118  -9.266  1.00  0.00     0.000 C 
BRANCH  11  12
ATOM     12  C   UNL     1      -8.862   9.332  -8.324  1.00  0.00     0.000 C 
BRANCH  12  13
ATOM     13  C   UNL     1      -7.432   9.839  -8.084  1.00  0.00     0.006 C 
BRANCH  13  14
ATOM     14  C   UNL     1      -6.693  10.125  -9.398  1.00  0.00     0.053 C 
BRANCH  14  15
ATOM     15  C   UNL     1      -5.356   9.452  -9.438  1.00  0.00     0.041 C 
ATOM     16  O   UNL     1      -4.300  10.124  -9.283  1.00  0.00    -0.550 OA
ATOM     17  O   UNL     1      -5.275   8.077  -9.616  1.00  0.00    -0.550 OA
ENDBRANCH  14  15
ENDBRANCH  13  14
ENDBRANCH  12  13
ENDBRANCH  11  12
ENDBRANCH  10  11
ENDBRANCH   9  10
ENDBRANCH   8   9
ENDBRANCH   7   8
ENDBRANCH   6   7
ENDBRANCH   5   6
ENDBRANCH   4   5
ENDBRANCH   3   4
ENDBRANCH   2   3
ENDBRANCH   1   2
BRANCH   1  18
ATOM     18  C   UNL     1      -3.188   3.445   0.780  1.00  0.00     0.000 C 
BRANCH  18  19
ATOM     19  C   UNL     1      -3.656   2.389  -0.248  1.00  0.00     0.000 C 
BRANCH  19  20
ATOM     20  C   UNL     1      -2.518   1.536  -0.837  1.00  0.00     0.000 C 
BRANCH  20  21
ATOM     21  C   UNL     1      -2.615   0.054  -0.444  1.00  0.00     0.000 C 
BRANCH  21  22
ATOM     22  C   UNL     1      -4.082  -0.407  -0.405  1.00  0.00     0.000 C 
BRANCH  22  23
ATOM     23  C   UNL     1      -4.643  -0.744  -1.798  1.00  0.00     0.000 C 
BRANCH  23  24
ATOM     24  C   UNL     1      -3.581  -0.877  -2.904  1.00  0.00    -0.000 C 
BRANCH  24  25
ATOM     25  C   UNL     1      -3.027  -2.307  -3.033  1.00  0.00    -0.000 C 
BRANCH  25  26
ATOM     26  C   UNL     1      -4.009  -3.368  -2.512  1.00  0.00    -0.000 C 
BRANCH  26  27
ATOM     27  C   UNL     1      -3.492  -4.089  -1.260  1.00  0.00    -0.000 C 
BRANCH  27  28
ATOM     28  C   UNL     1      -4.347  -3.744  -0.034  1.00  0.00    -0.000 C 
BRANCH  28  29
ATOM     29  C   UNL     1      -4.272  -4.858   1.022  1.00  0.00    -0.000 C 
BRANCH  29  30
ATOM     30  C   UNL     1      -5.444  -5.852   0.928  1.00  0.00    -0.000 C 
BRANCH  30  31
ATOM     31  C   UNL     1      -5.279  -6.946  -0.142  1.00  0.00    -0.003 C 
ATOM     32  C   UNL     1      -5.291  -8.359   0.443  1.00  0.00     0.004 C 
ENDBRANCH  30  31
ENDBRANCH  29  30
ENDBRANCH  28  29
ENDBRANCH  27  28
ENDBRANCH  26  27
ENDBRANCH  25  26
ENDBRANCH  24  25
ENDBRANCH  23  24
ENDBRANCH  22  23
ENDBRANCH  21  22
ENDBRANCH  20  21
ENDBRANCH  19  20
ENDBRANCH  18  19
ENDBRANCH   1  18
TORSDOF 28
ENDMDL
MODEL 9
REMARK VINA RESULT:     1.517      1.467      2.978
REMARK INTER + INTRA:           1.821
REMARK INTER:                  -0.928
REMARK INTRA:                   2.749
REMARK UNBOUND:                -2.178
REMARK SMILES CCCCCCCCCCCCCCCCCCCCCCCCCCCCCC(=O)[O-]
REMARK SMILES IDX 16 1 17 2 18 3 19 4 20 5 21 6 22 7 23 8 24 9 25 10 26 11
REMARK SMILES IDX 27 12 28 13 29 14 30 15 31 16 32 17 15 18 14 19 13 20 12 21
REMARK SMILES IDX 11 22 10 23 9 24 8 25 7 26 6 27 5 28 4 29 3 30 2 31 1 32
REMARK H PARENT
REMARK Flexibility Score: inf
ROOT
ATOM      1  C   UNL     1      -2.987   5.717  -0.010  1.00  0.00     0.000 C 
ENDROOT
BRANCH   1   2
ATOM      2  C   UNL     1      -3.139   4.490   0.905  1.00  0.00     0.000 C 
BRANCH   2   3
ATOM      3  C   UNL     1      -4.433   3.700   0.640  1.00  0.00     0.000 C 
BRANCH   3   4
ATOM      4  C   UNL     1      -4.539   2.424   1.492  1.00  0.00     0.000 C 
BRANCH   4   5
ATOM      5  C   UNL     1      -4.200   1.130   0.721  1.00  0.00     0.000 C 
BRANCH   5   6
ATOM      6  C   UNL     1      -3.201   1.382  -0.423  1.00  0.00     0.000 C 
BRANCH   6   7
ATOM      7  C   UNL     1      -1.977   2.193   0.032  1.00  0.00     0.000 C 
BRANCH   7   8
ATOM      8  C   UNL     1      -0.681   1.368  -0.000  1.00  0.00     0.000 C 
BRANCH   8   9
ATOM      9  C   UNL     1      -0.898   0.030  -0.721  1.00  0.00     0.000 C 
BRANCH   9  10
ATOM     10  C   UNL     1      -2.387  -0.328  -0.892  1.00  0.00     0.000 C 
BRANCH  10  11
ATOM     11  C   UNL     1      -2.662  -1.585  -1.739  1.00  0.00     0.000 C 
BRANCH  11  12
ATOM     12  C   UNL     1      -4.091  -1.630  -2.300  1.00  0.00     0.000 C 
BRANCH  12  13
ATOM     13  C   UNL     1      -4.512  -3.073  -2.618  1.00  0.00     0.006 C 
BRANCH  13  14
ATOM     14  C   UNL     1      -3.711  -4.099  -1.807  1.00  0.00     0.053 C 
BRANCH  14  15
ATOM     15  C   UNL     1      -4.434  -4.504  -0.559  1.00  0.00     0.041 C 
ATOM     16  O   UNL     1      -4.958  -5.647  -0.468  1.00  0.00    -0.550 OA
ATOM     17  O   UNL     1      -4.502  -3.629   0.518  1.00  0.00    -0.550 OA
ENDBRANCH  14  15
ENDBRANCH  13  14
ENDBRANCH  12  13
ENDBRANCH  11  12
ENDBRANCH  10  11
ENDBRANCH   9  10
ENDBRANCH   8   9
ENDBRANCH   7   8
ENDBRANCH   6   7
ENDBRANCH   5   6
ENDBRANCH   4   5
ENDBRANCH   3   4
ENDBRANCH   2   3
ENDBRANCH   1   2
BRANCH   1  18
ATOM     18  C   UNL     1      -3.716   5.625  -1.366  1.00  0.00     0.000 C 
BRANCH  18  19
ATOM     19  C   UNL     1      -2.939   4.843  -2.449  1.00  0.00     0.000 C 
BRANCH  19  20
ATOM     20  C   UNL     1      -3.719   4.643  -3.762  1.00  0.00     0.000 C 
BRANCH  20  21
ATOM     21  C   UNL     1      -4.877   5.639  -3.928  1.00  0.00     0.000 C 
BRANCH  21  22
ATOM     22  C   UNL     1      -5.774   5.243  -5.114  1.00  0.00     0.000 C 
BRANCH  22  23
ATOM     23  C   UNL     1      -6.625   6.412  -5.641  1.00  0.00     0.000 C 
BRANCH  23  24
ATOM     24  C   UNL     1      -6.986   6.323  -7.134  1.00  0.00    -0.000 C 
BRANCH  24  25
ATOM     25  C   UNL     1      -8.415   6.811  -7.434  1.00  0.00    -0.000 C 
BRANCH  25  26
ATOM     26  C   UNL     1      -8.662   7.016  -8.937  1.00  0.00    -0.000 C 
BRANCH  26  27
ATOM     27  C   UNL     1      -9.925   7.841  -9.221  1.00  0.00    -0.000 C 
BRANCH  27  28
ATOM     28  C   UNL     1      -9.581   9.131  -9.977  1.00  0.00    -0.000 C 
BRANCH  28  29
ATOM     29  C   UNL     1      -8.545   9.963  -9.205  1.00  0.00    -0.000 C 
BRANCH  29  30
ATOM     30  C   UNL     1      -7.205  10.094  -9.952  1.00  0.00    -0.000 C 
BRANCH  30  31
ATOM     31  C   UNL     1      -6.011   9.413  -9.261  1.00  0.00    -0.003 C 
ATOM     32  C   UNL     1      -5.641  10.066  -7.928  1.00  0.00     0.004 C 
ENDBRANCH  30  31
ENDBRANCH  29  30
ENDBRANCH  28  29
ENDBRANCH  27  28
ENDBRANCH  26  27
ENDBRANCH  25  26
ENDBRANCH  24  25
ENDBRANCH  23  24
ENDBRANCH  22  23
ENDBRANCH  21  22
ENDBRANCH  20  21
ENDBRANCH  19  20
ENDBRANCH  18  19
ENDBRANCH   1  18
TORSDOF 28
ENDMDL
