MODEL 1
REMARK VINA RESULT:    -5.408      0.000      0.000
REMARK INTER + INTRA:          -9.198
REMARK INTER:                  -8.570
REMARK INTRA:                  -0.628
REMARK UNBOUND:                -0.628
REMARK SMILES CCCCCCCCCCCC(=O)[O-]
REMARK SMILES IDX 7 1 8 2 9 3 10 4 11 5 12 6 13 7 14 8 6 9 5 10 4 11 3 12 2 13
REMARK SMILES IDX 1 14
REMARK H PARENT
REMARK Flexibility Score: inf
ROOT
ATOM      1  C   UNL     1     -16.705  28.851   0.168  1.00  0.00     0.000 C 
ENDROOT
BRANCH   1   2
ATOM      2  C   UNL     1     -16.125  27.499  -0.277  1.00  0.00     0.000 C 
BRANCH   2   3
ATOM      3  C   UNL     1     -16.239  26.458   0.843  1.00  0.00     0.000 C 
BRANCH   3   4
ATOM      4  C   UNL     1     -17.673  25.915   0.948  1.00  0.00     0.006 C 
BRANCH   4   5
ATOM      5  C   UNL     1     -17.939  24.781  -0.050  1.00  0.00     0.053 C 
BRANCH   5   6
ATOM      6  C   UNL     1     -19.185  24.022   0.289  1.00  0.00     0.041 C 
ATOM      7  O   UNL     1     -20.227  24.637   0.637  1.00  0.00    -0.550 OA
ATOM      8  O   UNL     1     -19.184  22.633   0.254  1.00  0.00    -0.550 OA
ENDBRANCH   5   6
ENDBRANCH   4   5
ENDBRANCH   3   4
ENDBRANCH   2   3
ENDBRANCH   1   2
BRANCH   1   9
ATOM      9  C   UNL     1     -16.112  29.342   1.498  1.00  0.00     0.000 C 
BRANCH   9  10
ATOM     10  C   UNL     1     -15.513  30.756   1.391  1.00  0.00    -0.000 C 
BRANCH  10  11
ATOM     11  C   UNL     1     -16.593  31.847   1.305  1.00  0.00    -0.000 C 
BRANCH  11  12
ATOM     12  C   UNL     1     -16.234  32.960   0.304  1.00  0.00    -0.000 C 
BRANCH  12  13
ATOM     13  C   UNL     1     -17.385  33.273  -0.664  1.00  0.00    -0.003 C 
ATOM     14  C   UNL     1     -18.021  32.013  -1.251  1.00  0.00     0.004 C 
ENDBRANCH  12  13
ENDBRANCH  11  12
ENDBRANCH  10  11
ENDBRANCH   9  10
ENDBRANCH   1   9
TORSDOF 10
ENDMDL
MODEL 2
REMARK VINA RESULT:    -5.183      1.136      2.325
REMARK INTER + INTRA:          -8.841
REMARK INTER:                  -7.948
REMARK INTRA:                  -0.892
REMARK UNBOUND:                -0.628
REMARK SMILES CCCCCCCCCCCC(=O)[O-]
REMARK SMILES IDX 7 1 8 2 9 3 10 4 11 5 12 6 13 7 14 8 6 9 5 10 4 11 3 12 2 13
REMARK SMILES IDX 1 14
REMARK H PARENT
REMARK Flexibility Score: inf
ROOT
ATOM      1  C   UNL     1     -15.608  30.664   1.245  1.00  0.00     0.000 C 
ENDROOT
BRANCH   1   2
ATOM      2  C   UNL     1     -16.233  29.272   1.425  1.00  0.00     0.000 C 
BRANCH   2   3
ATOM      3  C   UNL     1     -16.256  28.505   0.098  1.00  0.00     0.000 C 
BRANCH   3   4
ATOM      4  C   UNL     1     -16.062  26.999   0.328  1.00  0.00     0.006 C 
BRANCH   4   5
ATOM      5  C   UNL     1     -17.099  26.421   1.300  1.00  0.00     0.053 C 
BRANCH   5   6
ATOM      6  C   UNL     1     -18.030  25.466   0.618  1.00  0.00     0.041 C 
ATOM      7  O   UNL     1     -18.895  24.840   1.284  1.00  0.00    -0.550 OA
ATOM      8  O   UNL     1     -17.921  25.245  -0.750  1.00  0.00    -0.550 OA
ENDBRANCH   5   6
ENDBRANCH   4   5
ENDBRANCH   3   4
ENDBRANCH   2   3
ENDBRANCH   1   2
BRANCH   1   9
ATOM      9  C   UNL     1     -16.640  31.798   1.352  1.00  0.00     0.000 C 
BRANCH   9  10
ATOM     10  C   UNL     1     -16.195  33.073   0.616  1.00  0.00    -0.000 C 
BRANCH  10  11
ATOM     11  C   UNL     1     -16.978  33.305  -0.687  1.00  0.00    -0.000 C 
BRANCH  11  12
ATOM     12  C   UNL     1     -18.221  32.404  -0.801  1.00  0.00    -0.000 C 
BRANCH  12  13
ATOM     13  C   UNL     1     -18.178  31.497  -2.040  1.00  0.00    -0.003 C 
ATOM     14  C   UNL     1     -18.888  30.161  -1.818  1.00  0.00     0.004 C 
ENDBRANCH  12  13
ENDBRANCH  11  12
ENDBRANCH  10  11
ENDBRANCH   9  10
ENDBRANCH   1   9
TORSDOF 10
ENDMDL
MODEL 3
REMARK VINA RESULT:    -5.157      3.631      7.463
REMARK INTER + INTRA:          -8.800
REMARK INTER:                  -8.341
REMARK INTRA:                  -0.459
REMARK UNBOUND:                -0.628
REMARK SMILES CCCCCCCCCCCC(=O)[O-]
REMARK SMILES IDX 7 1 8 2 9 3 10 4 11 5 12 6 13 7 14 8 6 9 5 10 4 11 3 12 2 13
REMARK SMILES IDX 1 14
REMARK H PARENT
REMARK Flexibility Score: inf
ROOT
ATOM      1  C   UNL     1     -16.852  27.358  -0.270  1.00  0.00     0.000 C 
ENDROOT
BRANCH   1   2
ATOM      2  C   UNL     1     -16.594  28.847   0.007  1.00  0.00     0.000 C 
BRANCH   2   3
ATOM      3  C   UNL     1     -16.034  29.053   1.420  1.00  0.00     0.000 C 
BRANCH   3   4
ATOM      4  C   UNL     1     -15.378  30.435   1.557  1.00  0.00     0.006 C 
BRANCH   4   5
ATOM      5  C   UNL     1     -16.377  31.510   2.005  1.00  0.00     0.053 C 
BRANCH   5   6
ATOM      6  C   UNL     1     -16.653  32.502   0.917  1.00  0.00     0.041 C 
ATOM      7  O   UNL     1     -15.919  33.515   0.782  1.00  0.00    -0.550 OA
ATOM      8  O   UNL     1     -17.743  32.323   0.074  1.00  0.00    -0.550 OA
ENDBRANCH   5   6
ENDBRANCH   4   5
ENDBRANCH   3   4
ENDBRANCH   2   3
ENDBRANCH   1   2
BRANCH   1   9
ATOM      9  C   UNL     1     -17.034  26.537   1.017  1.00  0.00     0.000 C 
BRANCH   9  10
ATOM     10  C   UNL     1     -18.090  25.428   0.865  1.00  0.00    -0.000 C 
BRANCH  10  11
ATOM     11  C   UNL     1     -18.170  24.884  -0.571  1.00  0.00    -0.000 C 
BRANCH  11  12
ATOM     12  C   UNL     1     -18.566  23.398  -0.622  1.00  0.00    -0.000 C 
BRANCH  12  13
ATOM     13  C   UNL     1     -19.327  23.036  -1.908  1.00  0.00    -0.003 C 
ATOM     14  C   UNL     1     -19.995  21.663  -1.831  1.00  0.00     0.004 C 
ENDBRANCH  12  13
ENDBRANCH  11  12
ENDBRANCH  10  11
ENDBRANCH   9  10
ENDBRANCH   1   9
TORSDOF 10
ENDMDL
MODEL 4
REMARK VINA RESULT:    -5.138      1.398      2.044
REMARK INTER + INTRA:          -8.769
REMARK INTER:                  -8.338
REMARK INTRA:                  -0.432
REMARK UNBOUND:                -0.628
REMARK SMILES CCCCCCCCCCCC(=O)[O-]
REMARK SMILES IDX 7 1 8 2 9 3 10 4 11 5 12 6 13 7 14 8 6 9 5 10 4 11 3 12 2 13
REMARK SMILES IDX 1 14
REMARK H PARENT
REMARK Flexibility Score: inf
ROOT
ATOM      1  C   UNL     1     -17.371  27.678  -0.116  1.00  0.00     0.000 C 
ENDROOT
BRANCH   1   2
ATOM      2  C   UNL     1     -17.132  26.489   0.826  1.00  0.00     0.000 C 
BRANCH   2   3
ATOM      3  C   UNL     1     -18.286  25.482   0.742  1.00  0.00     0.000 C 
BRANCH   3   4
ATOM      4  C   UNL     1     -18.088  24.512  -0.432  1.00  0.00     0.006 C 
BRANCH   4   5
ATOM      5  C   UNL     1     -19.268  23.545  -0.592  1.00  0.00     0.053 C 
BRANCH   5   6
ATOM      6  C   UNL     1     -18.879  22.311  -1.347  1.00  0.00     0.041 C 
ATOM      7  O   UNL     1     -19.631  21.854  -2.247  1.00  0.00    -0.550 OA
ATOM      8  O   UNL     1     -17.699  21.647  -1.033  1.00  0.00    -0.550 OA
ENDBRANCH   5   6
ENDBRANCH   4   5
ENDBRANCH   3   4
ENDBRANCH   2   3
ENDBRANCH   1   2
BRANCH   1   9
ATOM      9  C   UNL     1     -16.257  28.735  -0.033  1.00  0.00     0.000 C 
BRANCH   9  10
ATOM     10  C   UNL     1     -16.097  29.314   1.383  1.00  0.00    -0.000 C 
BRANCH  10  11
ATOM     11  C   UNL     1     -15.527  30.742   1.375  1.00  0.00    -0.000 C 
BRANCH  11  12
ATOM     12  C   UNL     1     -16.617  31.817   1.534  1.00  0.00    -0.000 C 
BRANCH  12  13
ATOM     13  C   UNL     1     -16.548  32.892   0.439  1.00  0.00    -0.003 C 
ATOM     14  C   UNL     1     -17.633  32.721  -0.624  1.00  0.00     0.004 C 
ENDBRANCH  12  13
ENDBRANCH  11  12
ENDBRANCH  10  11
ENDBRANCH   9  10
ENDBRANCH   1   9
TORSDOF 10
ENDMDL
MODEL 5
REMARK VINA RESULT:    -5.097      3.597      7.427
REMARK INTER + INTRA:          -8.704
REMARK INTER:                  -8.222
REMARK INTRA:                  -0.482
REMARK UNBOUND:                -0.628
REMARK SMILES CCCCCCCCCCCC(=O)[O-]
REMARK SMILES IDX 7 1 8 2 9 3 10 4 11 5 12 6 13 7 14 8 6 9 5 10 4 11 3 12 2 13
REMARK SMILES IDX 1 14
REMARK H PARENT
REMARK Flexibility Score: inf
ROOT
ATOM      1  C   UNL     1     -16.107  27.240  -0.139  1.00  0.00     0.000 C 
ENDROOT
BRANCH   1   2
ATOM      2  C   UNL     1     -16.577  28.666   0.188  1.00  0.00     0.000 C 
BRANCH   2   3
ATOM      3  C   UNL     1     -16.115  29.088   1.588  1.00  0.00     0.000 C 
BRANCH   3   4
ATOM      4  C   UNL     1     -15.383  30.438   1.544  1.00  0.00     0.006 C 
BRANCH   4   5
ATOM      5  C   UNL     1     -16.233  31.579   2.120  1.00  0.00     0.053 C 
BRANCH   5   6
ATOM      6  C   UNL     1     -16.640  32.559   1.062  1.00  0.00     0.041 C 
ATOM      7  O   UNL     1     -17.557  32.270   0.250  1.00  0.00    -0.550 OA
ATOM      8  O   UNL     1     -15.983  33.778   0.954  1.00  0.00    -0.550 OA
ENDBRANCH   5   6
ENDBRANCH   4   5
ENDBRANCH   3   4
ENDBRANCH   2   3
ENDBRANCH   1   2
BRANCH   1   9
ATOM      9  C   UNL     1     -16.685  26.190   0.824  1.00  0.00     0.000 C 
BRANCH   9  10
ATOM     10  C   UNL     1     -17.558  25.147   0.104  1.00  0.00    -0.000 C 
BRANCH  10  11
ATOM     11  C   UNL     1     -18.965  25.035   0.715  1.00  0.00    -0.000 C 
BRANCH  11  12
ATOM     12  C   UNL     1     -19.689  23.741   0.306  1.00  0.00    -0.000 C 
BRANCH  12  13
ATOM     13  C   UNL     1     -18.935  22.965  -0.786  1.00  0.00    -0.003 C 
ATOM     14  C   UNL     1     -19.844  22.530  -1.935  1.00  0.00     0.004 C 
ENDBRANCH  12  13
ENDBRANCH  11  12
ENDBRANCH  10  11
ENDBRANCH   9  10
ENDBRANCH   1   9
TORSDOF 10
ENDMDL
MODEL 6
REMARK VINA RESULT:    -4.985      2.743      5.990
REMARK INTER + INTRA:          -8.527
REMARK INTER:                  -7.892
REMARK INTRA:                  -0.635
REMARK UNBOUND:                -0.628
REMARK SMILES CCCCCCCCCCCC(=O)[O-]
REMARK SMILES IDX 7 1 8 2 9 3 10 4 11 5 12 6 13 7 14 8 6 9 5 10 4 11 3 12 2 13
REMARK SMILES IDX 1 14
REMARK H PARENT
REMARK Flexibility Score: inf
ROOT
ATOM      1  C   UNL     1     -15.524  30.217   2.627  1.00  0.00     0.000 C 
ENDROOT
BRANCH   1   2
ATOM      2  C   UNL     1     -15.656  30.734   1.187  1.00  0.00     0.000 C 
BRANCH   2   3
ATOM      3  C   UNL     1     -16.553  31.976   1.129  1.00  0.00     0.000 C 
BRANCH   3   4
ATOM      4  C   UNL     1     -17.431  31.964  -0.131  1.00  0.00     0.006 C 
BRANCH   4   5
ATOM      5  C   UNL     1     -17.331  30.639  -0.897  1.00  0.00     0.053 C 
BRANCH   5   6
ATOM      6  C   UNL     1     -18.443  30.484  -1.889  1.00  0.00     0.041 C 
ATOM      7  O   UNL     1     -18.333  30.965  -3.046  1.00  0.00    -0.550 OA
ATOM      8  O   UNL     1     -19.615  29.834  -1.522  1.00  0.00    -0.550 OA
ENDBRANCH   5   6
ENDBRANCH   4   5
ENDBRANCH   3   4
ENDBRANCH   2   3
ENDBRANCH   1   2
BRANCH   1   9
ATOM      9  C   UNL     1     -16.252  28.882   2.849  1.00  0.00     0.000 C 
BRANCH   9  10
ATOM     10  C   UNL     1     -16.427  28.082   1.546  1.00  0.00    -0.000 C 
BRANCH  10  11
ATOM     11  C   UNL     1     -16.419  26.563   1.782  1.00  0.00    -0.000 C 
BRANCH  11  12
ATOM     12  C   UNL     1     -16.775  25.763   0.517  1.00  0.00    -0.000 C 
BRANCH  12  13
ATOM     13  C   UNL     1     -18.271  25.421   0.439  1.00  0.00    -0.003 C 
ATOM     14  C   UNL     1     -18.545  24.155  -0.372  1.00  0.00     0.004 C 
ENDBRANCH  12  13
ENDBRANCH  11  12
ENDBRANCH  10  11
ENDBRANCH   9  10
ENDBRANCH   1   9
TORSDOF 10
ENDMDL
MODEL 7
REMARK VINA RESULT:    -4.929      3.398      6.573
REMARK INTER + INTRA:          -8.438
REMARK INTER:                  -7.718
REMARK INTRA:                  -0.720
REMARK UNBOUND:                -0.628
REMARK SMILES CCCCCCCCCCCC(=O)[O-]
REMARK SMILES IDX 7 1 8 2 9 3 10 4 11 5 12 6 13 7 14 8 6 9 5 10 4 11 3 12 2 13
REMARK SMILES IDX 1 14
REMARK H PARENT
REMARK Flexibility Score: inf
ROOT
ATOM      1  C   UNL     1     -18.168  31.561  -1.998  1.00  0.00     0.000 C 
ENDROOT
BRANCH   1   2
ATOM      2  C   UNL     1     -18.231  32.496  -0.780  1.00  0.00     0.000 C 
BRANCH   2   3
ATOM      3  C   UNL     1     -17.007  33.419  -0.735  1.00  0.00     0.000 C 
BRANCH   3   4
ATOM      4  C   UNL     1     -16.133  33.116   0.491  1.00  0.00     0.006 C 
BRANCH   4   5
ATOM      5  C   UNL     1     -16.883  32.301   1.553  1.00  0.00     0.053 C 
BRANCH   5   6
ATOM      6  C   UNL     1     -16.004  31.262   2.180  1.00  0.00     0.041 C 
ATOM      7  O   UNL     1     -15.033  30.782   1.539  1.00  0.00    -0.550 OA
ATOM      8  O   UNL     1     -16.280  30.800   3.461  1.00  0.00    -0.550 OA
ENDBRANCH   5   6
ENDBRANCH   4   5
ENDBRANCH   3   4
ENDBRANCH   2   3
ENDBRANCH   1   2
BRANCH   1   9
ATOM      9  C   UNL     1     -18.454  30.095  -1.635  1.00  0.00     0.000 C 
BRANCH   9  10
ATOM     10  C   UNL     1     -17.442  29.528  -0.625  1.00  0.00    -0.000 C 
BRANCH  10  11
ATOM     11  C   UNL     1     -17.559  28.003  -0.465  1.00  0.00    -0.000 C 
BRANCH  11  12
ATOM     12  C   UNL     1     -16.422  27.405   0.381  1.00  0.00    -0.000 C 
BRANCH  12  13
ATOM     13  C   UNL     1     -16.633  25.913   0.680  1.00  0.00    -0.003 C 
ATOM     14  C   UNL     1     -18.104  25.559   0.905  1.00  0.00     0.004 C 
ENDBRANCH  12  13
ENDBRANCH  11  12
ENDBRANCH  10  11
ENDBRANCH   9  10
ENDBRANCH   1   9
TORSDOF 10
ENDMDL
MODEL 8
REMARK VINA RESULT:    -4.806      3.649      7.369
REMARK INTER + INTRA:          -8.243
REMARK INTER:                  -7.763
REMARK INTRA:                  -0.480
REMARK UNBOUND:                -0.628
REMARK SMILES CCCCCCCCCCCC(=O)[O-]
REMARK SMILES IDX 7 1 8 2 9 3 10 4 11 5 12 6 13 7 14 8 6 9 5 10 4 11 3 12 2 13
REMARK SMILES IDX 1 14
REMARK H PARENT
REMARK Flexibility Score: inf
ROOT
ATOM      1  C   UNL     1     -16.210  26.186   0.862  1.00  0.00     0.000 C 
ENDROOT
BRANCH   1   2
ATOM      2  C   UNL     1     -16.488  27.482   1.638  1.00  0.00     0.000 C 
BRANCH   2   3
ATOM      3  C   UNL     1     -16.266  28.712   0.750  1.00  0.00     0.000 C 
BRANCH   3   4
ATOM      4  C   UNL     1     -16.080  29.980   1.598  1.00  0.00     0.006 C 
BRANCH   4   5
ATOM      5  C   UNL     1     -15.664  29.658   3.039  1.00  0.00     0.053 C 
BRANCH   5   6
ATOM      6  C   UNL     1     -16.390  30.513   4.033  1.00  0.00     0.041 C 
ATOM      7  O   UNL     1     -17.389  30.059   4.648  1.00  0.00    -0.550 OA
ATOM      8  O   UNL     1     -15.981  31.823   4.253  1.00  0.00    -0.550 OA
ENDBRANCH   5   6
ENDBRANCH   4   5
ENDBRANCH   3   4
ENDBRANCH   2   3
ENDBRANCH   1   2
BRANCH   1   9
ATOM      9  C   UNL     1     -17.365  25.794  -0.073  1.00  0.00     0.000 C 
BRANCH   9  10
ATOM     10  C   UNL     1     -18.628  25.368   0.696  1.00  0.00    -0.000 C 
BRANCH  10  11
ATOM     11  C   UNL     1     -19.064  23.932   0.363  1.00  0.00    -0.000 C 
BRANCH  11  12
ATOM     12  C   UNL     1     -18.630  23.491  -1.046  1.00  0.00    -0.000 C 
BRANCH  12  13
ATOM     13  C   UNL     1     -19.746  22.752  -1.801  1.00  0.00    -0.003 C 
ATOM     14  C   UNL     1     -19.367  21.314  -2.155  1.00  0.00     0.004 C 
ENDBRANCH  12  13
ENDBRANCH  11  12
ENDBRANCH  10  11
ENDBRANCH   9  10
ENDBRANCH   1   9
TORSDOF 10
ENDMDL
MODEL 9
REMARK VINA RESULT:    -4.789      1.245      2.202
REMARK INTER + INTRA:          -8.217
REMARK INTER:                  -7.752
REMARK INTRA:                  -0.466
REMARK UNBOUND:                -0.628
REMARK SMILES CCCCCCCCCCCC(=O)[O-]
REMARK SMILES IDX 7 1 8 2 9 3 10 4 11 5 12 6 13 7 14 8 6 9 5 10 4 11 3 12 2 13
REMARK SMILES IDX 1 14
REMARK H PARENT
REMARK Flexibility Score: inf
ROOT
ATOM      1  C   UNL     1     -17.018  27.302  -0.334  1.00  0.00     0.000 C 
ENDROOT
BRANCH   1   2
ATOM      2  C   UNL     1     -17.363  26.243   0.724  1.00  0.00     0.000 C 
BRANCH   2   3
ATOM      3  C   UNL     1     -17.829  24.940   0.064  1.00  0.00     0.000 C 
BRANCH   3   4
ATOM      4  C   UNL     1     -19.254  24.576   0.506  1.00  0.00     0.006 C 
BRANCH   4   5
ATOM      5  C   UNL     1     -19.629  23.136   0.132  1.00  0.00     0.053 C 
BRANCH   5   6
ATOM      6  C   UNL     1     -21.047  23.034  -0.341  1.00  0.00     0.041 C 
ATOM      7  O   UNL     1     -21.911  23.853   0.068  1.00  0.00    -0.550 OA
ATOM      8  O   UNL     1     -21.419  22.014  -1.207  1.00  0.00    -0.550 OA
ENDBRANCH   5   6
ENDBRANCH   4   5
ENDBRANCH   3   4
ENDBRANCH   2   3
ENDBRANCH   1   2
BRANCH   1   9
ATOM      9  C   UNL     1     -16.273  28.511   0.255  1.00  0.00     0.000 C 
BRANCH   9  10
ATOM     10  C   UNL     1     -16.263  28.504   1.794  1.00  0.00    -0.000 C 
BRANCH  10  11
ATOM     11  C   UNL     1     -15.826  29.855   2.386  1.00  0.00    -0.000 C 
BRANCH  11  12
ATOM     12  C   UNL     1     -15.632  30.939   1.311  1.00  0.00    -0.000 C 
BRANCH  12  13
ATOM     13  C   UNL     1     -16.596  32.123   1.490  1.00  0.00    -0.003 C 
ATOM     14  C   UNL     1     -17.011  32.751   0.159  1.00  0.00     0.004 C 
ENDBRANCH  12  13
ENDBRANCH  11  12
ENDBRANCH  10  11
ENDBRANCH   9  10
ENDBRANCH   1   9
TORSDOF 10
ENDMDL
