MODEL 1
REMARK VINA RESULT:    -3.367      0.000      0.000
REMARK INTER + INTRA:          -8.134
REMARK INTER:                  -5.925
REMARK INTRA:                  -2.209
REMARK UNBOUND:                -2.209
REMARK SMILES CCCCCCC=CCCCCCCCC(=O)[O-]
REMARK SMILES IDX 10 1 11 2 12 3 13 4 14 5 15 6 16 7 17 8 18 9 9 10 8 11 7 12
REMARK SMILES IDX 6 13 5 14 4 15 3 16 2 17 1 18
REMARK H PARENT
REMARK Flexibility Score: inf
ROOT
ATOM      1  C   UNL     1      56.152  25.352  50.829  1.00  0.00     0.004 C 
ENDROOT
BRANCH   1   2
ATOM      2  C   UNL     1      57.483  26.038  50.473  1.00  0.00     0.000 C 
BRANCH   2   3
ATOM      3  C   UNL     1      57.814  27.206  51.416  1.00  0.00     0.000 C 
BRANCH   3   4
ATOM      4  C   UNL     1      58.063  28.522  50.658  1.00  0.00     0.000 C 
BRANCH   4   5
ATOM      5  C   UNL     1      59.205  28.403  49.636  1.00  0.00     0.006 C 
BRANCH   5   6
ATOM      6  C   UNL     1      60.564  28.807  50.220  1.00  0.00     0.053 C 
BRANCH   6   7
ATOM      7  C   UNL     1      61.300  27.599  50.711  1.00  0.00     0.041 C 
ATOM      8  O   UNL     1      61.566  27.472  51.936  1.00  0.00    -0.550 OA
ATOM      9  O   UNL     1      61.664  26.598  49.821  1.00  0.00    -0.550 OA
ENDBRANCH   6   7
ENDBRANCH   5   6
ENDBRANCH   4   5
ENDBRANCH   3   4
ENDBRANCH   2   3
ENDBRANCH   1   2
BRANCH   1  10
ATOM     10  C   UNL     1      55.154  25.384  49.663  1.00  0.00     0.027 C 
BRANCH  10  11
ATOM     11  C   UNL     1      54.039  26.363  49.912  1.00  0.00    -0.031 C 
ATOM     12  C   UNL     1      54.279  27.660  50.157  1.00  0.00    -0.031 C 
BRANCH  12  13
ATOM     13  C   UNL     1      53.159  28.627  50.437  1.00  0.00     0.027 C 
BRANCH  13  14
ATOM     14  C   UNL     1      53.522  29.646  51.531  1.00  0.00     0.004 C 
BRANCH  14  15
ATOM     15  C   UNL     1      54.846  29.342  52.262  1.00  0.00     0.000 C 
BRANCH  15  16
ATOM     16  C   UNL     1      54.691  28.789  53.693  1.00  0.00    -0.000 C 
BRANCH  16  17
ATOM     17  C   UNL     1      54.998  27.288  53.846  1.00  0.00    -0.003 C 
ATOM     18  C   UNL     1      53.764  26.407  53.656  1.00  0.00     0.004 C 
ENDBRANCH  16  17
ENDBRANCH  15  16
ENDBRANCH  14  15
ENDBRANCH  13  14
ENDBRANCH  12  13
ENDBRANCH  10  11
ENDBRANCH   1  10
TORSDOF 13
ENDMDL
MODEL 2
REMARK VINA RESULT:    -3.345      2.463      4.503
REMARK INTER + INTRA:          -8.096
REMARK INTER:                  -6.615
REMARK INTRA:                  -1.481
REMARK UNBOUND:                -2.209
REMARK SMILES CCCCCCC=CCCCCCCCC(=O)[O-]
REMARK SMILES IDX 10 1 11 2 12 3 13 4 14 5 15 6 16 7 17 8 18 9 9 10 8 11 7 12
REMARK SMILES IDX 6 13 5 14 4 15 3 16 2 17 1 18
REMARK H PARENT
REMARK Flexibility Score: inf
ROOT
ATOM      1  C   UNL     1      59.628  28.044  49.578  1.00  0.00     0.004 C 
ENDROOT
BRANCH   1   2
ATOM      2  C   UNL     1      60.872  27.790  50.449  1.00  0.00     0.000 C 
BRANCH   2   3
ATOM      3  C   UNL     1      61.683  26.574  49.977  1.00  0.00     0.000 C 
BRANCH   3   4
ATOM      4  C   UNL     1      60.869  25.269  50.020  1.00  0.00     0.000 C 
BRANCH   4   5
ATOM      5  C   UNL     1      60.661  24.755  51.453  1.00  0.00     0.006 C 
BRANCH   5   6
ATOM      6  C   UNL     1      60.304  23.264  51.499  1.00  0.00     0.053 C 
BRANCH   6   7
ATOM      7  C   UNL     1      61.306  22.463  50.729  1.00  0.00     0.041 C 
ATOM      8  O   UNL     1      62.512  22.438  51.091  1.00  0.00    -0.550 OA
ATOM      9  O   UNL     1      60.903  21.717  49.630  1.00  0.00    -0.550 OA
ENDBRANCH   6   7
ENDBRANCH   5   6
ENDBRANCH   4   5
ENDBRANCH   3   4
ENDBRANCH   2   3
ENDBRANCH   1   2
BRANCH   1  10
ATOM     10  C   UNL     1      58.482  28.682  50.376  1.00  0.00     0.027 C 
BRANCH  10  11
ATOM     11  C   UNL     1      57.465  27.658  50.803  1.00  0.00    -0.031 C 
ATOM     12  C   UNL     1      57.496  26.397  50.346  1.00  0.00    -0.031 C 
BRANCH  12  13
ATOM     13  C   UNL     1      56.455  25.388  50.753  1.00  0.00     0.027 C 
BRANCH  13  14
ATOM     14  C   UNL     1      55.207  25.437  49.855  1.00  0.00     0.004 C 
BRANCH  14  15
ATOM     15  C   UNL     1      53.954  26.010  50.548  1.00  0.00     0.000 C 
BRANCH  15  16
ATOM     16  C   UNL     1      53.076  26.921  49.665  1.00  0.00    -0.000 C 
BRANCH  16  17
ATOM     17  C   UNL     1      52.900  28.358  50.188  1.00  0.00    -0.003 C 
ATOM     18  C   UNL     1      54.180  28.930  50.797  1.00  0.00     0.004 C 
ENDBRANCH  16  17
ENDBRANCH  15  16
ENDBRANCH  14  15
ENDBRANCH  13  14
ENDBRANCH  12  13
ENDBRANCH  10  11
ENDBRANCH   1  10
TORSDOF 13
ENDMDL
MODEL 3
REMARK VINA RESULT:    -3.272      2.689      5.543
REMARK INTER + INTRA:          -7.968
REMARK INTER:                  -5.947
REMARK INTRA:                  -2.021
REMARK UNBOUND:                -2.209
REMARK SMILES CCCCCCC=CCCCCCCCC(=O)[O-]
REMARK SMILES IDX 10 1 11 2 12 3 13 4 14 5 15 6 16 7 17 8 18 9 9 10 8 11 7 12
REMARK SMILES IDX 6 13 5 14 4 15 3 16 2 17 1 18
REMARK H PARENT
REMARK Flexibility Score: inf
ROOT
ATOM      1  C   UNL     1      53.795  25.769  50.446  1.00  0.00     0.004 C 
ENDROOT
BRANCH   1   2
ATOM      2  C   UNL     1      53.365  27.062  49.729  1.00  0.00     0.000 C 
BRANCH   2   3
ATOM      3  C   UNL     1      53.070  28.208  50.710  1.00  0.00     0.000 C 
BRANCH   3   4
ATOM      4  C   UNL     1      54.233  29.211  50.810  1.00  0.00     0.000 C 
BRANCH   4   5
ATOM      5  C   UNL     1      54.154  30.077  52.078  1.00  0.00     0.006 C 
BRANCH   5   6
ATOM      6  C   UNL     1      55.177  29.662  53.142  1.00  0.00     0.053 C 
BRANCH   6   7
ATOM      7  C   UNL     1      55.780  30.870  53.786  1.00  0.00     0.041 C 
ATOM      8  O   UNL     1      57.008  31.114  53.655  1.00  0.00    -0.550 OA
ATOM      9  O   UNL     1      54.978  31.747  54.505  1.00  0.00    -0.550 OA
ENDBRANCH   6   7
ENDBRANCH   5   6
ENDBRANCH   4   5
ENDBRANCH   3   4
ENDBRANCH   2   3
ENDBRANCH   1   2
BRANCH   1  10
ATOM     10  C   UNL     1      55.145  25.245  49.934  1.00  0.00     0.027 C 
BRANCH  10  11
ATOM     11  C   UNL     1      56.273  26.179  50.284  1.00  0.00    -0.031 C 
ATOM     12  C   UNL     1      56.626  26.414  51.556  1.00  0.00    -0.031 C 
BRANCH  12  13
ATOM     13  C   UNL     1      57.735  27.374  51.898  1.00  0.00     0.027 C 
BRANCH  13  14
ATOM     14  C   UNL     1      57.901  28.480  50.841  1.00  0.00     0.004 C 
BRANCH  14  15
ATOM     15  C   UNL     1      59.347  28.655  50.334  1.00  0.00     0.000 C 
BRANCH  15  16
ATOM     16  C   UNL     1      59.842  27.555  49.373  1.00  0.00    -0.000 C 
BRANCH  16  17
ATOM     17  C   UNL     1      60.830  26.548  49.992  1.00  0.00    -0.003 C 
ATOM     18  C   UNL     1      60.229  25.153  50.157  1.00  0.00     0.004 C 
ENDBRANCH  16  17
ENDBRANCH  15  16
ENDBRANCH  14  15
ENDBRANCH  13  14
ENDBRANCH  12  13
ENDBRANCH  10  11
ENDBRANCH   1  10
TORSDOF 13
ENDMDL
MODEL 4
REMARK VINA RESULT:    -3.137     10.395     12.557
REMARK INTER + INTRA:          -7.730
REMARK INTER:                  -5.763
REMARK INTRA:                  -1.967
REMARK UNBOUND:                -2.209
REMARK SMILES CCCCCCC=CCCCCCCCC(=O)[O-]
REMARK SMILES IDX 10 1 11 2 12 3 13 4 14 5 15 6 16 7 17 8 18 9 9 10 8 11 7 12
REMARK SMILES IDX 6 13 5 14 4 15 3 16 2 17 1 18
REMARK H PARENT
REMARK Flexibility Score: inf
ROOT
ATOM      1  C   UNL     1      60.933  33.702  57.880  1.00  0.00     0.004 C 
ENDROOT
BRANCH   1   2
ATOM      2  C   UNL     1      60.080  32.424  57.962  1.00  0.00     0.000 C 
BRANCH   2   3
ATOM      3  C   UNL     1      60.928  31.163  58.195  1.00  0.00     0.000 C 
BRANCH   3   4
ATOM      4  C   UNL     1      60.596  30.468  59.527  1.00  0.00     0.000 C 
BRANCH   4   5
ATOM      5  C   UNL     1      61.226  31.181  60.734  1.00  0.00     0.006 C 
BRANCH   5   6
ATOM      6  C   UNL     1      61.373  30.261  61.952  1.00  0.00     0.053 C 
BRANCH   6   7
ATOM      7  C   UNL     1      62.474  29.272  61.730  1.00  0.00     0.041 C 
ATOM      8  O   UNL     1      63.678  29.635  61.801  1.00  0.00    -0.550 OA
ATOM      9  O   UNL     1      62.171  27.940  61.476  1.00  0.00    -0.550 OA
ENDBRANCH   6   7
ENDBRANCH   5   6
ENDBRANCH   4   5
ENDBRANCH   3   4
ENDBRANCH   2   3
ENDBRANCH   1   2
BRANCH   1  10
ATOM     10  C   UNL     1      60.434  34.794  58.837  1.00  0.00     0.027 C 
BRANCH  10  11
ATOM     11  C   UNL     1      61.242  34.834  60.106  1.00  0.00    -0.031 C 
ATOM     12  C   UNL     1      62.515  35.256  60.119  1.00  0.00    -0.031 C 
BRANCH  12  13
ATOM     13  C   UNL     1      63.327  35.263  61.387  1.00  0.00     0.027 C 
BRANCH  13  14
ATOM     14  C   UNL     1      64.601  34.409  61.274  1.00  0.00     0.004 C 
BRANCH  14  15
ATOM     15  C   UNL     1      64.342  32.932  60.911  1.00  0.00     0.000 C 
BRANCH  15  16
ATOM     16  C   UNL     1      64.650  32.552  59.449  1.00  0.00    -0.000 C 
BRANCH  16  17
ATOM     17  C   UNL     1      65.299  31.168  59.260  1.00  0.00    -0.003 C 
ATOM     18  C   UNL     1      64.441  30.219  58.424  1.00  0.00     0.004 C 
ENDBRANCH  16  17
ENDBRANCH  15  16
ENDBRANCH  14  15
ENDBRANCH  13  14
ENDBRANCH  12  13
ENDBRANCH  10  11
ENDBRANCH   1  10
TORSDOF 13
ENDMDL
MODEL 5
REMARK VINA RESULT:    -3.107      1.853      3.204
REMARK INTER + INTRA:          -7.677
REMARK INTER:                  -6.273
REMARK INTRA:                  -1.404
REMARK UNBOUND:                -2.209
REMARK SMILES CCCCCCC=CCCCCCCCC(=O)[O-]
REMARK SMILES IDX 10 1 11 2 12 3 13 4 14 5 15 6 16 7 17 8 18 9 9 10 8 11 7 12
REMARK SMILES IDX 6 13 5 14 4 15 3 16 2 17 1 18
REMARK H PARENT
REMARK Flexibility Score: inf
ROOT
ATOM      1  C   UNL     1      57.502  26.032  50.498  1.00  0.00     0.004 C 
ENDROOT
BRANCH   1   2
ATOM      2  C   UNL     1      58.635  24.990  50.501  1.00  0.00     0.000 C 
BRANCH   2   3
ATOM      3  C   UNL     1      59.966  25.566  49.994  1.00  0.00     0.000 C 
BRANCH   3   4
ATOM      4  C   UNL     1      61.107  25.397  51.012  1.00  0.00     0.000 C 
BRANCH   4   5
ATOM      5  C   UNL     1      62.355  26.212  50.636  1.00  0.00     0.006 C 
BRANCH   5   6
ATOM      6  C   UNL     1      62.028  27.409  49.734  1.00  0.00     0.053 C 
BRANCH   6   7
ATOM      7  C   UNL     1      62.107  28.686  50.511  1.00  0.00     0.041 C 
ATOM      8  O   UNL     1      61.137  29.056  51.223  1.00  0.00    -0.550 OA
ATOM      9  O   UNL     1      63.265  29.450  50.475  1.00  0.00    -0.550 OA
ENDBRANCH   6   7
ENDBRANCH   5   6
ENDBRANCH   4   5
ENDBRANCH   3   4
ENDBRANCH   2   3
ENDBRANCH   1   2
BRANCH   1  10
ATOM     10  C   UNL     1      58.003  27.433  50.877  1.00  0.00     0.027 C 
BRANCH  10  11
ATOM     11  C   UNL     1      56.865  28.403  51.051  1.00  0.00    -0.031 C 
ATOM     12  C   UNL     1      55.600  28.069  50.752  1.00  0.00    -0.031 C 
BRANCH  12  13
ATOM     13  C   UNL     1      54.472  29.056  50.898  1.00  0.00     0.027 C 
BRANCH  13  14
ATOM     14  C   UNL     1      53.154  28.533  50.304  1.00  0.00     0.004 C 
BRANCH  14  15
ATOM     15  C   UNL     1      52.905  27.030  50.545  1.00  0.00     0.000 C 
BRANCH  15  16
ATOM     16  C   UNL     1      52.950  26.148  49.281  1.00  0.00    -0.000 C 
BRANCH  16  17
ATOM     17  C   UNL     1      53.980  25.003  49.324  1.00  0.00    -0.003 C 
ATOM     18  C   UNL     1      54.213  24.468  50.737  1.00  0.00     0.004 C 
ENDBRANCH  16  17
ENDBRANCH  15  16
ENDBRANCH  14  15
ENDBRANCH  13  14
ENDBRANCH  12  13
ENDBRANCH  10  11
ENDBRANCH   1  10
TORSDOF 13
ENDMDL
MODEL 6
REMARK VINA RESULT:    -3.106      2.529      5.546
REMARK INTER + INTRA:          -7.676
REMARK INTER:                  -5.595
REMARK INTRA:                  -2.081
REMARK UNBOUND:                -2.209
REMARK SMILES CCCCCCC=CCCCCCCCC(=O)[O-]
REMARK SMILES IDX 10 1 11 2 12 3 13 4 14 5 15 6 16 7 17 8 18 9 9 10 8 11 7 12
REMARK SMILES IDX 6 13 5 14 4 15 3 16 2 17 1 18
REMARK H PARENT
REMARK Flexibility Score: inf
ROOT
ATOM      1  C   UNL     1      54.111  26.247  50.662  1.00  0.00     0.004 C 
ENDROOT
BRANCH   1   2
ATOM      2  C   UNL     1      53.750  27.679  50.227  1.00  0.00     0.000 C 
BRANCH   2   3
ATOM      3  C   UNL     1      54.769  28.719  50.719  1.00  0.00     0.000 C 
BRANCH   3   4
ATOM      4  C   UNL     1      54.183  29.660  51.785  1.00  0.00     0.000 C 
BRANCH   4   5
ATOM      5  C   UNL     1      55.064  29.746  53.041  1.00  0.00     0.006 C 
BRANCH   5   6
ATOM      6  C   UNL     1      56.060  28.584  53.144  1.00  0.00     0.053 C 
BRANCH   6   7
ATOM      7  C   UNL     1      55.615  27.605  54.184  1.00  0.00     0.041 C 
ATOM      8  O   UNL     1      54.493  27.040  54.086  1.00  0.00    -0.550 OA
ATOM      9  O   UNL     1      56.453  27.289  55.245  1.00  0.00    -0.550 OA
ENDBRANCH   6   7
ENDBRANCH   5   6
ENDBRANCH   4   5
ENDBRANCH   3   4
ENDBRANCH   2   3
ENDBRANCH   1   2
BRANCH   1  10
ATOM     10  C   UNL     1      55.020  25.545  49.643  1.00  0.00     0.027 C 
BRANCH  10  11
ATOM     11  C   UNL     1      56.442  25.462  50.130  1.00  0.00    -0.031 C 
ATOM     12  C   UNL     1      56.736  25.313  51.430  1.00  0.00    -0.031 C 
BRANCH  12  13
ATOM     13  C   UNL     1      58.161  25.264  51.912  1.00  0.00     0.027 C 
BRANCH  13  14
ATOM     14  C   UNL     1      59.155  24.965  50.777  1.00  0.00     0.004 C 
BRANCH  14  15
ATOM     15  C   UNL     1      60.325  25.965  50.682  1.00  0.00     0.000 C 
BRANCH  15  16
ATOM     16  C   UNL     1      60.227  26.979  49.523  1.00  0.00    -0.000 C 
BRANCH  16  17
ATOM     17  C   UNL     1      59.926  28.427  49.951  1.00  0.00    -0.003 C 
ATOM     18  C   UNL     1      58.463  28.639  50.342  1.00  0.00     0.004 C 
ENDBRANCH  16  17
ENDBRANCH  15  16
ENDBRANCH  14  15
ENDBRANCH  13  14
ENDBRANCH  12  13
ENDBRANCH  10  11
ENDBRANCH   1  10
TORSDOF 13
ENDMDL
MODEL 7
REMARK VINA RESULT:    -3.067      3.561      5.764
REMARK INTER + INTRA:          -7.606
REMARK INTER:                  -5.153
REMARK INTRA:                  -2.453
REMARK UNBOUND:                -2.209
REMARK SMILES CCCCCCC=CCCCCCCCC(=O)[O-]
REMARK SMILES IDX 10 1 11 2 12 3 13 4 14 5 15 6 16 7 17 8 18 9 9 10 8 11 7 12
REMARK SMILES IDX 6 13 5 14 4 15 3 16 2 17 1 18
REMARK H PARENT
REMARK Flexibility Score: inf
ROOT
ATOM      1  C   UNL     1      59.993  23.720  51.380  1.00  0.00     0.004 C 
ENDROOT
BRANCH   1   2
ATOM      2  C   UNL     1      59.281  24.601  52.423  1.00  0.00     0.000 C 
BRANCH   2   3
ATOM      3  C   UNL     1      57.772  24.323  52.496  1.00  0.00     0.000 C 
BRANCH   3   4
ATOM      4  C   UNL     1      56.929  25.515  52.010  1.00  0.00     0.000 C 
BRANCH   4   5
ATOM      5  C   UNL     1      56.587  25.420  50.514  1.00  0.00     0.006 C 
BRANCH   5   6
ATOM      6  C   UNL     1      55.412  26.322  50.119  1.00  0.00     0.053 C 
BRANCH   6   7
ATOM      7  C   UNL     1      54.218  25.496  49.755  1.00  0.00     0.041 C 
ATOM      8  O   UNL     1      53.231  26.025  49.181  1.00  0.00    -0.550 OA
ATOM      9  O   UNL     1      54.210  24.133  50.019  1.00  0.00    -0.550 OA
ENDBRANCH   6   7
ENDBRANCH   5   6
ENDBRANCH   4   5
ENDBRANCH   3   4
ENDBRANCH   2   3
ENDBRANCH   1   2
BRANCH   1  10
ATOM     10  C   UNL     1      60.788  24.554  50.365  1.00  0.00     0.027 C 
BRANCH  10  11
ATOM     11  C   UNL     1      60.551  26.029  50.548  1.00  0.00    -0.031 C 
ATOM     12  C   UNL     1      59.958  26.772  49.602  1.00  0.00    -0.031 C 
BRANCH  12  13
ATOM     13  C   UNL     1      59.753  28.253  49.780  1.00  0.00     0.027 C 
BRANCH  13  14
ATOM     14  C   UNL     1      58.418  28.583  50.468  1.00  0.00     0.004 C 
BRANCH  14  15
ATOM     15  C   UNL     1      58.567  29.262  51.845  1.00  0.00     0.000 C 
BRANCH  15  16
ATOM     16  C   UNL     1      59.091  28.350  52.972  1.00  0.00    -0.000 C 
BRANCH  16  17
ATOM     17  C   UNL     1      60.539  28.630  53.415  1.00  0.00    -0.003 C 
ATOM     18  C   UNL     1      61.300  27.360  53.795  1.00  0.00     0.004 C 
ENDBRANCH  16  17
ENDBRANCH  15  16
ENDBRANCH  14  15
ENDBRANCH  13  14
ENDBRANCH  12  13
ENDBRANCH  10  11
ENDBRANCH   1  10
TORSDOF 13
ENDMDL
MODEL 8
REMARK VINA RESULT:    -3.065      2.828      4.990
REMARK INTER + INTRA:          -7.603
REMARK INTER:                  -6.264
REMARK INTRA:                  -1.338
REMARK UNBOUND:                -2.209
REMARK SMILES CCCCCCC=CCCCCCCCC(=O)[O-]
REMARK SMILES IDX 10 1 11 2 12 3 13 4 14 5 15 6 16 7 17 8 18 9 9 10 8 11 7 12
REMARK SMILES IDX 6 13 5 14 4 15 3 16 2 17 1 18
REMARK H PARENT
REMARK Flexibility Score: inf
ROOT
ATOM      1  C   UNL     1      61.564  24.742  51.165  1.00  0.00     0.004 C 
ENDROOT
BRANCH   1   2
ATOM      2  C   UNL     1      62.973  24.815  50.550  1.00  0.00     0.000 C 
BRANCH   2   3
ATOM      3  C   UNL     1      63.691  26.133  50.879  1.00  0.00     0.000 C 
BRANCH   3   4
ATOM      4  C   UNL     1      63.850  27.040  49.646  1.00  0.00     0.000 C 
BRANCH   4   5
ATOM      5  C   UNL     1      63.321  28.462  49.892  1.00  0.00     0.006 C 
BRANCH   5   6
ATOM      6  C   UNL     1      64.361  29.543  49.572  1.00  0.00     0.053 C 
BRANCH   6   7
ATOM      7  C   UNL     1      63.739  30.903  49.638  1.00  0.00     0.041 C 
ATOM      8  O   UNL     1      64.399  31.920  49.297  1.00  0.00    -0.550 OA
ATOM      9  O   UNL     1      62.419  31.043  50.043  1.00  0.00    -0.550 OA
ENDBRANCH   6   7
ENDBRANCH   5   6
ENDBRANCH   4   5
ENDBRANCH   3   4
ENDBRANCH   2   3
ENDBRANCH   1   2
BRANCH   1  10
ATOM     10  C   UNL     1      60.468  24.650  50.093  1.00  0.00     0.027 C 
BRANCH  10  11
ATOM     11  C   UNL     1      59.582  25.866  50.097  1.00  0.00    -0.031 C 
ATOM     12  C   UNL     1      60.024  27.064  49.688  1.00  0.00    -0.031 C 
BRANCH  12  13
ATOM     13  C   UNL     1      59.140  28.283  49.726  1.00  0.00     0.027 C 
BRANCH  13  14
ATOM     14  C   UNL     1      58.224  28.305  50.961  1.00  0.00     0.004 C 
BRANCH  14  15
ATOM     15  C   UNL     1      56.720  28.211  50.633  1.00  0.00     0.000 C 
BRANCH  15  16
ATOM     16  C   UNL     1      56.024  26.920  51.110  1.00  0.00    -0.000 C 
BRANCH  16  17
ATOM     17  C   UNL     1      56.026  25.766  50.090  1.00  0.00    -0.003 C 
ATOM     18  C   UNL     1      54.619  25.315  49.701  1.00  0.00     0.004 C 
ENDBRANCH  16  17
ENDBRANCH  15  16
ENDBRANCH  14  15
ENDBRANCH  13  14
ENDBRANCH  12  13
ENDBRANCH  10  11
ENDBRANCH   1  10
TORSDOF 13
ENDMDL
MODEL 9
REMARK VINA RESULT:    -3.043      1.729      4.751
REMARK INTER + INTRA:          -7.565
REMARK INTER:                  -5.348
REMARK INTRA:                  -2.217
REMARK UNBOUND:                -2.209
REMARK SMILES CCCCCCC=CCCCCCCCC(=O)[O-]
REMARK SMILES IDX 10 1 11 2 12 3 13 4 14 5 15 6 16 7 17 8 18 9 9 10 8 11 7 12
REMARK SMILES IDX 6 13 5 14 4 15 3 16 2 17 1 18
REMARK H PARENT
REMARK Flexibility Score: inf
ROOT
ATOM      1  C   UNL     1      54.291  28.107  50.370  1.00  0.00     0.004 C 
ENDROOT
BRANCH   1   2
ATOM      2  C   UNL     1      53.712  26.700  50.134  1.00  0.00     0.000 C 
BRANCH   2   3
ATOM      3  C   UNL     1      54.803  25.656  49.846  1.00  0.00     0.000 C 
BRANCH   3   4
ATOM      4  C   UNL     1      56.199  26.125  50.292  1.00  0.00     0.000 C 
BRANCH   4   5
ATOM      5  C   UNL     1      56.915  25.085  51.169  1.00  0.00     0.006 C 
BRANCH   5   6
ATOM      6  C   UNL     1      57.464  25.687  52.469  1.00  0.00     0.053 C 
BRANCH   6   7
ATOM      7  C   UNL     1      58.907  25.331  52.640  1.00  0.00     0.041 C 
ATOM      8  O   UNL     1      59.358  24.258  52.160  1.00  0.00    -0.550 OA
ATOM      9  O   UNL     1      59.764  26.202  53.301  1.00  0.00    -0.550 OA
ENDBRANCH   6   7
ENDBRANCH   5   6
ENDBRANCH   4   5
ENDBRANCH   3   4
ENDBRANCH   2   3
ENDBRANCH   1   2
BRANCH   1  10
ATOM     10  C   UNL     1      53.826  28.707  51.705  1.00  0.00     0.027 C 
BRANCH  10  11
ATOM     11  C   UNL     1      54.988  29.166  52.544  1.00  0.00    -0.031 C 
ATOM     12  C   UNL     1      56.256  29.039  52.124  1.00  0.00    -0.031 C 
BRANCH  12  13
ATOM     13  C   UNL     1      57.414  29.471  52.983  1.00  0.00     0.027 C 
BRANCH  13  14
ATOM     14  C   UNL     1      58.758  29.393  52.239  1.00  0.00     0.004 C 
BRANCH  14  15
ATOM     15  C   UNL     1      58.663  28.784  50.826  1.00  0.00     0.000 C 
BRANCH  15  16
ATOM     16  C   UNL     1      60.014  28.425  50.174  1.00  0.00    -0.000 C 
BRANCH  16  17
ATOM     17  C   UNL     1      60.092  27.007  49.580  1.00  0.00    -0.003 C 
ATOM     18  C   UNL     1      61.337  26.242  50.030  1.00  0.00     0.004 C 
ENDBRANCH  16  17
ENDBRANCH  15  16
ENDBRANCH  14  15
ENDBRANCH  13  14
ENDBRANCH  12  13
ENDBRANCH  10  11
ENDBRANCH   1  10
TORSDOF 13
ENDMDL
