MODEL 1
REMARK VINA RESULT:    -3.684      0.000      0.000
REMARK INTER + INTRA:          -5.597
REMARK INTER:                  -5.622
REMARK INTRA:                   0.025
REMARK UNBOUND:                 0.025
REMARK SMILES CC1=CCC[C@@H](C)C(=O)C[C@@H](C(C)C)C(=O)C1
REMARK SMILES IDX 8 1 9 2 6 3 7 4 5 5 4 6 3 7 2 8 1 9 10 11 11 12 15 13 16 14
REMARK SMILES IDX 17 15 12 17 13 18 14 19
REMARK H PARENT
REMARK Flexibility Score: 70.00
ROOT
ATOM      1  C   UNL     1      61.136 -18.665  -0.569  1.00  0.00     0.136 C 
ATOM      2  O   UNL     1      61.974 -19.542  -0.426  1.00  0.00    -0.299 OA
ENDROOT
BRANCH   1   3
ATOM      3  C   UNL     1      61.116 -17.772  -1.813  1.00  0.00     0.053 C 
ATOM      4  C   UNL     1      61.461 -16.327  -1.446  1.00  0.00     0.016 C 
BRANCH   3   5
ATOM      5  C   UNL     1      59.793 -17.862  -2.674  1.00  0.00     0.015 C 
BRANCH   5   6
ATOM      6  C   UNL     1      58.584 -16.896  -2.366  1.00  0.00     0.028 C 
BRANCH   6   7
ATOM      7  C   UNL     1      57.241 -17.631  -2.303  1.00  0.00    -0.028 C 
ATOM      8  C   UNL     1      56.584 -18.194  -1.234  1.00  0.00    -0.070 CG0
ATOM      9  C   UNL     1      55.289 -18.907  -1.531  1.00  0.00     0.039 C 
ATOM     10  G   UNL     1      57.043 -18.197   0.230  1.00  0.00     0.000 G0
ENDBRANCH   6   7
ENDBRANCH   5   6
ENDBRANCH   3   5
ENDBRANCH   1   3
BRANCH   1  11
ATOM     11  C   UNL     1      60.053 -18.457   0.416  1.00  0.00     0.087 C 
BRANCH  11  12
ATOM     12  C   UNL     1      59.267 -19.501   1.201  1.00  0.00     0.066 C 
BRANCH  12  13
ATOM     13  C   UNL     1      57.832 -19.502   0.626  1.00  0.00     0.140 C 
ATOM     14  O   UNL     1      57.282 -20.577   0.440  1.00  0.00    -0.299 OA
BRANCH  13  15
ATOM     15  C   UNL     1      57.071 -18.212   0.242  1.00  0.00     0.106 CG0
ATOM     16  G   UNL     1      56.603 -18.205  -1.219  1.00  0.00     0.000 G0
ENDBRANCH  13  15
ENDBRANCH  12  13
BRANCH  12  17
ATOM     17  C   UNL     1      59.301 -19.301   2.748  1.00  0.00    -0.006 C 
ATOM     18  C   UNL     1      58.181 -20.044   3.495  1.00  0.00     0.008 C 
ATOM     19  C   UNL     1      60.668 -19.699   3.326  1.00  0.00     0.008 C 
ENDBRANCH  12  17
ENDBRANCH  11  12
ENDBRANCH   1  11
TORSDOF 1
ENDMDL
MODEL 2
REMARK VINA RESULT:    -3.247      2.280      3.152
REMARK INTER + INTRA:          -4.930
REMARK INTER:                  -4.605
REMARK INTRA:                  -0.325
REMARK UNBOUND:                 0.025
REMARK SMILES CC1=CCC[C@@H](C)C(=O)C[C@@H](C(C)C)C(=O)C1
REMARK SMILES IDX 8 1 9 2 6 3 7 4 5 5 4 6 3 7 2 8 1 9 10 11 11 12 15 13 16 14
REMARK SMILES IDX 17 15 12 17 13 18 14 19
REMARK H PARENT
REMARK Flexibility Score: 70.00
ROOT
ATOM      1  C   UNL     1      61.006 -19.700   1.549  1.00  0.00     0.136 C 
ATOM      2  O   UNL     1      61.904 -20.521   1.656  1.00  0.00    -0.299 OA
ENDROOT
BRANCH   1   3
ATOM      3  C   UNL     1      60.423 -19.323   0.185  1.00  0.00     0.053 C 
ATOM      4  C   UNL     1      61.429 -18.497  -0.622  1.00  0.00     0.016 C 
BRANCH   3   5
ATOM      5  C   UNL     1      59.002 -18.634   0.236  1.00  0.00     0.015 C 
BRANCH   5   6
ATOM      6  C   UNL     1      57.694 -19.517   0.192  1.00  0.00     0.028 C 
BRANCH   6   7
ATOM      7  C   UNL     1      56.497 -18.835   0.864  1.00  0.00    -0.028 C 
ATOM      8  C   UNL     1      56.095 -18.839   2.179  1.00  0.00    -0.070 CG0
ATOM      9  C   UNL     1      54.816 -18.105   2.500  1.00  0.00     0.039 C 
ATOM     10  G   UNL     1      56.794 -19.534   3.353  1.00  0.00     0.000 G0
ENDBRANCH   6   7
ENDBRANCH   5   6
ENDBRANCH   3   5
ENDBRANCH   1   3
BRANCH   1  11
ATOM     11  C   UNL     1      60.383 -19.073   2.736  1.00  0.00     0.087 C 
BRANCH  11  12
ATOM     12  C   UNL     1      59.457 -19.703   3.770  1.00  0.00     0.066 C 
BRANCH  12  13
ATOM     13  C   UNL     1      58.139 -18.898   3.735  1.00  0.00     0.140 C 
ATOM     14  O   UNL     1      58.171 -17.717   4.049  1.00  0.00    -0.299 OA
BRANCH  13  15
ATOM     15  C   UNL     1      56.774 -19.520   3.359  1.00  0.00     0.106 CG0
ATOM     16  G   UNL     1      56.097 -18.811   2.180  1.00  0.00     0.000 G0
ENDBRANCH  13  15
ENDBRANCH  12  13
BRANCH  12  17
ATOM     17  C   UNL     1      60.070 -19.804   5.201  1.00  0.00    -0.006 C 
ATOM     18  C   UNL     1      59.097 -20.360   6.255  1.00  0.00     0.008 C 
ATOM     19  C   UNL     1      61.361 -20.637   5.192  1.00  0.00     0.008 C 
ENDBRANCH  12  17
ENDBRANCH  11  12
ENDBRANCH   1  11
TORSDOF 1
ENDMDL
MODEL 3
REMARK VINA RESULT:    -3.210      2.488      4.025
REMARK INTER + INTRA:          -4.875
REMARK INTER:                  -4.466
REMARK INTRA:                  -0.408
REMARK UNBOUND:                 0.025
REMARK SMILES CC1=CCC[C@@H](C)C(=O)C[C@@H](C(C)C)C(=O)C1
REMARK SMILES IDX 8 1 9 2 6 3 7 4 5 5 4 6 3 7 2 8 1 9 10 11 11 12 15 13 16 14
REMARK SMILES IDX 17 15 12 17 13 18 14 19
REMARK H PARENT
REMARK Flexibility Score: 70.00
ROOT
ATOM      1  C   UNL     1      58.622 -15.331  -3.402  1.00  0.00     0.136 C 
ATOM      2  O   UNL     1      59.239 -14.407  -3.911  1.00  0.00    -0.299 OA
ENDROOT
BRANCH   1   3
ATOM      3  C   UNL     1      57.673 -16.208  -4.223  1.00  0.00     0.053 C 
ATOM      4  C   UNL     1      57.505 -15.644  -5.637  1.00  0.00     0.016 C 
BRANCH   3   5
ATOM      5  C   UNL     1      56.281 -16.503  -3.537  1.00  0.00     0.015 C 
BRANCH   5   6
ATOM      6  C   UNL     1      55.915 -17.973  -3.091  1.00  0.00     0.028 C 
BRANCH   6   7
ATOM      7  C   UNL     1      55.298 -18.029  -1.689  1.00  0.00    -0.028 C 
ATOM      8  C   UNL     1      55.879 -18.299  -0.472  1.00  0.00    -0.070 CG0
ATOM      9  C   UNL     1      54.961 -18.337   0.724  1.00  0.00     0.039 C 
ATOM     10  G   UNL     1      57.359 -18.594  -0.205  1.00  0.00     0.000 G0
ENDBRANCH   6   7
ENDBRANCH   5   6
ENDBRANCH   3   5
ENDBRANCH   1   3
BRANCH   1  11
ATOM     11  C   UNL     1      58.808 -15.699  -1.981  1.00  0.00     0.087 C 
BRANCH  11  12
ATOM     12  C   UNL     1      59.249 -17.034  -1.393  1.00  0.00     0.066 C 
BRANCH  12  13
ATOM     13  C   UNL     1      58.278 -17.351  -0.233  1.00  0.00     0.140 C 
ATOM     14  O   UNL     1      58.243 -16.586   0.719  1.00  0.00    -0.299 OA
BRANCH  13  15
ATOM     15  C   UNL     1      57.376 -18.606  -0.200  1.00  0.00     0.106 CG0
ATOM     16  G   UNL     1      55.902 -18.292  -0.483  1.00  0.00     0.000 G0
ENDBRANCH  13  15
ENDBRANCH  12  13
BRANCH  12  17
ATOM     17  C   UNL     1      60.747 -17.081  -0.962  1.00  0.00    -0.006 C 
ATOM     18  C   UNL     1      61.434 -18.427  -1.249  1.00  0.00     0.008 C 
ATOM     19  C   UNL     1      61.546 -15.939  -1.610  1.00  0.00     0.008 C 
ENDBRANCH  12  17
ENDBRANCH  11  12
ENDBRANCH   1  11
TORSDOF 1
ENDMDL
MODEL 4
REMARK VINA RESULT:    -3.192      2.547      4.897
REMARK INTER + INTRA:          -4.847
REMARK INTER:                  -4.280
REMARK INTRA:                  -0.567
REMARK UNBOUND:                 0.025
REMARK SMILES CC1=CCC[C@@H](C)C(=O)C[C@@H](C(C)C)C(=O)C1
REMARK SMILES IDX 8 1 9 2 6 3 7 4 5 5 4 6 3 7 2 8 1 9 10 11 11 12 15 13 16 14
REMARK SMILES IDX 17 15 12 17 13 18 14 19
REMARK H PARENT
REMARK Flexibility Score: 70.00
ROOT
ATOM      1  C   UNL     1      60.951 -19.392   3.697  1.00  0.00     0.136 C 
ATOM      2  O   UNL     1      62.081 -19.780   3.950  1.00  0.00    -0.299 OA
ENDROOT
BRANCH   1   3
ATOM      3  C   UNL     1      60.243 -18.361   4.580  1.00  0.00     0.053 C 
ATOM      4  C   UNL     1      61.214 -17.257   5.006  1.00  0.00     0.016 C 
BRANCH   3   5
ATOM      5  C   UNL     1      59.462 -18.967   5.813  1.00  0.00     0.015 C 
BRANCH   5   6
ATOM      6  C   UNL     1      58.121 -19.768   5.583  1.00  0.00     0.028 C 
BRANCH   6   7
ATOM      7  C   UNL     1      57.115 -19.001   4.718  1.00  0.00    -0.028 C 
ATOM      8  C   UNL     1      56.756 -19.180   3.403  1.00  0.00    -0.070 CG0
ATOM      9  C   UNL     1      55.765 -18.197   2.831  1.00  0.00     0.039 C 
ATOM     10  G   UNL     1      57.276 -20.258   2.445  1.00  0.00     0.000 G0
ENDBRANCH   6   7
ENDBRANCH   5   6
ENDBRANCH   3   5
ENDBRANCH   1   3
BRANCH   1  11
ATOM     11  C   UNL     1      60.229 -19.842   2.487  1.00  0.00     0.087 C 
BRANCH  11  12
ATOM     12  C   UNL     1      59.484 -19.003   1.456  1.00  0.00     0.066 C 
BRANCH  12  13
ATOM     13  C   UNL     1      58.102 -19.666   1.257  1.00  0.00     0.140 C 
ATOM     14  O   UNL     1      57.630 -19.699   0.130  1.00  0.00    -0.299 OA
BRANCH  13  15
ATOM     15  C   UNL     1      57.270 -20.259   2.417  1.00  0.00     0.106 CG0
ATOM     16  G   UNL     1      56.755 -19.193   3.391  1.00  0.00     0.000 G0
ENDBRANCH  13  15
ENDBRANCH  12  13
BRANCH  12  17
ATOM     17  C   UNL     1      60.257 -18.797   0.116  1.00  0.00    -0.006 C 
ATOM     18  C   UNL     1      60.610 -17.329  -0.177  1.00  0.00     0.008 C 
ATOM     19  C   UNL     1      61.529 -19.658   0.075  1.00  0.00     0.008 C 
ENDBRANCH  12  17
ENDBRANCH  11  12
ENDBRANCH   1  11
TORSDOF 1
ENDMDL
MODEL 5
REMARK VINA RESULT:    -3.167      1.752      4.211
REMARK INTER + INTRA:          -4.808
REMARK INTER:                  -4.810
REMARK INTRA:                   0.002
REMARK UNBOUND:                 0.025
REMARK SMILES CC1=CCC[C@@H](C)C(=O)C[C@@H](C(C)C)C(=O)C1
REMARK SMILES IDX 8 1 9 2 6 3 7 4 5 5 4 6 3 7 2 8 1 9 10 11 11 12 15 13 16 14
REMARK SMILES IDX 17 15 12 17 13 18 14 19
REMARK H PARENT
REMARK Flexibility Score: 70.00
ROOT
ATOM      1  C   UNL     1      60.169 -19.447   2.214  1.00  0.00     0.136 C 
ATOM      2  O   UNL     1      61.162 -19.955   2.711  1.00  0.00    -0.299 OA
ENDROOT
BRANCH   1   3
ATOM      3  C   UNL     1      58.964 -19.042   3.067  1.00  0.00     0.053 C 
ATOM      4  C   UNL     1      59.423 -18.448   4.401  1.00  0.00     0.016 C 
BRANCH   3   5
ATOM      5  C   UNL     1      57.882 -20.177   3.269  1.00  0.00     0.015 C 
BRANCH   5   6
ATOM      6  C   UNL     1      56.846 -20.494   2.121  1.00  0.00     0.028 C 
BRANCH   6   7
ATOM      7  C   UNL     1      56.150 -19.237   1.588  1.00  0.00    -0.028 C 
ATOM      8  C   UNL     1      56.446 -18.451   0.499  1.00  0.00    -0.070 CG0
ATOM      9  C   UNL     1      55.584 -17.231   0.288  1.00  0.00     0.039 C 
ATOM     10  G   UNL     1      57.578 -18.668  -0.513  1.00  0.00     0.000 G0
ENDBRANCH   6   7
ENDBRANCH   5   6
ENDBRANCH   3   5
ENDBRANCH   1   3
BRANCH   1  11
ATOM     11  C   UNL     1      60.100 -19.130   0.770  1.00  0.00     0.087 C 
BRANCH  11  12
ATOM     12  C   UNL     1      60.086 -17.763   0.096  1.00  0.00     0.066 C 
BRANCH  12  13
ATOM     13  C   UNL     1      58.665 -17.563  -0.476  1.00  0.00     0.140 C 
ATOM     14  O   UNL     1      58.359 -16.458  -0.900  1.00  0.00    -0.299 OA
BRANCH  13  15
ATOM     15  C   UNL     1      57.597 -18.681  -0.506  1.00  0.00     0.106 CG0
ATOM     16  G   UNL     1      56.458 -18.449   0.494  1.00  0.00     0.000 G0
ENDBRANCH  13  15
ENDBRANCH  12  13
BRANCH  12  17
ATOM     17  C   UNL     1      61.205 -17.566  -0.975  1.00  0.00    -0.006 C 
ATOM     18  C   UNL     1      60.901 -18.244  -2.321  1.00  0.00     0.008 C 
ATOM     19  C   UNL     1      61.500 -16.075  -1.196  1.00  0.00     0.008 C 
ENDBRANCH  12  17
ENDBRANCH  11  12
ENDBRANCH   1  11
TORSDOF 1
ENDMDL
MODEL 6
REMARK VINA RESULT:    -3.112      2.079      3.973
REMARK INTER + INTRA:          -4.725
REMARK INTER:                  -4.304
REMARK INTRA:                  -0.421
REMARK UNBOUND:                 0.025
REMARK SMILES CC1=CCC[C@@H](C)C(=O)C[C@@H](C(C)C)C(=O)C1
REMARK SMILES IDX 8 1 9 2 6 3 7 4 5 5 4 6 3 7 2 8 1 9 10 11 11 12 15 13 16 14
REMARK SMILES IDX 17 15 12 17 13 18 14 19
REMARK H PARENT
REMARK Flexibility Score: 70.00
ROOT
ATOM      1  C   UNL     1      57.126 -17.450  -2.150  1.00  0.00     0.136 C 
ATOM      2  O   UNL     1      56.178 -17.165  -2.865  1.00  0.00    -0.299 OA
ENDROOT
BRANCH   1   3
ATOM      3  C   UNL     1      58.511 -16.837  -2.374  1.00  0.00     0.053 C 
ATOM      4  C   UNL     1      58.439 -15.705  -3.402  1.00  0.00     0.016 C 
BRANCH   3   5
ATOM      5  C   UNL     1      59.650 -17.876  -2.721  1.00  0.00     0.015 C 
BRANCH   5   6
ATOM      6  C   UNL     1      60.898 -18.028  -1.766  1.00  0.00     0.028 C 
BRANCH   6   7
ATOM      7  C   UNL     1      60.934 -16.962  -0.666  1.00  0.00    -0.028 C 
ATOM      8  C   UNL     1      60.527 -17.025   0.646  1.00  0.00    -0.070 CG0
ATOM      9  C   UNL     1      60.646 -15.758   1.455  1.00  0.00     0.039 C 
ATOM     10  G   UNL     1      59.937 -18.242   1.369  1.00  0.00     0.000 G0
ENDBRANCH   6   7
ENDBRANCH   5   6
ENDBRANCH   3   5
ENDBRANCH   1   3
BRANCH   1  11
ATOM     11  C   UNL     1      56.977 -18.350  -0.985  1.00  0.00     0.087 C 
BRANCH  11  12
ATOM     12  C   UNL     1      57.384 -18.108   0.464  1.00  0.00     0.066 C 
BRANCH  12  13
ATOM     13  C   UNL     1      58.713 -18.865   0.684  1.00  0.00     0.140 C 
ATOM     14  O   UNL     1      58.790 -20.025   0.310  1.00  0.00    -0.299 OA
BRANCH  13  15
ATOM     15  C   UNL     1      59.939 -18.239   1.388  1.00  0.00     0.106 CG0
ATOM     16  G   UNL     1      60.512 -17.032   0.635  1.00  0.00     0.000 G0
ENDBRANCH  13  15
ENDBRANCH  12  13
BRANCH  12  17
ATOM     17  C   UNL     1      56.289 -18.486   1.509  1.00  0.00    -0.006 C 
ATOM     18  C   UNL     1      56.455 -17.778   2.864  1.00  0.00     0.008 C 
ATOM     19  C   UNL     1      54.881 -18.227   0.953  1.00  0.00     0.008 C 
ENDBRANCH  12  17
ENDBRANCH  11  12
ENDBRANCH   1  11
TORSDOF 1
ENDMDL
MODEL 7
REMARK VINA RESULT:    -3.101      1.618      3.949
REMARK INTER + INTRA:          -4.708
REMARK INTER:                  -4.404
REMARK INTRA:                  -0.304
REMARK UNBOUND:                 0.025
REMARK SMILES CC1=CCC[C@@H](C)C(=O)C[C@@H](C(C)C)C(=O)C1
REMARK SMILES IDX 8 1 9 2 6 3 7 4 5 5 4 6 3 7 2 8 1 9 10 11 11 12 15 13 16 14
REMARK SMILES IDX 17 15 12 17 13 18 14 19
REMARK H PARENT
REMARK Flexibility Score: 70.00
ROOT
ATOM      1  C   UNL     1      60.700 -18.977   0.266  1.00  0.00     0.136 C 
ATOM      2  O   UNL     1      61.547 -19.855   0.213  1.00  0.00    -0.299 OA
ENDROOT
BRANCH   1   3
ATOM      3  C   UNL     1      59.461 -19.113   1.156  1.00  0.00     0.053 C 
ATOM      4  C   UNL     1      59.868 -19.370   2.610  1.00  0.00     0.016 C 
BRANCH   3   5
ATOM      5  C   UNL     1      58.391 -20.160   0.650  1.00  0.00     0.015 C 
BRANCH   5   6
ATOM      6  C   UNL     1      56.948 -19.674   0.232  1.00  0.00     0.028 C 
BRANCH   6   7
ATOM      7  C   UNL     1      56.650 -18.242   0.689  1.00  0.00    -0.028 C 
ATOM      8  C   UNL     1      56.784 -17.049   0.019  1.00  0.00    -0.070 CG0
ATOM      9  C   UNL     1      56.456 -15.796   0.793  1.00  0.00     0.039 C 
ATOM     10  G   UNL     1      57.258 -16.853  -1.426  1.00  0.00     0.000 G0
ENDBRANCH   6   7
ENDBRANCH   5   6
ENDBRANCH   3   5
ENDBRANCH   1   3
BRANCH   1  11
ATOM     11  C   UNL     1      60.852 -17.705  -0.473  1.00  0.00     0.087 C 
BRANCH  11  12
ATOM     12  C   UNL     1      59.845 -16.573  -0.638  1.00  0.00     0.066 C 
BRANCH  12  13
ATOM     13  C   UNL     1      58.765 -17.079  -1.620  1.00  0.00     0.140 C 
ATOM     14  O   UNL     1      59.126 -17.687  -2.617  1.00  0.00    -0.299 OA
BRANCH  13  15
ATOM     15  C   UNL     1      57.253 -16.823  -1.424  1.00  0.00     0.106 CG0
ATOM     16  G   UNL     1      56.789 -17.052   0.019  1.00  0.00     0.000 G0
ENDBRANCH  13  15
ENDBRANCH  12  13
BRANCH  12  17
ATOM     17  C   UNL     1      60.475 -15.214  -1.075  1.00  0.00    -0.006 C 
ATOM     18  C   UNL     1      60.498 -14.154   0.039  1.00  0.00     0.008 C 
ATOM     19  C   UNL     1      61.892 -15.415  -1.634  1.00  0.00     0.008 C 
ENDBRANCH  12  17
ENDBRANCH  11  12
ENDBRANCH   1  11
TORSDOF 1
ENDMDL
MODEL 8
REMARK VINA RESULT:    -3.098      1.852      4.357
REMARK INTER + INTRA:          -4.704
REMARK INTER:                  -4.281
REMARK INTRA:                  -0.423
REMARK UNBOUND:                 0.025
REMARK SMILES CC1=CCC[C@@H](C)C(=O)C[C@@H](C(C)C)C(=O)C1
REMARK SMILES IDX 8 1 9 2 6 3 7 4 5 5 4 6 3 7 2 8 1 9 10 11 11 12 15 13 16 14
REMARK SMILES IDX 17 15 12 17 13 18 14 19
REMARK H PARENT
REMARK Flexibility Score: 70.00
ROOT
ATOM      1  C   UNL     1      59.298 -17.992  -1.489  1.00  0.00     0.136 C 
ATOM      2  O   UNL     1      59.535 -17.583  -2.615  1.00  0.00    -0.299 OA
ENDROOT
BRANCH   1   3
ATOM      3  C   UNL     1      60.321 -17.861  -0.357  1.00  0.00     0.053 C 
ATOM      4  C   UNL     1      61.250 -19.078  -0.326  1.00  0.00     0.016 C 
BRANCH   3   5
ATOM      5  C   UNL     1      59.703 -17.555   1.065  1.00  0.00     0.015 C 
BRANCH   5   6
ATOM      6  C   UNL     1      59.698 -18.671   2.181  1.00  0.00     0.028 C 
BRANCH   6   7
ATOM      7  C   UNL     1      58.380 -18.720   2.962  1.00  0.00    -0.028 C 
ATOM      8  C   UNL     1      57.127 -19.127   2.567  1.00  0.00    -0.070 CG0
ATOM      9  C   UNL     1      56.018 -18.987   3.579  1.00  0.00     0.039 C 
ATOM     10  G   UNL     1      56.731 -19.685   1.195  1.00  0.00     0.000 G0
ENDBRANCH   6   7
ENDBRANCH   5   6
ENDBRANCH   3   5
ENDBRANCH   1   3
BRANCH   1  11
ATOM     11  C   UNL     1      57.985 -18.575  -1.135  1.00  0.00     0.087 C 
BRANCH  11  12
ATOM     12  C   UNL     1      56.680 -17.856  -0.815  1.00  0.00     0.066 C 
BRANCH  12  13
ATOM     13  C   UNL     1      55.988 -18.668   0.304  1.00  0.00     0.140 C 
ATOM     14  O   UNL     1      54.800 -18.472   0.513  1.00  0.00    -0.299 OA
BRANCH  13  15
ATOM     15  C   UNL     1      56.731 -19.689   1.195  1.00  0.00     0.106 CG0
ATOM     16  G   UNL     1      57.122 -19.117   2.563  1.00  0.00     0.000 G0
ENDBRANCH  13  15
ENDBRANCH  12  13
BRANCH  12  17
ATOM     17  C   UNL     1      55.759 -17.619  -2.052  1.00  0.00    -0.006 C 
ATOM     18  C   UNL     1      56.168 -16.408  -2.907  1.00  0.00     0.008 C 
ATOM     19  C   UNL     1      55.679 -18.876  -2.931  1.00  0.00     0.008 C 
ENDBRANCH  12  17
ENDBRANCH  11  12
ENDBRANCH   1  11
TORSDOF 1
ENDMDL
MODEL 9
REMARK VINA RESULT:    -3.085      3.283      6.748
REMARK INTER + INTRA:          -4.684
REMARK INTER:                  -4.580
REMARK INTRA:                  -0.104
REMARK UNBOUND:                 0.025
REMARK SMILES CC1=CCC[C@@H](C)C(=O)C[C@@H](C(C)C)C(=O)C1
REMARK SMILES IDX 8 1 9 2 6 3 7 4 5 5 4 6 3 7 2 8 1 9 10 11 11 12 15 13 16 14
REMARK SMILES IDX 17 15 12 17 13 18 14 19
REMARK H PARENT
REMARK Flexibility Score: 70.00
ROOT
ATOM      1  C   UNL     1      54.770 -17.430  -3.739  1.00  0.00     0.136 C 
ATOM      2  O   UNL     1      54.109 -17.732  -4.721  1.00  0.00    -0.299 OA
ENDROOT
BRANCH   1   3
ATOM      3  C   UNL     1      54.805 -18.320  -2.493  1.00  0.00     0.053 C 
ATOM      4  C   UNL     1      53.433 -18.351  -1.814  1.00  0.00     0.016 C 
BRANCH   3   5
ATOM      5  C   UNL     1      55.961 -17.984  -1.470  1.00  0.00     0.015 C 
BRANCH   5   6
ATOM      6  C   UNL     1      57.223 -18.927  -1.365  1.00  0.00     0.028 C 
BRANCH   6   7
ATOM      7  C   UNL     1      58.471 -18.193  -0.863  1.00  0.00    -0.028 C 
ATOM      8  C   UNL     1      59.314 -17.324  -1.516  1.00  0.00    -0.070 CG0
ATOM      9  C   UNL     1      60.504 -16.821  -0.738  1.00  0.00     0.039 C 
ATOM     10  G   UNL     1      59.189 -16.834  -2.963  1.00  0.00     0.000 G0
ENDBRANCH   6   7
ENDBRANCH   5   6
ENDBRANCH   3   5
ENDBRANCH   1   3
BRANCH   1  11
ATOM     11  C   UNL     1      55.628 -16.225  -3.721  1.00  0.00     0.087 C 
BRANCH  11  12
ATOM     12  C   UNL     1      57.000 -16.024  -4.352  1.00  0.00     0.066 C 
BRANCH  12  13
ATOM     13  C   UNL     1      58.005 -15.866  -3.188  1.00  0.00     0.140 C 
ATOM     14  O   UNL     1      57.866 -14.920  -2.426  1.00  0.00    -0.299 OA
BRANCH  13  15
ATOM     15  C   UNL     1      59.198 -16.822  -2.960  1.00  0.00     0.106 CG0
ATOM     16  G   UNL     1      59.306 -17.311  -1.511  1.00  0.00     0.000 G0
ENDBRANCH  13  15
ENDBRANCH  12  13
BRANCH  12  17
ATOM     17  C   UNL     1      57.069 -14.851  -5.377  1.00  0.00    -0.006 C 
ATOM     18  C   UNL     1      57.679 -15.246  -6.733  1.00  0.00     0.008 C 
ATOM     19  C   UNL     1      55.684 -14.222  -5.592  1.00  0.00     0.008 C 
ENDBRANCH  12  17
ENDBRANCH  11  12
ENDBRANCH   1  11
TORSDOF 1
ENDMDL
