MODEL 1
REMARK VINA RESULT:    -1.742      0.000      0.000
REMARK INTER + INTRA:          -1.742
REMARK INTER:                  -1.742
REMARK INTRA:                   0.000
REMARK UNBOUND:                 0.000
REMARK SMILES CC1=CC[C@H]2[C@@H](C1)C2(C)C
REMARK SMILES IDX 1 1 2 2 3 3 4 4 5 5 6 6 7 7 8 8 9 9 10 10
REMARK H PARENT
REMARK Flexibility Score: inf
ROOT
ATOM      1  C   UNL     1     135.088 140.874 164.071  1.00  0.00     0.039 C 
ATOM      2  C   UNL     1     135.249 139.684 163.163  1.00  0.00    -0.077 C 
ATOM      3  C   UNL     1     134.875 139.782 161.876  1.00  0.00    -0.028 C 
ATOM      4  C   UNL     1     135.009 138.623 160.928  1.00  0.00     0.031 C 
ATOM      5  C   UNL     1     136.298 137.814 161.185  1.00  0.00     0.003 C 
ATOM      6  C   UNL     1     136.732 137.692 162.665  1.00  0.00     0.003 C 
ATOM      7  C   UNL     1     135.822 138.392 163.697  1.00  0.00     0.034 C 
ATOM      8  C   UNL     1     136.237 136.454 161.899  1.00  0.00    -0.029 C 
ATOM      9  C   UNL     1     137.341 135.470 161.494  1.00  0.00     0.012 C 
ATOM     10  C   UNL     1     134.877 135.819 162.246  1.00  0.00     0.012 C 
ENDROOT
TORSDOF 0
ENDMDL
MODEL 2
REMARK VINA RESULT:    -1.439      1.073      2.145
REMARK INTER + INTRA:          -1.439
REMARK INTER:                  -1.439
REMARK INTRA:                   0.000
REMARK UNBOUND:                 0.000
REMARK SMILES CC1=CC[C@H]2[C@@H](C1)C2(C)C
REMARK SMILES IDX 1 1 2 2 3 3 4 4 5 5 6 6 7 7 8 8 9 9 10 10
REMARK H PARENT
REMARK Flexibility Score: inf
ROOT
ATOM      1  C   UNL     1     134.876 141.492 162.998  1.00  0.00     0.039 C 
ATOM      2  C   UNL     1     135.453 140.104 162.922  1.00  0.00    -0.077 C 
ATOM      3  C   UNL     1     136.150 139.621 163.964  1.00  0.00    -0.028 C 
ATOM      4  C   UNL     1     136.752 138.244 163.937  1.00  0.00     0.031 C 
ATOM      5  C   UNL     1     135.834 137.228 163.226  1.00  0.00     0.003 C 
ATOM      6  C   UNL     1     135.032 137.774 162.022  1.00  0.00     0.003 C 
ATOM      7  C   UNL     1     135.251 139.264 161.682  1.00  0.00     0.034 C 
ATOM      8  C   UNL     1     136.156 136.749 161.801  1.00  0.00    -0.029 C 
ATOM      9  C   UNL     1     135.673 135.330 161.480  1.00  0.00     0.012 C 
ATOM     10  C   UNL     1     137.470 137.173 161.117  1.00  0.00     0.012 C 
ENDROOT
TORSDOF 0
ENDMDL
MODEL 3
REMARK VINA RESULT:     0.057      1.244      1.871
REMARK INTER + INTRA:           0.057
REMARK INTER:                   0.057
REMARK INTRA:                   0.000
REMARK UNBOUND:                 0.000
REMARK SMILES CC1=CC[C@H]2[C@@H](C1)C2(C)C
REMARK SMILES IDX 1 1 2 2 3 3 4 4 5 5 6 6 7 7 8 8 9 9 10 10
REMARK H PARENT
REMARK Flexibility Score: inf
ROOT
ATOM      1  C   UNL     1     136.547 141.065 162.442  1.00  0.00     0.039 C 
ATOM      2  C   UNL     1     136.251 139.591 162.517  1.00  0.00    -0.077 C 
ATOM      3  C   UNL     1     135.211 139.163 163.254  1.00  0.00    -0.028 C 
ATOM      4  C   UNL     1     134.875 137.703 163.367  1.00  0.00     0.031 C 
ATOM      5  C   UNL     1     135.094 136.956 162.034  1.00  0.00     0.003 C 
ATOM      6  C   UNL     1     136.292 137.438 161.183  1.00  0.00     0.003 C 
ATOM      7  C   UNL     1     137.118 138.602 161.773  1.00  0.00     0.034 C 
ATOM      8  C   UNL     1     136.320 136.049 161.841  1.00  0.00    -0.029 C 
ATOM      9  C   UNL     1     136.102 134.880 160.874  1.00  0.00     0.012 C 
ATOM     10  C   UNL     1     137.272 135.766 163.019  1.00  0.00     0.012 C 
ENDROOT
TORSDOF 0
ENDMDL
