MODEL 1
REMARK VINA RESULT:    -4.266      0.000      0.000
REMARK INTER + INTRA:          -5.222
REMARK INTER:                  -4.889
REMARK INTRA:                  -0.333
REMARK UNBOUND:                -0.333
REMARK SMILES COC(=O)c1ccccc1O
REMARK SMILES IDX 5 1 6 2 7 3 8 4 9 5 10 6 3 7 4 8 2 9 1 10 11 11
REMARK H PARENT 11 12
REMARK Flexibility Score: inf
ROOT
ATOM      1  C   UNL     1     120.010 120.027 118.926  1.00  0.00     0.101 A 
ATOM      2  C   UNL     1     118.815 120.135 118.187  1.00  0.00     0.019 A 
ATOM      3  C   UNL     1     118.211 119.002 117.640  1.00  0.00     0.001 A 
ATOM      4  C   UNL     1     118.787 117.745 117.819  1.00  0.00     0.004 A 
ATOM      5  C   UNL     1     119.969 117.618 118.548  1.00  0.00     0.047 A 
ATOM      6  C   UNL     1     120.588 118.747 119.104  1.00  0.00     0.130 A 
ENDROOT
BRANCH   1   7
ATOM      7  C   UNL     1     120.624 121.255 119.495  1.00  0.00     0.341 C 
ATOM      8  O   UNL     1     120.872 122.250 118.759  1.00  0.00    -0.246 OA
BRANCH   7   9
ATOM      9  O   UNL     1     120.929 121.310 120.859  1.00  0.00    -0.465 OA
ATOM     10  C   UNL     1     119.978 121.008 121.872  1.00  0.00     0.282 C 
ENDBRANCH   7   9
ENDBRANCH   1   7
BRANCH   6  11
ATOM     11  O   UNL     1     121.770 118.592 119.828  1.00  0.00    -0.507 OA
ATOM     12  H   UNL     1     122.006 119.204 120.601  1.00  0.00     0.293 HD
ENDBRANCH   6  11
TORSDOF 3
ENDMDL
MODEL 2
REMARK VINA RESULT:    -4.263      2.782      3.388
REMARK INTER + INTRA:          -5.219
REMARK INTER:                  -4.891
REMARK INTRA:                  -0.329
REMARK UNBOUND:                -0.333
REMARK SMILES COC(=O)c1ccccc1O
REMARK SMILES IDX 5 1 6 2 7 3 8 4 9 5 10 6 3 7 4 8 2 9 1 10 11 11
REMARK H PARENT 11 12
REMARK Flexibility Score: inf
ROOT
ATOM      1  C   UNL     1     117.606 119.977 118.926  1.00  0.00     0.101 A 
ATOM      2  C   UNL     1     117.509 118.795 118.167  1.00  0.00     0.019 A 
ATOM      3  C   UNL     1     118.648 118.210 117.610  1.00  0.00     0.001 A 
ATOM      4  C   UNL     1     119.900 118.794 117.800  1.00  0.00     0.004 A 
ATOM      5  C   UNL     1     120.016 119.964 118.550  1.00  0.00     0.047 A 
ATOM      6  C   UNL     1     118.881 120.563 119.116  1.00  0.00     0.130 A 
ENDROOT
BRANCH   1   7
ATOM      7  C   UNL     1     116.372 120.570 119.505  1.00  0.00     0.341 C 
ATOM      8  O   UNL     1     115.379 120.828 118.772  1.00  0.00    -0.246 OA
BRANCH   7   9
ATOM      9  O   UNL     1     116.311 120.844 120.875  1.00  0.00    -0.465 OA
ATOM     10  C   UNL     1     116.643 119.881 121.868  1.00  0.00     0.282 C 
ENDBRANCH   7   9
ENDBRANCH   1   7
BRANCH   6  11
ATOM     11  O   UNL     1     119.025 121.734 119.861  1.00  0.00    -0.507 OA
ATOM     12  H   UNL     1     119.670 122.464 119.585  1.00  0.00     0.293 HD
ENDBRANCH   6  11
TORSDOF 3
ENDMDL
MODEL 3
REMARK VINA RESULT:    -4.246      3.501      4.777
REMARK INTER + INTRA:          -5.200
REMARK INTER:                  -4.872
REMARK INTRA:                  -0.327
REMARK UNBOUND:                -0.333
REMARK SMILES COC(=O)c1ccccc1O
REMARK SMILES IDX 5 1 6 2 7 3 8 4 9 5 10 6 3 7 4 8 2 9 1 10 11 11
REMARK H PARENT 11 12
REMARK Flexibility Score: inf
ROOT
ATOM      1  C   UNL     1     117.625 117.592 118.938  1.00  0.00     0.101 A 
ATOM      2  C   UNL     1     118.809 117.484 118.184  1.00  0.00     0.019 A 
ATOM      3  C   UNL     1     119.403 118.615 117.621  1.00  0.00     0.001 A 
ATOM      4  C   UNL     1     118.825 119.872 117.801  1.00  0.00     0.004 A 
ATOM      5  C   UNL     1     117.653 120.000 118.545  1.00  0.00     0.047 A 
ATOM      6  C   UNL     1     117.045 118.872 119.116  1.00  0.00     0.130 A 
ENDROOT
BRANCH   1   7
ATOM      7  C   UNL     1     117.022 116.366 119.522  1.00  0.00     0.341 C 
ATOM      8  O   UNL     1     116.750 115.373 118.793  1.00  0.00    -0.246 OA
BRANCH   7   9
ATOM      9  O   UNL     1     116.753 116.312 120.894  1.00  0.00    -0.465 OA
ATOM     10  C   UNL     1     117.720 116.648 121.881  1.00  0.00     0.282 C 
ENDBRANCH   7   9
ENDBRANCH   1   7
BRANCH   6  11
ATOM     11  O   UNL     1     115.872 119.028 119.856  1.00  0.00    -0.507 OA
ATOM     12  H   UNL     1     115.613 118.376 120.586  1.00  0.00     0.293 HD
ENDBRANCH   6  11
TORSDOF 3
ENDMDL
MODEL 4
REMARK VINA RESULT:    -4.242      2.751      3.362
REMARK INTER + INTRA:          -5.195
REMARK INTER:                  -4.869
REMARK INTRA:                  -0.327
REMARK UNBOUND:                -0.333
REMARK SMILES COC(=O)c1ccccc1O
REMARK SMILES IDX 5 1 6 2 7 3 8 4 9 5 10 6 3 7 4 8 2 9 1 10 11 11
REMARK H PARENT 11 12
REMARK Flexibility Score: inf
ROOT
ATOM      1  C   UNL     1     119.997 117.651 118.918  1.00  0.00     0.101 A 
ATOM      2  C   UNL     1     120.128 118.828 118.155  1.00  0.00     0.019 A 
ATOM      3  C   UNL     1     119.008 119.438 117.586  1.00  0.00     0.001 A 
ATOM      4  C   UNL     1     117.741 118.885 117.768  1.00  0.00     0.004 A 
ATOM      5  C   UNL     1     117.591 117.720 118.521  1.00  0.00     0.047 A 
ATOM      6  C   UNL     1     118.707 117.096 119.098  1.00  0.00     0.130 A 
ENDROOT
BRANCH   1   7
ATOM      7  C   UNL     1     121.211 117.031 119.508  1.00  0.00     0.341 C 
ATOM      8  O   UNL     1     122.197 116.730 118.781  1.00  0.00    -0.246 OA
BRANCH   7   9
ATOM      9  O   UNL     1     121.262 116.779 120.883  1.00  0.00    -0.465 OA
ATOM     10  C   UNL     1     120.936 117.762 121.858  1.00  0.00     0.282 C 
ENDBRANCH   7   9
ENDBRANCH   1   7
BRANCH   6  11
ATOM     11  O   UNL     1     118.529 115.932 119.845  1.00  0.00    -0.507 OA
ATOM     12  H   UNL     1     119.047 115.763 120.699  1.00  0.00     0.293 HD
ENDBRANCH   6  11
TORSDOF 3
ENDMDL
MODEL 5
REMARK VINA RESULT:    -4.207      3.141      3.276
REMARK INTER + INTRA:          -5.155
REMARK INTER:                  -4.889
REMARK INTRA:                  -0.266
REMARK UNBOUND:                -0.333
REMARK SMILES COC(=O)c1ccccc1O
REMARK SMILES IDX 5 1 6 2 7 3 8 4 9 5 10 6 3 7 4 8 2 9 1 10 11 11
REMARK H PARENT 11 12
REMARK Flexibility Score: inf
ROOT
ATOM      1  C   UNL     1     117.588 119.220 118.795  1.00  0.00     0.101 A 
ATOM      2  C   UNL     1     117.972 119.668 117.517  1.00  0.00     0.019 A 
ATOM      3  C   UNL     1     119.014 119.045 116.827  1.00  0.00     0.001 A 
ATOM      4  C   UNL     1     119.690 117.969 117.400  1.00  0.00     0.004 A 
ATOM      5  C   UNL     1     119.323 117.510 118.665  1.00  0.00     0.047 A 
ATOM      6  C   UNL     1     118.278 118.126 119.371  1.00  0.00     0.130 A 
ENDROOT
BRANCH   1   7
ATOM      7  C   UNL     1     116.473 119.906 119.500  1.00  0.00     0.341 C 
ATOM      8  O   UNL     1     115.609 120.559 118.853  1.00  0.00    -0.246 OA
BRANCH   7   9
ATOM      9  O   UNL     1     116.381 119.827 120.893  1.00  0.00    -0.465 OA
ATOM     10  C   UNL     1     116.403 120.976 121.732  1.00  0.00     0.282 C 
ENDBRANCH   7   9
ENDBRANCH   1   7
BRANCH   6  11
ATOM     11  O   UNL     1     117.932 117.648 120.635  1.00  0.00    -0.507 OA
ATOM     12  H   UNL     1     118.635 117.388 121.317  1.00  0.00     0.293 HD
ENDBRANCH   6  11
TORSDOF 3
ENDMDL
MODEL 6
REMARK VINA RESULT:    -4.189      2.911      4.122
REMARK INTER + INTRA:          -5.134
REMARK INTER:                  -4.860
REMARK INTRA:                  -0.275
REMARK UNBOUND:                -0.333
REMARK SMILES COC(=O)c1ccccc1O
REMARK SMILES IDX 5 1 6 2 7 3 8 4 9 5 10 6 3 7 4 8 2 9 1 10 11 11
REMARK H PARENT 11 12
REMARK Flexibility Score: inf
ROOT
ATOM      1  C   UNL     1     118.357 117.570 118.797  1.00  0.00     0.101 A 
ATOM      2  C   UNL     1     117.873 118.004 117.547  1.00  0.00     0.019 A 
ATOM      3  C   UNL     1     118.504 119.043 116.860  1.00  0.00     0.001 A 
ATOM      4  C   UNL     1     119.625 119.666 117.407  1.00  0.00     0.004 A 
ATOM      5  C   UNL     1     120.120 119.249 118.643  1.00  0.00     0.047 A 
ATOM      6  C   UNL     1     119.496 118.207 119.345  1.00  0.00     0.130 A 
ENDROOT
BRANCH   1   7
ATOM      7  C   UNL     1     117.660 116.461 119.499  1.00  0.00     0.341 C 
ATOM      8  O   UNL     1     116.980 115.618 118.852  1.00  0.00    -0.246 OA
BRANCH   7   9
ATOM      9  O   UNL     1     117.760 116.350 120.890  1.00  0.00    -0.465 OA
ATOM     10  C   UNL     1     116.623 116.353 121.745  1.00  0.00     0.282 C 
ENDBRANCH   7   9
ENDBRANCH   1   7
BRANCH   6  11
ATOM     11  O   UNL     1     120.011 117.810 120.580  1.00  0.00    -0.507 OA
ATOM     12  H   UNL     1     119.496 117.197 121.199  1.00  0.00     0.293 HD
ENDBRANCH   6  11
TORSDOF 3
ENDMDL
MODEL 7
REMARK VINA RESULT:    -4.117      3.432      4.659
REMARK INTER + INTRA:          -5.052
REMARK INTER:                  -4.736
REMARK INTRA:                  -0.315
REMARK UNBOUND:                -0.333
REMARK SMILES COC(=O)c1ccccc1O
REMARK SMILES IDX 5 1 6 2 7 3 8 4 9 5 10 6 3 7 4 8 2 9 1 10 11 11
REMARK H PARENT 11 12
REMARK Flexibility Score: inf
ROOT
ATOM      1  C   UNL     1     117.960 117.735 119.461  1.00  0.00     0.101 A 
ATOM      2  C   UNL     1     119.046 117.516 118.592  1.00  0.00     0.019 A 
ATOM      3  C   UNL     1     119.260 118.350 117.493  1.00  0.00     0.001 A 
ATOM      4  C   UNL     1     118.395 119.415 117.242  1.00  0.00     0.004 A 
ATOM      5  C   UNL     1     117.315 119.649 118.092  1.00  0.00     0.047 A 
ATOM      6  C   UNL     1     117.087 118.819 119.200  1.00  0.00     0.130 A 
ENDROOT
BRANCH   1   7
ATOM      7  C   UNL     1     117.764 116.828 120.621  1.00  0.00     0.341 C 
ATOM      8  O   UNL     1     118.706 116.608 121.432  1.00  0.00    -0.246 OA
BRANCH   7   9
ATOM      9  O   UNL     1     116.524 116.211 120.817  1.00  0.00    -0.465 OA
ATOM     10  C   UNL     1     116.008 115.914 122.109  1.00  0.00     0.282 C 
ENDBRANCH   7   9
ENDBRANCH   1   7
BRANCH   6  11
ATOM     11  O   UNL     1     115.998 119.075 120.034  1.00  0.00    -0.507 OA
ATOM     12  H   UNL     1     116.101 119.587 120.903  1.00  0.00     0.293 HD
ENDBRANCH   6  11
TORSDOF 3
ENDMDL
MODEL 8
REMARK VINA RESULT:    -4.045      1.363      2.522
REMARK INTER + INTRA:          -4.969
REMARK INTER:                  -4.639
REMARK INTRA:                  -0.330
REMARK UNBOUND:                -0.333
REMARK SMILES COC(=O)c1ccccc1O
REMARK SMILES IDX 5 1 6 2 7 3 8 4 9 5 10 6 3 7 4 8 2 9 1 10 11 11
REMARK H PARENT 11 12
REMARK Flexibility Score: inf
ROOT
ATOM      1  C   UNL     1     119.840 119.235 119.367  1.00  0.00     0.101 A 
ATOM      2  C   UNL     1     120.315 118.211 118.524  1.00  0.00     0.019 A 
ATOM      3  C   UNL     1     119.664 117.915 117.325  1.00  0.00     0.001 A 
ATOM      4  C   UNL     1     118.531 118.633 116.947  1.00  0.00     0.004 A 
ATOM      5  C   UNL     1     118.045 119.652 117.767  1.00  0.00     0.047 A 
ATOM      6  C   UNL     1     118.688 119.960 118.976  1.00  0.00     0.130 A 
ENDROOT
BRANCH   1   7
ATOM      7  C   UNL     1     120.559 119.523 120.635  1.00  0.00     0.341 C 
ATOM      8  O   UNL     1     120.872 118.589 121.423  1.00  0.00    -0.246 OA
BRANCH   7   9
ATOM      9  O   UNL     1     120.892 120.842 120.959  1.00  0.00    -0.465 OA
ATOM     10  C   UNL     1     120.733 121.377 122.267  1.00  0.00     0.282 C 
ENDBRANCH   7   9
ENDBRANCH   1   7
BRANCH   6  11
ATOM     11  O   UNL     1     118.182 120.983 119.778  1.00  0.00    -0.507 OA
ATOM     12  H   UNL     1     117.284 120.902 120.240  1.00  0.00     0.293 HD
ENDBRANCH   6  11
TORSDOF 3
ENDMDL
MODEL 9
REMARK VINA RESULT:    -4.043      2.121      3.438
REMARK INTER + INTRA:          -4.967
REMARK INTER:                  -4.638
REMARK INTRA:                  -0.329
REMARK UNBOUND:                -0.333
REMARK SMILES COC(=O)c1ccccc1O
REMARK SMILES IDX 5 1 6 2 7 3 8 4 9 5 10 6 3 7 4 8 2 9 1 10 11 11
REMARK H PARENT 11 12
REMARK Flexibility Score: inf
ROOT
ATOM      1  C   UNL     1     119.273 117.713 119.410  1.00  0.00     0.101 A 
ATOM      2  C   UNL     1     118.202 117.298 118.594  1.00  0.00     0.019 A 
ATOM      3  C   UNL     1     117.929 117.950 117.390  1.00  0.00     0.001 A 
ATOM      4  C   UNL     1     118.716 119.025 116.981  1.00  0.00     0.004 A 
ATOM      5  C   UNL     1     119.782 119.450 117.774  1.00  0.00     0.047 A 
ATOM      6  C   UNL     1     120.068 118.805 118.987  1.00  0.00     0.130 A 
ENDROOT
BRANCH   1   7
ATOM      7  C   UNL     1     119.534 116.995 120.684  1.00  0.00     0.341 C 
ATOM      8  O   UNL     1     118.591 116.732 121.479  1.00  0.00    -0.246 OA
BRANCH   7   9
ATOM      9  O   UNL     1     120.839 116.605 121.006  1.00  0.00    -0.465 OA
ATOM     10  C   UNL     1     121.369 116.706 122.321  1.00  0.00     0.282 C 
ENDBRANCH   7   9
ENDBRANCH   1   7
BRANCH   6  11
ATOM     11  O   UNL     1     121.139 119.251 119.762  1.00  0.00    -0.507 OA
ATOM     12  H   UNL     1     121.072 120.084 120.335  1.00  0.00     0.293 HD
ENDBRANCH   6  11
TORSDOF 3
ENDMDL
