MODEL 1
REMARK VINA RESULT:    -4.589      0.000      0.000
REMARK INTER + INTRA:          -6.694
REMARK INTER:                  -6.467
REMARK INTRA:                  -0.228
REMARK UNBOUND:                -0.228
REMARK SMILES CCCCCCCCC(=O)[O-]
REMARK SMILES IDX 6 1 7 2 8 3 9 4 10 5 11 6 5 7 4 8 3 9 2 10 1 11
REMARK H PARENT
REMARK Flexibility Score: inf
ROOT
ATOM      1  C   UNL     1      50.005 153.925 -19.335  1.00  0.00     0.000 C 
ENDROOT
BRANCH   1   2
ATOM      2  C   UNL     1      49.457 153.255 -20.604  1.00  0.00     0.006 C 
BRANCH   2   3
ATOM      3  C   UNL     1      50.568 153.051 -21.639  1.00  0.00     0.053 C 
BRANCH   3   4
ATOM      4  C   UNL     1      49.987 152.659 -22.961  1.00  0.00     0.041 C 
ATOM      5  O   UNL     1      48.896 153.155 -23.346  1.00  0.00    -0.550 OA
ATOM      6  O   UNL     1      50.677 151.784 -23.790  1.00  0.00    -0.550 OA
ENDBRANCH   3   4
ENDBRANCH   2   3
ENDBRANCH   1   2
BRANCH   1   7
ATOM      7  C   UNL     1      49.386 153.359 -18.046  1.00  0.00     0.000 C 
BRANCH   7   8
ATOM      8  C   UNL     1      49.339 154.339 -16.856  1.00  0.00    -0.000 C 
BRANCH   8   9
ATOM      9  C   UNL     1      49.632 153.711 -15.482  1.00  0.00    -0.000 C 
BRANCH   9  10
ATOM     10  C   UNL     1      49.467 152.185 -15.476  1.00  0.00    -0.003 C 
ATOM     11  C   UNL     1      50.789 151.490 -15.164  1.00  0.00     0.004 C 
ENDBRANCH   9  10
ENDBRANCH   8   9
ENDBRANCH   7   8
ENDBRANCH   1   7
TORSDOF 7
ENDMDL
MODEL 2
REMARK VINA RESULT:    -4.577     14.545     17.980
REMARK INTER + INTRA:          -6.677
REMARK INTER:                  -6.389
REMARK INTRA:                  -0.288
REMARK UNBOUND:                -0.228
REMARK SMILES CCCCCCCCC(=O)[O-]
REMARK SMILES IDX 6 1 7 2 8 3 9 4 10 5 11 6 5 7 4 8 3 9 2 10 1 11
REMARK H PARENT
REMARK Flexibility Score: inf
ROOT
ATOM      1  C   UNL     1      58.480 144.383 -31.645  1.00  0.00     0.000 C 
ENDROOT
BRANCH   1   2
ATOM      2  C   UNL     1      58.391 143.751 -30.248  1.00  0.00     0.006 C 
BRANCH   2   3
ATOM      3  C   UNL     1      56.943 143.729 -29.748  1.00  0.00     0.053 C 
BRANCH   3   4
ATOM      4  C   UNL     1      56.819 144.496 -28.469  1.00  0.00     0.041 C 
ATOM      5  O   UNL     1      55.696 144.631 -27.918  1.00  0.00    -0.550 OA
ATOM      6  O   UNL     1      57.953 145.021 -27.861  1.00  0.00    -0.550 OA
ENDBRANCH   3   4
ENDBRANCH   2   3
ENDBRANCH   1   2
BRANCH   1   7
ATOM      7  C   UNL     1      59.678 143.866 -32.460  1.00  0.00     0.000 C 
BRANCH   7   8
ATOM      8  C   UNL     1      59.958 144.630 -33.770  1.00  0.00    -0.000 C 
BRANCH   8   9
ATOM      9  C   UNL     1      61.366 145.242 -33.879  1.00  0.00    -0.000 C 
BRANCH   9  10
ATOM     10  C   UNL     1      61.344 146.773 -33.982  1.00  0.00    -0.003 C 
ATOM     11  C   UNL     1      60.226 147.366 -33.129  1.00  0.00     0.004 C 
ENDBRANCH   9  10
ENDBRANCH   8   9
ENDBRANCH   7   8
ENDBRANCH   1   7
TORSDOF 7
ENDMDL
MODEL 3
REMARK VINA RESULT:    -4.522     13.701     17.208
REMARK INTER + INTRA:          -6.600
REMARK INTER:                  -6.399
REMARK INTRA:                  -0.201
REMARK UNBOUND:                -0.228
REMARK SMILES CCCCCCCCC(=O)[O-]
REMARK SMILES IDX 6 1 7 2 8 3 9 4 10 5 11 6 5 7 4 8 3 9 2 10 1 11
REMARK H PARENT
REMARK Flexibility Score: inf
ROOT
ATOM      1  C   UNL     1      58.110 143.954 -29.973  1.00  0.00     0.000 C 
ENDROOT
BRANCH   1   2
ATOM      2  C   UNL     1      56.656 143.772 -29.514  1.00  0.00     0.006 C 
BRANCH   2   3
ATOM      3  C   UNL     1      56.452 144.328 -28.102  1.00  0.00     0.053 C 
BRANCH   3   4
ATOM      4  C   UNL     1      55.050 144.086 -27.640  1.00  0.00     0.041 C 
ATOM      5  O   UNL     1      54.466 144.933 -26.915  1.00  0.00    -0.550 OA
ATOM      6  O   UNL     1      54.370 142.947 -28.053  1.00  0.00    -0.550 OA
ENDBRANCH   3   4
ENDBRANCH   2   3
ENDBRANCH   1   2
BRANCH   1   7
ATOM      7  C   UNL     1      58.241 144.128 -31.495  1.00  0.00     0.000 C 
BRANCH   7   8
ATOM      8  C   UNL     1      59.552 143.595 -32.106  1.00  0.00    -0.000 C 
BRANCH   8   9
ATOM      9  C   UNL     1      60.101 144.414 -33.288  1.00  0.00    -0.000 C 
BRANCH   9  10
ATOM     10  C   UNL     1      59.242 145.645 -33.609  1.00  0.00    -0.003 C 
ATOM     11  C   UNL     1      59.950 146.566 -34.599  1.00  0.00     0.004 C 
ENDBRANCH   9  10
ENDBRANCH   8   9
ENDBRANCH   7   8
ENDBRANCH   1   7
TORSDOF 7
ENDMDL
MODEL 4
REMARK VINA RESULT:    -4.214     13.452     16.885
REMARK INTER + INTRA:          -6.166
REMARK INTER:                  -5.946
REMARK INTRA:                  -0.220
REMARK UNBOUND:                -0.228
REMARK SMILES CCCCCCCCC(=O)[O-]
REMARK SMILES IDX 6 1 7 2 8 3 9 4 10 5 11 6 5 7 4 8 3 9 2 10 1 11
REMARK H PARENT
REMARK Flexibility Score: inf
ROOT
ATOM      1  C   UNL     1      56.473 143.770 -30.277  1.00  0.00     0.000 C 
ENDROOT
BRANCH   1   2
ATOM      2  C   UNL     1      55.840 143.517 -28.900  1.00  0.00     0.006 C 
BRANCH   2   3
ATOM      3  C   UNL     1      56.542 144.338 -27.815  1.00  0.00     0.053 C 
BRANCH   3   4
ATOM      4  C   UNL     1      55.856 144.161 -26.497  1.00  0.00     0.041 C 
ATOM      5  O   UNL     1      56.477 143.666 -25.520  1.00  0.00    -0.550 OA
ATOM      6  O   UNL     1      54.544 144.590 -26.334  1.00  0.00    -0.550 OA
ENDBRANCH   3   4
ENDBRANCH   2   3
ENDBRANCH   1   2
BRANCH   1   7
ATOM      7  C   UNL     1      58.010 143.791 -30.233  1.00  0.00     0.000 C 
BRANCH   7   8
ATOM      8  C   UNL     1      58.693 144.373 -31.488  1.00  0.00    -0.000 C 
BRANCH   8   9
ATOM      9  C   UNL     1      59.684 143.427 -32.188  1.00  0.00    -0.000 C 
BRANCH   9  10
ATOM     10  C   UNL     1      60.161 143.963 -33.545  1.00  0.00    -0.003 C 
ATOM     11  C   UNL     1      59.610 145.362 -33.809  1.00  0.00     0.004 C 
ENDBRANCH   9  10
ENDBRANCH   8   9
ENDBRANCH   7   8
ENDBRANCH   1   7
TORSDOF 7
ENDMDL
MODEL 5
REMARK VINA RESULT:    -4.202     15.045     17.555
REMARK INTER + INTRA:          -6.149
REMARK INTER:                  -5.924
REMARK INTRA:                  -0.225
REMARK UNBOUND:                -0.228
REMARK SMILES CCCCCCCCC(=O)[O-]
REMARK SMILES IDX 6 1 7 2 8 3 9 4 10 5 11 6 5 7 4 8 3 9 2 10 1 11
REMARK H PARENT
REMARK Flexibility Score: inf
ROOT
ATOM      1  C   UNL     1      59.646 143.496 -32.241  1.00  0.00     0.000 C 
ENDROOT
BRANCH   1   2
ATOM      2  C   UNL     1      60.175 144.165 -33.519  1.00  0.00     0.006 C 
BRANCH   2   3
ATOM      3  C   UNL     1      59.569 145.560 -33.697  1.00  0.00     0.053 C 
BRANCH   3   4
ATOM      4  C   UNL     1      60.630 146.610 -33.591  1.00  0.00     0.041 C 
ATOM      5  O   UNL     1      60.313 147.818 -33.437  1.00  0.00    -0.550 OA
ATOM      6  O   UNL     1      61.971 146.247 -33.611  1.00  0.00    -0.550 OA
ENDBRANCH   3   4
ENDBRANCH   2   3
ENDBRANCH   1   2
BRANCH   1   7
ATOM      7  C   UNL     1      58.453 144.246 -31.623  1.00  0.00     0.000 C 
BRANCH   7   8
ATOM      8  C   UNL     1      58.062 143.795 -30.201  1.00  0.00    -0.000 C 
BRANCH   8   9
ATOM      9  C   UNL     1      56.552 143.811 -29.905  1.00  0.00    -0.000 C 
BRANCH   9  10
ATOM     10  C   UNL     1      56.234 144.183 -28.450  1.00  0.00    -0.003 C 
ATOM     11  C   UNL     1      55.282 143.171 -27.818  1.00  0.00     0.004 C 
ENDBRANCH   9  10
ENDBRANCH   8   9
ENDBRANCH   7   8
ENDBRANCH   1   7
TORSDOF 7
ENDMDL
MODEL 6
REMARK VINA RESULT:    -4.185      1.647      2.369
REMARK INTER + INTRA:          -6.126
REMARK INTER:                  -5.925
REMARK INTRA:                  -0.200
REMARK UNBOUND:                -0.228
REMARK SMILES CCCCCCCCC(=O)[O-]
REMARK SMILES IDX 6 1 7 2 8 3 9 4 10 5 11 6 5 7 4 8 3 9 2 10 1 11
REMARK H PARENT
REMARK Flexibility Score: inf
ROOT
ATOM      1  C   UNL     1      49.140 153.158 -21.559  1.00  0.00     0.000 C 
ENDROOT
BRANCH   1   2
ATOM      2  C   UNL     1      50.566 153.013 -22.113  1.00  0.00     0.006 C 
BRANCH   2   3
ATOM      3  C   UNL     1      50.558 152.297 -23.466  1.00  0.00     0.053 C 
BRANCH   3   4
ATOM      4  C   UNL     1      51.570 152.904 -24.386  1.00  0.00     0.041 C 
ATOM      5  O   UNL     1      52.029 154.053 -24.154  1.00  0.00    -0.550 OA
ATOM      6  O   UNL     1      52.045 152.180 -25.473  1.00  0.00    -0.550 OA
ENDBRANCH   3   4
ENDBRANCH   2   3
ENDBRANCH   1   2
BRANCH   1   7
ATOM      7  C   UNL     1      49.079 153.046 -20.027  1.00  0.00     0.000 C 
BRANCH   7   8
ATOM      8  C   UNL     1      50.104 153.911 -19.265  1.00  0.00    -0.000 C 
BRANCH   8   9
ATOM      9  C   UNL     1      49.647 154.391 -17.876  1.00  0.00    -0.000 C 
BRANCH   9  10
ATOM     10  C   UNL     1      49.502 153.244 -16.867  1.00  0.00    -0.003 C 
ATOM     11  C   UNL     1      49.374 153.777 -15.443  1.00  0.00     0.004 C 
ENDBRANCH   9  10
ENDBRANCH   8   9
ENDBRANCH   7   8
ENDBRANCH   1   7
TORSDOF 7
ENDMDL
MODEL 7
REMARK VINA RESULT:    -3.924      3.339      6.824
REMARK INTER + INTRA:          -5.758
REMARK INTER:                  -5.536
REMARK INTRA:                  -0.221
REMARK UNBOUND:                -0.228
REMARK SMILES CCCCCCCCC(=O)[O-]
REMARK SMILES IDX 6 1 7 2 8 3 9 4 10 5 11 6 5 7 4 8 3 9 2 10 1 11
REMARK H PARENT
REMARK Flexibility Score: inf
ROOT
ATOM      1  C   UNL     1      49.402 152.676 -21.784  1.00  0.00     0.000 C 
ENDROOT
BRANCH   1   2
ATOM      2  C   UNL     1      49.008 153.080 -20.355  1.00  0.00     0.006 C 
BRANCH   2   3
ATOM      3  C   UNL     1      50.177 153.760 -19.636  1.00  0.00     0.053 C 
BRANCH   3   4
ATOM      4  C   UNL     1      49.782 154.152 -18.247  1.00  0.00     0.041 C 
ATOM      5  O   UNL     1      49.680 155.368 -17.937  1.00  0.00    -0.550 OA
ATOM      6  O   UNL     1      49.477 153.174 -17.309  1.00  0.00    -0.550 OA
ENDBRANCH   3   4
ENDBRANCH   2   3
ENDBRANCH   1   2
BRANCH   1   7
ATOM      7  C   UNL     1      50.754 153.265 -22.221  1.00  0.00     0.000 C 
BRANCH   7   8
ATOM      8  C   UNL     1      51.034 153.210 -23.736  1.00  0.00    -0.000 C 
BRANCH   8   9
ATOM      9  C   UNL     1      52.087 154.211 -24.242  1.00  0.00    -0.000 C 
BRANCH   9  10
ATOM     10  C   UNL     1      52.416 154.029 -25.730  1.00  0.00    -0.003 C 
ATOM     11  C   UNL     1      52.405 152.553 -26.119  1.00  0.00     0.004 C 
ENDBRANCH   9  10
ENDBRANCH   8   9
ENDBRANCH   7   8
ENDBRANCH   1   7
TORSDOF 7
ENDMDL
MODEL 8
REMARK VINA RESULT:    -3.874     11.515     13.917
REMARK INTER + INTRA:          -5.688
REMARK INTER:                  -5.467
REMARK INTRA:                  -0.221
REMARK UNBOUND:                -0.228
REMARK SMILES CCCCCCCCC(=O)[O-]
REMARK SMILES IDX 6 1 7 2 8 3 9 4 10 5 11 6 5 7 4 8 3 9 2 10 1 11
REMARK H PARENT
REMARK Flexibility Score: inf
ROOT
ATOM      1  C   UNL     1      60.176 156.241 -24.810  1.00  0.00     0.000 C 
ENDROOT
BRANCH   1   2
ATOM      2  C   UNL     1      60.902 155.627 -23.604  1.00  0.00     0.006 C 
BRANCH   2   3
ATOM      3  C   UNL     1      59.901 155.075 -22.585  1.00  0.00     0.053 C 
BRANCH   3   4
ATOM      4  C   UNL     1      60.477 153.892 -21.872  1.00  0.00     0.041 C 
ATOM      5  O   UNL     1      59.979 152.748 -22.040  1.00  0.00    -0.550 OA
ATOM      6  O   UNL     1      61.594 154.045 -21.062  1.00  0.00    -0.550 OA
ENDBRANCH   3   4
ENDBRANCH   2   3
ENDBRANCH   1   2
BRANCH   1   7
ATOM      7  C   UNL     1      60.972 156.105 -26.120  1.00  0.00     0.000 C 
BRANCH   7   8
ATOM      8  C   UNL     1      61.327 154.660 -26.524  1.00  0.00    -0.000 C 
BRANCH   8   9
ATOM      9  C   UNL     1      62.294 154.535 -27.715  1.00  0.00    -0.000 C 
BRANCH   9  10
ATOM     10  C   UNL     1      62.858 153.116 -27.877  1.00  0.00    -0.003 C 
ATOM     11  C   UNL     1      61.787 152.152 -28.379  1.00  0.00     0.004 C 
ENDBRANCH   9  10
ENDBRANCH   8   9
ENDBRANCH   7   8
ENDBRANCH   1   7
TORSDOF 7
ENDMDL
MODEL 9
REMARK VINA RESULT:    -3.779      5.491      8.044
REMARK INTER + INTRA:          -5.554
REMARK INTER:                  -4.895
REMARK INTRA:                  -0.659
REMARK UNBOUND:                -0.228
REMARK SMILES CCCCCCCCC(=O)[O-]
REMARK SMILES IDX 6 1 7 2 8 3 9 4 10 5 11 6 5 7 4 8 3 9 2 10 1 11
REMARK H PARENT
REMARK Flexibility Score: inf
ROOT
ATOM      1  C   UNL     1      51.422 154.282 -26.523  1.00  0.00     0.000 C 
ENDROOT
BRANCH   1   2
ATOM      2  C   UNL     1      52.160 153.688 -25.314  1.00  0.00     0.006 C 
BRANCH   2   3
ATOM      3  C   UNL     1      51.334 153.848 -24.034  1.00  0.00     0.053 C 
BRANCH   3   4
ATOM      4  C   UNL     1      50.873 152.513 -23.539  1.00  0.00     0.041 C 
ATOM      5  O   UNL     1      50.760 151.545 -24.336  1.00  0.00    -0.550 OA
ATOM      6  O   UNL     1      50.615 152.325 -22.186  1.00  0.00    -0.550 OA
ENDBRANCH   3   4
ENDBRANCH   2   3
ENDBRANCH   1   2
BRANCH   1   7
ATOM      7  C   UNL     1      50.805 155.660 -26.229  1.00  0.00     0.000 C 
BRANCH   7   8
ATOM      8  C   UNL     1      51.669 156.867 -26.646  1.00  0.00    -0.000 C 
BRANCH   8   9
ATOM      9  C   UNL     1      52.574 157.436 -25.539  1.00  0.00    -0.000 C 
BRANCH   9  10
ATOM     10  C   UNL     1      54.050 157.506 -25.953  1.00  0.00    -0.003 C 
ATOM     11  C   UNL     1      54.812 156.269 -25.486  1.00  0.00     0.004 C 
ENDBRANCH   9  10
ENDBRANCH   8   9
ENDBRANCH   7   8
ENDBRANCH   1   7
TORSDOF 7
ENDMDL
