MODEL 1
REMARK VINA RESULT:    -7.053      0.000      0.000
REMARK INTER + INTRA:          -8.432
REMARK INTER:                  -8.083
REMARK INTRA:                  -0.348
REMARK UNBOUND:                -0.348
REMARK SMILES C=C(C)[C@H]1CC[C@@]2(C(=O)[O-])CC[C@]3(C)[C@H](CC[C@@H]4[C@]5(C)CC[C@H](O)C(C)(C)[C@H]5CC[C@@]43C)[C@H]12
REMARK SMILES IDX 7 1 6 2 33 3 11 4 5 5 15 6 4 7 12 8 16 9 13 10 17 11 31 12
REMARK SMILES IDX 14 13 18 14 30 15 32 16 19 17 29 18 21 19 20 20 28 21 22 22
REMARK SMILES IDX 25 23 23 24 26 25 27 26 8 27 9 28 10 29 2 30 3 31 1 32 24 33
REMARK H PARENT 24 34
REMARK Flexibility Score: inf
ROOT
ATOM      1  C   UNL     1     -13.114 -24.236 -43.448  1.00  0.00     0.014 C 
ATOM      2  C   UNL     1     -13.749 -22.874 -43.795  1.00  0.00     0.014 C 
ATOM      3  C   UNL     1     -13.304 -24.238 -41.933  1.00  0.00     0.012 C 
ATOM      4  C   UNL     1     -11.581 -24.355 -43.772  1.00  0.00     0.014 C 
ATOM      5  C   UNL     1     -14.973 -22.752 -42.859  1.00  0.00     0.009 C 
ATOM      6  C   UNL     1     -12.692 -25.437 -41.142  1.00  0.00     0.000 C 
ATOM      7  C   UNL     1     -14.728 -23.726 -41.678  1.00  0.00     0.018 C 
ATOM      8  C   UNL     1     -10.695 -24.910 -42.602  1.00  0.00     0.008 C 
ATOM      9  C   UNL     1     -13.588 -26.527 -40.586  1.00  0.00     0.005 C 
ATOM     10  C   UNL     1     -11.382 -26.055 -41.764  1.00  0.00    -0.024 C 
ATOM     11  C   UNL     1     -12.859 -27.168 -39.393  1.00  0.00     0.005 C 
ATOM     12  C   UNL     1     -10.481 -26.650 -40.555  1.00  0.00    -0.024 C 
ATOM     13  C   UNL     1     -11.668 -27.230 -42.766  1.00  0.00     0.012 C 
ATOM     14  C   UNL     1     -11.366 -27.633 -39.621  1.00  0.00     0.002 C 
ATOM     15  C   UNL     1      -9.839 -25.501 -39.700  1.00  0.00     0.008 C 
ATOM     16  C   UNL     1      -9.284 -27.450 -41.180  1.00  0.00     0.012 C 
ATOM     17  C   UNL     1     -10.653 -28.070 -38.245  1.00  0.00    -0.026 C 
ATOM     18  C   UNL     1      -9.160 -25.961 -38.403  1.00  0.00     0.005 C 
ATOM     19  C   UNL     1     -11.667 -28.793 -37.286  1.00  0.00     0.010 C 
ATOM     20  C   UNL     1      -9.522 -29.111 -38.566  1.00  0.00     0.012 C 
ATOM     21  C   UNL     1     -10.120 -26.780 -37.507  1.00  0.00     0.003 C 
ATOM     22  C   UNL     1     -11.120 -29.064 -35.875  1.00  0.00     0.033 C 
ATOM     23  C   UNL     1      -9.595 -26.992 -36.025  1.00  0.00    -0.006 C 
ATOM     24  C   UNL     1     -10.666 -27.766 -35.190  1.00  0.00     0.120 C 
ATOM     25  C   UNL     1      -8.236 -27.738 -35.951  1.00  0.00     0.014 C 
ATOM     26  C   UNL     1      -9.372 -25.616 -35.334  1.00  0.00     0.014 C 
ENDROOT
BRANCH   1  27
ATOM     27  C   UNL     1     -13.932 -25.286 -44.198  1.00  0.00     0.048 C 
ATOM     28  O   UNL     1     -13.777 -25.428 -45.441  1.00  0.00    -0.550 OA
ATOM     29  O   UNL     1     -14.874 -26.076 -43.552  1.00  0.00    -0.550 OA
ENDBRANCH   1  27
BRANCH   7  30
ATOM     30  C   UNL     1     -14.911 -23.072 -40.310  1.00  0.00    -0.077 C 
ATOM     31  C   UNL     1     -15.616 -23.818 -39.208  1.00  0.00     0.039 C 
ATOM     32  C   UNL     1     -14.459 -21.830 -40.055  1.00  0.00     0.008 C 
ENDBRANCH   7  30
BRANCH  24  33
ATOM     33  O   UNL     1     -11.786 -26.944 -34.962  1.00  0.00    -0.393 OA
ATOM     34  H   UNL     1     -12.557 -27.370 -35.421  1.00  0.00     0.210 HD
ENDBRANCH  24  33
TORSDOF 3
ENDMDL
MODEL 2
REMARK VINA RESULT:    -5.186      1.399      2.020
REMARK INTER + INTRA:          -6.293
REMARK INTER:                  -5.925
REMARK INTRA:                  -0.367
REMARK UNBOUND:                -0.348
REMARK SMILES C=C(C)[C@H]1CC[C@@]2(C(=O)[O-])CC[C@]3(C)[C@H](CC[C@@H]4[C@]5(C)CC[C@H](O)C(C)(C)[C@H]5CC[C@@]43C)[C@H]12
REMARK SMILES IDX 7 1 6 2 33 3 11 4 5 5 15 6 4 7 12 8 16 9 13 10 17 11 31 12
REMARK SMILES IDX 14 13 18 14 30 15 32 16 19 17 29 18 21 19 20 20 28 21 22 22
REMARK SMILES IDX 25 23 23 24 26 25 27 26 8 27 9 28 10 29 2 30 3 31 1 32 24 33
REMARK H PARENT 24 34
REMARK Flexibility Score: inf
ROOT
ATOM      1  C   UNL     1     -12.629 -25.926 -42.560  1.00  0.00     0.014 C 
ATOM      2  C   UNL     1     -12.999 -24.713 -43.438  1.00  0.00     0.014 C 
ATOM      3  C   UNL     1     -12.971 -25.367 -41.181  1.00  0.00     0.012 C 
ATOM      4  C   UNL     1     -11.110 -26.326 -42.587  1.00  0.00     0.014 C 
ATOM      5  C   UNL     1     -14.277 -24.127 -42.796  1.00  0.00     0.009 C 
ATOM      6  C   UNL     1     -12.644 -26.269 -39.949  1.00  0.00     0.000 C 
ATOM      7  C   UNL     1     -14.313 -24.638 -41.334  1.00  0.00     0.018 C 
ATOM      8  C   UNL     1     -10.450 -26.527 -41.178  1.00  0.00     0.008 C 
ATOM      9  C   UNL     1     -13.756 -26.980 -39.201  1.00  0.00     0.005 C 
ATOM     10  C   UNL     1     -11.393 -27.213 -40.119  1.00  0.00    -0.024 C 
ATOM     11  C   UNL     1     -13.266 -27.234 -37.766  1.00  0.00     0.005 C 
ATOM     12  C   UNL     1     -10.729 -27.438 -38.658  1.00  0.00    -0.024 C 
ATOM     13  C   UNL     1     -11.760 -28.626 -40.698  1.00  0.00     0.012 C 
ATOM     14  C   UNL     1     -11.851 -27.917 -37.594  1.00  0.00     0.002 C 
ATOM     15  C   UNL     1     -10.002 -26.143 -38.152  1.00  0.00     0.008 C 
ATOM     16  C   UNL     1      -9.618 -28.540 -38.787  1.00  0.00     0.012 C 
ATOM     17  C   UNL     1     -11.362 -27.916 -36.059  1.00  0.00    -0.026 C 
ATOM     18  C   UNL     1      -9.542 -26.186 -36.690  1.00  0.00     0.005 C 
ATOM     19  C   UNL     1     -12.572 -28.129 -35.079  1.00  0.00     0.010 C 
ATOM     20  C   UNL     1     -10.386 -29.125 -35.834  1.00  0.00     0.012 C 
ATOM     21  C   UNL     1     -10.708 -26.517 -35.727  1.00  0.00     0.003 C 
ATOM     22  C   UNL     1     -12.224 -27.941 -33.593  1.00  0.00     0.033 C 
ATOM     23  C   UNL     1     -10.379 -26.248 -34.199  1.00  0.00    -0.006 C 
ATOM     24  C   UNL     1     -11.640 -26.547 -33.325  1.00  0.00     0.120 C 
ATOM     25  C   UNL     1      -9.171 -27.069 -33.672  1.00  0.00     0.014 C 
ATOM     26  C   UNL     1     -10.010 -24.751 -33.987  1.00  0.00     0.014 C 
ENDROOT
BRANCH   1  27
ATOM     27  C   UNL     1     -13.523 -27.073 -43.027  1.00  0.00     0.048 C 
ATOM     28  O   UNL     1     -13.245 -27.688 -44.091  1.00  0.00    -0.550 OA
ATOM     29  O   UNL     1     -14.664 -27.441 -42.326  1.00  0.00    -0.550 OA
ENDBRANCH   1  27
BRANCH   7  30
ATOM     30  C   UNL     1     -14.528 -23.525 -40.310  1.00  0.00    -0.077 C 
ATOM     31  C   UNL     1     -15.574 -23.680 -39.238  1.00  0.00     0.039 C 
ATOM     32  C   UNL     1     -13.805 -22.390 -40.340  1.00  0.00     0.008 C 
ENDBRANCH   7  30
BRANCH  24  33
ATOM     33  O   UNL     1     -12.631 -25.575 -33.561  1.00  0.00    -0.393 OA
ATOM     34  H   UNL     1     -13.500 -25.976 -33.298  1.00  0.00     0.210 HD
ENDBRANCH  24  33
TORSDOF 3
ENDMDL
MODEL 3
REMARK VINA RESULT:    -4.922      3.493      6.628
REMARK INTER + INTRA:          -5.990
REMARK INTER:                  -6.028
REMARK INTRA:                   0.038
REMARK UNBOUND:                -0.348
REMARK SMILES C=C(C)[C@H]1CC[C@@]2(C(=O)[O-])CC[C@]3(C)[C@H](CC[C@@H]4[C@]5(C)CC[C@H](O)C(C)(C)[C@H]5CC[C@@]43C)[C@H]12
REMARK SMILES IDX 7 1 6 2 33 3 11 4 5 5 15 6 4 7 12 8 16 9 13 10 17 11 31 12
REMARK SMILES IDX 14 13 18 14 30 15 32 16 19 17 29 18 21 19 20 20 28 21 22 22
REMARK SMILES IDX 25 23 23 24 26 25 27 26 8 27 9 28 10 29 2 30 3 31 1 32 24 33
REMARK H PARENT 24 34
REMARK Flexibility Score: inf
ROOT
ATOM      1  C   UNL     1     -15.407 -26.886 -48.069  1.00  0.00     0.014 C 
ATOM      2  C   UNL     1     -15.542 -27.934 -49.193  1.00  0.00     0.014 C 
ATOM      3  C   UNL     1     -14.056 -27.294 -47.488  1.00  0.00     0.012 C 
ATOM      4  C   UNL     1     -16.498 -26.979 -46.942  1.00  0.00     0.014 C 
ATOM      5  C   UNL     1     -14.117 -28.086 -49.773  1.00  0.00     0.009 C 
ATOM      6  C   UNL     1     -13.566 -26.525 -46.220  1.00  0.00     0.000 C 
ATOM      7  C   UNL     1     -13.138 -27.571 -48.687  1.00  0.00     0.018 C 
ATOM      8  C   UNL     1     -15.940 -26.976 -45.475  1.00  0.00     0.008 C 
ATOM      9  C   UNL     1     -12.458 -25.494 -46.328  1.00  0.00     0.005 C 
ATOM     10  C   UNL     1     -14.707 -26.019 -45.258  1.00  0.00    -0.024 C 
ATOM     11  C   UNL     1     -11.783 -25.389 -44.951  1.00  0.00     0.005 C 
ATOM     12  C   UNL     1     -14.120 -25.994 -43.748  1.00  0.00    -0.024 C 
ATOM     13  C   UNL     1     -15.205 -24.568 -45.599  1.00  0.00     0.012 C 
ATOM     14  C   UNL     1     -12.723 -25.177 -43.697  1.00  0.00     0.002 C 
ATOM     15  C   UNL     1     -13.935 -27.445 -43.181  1.00  0.00     0.008 C 
ATOM     16  C   UNL     1     -15.175 -25.294 -42.820  1.00  0.00     0.012 C 
ATOM     17  C   UNL     1     -11.918 -25.313 -42.309  1.00  0.00    -0.026 C 
ATOM     18  C   UNL     1     -13.174 -27.530 -41.851  1.00  0.00     0.005 C 
ATOM     19  C   UNL     1     -10.467 -24.722 -42.435  1.00  0.00     0.010 C 
ATOM     20  C   UNL     1     -12.652 -24.464 -41.210  1.00  0.00     0.012 C 
ATOM     21  C   UNL     1     -11.790 -26.841 -41.934  1.00  0.00     0.003 C 
ATOM     22  C   UNL     1      -9.566 -24.991 -41.219  1.00  0.00     0.033 C 
ATOM     23  C   UNL     1     -10.827 -27.181 -40.719  1.00  0.00    -0.006 C 
ATOM     24  C   UNL     1      -9.440 -26.495 -40.935  1.00  0.00     0.120 C 
ATOM     25  C   UNL     1     -11.405 -26.770 -39.338  1.00  0.00     0.014 C 
ATOM     26  C   UNL     1     -10.581 -28.716 -40.646  1.00  0.00     0.014 C 
ENDROOT
BRANCH   1  27
ATOM     27  C   UNL     1     -15.423 -25.524 -48.760  1.00  0.00     0.048 C 
ATOM     28  O   UNL     1     -16.498 -24.870 -48.827  1.00  0.00    -0.550 OA
ATOM     29  O   UNL     1     -14.284 -24.991 -49.350  1.00  0.00    -0.550 OA
ENDBRANCH   1  27
BRANCH   7  30
ATOM     30  C   UNL     1     -12.007 -28.551 -48.382  1.00  0.00    -0.077 C 
ATOM     31  C   UNL     1     -11.852 -29.113 -46.993  1.00  0.00     0.039 C 
ATOM     32  C   UNL     1     -11.127 -28.930 -49.328  1.00  0.00     0.008 C 
ENDBRANCH   7  30
BRANCH  24  33
ATOM     33  O   UNL     1      -8.757 -27.114 -42.000  1.00  0.00    -0.393 OA
ATOM     34  H   UNL     1      -7.806 -26.837 -41.934  1.00  0.00     0.210 HD
ENDBRANCH  24  33
TORSDOF 3
ENDMDL
MODEL 4
REMARK VINA RESULT:    -4.799      2.986      7.159
REMARK INTER + INTRA:          -5.848
REMARK INTER:                  -6.023
REMARK INTRA:                   0.175
REMARK UNBOUND:                -0.348
REMARK SMILES C=C(C)[C@H]1CC[C@@]2(C(=O)[O-])CC[C@]3(C)[C@H](CC[C@@H]4[C@]5(C)CC[C@H](O)C(C)(C)[C@H]5CC[C@@]43C)[C@H]12
REMARK SMILES IDX 7 1 6 2 33 3 11 4 5 5 15 6 4 7 12 8 16 9 13 10 17 11 31 12
REMARK SMILES IDX 14 13 18 14 30 15 32 16 19 17 29 18 21 19 20 20 28 21 22 22
REMARK SMILES IDX 25 23 23 24 26 25 27 26 8 27 9 28 10 29 2 30 3 31 1 32 24 33
REMARK H PARENT 24 34
REMARK Flexibility Score: inf
ROOT
ATOM      1  C   UNL     1     -13.807 -26.923 -34.505  1.00  0.00     0.014 C 
ATOM      2  C   UNL     1     -13.785 -25.946 -33.311  1.00  0.00     0.014 C 
ATOM      3  C   UNL     1     -12.507 -26.520 -35.199  1.00  0.00     0.012 C 
ATOM      4  C   UNL     1     -15.003 -26.723 -35.504  1.00  0.00     0.014 C 
ATOM      5  C   UNL     1     -12.303 -25.877 -32.876  1.00  0.00     0.009 C 
ATOM      6  C   UNL     1     -12.181 -27.221 -36.555  1.00  0.00     0.000 C 
ATOM      7  C   UNL     1     -11.462 -26.351 -34.088  1.00  0.00     0.018 C 
ATOM      8  C   UNL     1     -14.599 -26.648 -37.018  1.00  0.00     0.008 C 
ATOM      9  C   UNL     1     -11.107 -28.291 -36.628  1.00  0.00     0.005 C 
ATOM     10  C   UNL     1     -13.433 -27.627 -37.422  1.00  0.00    -0.024 C 
ATOM     11  C   UNL     1     -10.582 -28.328 -38.073  1.00  0.00     0.005 C 
ATOM     12  C   UNL     1     -13.006 -27.573 -38.984  1.00  0.00    -0.024 C 
ATOM     13  C   UNL     1     -13.948 -29.080 -37.120  1.00  0.00     0.012 C 
ATOM     14  C   UNL     1     -11.654 -28.428 -39.231  1.00  0.00     0.002 C 
ATOM     15  C   UNL     1     -12.825 -26.094 -39.478  1.00  0.00     0.008 C 
ATOM     16  C   UNL     1     -14.177 -28.177 -39.837  1.00  0.00     0.012 C 
ATOM     17  C   UNL     1     -10.991 -28.228 -40.685  1.00  0.00    -0.026 C 
ATOM     18  C   UNL     1     -12.202 -25.948 -40.872  1.00  0.00     0.005 C 
ATOM     19  C   UNL     1      -9.558 -28.872 -40.749  1.00  0.00     0.010 C 
ATOM     20  C   UNL     1     -11.866 -28.980 -41.751  1.00  0.00     0.012 C 
ATOM     21  C   UNL     1     -10.844 -26.684 -40.978  1.00  0.00     0.003 C 
ATOM     22  C   UNL     1      -8.777 -28.553 -42.034  1.00  0.00     0.033 C 
ATOM     23  C   UNL     1      -9.999 -26.296 -42.263  1.00  0.00    -0.006 C 
ATOM     24  C   UNL     1      -8.624 -27.038 -42.237  1.00  0.00     0.120 C 
ATOM     25  C   UNL     1     -10.730 -26.598 -43.599  1.00  0.00     0.014 C 
ATOM     26  C   UNL     1      -9.703 -24.768 -42.268  1.00  0.00     0.014 C 
ENDROOT
BRANCH   1  27
ATOM     27  C   UNL     1     -13.803 -28.326 -33.901  1.00  0.00     0.048 C 
ATOM     28  O   UNL     1     -14.871 -28.809 -33.437  1.00  0.00    -0.550 OA
ATOM     29  O   UNL     1     -12.642 -29.083 -33.818  1.00  0.00    -0.550 OA
ENDBRANCH   1  27
BRANCH   7  30
ATOM     30  C   UNL     1     -10.331 -25.390 -34.449  1.00  0.00    -0.077 C 
ATOM     31  C   UNL     1     -10.005 -24.235 -33.539  1.00  0.00     0.039 C 
ATOM     32  C   UNL     1      -9.609 -25.541 -35.575  1.00  0.00     0.008 C 
ENDBRANCH   7  30
BRANCH  24  33
ATOM     33  O   UNL     1      -7.812 -26.512 -41.214  1.00  0.00    -0.393 OA
ATOM     34  H   UNL     1      -7.124 -25.945 -41.652  1.00  0.00     0.210 HD
ENDBRANCH  24  33
TORSDOF 3
ENDMDL
MODEL 5
REMARK VINA RESULT:    -4.713      2.347      7.281
REMARK INTER + INTRA:          -5.750
REMARK INTER:                  -5.672
REMARK INTRA:                  -0.078
REMARK UNBOUND:                -0.348
REMARK SMILES C=C(C)[C@H]1CC[C@@]2(C(=O)[O-])CC[C@]3(C)[C@H](CC[C@@H]4[C@]5(C)CC[C@H](O)C(C)(C)[C@H]5CC[C@@]43C)[C@H]12
REMARK SMILES IDX 7 1 6 2 33 3 11 4 5 5 15 6 4 7 12 8 16 9 13 10 17 11 31 12
REMARK SMILES IDX 14 13 18 14 30 15 32 16 19 17 29 18 21 19 20 20 28 21 22 22
REMARK SMILES IDX 25 23 23 24 26 25 27 26 8 27 9 28 10 29 2 30 3 31 1 32 24 33
REMARK H PARENT 24 34
REMARK Flexibility Score: inf
ROOT
ATOM      1  C   UNL     1     -14.343 -26.594 -35.424  1.00  0.00     0.014 C 
ATOM      2  C   UNL     1     -13.748 -26.047 -34.110  1.00  0.00     0.014 C 
ATOM      3  C   UNL     1     -13.117 -26.503 -36.328  1.00  0.00     0.012 C 
ATOM      4  C   UNL     1     -15.499 -25.727 -36.040  1.00  0.00     0.014 C 
ATOM      5  C   UNL     1     -12.314 -26.622 -34.049  1.00  0.00     0.009 C 
ATOM      6  C   UNL     1     -13.313 -26.881 -37.830  1.00  0.00     0.000 C 
ATOM      7  C   UNL     1     -11.932 -27.016 -35.498  1.00  0.00     0.018 C 
ATOM      8  C   UNL     1     -15.340 -25.394 -37.565  1.00  0.00     0.008 C 
ATOM      9  C   UNL     1     -12.782 -28.198 -38.365  1.00  0.00     0.005 C 
ATOM     10  C   UNL     1     -14.741 -26.574 -38.421  1.00  0.00    -0.024 C 
ATOM     11  C   UNL     1     -12.547 -28.027 -39.875  1.00  0.00     0.005 C 
ATOM     12  C   UNL     1     -14.576 -26.255 -40.001  1.00  0.00    -0.024 C 
ATOM     13  C   UNL     1     -15.740 -27.777 -38.280  1.00  0.00     0.012 C 
ATOM     14  C   UNL     1     -13.735 -27.430 -40.731  1.00  0.00     0.002 C 
ATOM     15  C   UNL     1     -13.898 -24.859 -40.236  1.00  0.00     0.008 C 
ATOM     16  C   UNL     1     -16.008 -26.157 -40.636  1.00  0.00     0.012 C 
ATOM     17  C   UNL     1     -13.282 -27.092 -42.239  1.00  0.00    -0.026 C 
ATOM     18  C   UNL     1     -13.493 -24.572 -41.688  1.00  0.00     0.005 C 
ATOM     19  C   UNL     1     -12.256 -28.155 -42.774  1.00  0.00     0.010 C 
ATOM     20  C   UNL     1     -14.539 -27.173 -43.178  1.00  0.00     0.012 C 
ATOM     21  C   UNL     1     -12.578 -25.680 -42.262  1.00  0.00     0.003 C 
ATOM     22  C   UNL     1     -11.622 -27.798 -44.128  1.00  0.00     0.033 C 
ATOM     23  C   UNL     1     -11.859 -25.283 -43.620  1.00  0.00    -0.006 C 
ATOM     24  C   UNL     1     -10.910 -26.438 -44.074  1.00  0.00     0.120 C 
ATOM     25  C   UNL     1     -12.848 -24.938 -44.766  1.00  0.00     0.014 C 
ATOM     26  C   UNL     1     -10.982 -24.015 -43.410  1.00  0.00     0.014 C 
ENDROOT
BRANCH   1  27
ATOM     27  C   UNL     1     -14.808 -28.016 -35.114  1.00  0.00     0.048 C 
ATOM     28  O   UNL     1     -15.894 -28.200 -34.502  1.00  0.00    -0.550 OA
ATOM     29  O   UNL     1     -14.047 -29.125 -35.462  1.00  0.00    -0.550 OA
ENDBRANCH   1  27
BRANCH   7  30
ATOM     30  C   UNL     1     -10.582 -26.454 -35.940  1.00  0.00    -0.077 C 
ATOM     31  C   UNL     1      -9.937 -25.342 -35.155  1.00  0.00     0.039 C 
ATOM     32  C   UNL     1      -9.943 -26.924 -37.027  1.00  0.00     0.008 C 
ENDBRANCH   7  30
BRANCH  24  33
ATOM     33  O   UNL     1      -9.807 -26.526 -43.203  1.00  0.00    -0.393 OA
ATOM     34  H   UNL     1     -10.169 -26.577 -42.280  1.00  0.00     0.210 HD
ENDBRANCH  24  33
TORSDOF 3
ENDMDL
MODEL 6
REMARK VINA RESULT:    -4.612      2.917      8.389
REMARK INTER + INTRA:          -5.635
REMARK INTER:                  -5.846
REMARK INTRA:                   0.212
REMARK UNBOUND:                -0.348
REMARK SMILES C=C(C)[C@H]1CC[C@@]2(C(=O)[O-])CC[C@]3(C)[C@H](CC[C@@H]4[C@]5(C)CC[C@H](O)C(C)(C)[C@H]5CC[C@@]43C)[C@H]12
REMARK SMILES IDX 7 1 6 2 33 3 11 4 5 5 15 6 4 7 12 8 16 9 13 10 17 11 31 12
REMARK SMILES IDX 14 13 18 14 30 15 32 16 19 17 29 18 21 19 20 20 28 21 22 22
REMARK SMILES IDX 25 23 23 24 26 25 27 26 8 27 9 28 10 29 2 30 3 31 1 32 24 33
REMARK H PARENT 24 34
REMARK Flexibility Score: inf
ROOT
ATOM      1  C   UNL     1      -9.317 -26.405 -41.314  1.00  0.00     0.014 C 
ATOM      2  C   UNL     1      -7.788 -26.389 -41.517  1.00  0.00     0.014 C 
ATOM      3  C   UNL     1      -9.755 -26.990 -42.655  1.00  0.00     0.012 C 
ATOM      4  C   UNL     1      -9.977 -24.991 -41.132  1.00  0.00     0.014 C 
ATOM      5  C   UNL     1      -7.471 -27.693 -42.283  1.00  0.00     0.009 C 
ATOM      6  C   UNL     1     -11.291 -27.090 -42.918  1.00  0.00     0.000 C 
ATOM      7  C   UNL     1      -8.792 -28.147 -42.954  1.00  0.00     0.018 C 
ATOM      8  C   UNL     1     -11.229 -24.720 -42.039  1.00  0.00     0.008 C 
ATOM      9  C   UNL     1     -11.993 -28.434 -42.859  1.00  0.00     0.005 C 
ATOM     10  C   UNL     1     -12.165 -25.973 -42.232  1.00  0.00    -0.024 C 
ATOM     11  C   UNL     1     -13.255 -28.339 -43.734  1.00  0.00     0.005 C 
ATOM     12  C   UNL     1     -13.470 -25.713 -43.158  1.00  0.00    -0.024 C 
ATOM     13  C   UNL     1     -12.671 -26.376 -40.800  1.00  0.00     0.012 C 
ATOM     14  C   UNL     1     -14.218 -27.111 -43.486  1.00  0.00     0.002 C 
ATOM     15  C   UNL     1     -13.092 -24.962 -44.483  1.00  0.00     0.008 C 
ATOM     16  C   UNL     1     -14.445 -24.761 -42.379  1.00  0.00     0.012 C 
ATOM     17  C   UNL     1     -15.367 -27.008 -44.610  1.00  0.00    -0.026 C 
ATOM     18  C   UNL     1     -14.217 -24.876 -45.522  1.00  0.00     0.005 C 
ATOM     19  C   UNL     1     -15.851 -28.435 -45.058  1.00  0.00     0.010 C 
ATOM     20  C   UNL     1     -16.618 -26.285 -43.995  1.00  0.00     0.012 C 
ATOM     21  C   UNL     1     -14.783 -26.272 -45.878  1.00  0.00     0.003 C 
ATOM     22  C   UNL     1     -16.800 -28.430 -46.267  1.00  0.00     0.033 C 
ATOM     23  C   UNL     1     -15.699 -26.285 -47.174  1.00  0.00    -0.006 C 
ATOM     24  C   UNL     1     -16.158 -27.746 -47.483  1.00  0.00     0.120 C 
ATOM     25  C   UNL     1     -16.940 -25.359 -47.063  1.00  0.00     0.014 C 
ATOM     26  C   UNL     1     -14.891 -25.781 -48.405  1.00  0.00     0.014 C 
ENDROOT
BRANCH   1  27
ATOM     27  C   UNL     1      -9.572 -27.307 -40.108  1.00  0.00     0.048 C 
ATOM     28  O   UNL     1      -9.406 -26.854 -38.943  1.00  0.00    -0.550 OA
ATOM     29  O   UNL     1      -9.954 -28.634 -40.255  1.00  0.00    -0.550 OA
ENDBRANCH   1  27
BRANCH   7  30
ATOM     30  C   UNL     1      -8.638 -28.449 -44.444  1.00  0.00    -0.077 C 
ATOM     31  C   UNL     1      -7.285 -28.797 -45.006  1.00  0.00     0.039 C 
ATOM     32  C   UNL     1      -9.689 -28.410 -45.284  1.00  0.00     0.008 C 
ENDBRANCH   7  30
BRANCH  24  33
ATOM     33  O   UNL     1     -15.062 -28.513 -47.922  1.00  0.00    -0.393 OA
ATOM     34  H   UNL     1     -14.798 -28.159 -48.812  1.00  0.00     0.210 HD
ENDBRANCH  24  33
TORSDOF 3
ENDMDL
MODEL 7
REMARK VINA RESULT:    -4.440      3.850      8.783
REMARK INTER + INTRA:          -5.438
REMARK INTER:                  -5.076
REMARK INTRA:                  -0.361
REMARK UNBOUND:                -0.348
REMARK SMILES C=C(C)[C@H]1CC[C@@]2(C(=O)[O-])CC[C@]3(C)[C@H](CC[C@@H]4[C@]5(C)CC[C@H](O)C(C)(C)[C@H]5CC[C@@]43C)[C@H]12
REMARK SMILES IDX 7 1 6 2 33 3 11 4 5 5 15 6 4 7 12 8 16 9 13 10 17 11 31 12
REMARK SMILES IDX 14 13 18 14 30 15 32 16 19 17 29 18 21 19 20 20 28 21 22 22
REMARK SMILES IDX 25 23 23 24 26 25 27 26 8 27 9 28 10 29 2 30 3 31 1 32 24 33
REMARK H PARENT 24 34
REMARK Flexibility Score: inf
ROOT
ATOM      1  C   UNL     1     -11.747 -26.520 -41.611  1.00  0.00     0.014 C 
ATOM      2  C   UNL     1     -12.351 -26.223 -40.223  1.00  0.00     0.014 C 
ATOM      3  C   UNL     1     -12.868 -25.994 -42.504  1.00  0.00     0.012 C 
ATOM      4  C   UNL     1     -11.516 -28.043 -41.922  1.00  0.00     0.014 C 
ATOM      5  C   UNL     1     -13.061 -24.859 -40.377  1.00  0.00     0.009 C 
ATOM      6  C   UNL     1     -12.701 -26.195 -44.044  1.00  0.00     0.000 C 
ATOM      7  C   UNL     1     -13.314 -24.659 -41.893  1.00  0.00     0.018 C 
ATOM      8  C   UNL     1     -12.075 -28.531 -43.305  1.00  0.00     0.008 C 
ATOM      9  C   UNL     1     -12.344 -25.022 -44.937  1.00  0.00     0.005 C 
ATOM     10  C   UNL     1     -11.904 -27.486 -44.472  1.00  0.00    -0.024 C 
ATOM     11  C   UNL     1     -12.854 -25.341 -46.352  1.00  0.00     0.005 C 
ATOM     12  C   UNL     1     -12.467 -27.973 -45.911  1.00  0.00    -0.024 C 
ATOM     13  C   UNL     1     -10.361 -27.237 -44.624  1.00  0.00     0.012 C 
ATOM     14  C   UNL     1     -12.463 -26.744 -46.965  1.00  0.00     0.002 C 
ATOM     15  C   UNL     1     -13.903 -28.592 -45.786  1.00  0.00     0.008 C 
ATOM     16  C   UNL     1     -11.540 -29.125 -46.438  1.00  0.00     0.012 C 
ATOM     17  C   UNL     1     -13.245 -27.041 -48.342  1.00  0.00    -0.026 C 
ATOM     18  C   UNL     1     -14.608 -28.870 -47.119  1.00  0.00     0.005 C 
ATOM     19  C   UNL     1     -13.424 -25.727 -49.186  1.00  0.00     0.010 C 
ATOM     20  C   UNL     1     -12.382 -28.019 -49.217  1.00  0.00     0.012 C 
ATOM     21  C   UNL     1     -14.681 -27.606 -48.009  1.00  0.00     0.003 C 
ATOM     22  C   UNL     1     -14.332 -25.884 -50.416  1.00  0.00     0.033 C 
ATOM     23  C   UNL     1     -15.679 -27.737 -49.236  1.00  0.00    -0.006 C 
ATOM     24  C   UNL     1     -15.729 -26.388 -50.023  1.00  0.00     0.120 C 
ATOM     25  C   UNL     1     -15.320 -28.895 -50.205  1.00  0.00     0.014 C 
ATOM     26  C   UNL     1     -17.119 -28.031 -48.724  1.00  0.00     0.014 C 
ENDROOT
BRANCH   1  27
ATOM     27  C   UNL     1     -10.444 -25.725 -41.681  1.00  0.00     0.048 C 
ATOM     28  O   UNL     1      -9.444 -26.104 -41.014  1.00  0.00    -0.550 OA
ATOM     29  O   UNL     1     -10.335 -24.568 -42.441  1.00  0.00    -0.550 OA
ENDBRANCH   1  27
BRANCH   7  30
ATOM     30  C   UNL     1     -14.759 -24.286 -42.219  1.00  0.00    -0.077 C 
ATOM     31  C   UNL     1     -15.050 -23.087 -43.084  1.00  0.00     0.039 C 
ATOM     32  C   UNL     1     -15.796 -25.001 -41.747  1.00  0.00     0.008 C 
ENDBRANCH   7  30
BRANCH  24  33
ATOM     33  O   UNL     1     -16.378 -25.404 -49.254  1.00  0.00    -0.393 OA
ATOM     34  H   UNL     1     -16.548 -24.631 -49.854  1.00  0.00     0.210 HD
ENDBRANCH  24  33
TORSDOF 3
ENDMDL
MODEL 8
REMARK VINA RESULT:    -4.214      4.428      9.781
REMARK INTER + INTRA:          -5.179
REMARK INTER:                  -4.816
REMARK INTRA:                  -0.362
REMARK UNBOUND:                -0.348
REMARK SMILES C=C(C)[C@H]1CC[C@@]2(C(=O)[O-])CC[C@]3(C)[C@H](CC[C@@H]4[C@]5(C)CC[C@H](O)C(C)(C)[C@H]5CC[C@@]43C)[C@H]12
REMARK SMILES IDX 7 1 6 2 33 3 11 4 5 5 15 6 4 7 12 8 16 9 13 10 17 11 31 12
REMARK SMILES IDX 14 13 18 14 30 15 32 16 19 17 29 18 21 19 20 20 28 21 22 22
REMARK SMILES IDX 25 23 23 24 26 25 27 26 8 27 9 28 10 29 2 30 3 31 1 32 24 33
REMARK H PARENT 24 34
REMARK Flexibility Score: inf
ROOT
ATOM      1  C   UNL     1     -14.897 -26.568 -42.160  1.00  0.00     0.014 C 
ATOM      2  C   UNL     1     -14.757 -25.473 -41.083  1.00  0.00     0.014 C 
ATOM      3  C   UNL     1     -14.369 -25.812 -43.377  1.00  0.00     0.012 C 
ATOM      4  C   UNL     1     -16.371 -27.033 -42.446  1.00  0.00     0.014 C 
ATOM      5  C   UNL     1     -13.431 -24.751 -41.415  1.00  0.00     0.009 C 
ATOM      6  C   UNL     1     -14.429 -26.549 -44.752  1.00  0.00     0.000 C 
ATOM      7  C   UNL     1     -13.120 -25.055 -42.903  1.00  0.00     0.018 C 
ATOM      8  C   UNL     1     -16.775 -27.066 -43.962  1.00  0.00     0.008 C 
ATOM      9  C   UNL     1     -13.164 -27.104 -45.381  1.00  0.00     0.005 C 
ATOM     10  C   UNL     1     -15.627 -27.560 -44.922  1.00  0.00    -0.024 C 
ATOM     11  C   UNL     1     -13.394 -27.179 -46.900  1.00  0.00     0.005 C 
ATOM     12  C   UNL     1     -16.024 -27.611 -46.492  1.00  0.00    -0.024 C 
ATOM     13  C   UNL     1     -15.270 -29.022 -44.474  1.00  0.00     0.012 C 
ATOM     14  C   UNL     1     -14.713 -27.891 -47.400  1.00  0.00     0.002 C 
ATOM     15  C   UNL     1     -16.740 -26.290 -46.946  1.00  0.00     0.008 C 
ATOM     16  C   UNL     1     -17.067 -28.765 -46.699  1.00  0.00     0.012 C 
ATOM     17  C   UNL     1     -14.940 -27.700 -48.983  1.00  0.00    -0.026 C 
ATOM     18  C   UNL     1     -16.948 -26.152 -48.459  1.00  0.00     0.005 C 
ATOM     19  C   UNL     1     -13.574 -27.726 -49.758  1.00  0.00     0.010 C 
ATOM     20  C   UNL     1     -15.785 -28.907 -49.525  1.00  0.00     0.012 C 
ATOM     21  C   UNL     1     -15.620 -26.298 -49.240  1.00  0.00     0.003 C 
ATOM     22  C   UNL     1     -13.683 -27.351 -51.245  1.00  0.00     0.033 C 
ATOM     23  C   UNL     1     -15.709 -25.836 -50.756  1.00  0.00    -0.006 C 
ATOM     24  C   UNL     1     -14.305 -25.959 -51.430  1.00  0.00     0.120 C 
ATOM     25  C   UNL     1     -16.757 -26.628 -51.583  1.00  0.00     0.014 C 
ATOM     26  C   UNL     1     -16.134 -24.341 -50.835  1.00  0.00     0.014 C 
ENDROOT
BRANCH   1  27
ATOM     27  C   UNL     1     -14.020 -27.730 -41.696  1.00  0.00     0.048 C 
ATOM     28  O   UNL     1     -14.425 -28.491 -40.777  1.00  0.00    -0.550 OA
ATOM     29  O   UNL     1     -12.761 -27.956 -42.239  1.00  0.00    -0.550 OA
ENDBRANCH   1  27
BRANCH   7  30
ATOM     30  C   UNL     1     -12.812 -23.804 -43.723  1.00  0.00    -0.077 C 
ATOM     31  C   UNL     1     -13.929 -22.878 -44.132  1.00  0.00     0.039 C 
ATOM     32  C   UNL     1     -11.557 -23.499 -44.101  1.00  0.00     0.008 C 
ENDBRANCH   7  30
BRANCH  24  33
ATOM     33  O   UNL     1     -13.431 -24.987 -50.904  1.00  0.00    -0.393 OA
ATOM     34  H   UNL     1     -13.929 -24.127 -50.890  1.00  0.00     0.210 HD
ENDBRANCH  24  33
TORSDOF 3
ENDMDL
