MODEL 1
REMARK VINA RESULT:    -4.377      0.000      0.000
REMARK INTER + INTRA:          -6.893
REMARK INTER:                  -6.168
REMARK INTRA:                  -0.725
REMARK UNBOUND:                -0.725
REMARK SMILES COc1ccc(-c2cc(=O)c3c(OC)c(OC)c(OC)c(OC)c3o2)cc1OC
REMARK SMILES IDX 7 1 8 2 9 3 10 4 11 5 24 6 25 7 21 8 18 9 15 10 12 11 6 12
REMARK SMILES IDX 3 13 27 14 4 15 26 16 5 17 2 18 1 19 28 20 29 21 22 22 23 23
REMARK SMILES IDX 13 24 14 25 19 26 20 27 16 28 17 29
REMARK H PARENT
REMARK Flexibility Score: inf
ROOT
ATOM      1  C   UNL     1      25.158 -52.658 154.387  1.00  0.00     0.138 A 
ATOM      2  C   UNL     1      26.288 -51.865 154.168  1.00  0.00     0.100 A 
ATOM      3  C   UNL     1      26.661 -51.557 152.863  1.00  0.00     0.197 A 
ATOM      4  O   UNL     1      27.685 -50.843 152.685  1.00  0.00    -0.289 OA
ATOM      5  C   UNL     1      25.897 -52.048 151.776  1.00  0.00     0.115 A 
ATOM      6  C   UNL     1      24.760 -52.839 152.077  1.00  0.00     0.188 A 
ATOM      7  O   UNL     1      24.453 -53.095 153.347  1.00  0.00    -0.452 OA
ATOM      8  C   UNL     1      23.962 -53.372 151.037  1.00  0.00     0.209 A 
ATOM      9  C   UNL     1      24.338 -53.151 149.690  1.00  0.00     0.211 A 
ATOM     10  C   UNL     1      25.436 -52.315 149.389  1.00  0.00     0.208 A 
ATOM     11  C   UNL     1      26.221 -51.760 150.429  1.00  0.00     0.179 A 
ENDROOT
BRANCH   1  12
ATOM     12  C   UNL     1      24.723 -53.022 155.758  1.00  0.00     0.021 A 
ATOM     13  C   UNL     1      23.942 -53.710 158.382  1.00  0.00     0.160 A 
ATOM     14  C   UNL     1      23.089 -52.938 157.579  1.00  0.00     0.161 A 
ATOM     15  C   UNL     1      25.187 -54.125 157.874  1.00  0.00     0.051 A 
ATOM     16  C   UNL     1      23.484 -52.595 156.270  1.00  0.00     0.062 A 
ATOM     17  C   UNL     1      25.571 -53.780 156.578  1.00  0.00     0.016 A 
BRANCH  13  18
ATOM     18  O   UNL     1      23.520 -54.039 159.680  1.00  0.00    -0.493 OA
ATOM     19  C   UNL     1      24.361 -54.020 160.829  1.00  0.00     0.278 C 
ENDBRANCH  13  18
BRANCH  14  20
ATOM     20  O   UNL     1      21.859 -52.529 158.117  1.00  0.00    -0.493 OA
ATOM     21  C   UNL     1      21.160 -51.351 157.728  1.00  0.00     0.278 C 
ENDBRANCH  14  20
ENDBRANCH   1  12
BRANCH   8  22
ATOM     22  O   UNL     1      22.799 -54.125 151.290  1.00  0.00    -0.490 OA
ATOM     23  C   UNL     1      21.473 -53.635 151.453  1.00  0.00     0.278 C 
ENDBRANCH   8  22
BRANCH  11  24
ATOM     24  O   UNL     1      27.320 -50.909 150.178  1.00  0.00    -0.492 OA
ATOM     25  C   UNL     1      28.574 -51.272 149.607  1.00  0.00     0.278 C 
ENDBRANCH  11  24
BRANCH   9  26
ATOM     26  O   UNL     1      23.673 -53.755 148.605  1.00  0.00    -0.490 OA
ATOM     27  C   UNL     1      22.455 -53.344 147.992  1.00  0.00     0.279 C 
ENDBRANCH   9  26
BRANCH  10  28
ATOM     28  O   UNL     1      25.791 -52.055 148.056  1.00  0.00    -0.490 OA
ATOM     29  C   UNL     1      25.285 -50.973 147.276  1.00  0.00     0.278 C 
ENDBRANCH  10  28
TORSDOF 7
ENDMDL
MODEL 2
REMARK VINA RESULT:    -3.571      1.909      8.984
REMARK INTER + INTRA:          -5.758
REMARK INTER:                  -5.394
REMARK INTRA:                  -0.364
REMARK UNBOUND:                -0.725
REMARK SMILES COc1ccc(-c2cc(=O)c3c(OC)c(OC)c(OC)c(OC)c3o2)cc1OC
REMARK SMILES IDX 7 1 8 2 9 3 10 4 11 5 24 6 25 7 21 8 18 9 15 10 12 11 6 12
REMARK SMILES IDX 3 13 27 14 4 15 26 16 5 17 2 18 1 19 28 20 29 21 22 22 23 23
REMARK SMILES IDX 13 24 14 25 19 26 20 27 16 28 17 29
REMARK H PARENT
REMARK Flexibility Score: inf
ROOT
ATOM      1  C   UNL     1      24.799 -53.236 156.332  1.00  0.00     0.138 A 
ATOM      2  C   UNL     1      25.836 -53.706 157.144  1.00  0.00     0.100 A 
ATOM      3  C   UNL     1      25.674 -53.701 158.526  1.00  0.00     0.197 A 
ATOM      4  O   UNL     1      26.623 -54.125 159.241  1.00  0.00    -0.289 OA
ATOM      5  C   UNL     1      24.468 -53.223 159.094  1.00  0.00     0.115 A 
ATOM      6  C   UNL     1      23.459 -52.771 158.208  1.00  0.00     0.188 A 
ATOM      7  O   UNL     1      23.672 -52.806 156.893  1.00  0.00    -0.452 OA
ATOM      8  C   UNL     1      22.235 -52.269 158.710  1.00  0.00     0.209 A 
ATOM      9  C   UNL     1      22.046 -52.173 160.111  1.00  0.00     0.211 A 
ATOM     10  C   UNL     1      23.028 -52.676 160.994  1.00  0.00     0.208 A 
ATOM     11  C   UNL     1      24.243 -53.204 160.490  1.00  0.00     0.179 A 
ENDROOT
BRANCH   1  12
ATOM     12  C   UNL     1      24.924 -53.213 154.855  1.00  0.00     0.021 A 
ATOM     13  C   UNL     1      25.114 -53.180 152.038  1.00  0.00     0.160 A 
ATOM     14  C   UNL     1      25.845 -52.254 152.798  1.00  0.00     0.161 A 
ATOM     15  C   UNL     1      24.283 -54.110 152.688  1.00  0.00     0.051 A 
ATOM     16  C   UNL     1      25.744 -52.273 154.204  1.00  0.00     0.062 A 
ATOM     17  C   UNL     1      24.188 -54.121 154.080  1.00  0.00     0.016 A 
BRANCH  13  18
ATOM     18  O   UNL     1      25.237 -53.140 150.639  1.00  0.00    -0.493 OA
ATOM     19  C   UNL     1      24.281 -52.551 149.765  1.00  0.00     0.278 C 
ENDBRANCH  13  18
BRANCH  14  20
ATOM     20  O   UNL     1      26.656 -51.330 152.121  1.00  0.00    -0.493 OA
ATOM     21  C   UNL     1      27.862 -50.781 152.643  1.00  0.00     0.278 C 
ENDBRANCH  14  20
ENDBRANCH   1  12
BRANCH   8  22
ATOM     22  O   UNL     1      21.188 -51.852 157.867  1.00  0.00    -0.490 OA
ATOM     23  C   UNL     1      20.785 -50.515 157.589  1.00  0.00     0.278 C 
ENDBRANCH   8  22
BRANCH  11  24
ATOM     24  O   UNL     1      25.247 -53.730 161.333  1.00  0.00    -0.492 OA
ATOM     25  C   UNL     1      25.824 -53.104 162.476  1.00  0.00     0.278 C 
ENDBRANCH  11  24
BRANCH   9  26
ATOM     26  O   UNL     1      20.915 -51.565 160.686  1.00  0.00    -0.490 OA
ATOM     27  C   UNL     1      20.734 -50.189 161.006  1.00  0.00     0.279 C 
ENDBRANCH   9  26
BRANCH  10  28
ATOM     28  O   UNL     1      22.832 -52.626 162.382  1.00  0.00    -0.490 OA
ATOM     29  C   UNL     1      21.985 -53.508 163.117  1.00  0.00     0.278 C 
ENDBRANCH  10  28
TORSDOF 7
ENDMDL
MODEL 3
REMARK VINA RESULT:    -3.339      1.173      3.401
REMARK INTER + INTRA:          -5.431
REMARK INTER:                  -5.175
REMARK INTRA:                  -0.256
REMARK UNBOUND:                -0.725
REMARK SMILES COc1ccc(-c2cc(=O)c3c(OC)c(OC)c(OC)c(OC)c3o2)cc1OC
REMARK SMILES IDX 7 1 8 2 9 3 10 4 11 5 24 6 25 7 21 8 18 9 15 10 12 11 6 12
REMARK SMILES IDX 3 13 27 14 4 15 26 16 5 17 2 18 1 19 28 20 29 21 22 22 23 23
REMARK SMILES IDX 13 24 14 25 19 26 20 27 16 28 17 29
REMARK H PARENT
REMARK Flexibility Score: inf
ROOT
ATOM      1  C   UNL     1      24.259 -53.429 154.234  1.00  0.00     0.138 A 
ATOM      2  C   UNL     1      23.093 -53.785 153.550  1.00  0.00     0.100 A 
ATOM      3  C   UNL     1      23.097 -53.800 152.158  1.00  0.00     0.197 A 
ATOM      4  O   UNL     1      22.033 -54.120 151.561  1.00  0.00    -0.289 OA
ATOM      5  C   UNL     1      24.274 -53.455 151.452  1.00  0.00     0.115 A 
ATOM      6  C   UNL     1      25.420 -53.114 152.213  1.00  0.00     0.188 A 
ATOM      7  O   UNL     1      25.354 -53.123 153.543  1.00  0.00    -0.452 OA
ATOM      8  C   UNL     1      26.626 -52.747 151.569  1.00  0.00     0.209 A 
ATOM      9  C   UNL     1      26.664 -52.674 150.155  1.00  0.00     0.211 A 
ATOM     10  C   UNL     1      25.540 -53.070 149.395  1.00  0.00     0.208 A 
ATOM     11  C   UNL     1      24.341 -53.463 150.039  1.00  0.00     0.179 A 
ENDROOT
BRANCH   1  12
ATOM     12  C   UNL     1      24.306 -53.389 155.715  1.00  0.00     0.021 A 
ATOM     13  C   UNL     1      24.443 -53.318 158.534  1.00  0.00     0.160 A 
ATOM     14  C   UNL     1      23.468 -52.564 157.863  1.00  0.00     0.161 A 
ATOM     15  C   UNL     1      25.351 -54.095 157.793  1.00  0.00     0.051 A 
ATOM     16  C   UNL     1      23.405 -52.601 156.455  1.00  0.00     0.062 A 
ATOM     17  C   UNL     1      25.284 -54.125 156.400  1.00  0.00     0.016 A 
BRANCH  13  18
ATOM     18  O   UNL     1      24.479 -53.263 159.937  1.00  0.00    -0.493 OA
ATOM     19  C   UNL     1      25.662 -53.396 160.717  1.00  0.00     0.278 C 
ENDBRANCH  13  18
BRANCH  14  20
ATOM     20  O   UNL     1      22.583 -51.789 158.628  1.00  0.00    -0.493 OA
ATOM     21  C   UNL     1      21.293 -51.371 158.194  1.00  0.00     0.278 C 
ENDBRANCH  14  20
ENDBRANCH   1  12
BRANCH   8  22
ATOM     22  O   UNL     1      27.800 -52.443 152.284  1.00  0.00    -0.490 OA
ATOM     23  C   UNL     1      28.086 -51.250 153.005  1.00  0.00     0.278 C 
ENDBRANCH   8  22
BRANCH  11  24
ATOM     24  O   UNL     1      23.197 -53.879 149.322  1.00  0.00    -0.492 OA
ATOM     25  C   UNL     1      22.455 -53.118 148.373  1.00  0.00     0.278 C 
ENDBRANCH  11  24
BRANCH   9  26
ATOM     26  O   UNL     1      27.781 -52.192 149.447  1.00  0.00    -0.490 OA
ATOM     27  C   UNL     1      28.383 -50.905 149.543  1.00  0.00     0.279 C 
ENDBRANCH   9  26
BRANCH  10  28
ATOM     28  O   UNL     1      25.582 -53.043 147.992  1.00  0.00    -0.490 OA
ATOM     29  C   UNL     1      26.368 -53.918 147.185  1.00  0.00     0.278 C 
ENDBRANCH  10  28
TORSDOF 7
ENDMDL
MODEL 4
REMARK VINA RESULT:    -3.288      2.126      9.505
REMARK INTER + INTRA:          -5.358
REMARK INTER:                  -5.176
REMARK INTRA:                  -0.182
REMARK UNBOUND:                -0.725
REMARK SMILES COc1ccc(-c2cc(=O)c3c(OC)c(OC)c(OC)c(OC)c3o2)cc1OC
REMARK SMILES IDX 7 1 8 2 9 3 10 4 11 5 24 6 25 7 21 8 18 9 15 10 12 11 6 12
REMARK SMILES IDX 3 13 27 14 4 15 26 16 5 17 2 18 1 19 28 20 29 21 22 22 23 23
REMARK SMILES IDX 13 24 14 25 19 26 20 27 16 28 17 29
REMARK H PARENT
REMARK Flexibility Score: inf
ROOT
ATOM      1  C   UNL     1      24.014 -52.865 156.355  1.00  0.00     0.138 A 
ATOM      2  C   UNL     1      22.714 -52.390 156.559  1.00  0.00     0.100 A 
ATOM      3  C   UNL     1      22.216 -52.305 157.856  1.00  0.00     0.197 A 
ATOM      4  O   UNL     1      21.041 -51.878 158.018  1.00  0.00    -0.289 OA
ATOM      5  C   UNL     1      23.024 -52.700 158.949  1.00  0.00     0.115 A 
ATOM      6  C   UNL     1      24.333 -53.162 158.665  1.00  0.00     0.188 A 
ATOM      7  O   UNL     1      24.754 -53.215 157.403  1.00  0.00    -0.452 OA
ATOM      8  C   UNL     1      25.188 -53.584 159.712  1.00  0.00     0.209 A 
ATOM      9  C   UNL     1      24.706 -53.588 161.043  1.00  0.00     0.211 A 
ATOM     10  C   UNL     1      23.422 -53.073 161.333  1.00  0.00     0.208 A 
ATOM     11  C   UNL     1      22.576 -52.626 160.289  1.00  0.00     0.179 A 
ENDROOT
BRANCH   1  12
ATOM     12  C   UNL     1      24.589 -52.982 154.993  1.00  0.00     0.021 A 
ATOM     13  C   UNL     1      25.640 -53.220 152.384  1.00  0.00     0.160 A 
ATOM     14  C   UNL     1      26.087 -52.191 153.226  1.00  0.00     0.161 A 
ATOM     15  C   UNL     1      24.662 -54.119 152.846  1.00  0.00     0.051 A 
ATOM     16  C   UNL     1      25.557 -52.075 154.527  1.00  0.00     0.062 A 
ATOM     17  C   UNL     1      24.141 -53.996 154.134  1.00  0.00     0.016 A 
BRANCH  13  18
ATOM     18  O   UNL     1      26.188 -53.313 151.094  1.00  0.00    -0.493 OA
ATOM     19  C   UNL     1      25.435 -53.210 149.891  1.00  0.00     0.278 C 
ENDBRANCH  13  18
BRANCH  14  20
ATOM     20  O   UNL     1      27.055 -51.302 152.733  1.00  0.00    -0.493 OA
ATOM     21  C   UNL     1      28.459 -51.537 152.766  1.00  0.00     0.278 C 
ENDBRANCH  14  20
ENDBRANCH   1  12
BRANCH   8  22
ATOM     22  O   UNL     1      26.510 -54.009 159.480  1.00  0.00    -0.490 OA
ATOM     23  C   UNL     1      27.708 -53.374 159.915  1.00  0.00     0.278 C 
ENDBRANCH   8  22
BRANCH  11  24
ATOM     24  O   UNL     1      21.291 -52.092 160.532  1.00  0.00    -0.492 OA
ATOM     25  C   UNL     1      20.980 -50.780 160.993  1.00  0.00     0.278 C 
ENDBRANCH  11  24
BRANCH   9  26
ATOM     26  O   UNL     1      25.446 -54.115 162.119  1.00  0.00    -0.490 OA
ATOM     27  C   UNL     1      26.213 -53.398 163.082  1.00  0.00     0.279 C 
ENDBRANCH   9  26
BRANCH  10  28
ATOM     28  O   UNL     1      22.952 -53.033 162.655  1.00  0.00    -0.490 OA
ATOM     29  C   UNL     1      21.772 -53.688 163.120  1.00  0.00     0.278 C 
ENDBRANCH  10  28
TORSDOF 7
ENDMDL
MODEL 5
REMARK VINA RESULT:    -3.162     17.469     18.508
REMARK INTER + INTRA:          -5.180
REMARK INTER:                  -4.679
REMARK INTRA:                  -0.501
REMARK UNBOUND:                -0.725
REMARK SMILES COc1ccc(-c2cc(=O)c3c(OC)c(OC)c(OC)c(OC)c3o2)cc1OC
REMARK SMILES IDX 7 1 8 2 9 3 10 4 11 5 24 6 25 7 21 8 18 9 15 10 12 11 6 12
REMARK SMILES IDX 3 13 27 14 4 15 26 16 5 17 2 18 1 19 28 20 29 21 22 22 23 23
REMARK SMILES IDX 13 24 14 25 19 26 20 27 16 28 17 29
REMARK H PARENT
REMARK Flexibility Score: inf
ROOT
ATOM      1  C   UNL     1      19.796 -34.566 153.593  1.00  0.00     0.138 A 
ATOM      2  C   UNL     1      20.852 -34.096 152.807  1.00  0.00     0.100 A 
ATOM      3  C   UNL     1      20.823 -34.304 151.432  1.00  0.00     0.197 A 
ATOM      4  O   UNL     1      21.787 -33.875 150.741  1.00  0.00    -0.289 OA
ATOM      5  C   UNL     1      19.731 -34.987 150.844  1.00  0.00     0.115 A 
ATOM      6  C   UNL     1      18.693 -35.427 151.703  1.00  0.00     0.188 A 
ATOM      7  O   UNL     1      18.777 -35.193 153.011  1.00  0.00    -0.452 OA
ATOM      8  C   UNL     1      17.579 -36.127 151.182  1.00  0.00     0.209 A 
ATOM      9  C   UNL     1      17.534 -36.431 149.799  1.00  0.00     0.211 A 
ATOM     10  C   UNL     1      18.539 -35.943 148.934  1.00  0.00     0.208 A 
ATOM     11  C   UNL     1      19.641 -35.219 149.451  1.00  0.00     0.179 A 
ENDROOT
BRANCH   1  12
ATOM     12  C   UNL     1      19.782 -34.378 155.064  1.00  0.00     0.021 A 
ATOM     13  C   UNL     1      19.716 -34.045 157.867  1.00  0.00     0.160 A 
ATOM     14  C   UNL     1      20.948 -34.169 157.207  1.00  0.00     0.161 A 
ATOM     15  C   UNL     1      18.523 -34.099 157.124  1.00  0.00     0.051 A 
ATOM     16  C   UNL     1      20.976 -34.337 155.808  1.00  0.00     0.062 A 
ATOM     17  C   UNL     1      18.558 -34.268 155.740  1.00  0.00     0.016 A 
BRANCH  13  18
ATOM     18  O   UNL     1      19.719 -33.875 159.261  1.00  0.00    -0.493 OA
ATOM     19  C   UNL     1      19.510 -34.924 160.200  1.00  0.00     0.278 C 
ENDBRANCH  13  18
BRANCH  14  20
ATOM     20  O   UNL     1      22.121 -34.123 157.975  1.00  0.00    -0.493 OA
ATOM     21  C   UNL     1      22.816 -35.269 158.458  1.00  0.00     0.278 C 
ENDBRANCH  14  20
ENDBRANCH   1  12
BRANCH   8  22
ATOM     22  O   UNL     1      16.504 -36.543 151.991  1.00  0.00    -0.490 OA
ATOM     23  C   UNL     1      16.292 -37.838 152.543  1.00  0.00     0.278 C 
ENDBRANCH   8  22
BRANCH  11  24
ATOM     24  O   UNL     1      20.662 -34.700 148.625  1.00  0.00    -0.492 OA
ATOM     25  C   UNL     1      20.498 -33.910 147.450  1.00  0.00     0.278 C 
ENDBRANCH  11  24
BRANCH   9  26
ATOM     26  O   UNL     1      16.529 -37.235 149.229  1.00  0.00    -0.490 OA
ATOM     27  C   UNL     1      15.201 -36.852 148.880  1.00  0.00     0.279 C 
ENDBRANCH   9  26
BRANCH  10  28
ATOM     28  O   UNL     1      18.481 -36.201 147.556  1.00  0.00    -0.490 OA
ATOM     29  C   UNL     1      18.742 -37.468 146.953  1.00  0.00     0.278 C 
ENDBRANCH  10  28
TORSDOF 7
ENDMDL
MODEL 6
REMARK VINA RESULT:    -3.032     16.829     18.445
REMARK INTER + INTRA:          -4.997
REMARK INTER:                  -4.256
REMARK INTRA:                  -0.741
REMARK UNBOUND:                -0.725
REMARK SMILES COc1ccc(-c2cc(=O)c3c(OC)c(OC)c(OC)c(OC)c3o2)cc1OC
REMARK SMILES IDX 7 1 8 2 9 3 10 4 11 5 24 6 25 7 21 8 18 9 15 10 12 11 6 12
REMARK SMILES IDX 3 13 27 14 4 15 26 16 5 17 2 18 1 19 28 20 29 21 22 22 23 23
REMARK SMILES IDX 13 24 14 25 19 26 20 27 16 28 17 29
REMARK H PARENT
REMARK Flexibility Score: inf
ROOT
ATOM      1  C   UNL     1      18.056 -35.748 154.503  1.00  0.00     0.138 A 
ATOM      2  C   UNL     1      17.014 -36.576 154.075  1.00  0.00     0.100 A 
ATOM      3  C   UNL     1      16.838 -36.799 152.712  1.00  0.00     0.197 A 
ATOM      4  O   UNL     1      15.890 -37.546 152.346  1.00  0.00    -0.289 OA
ATOM      5  C   UNL     1      17.710 -36.189 151.779  1.00  0.00     0.115 A 
ATOM      6  C   UNL     1      18.748 -35.369 152.288  1.00  0.00     0.188 A 
ATOM      7  O   UNL     1      18.867 -35.199 153.603  1.00  0.00    -0.452 OA
ATOM      8  C   UNL     1      19.646 -34.719 151.408  1.00  0.00     0.209 A 
ATOM      9  C   UNL     1      19.467 -34.853 150.009  1.00  0.00     0.211 A 
ATOM     10  C   UNL     1      18.469 -35.715 149.502  1.00  0.00     0.208 A 
ATOM     11  C   UNL     1      17.586 -36.387 150.383  1.00  0.00     0.179 A 
ENDROOT
BRANCH   1  12
ATOM     12  C   UNL     1      18.282 -35.471 155.942  1.00  0.00     0.021 A 
ATOM     13  C   UNL     1      18.665 -34.929 158.686  1.00  0.00     0.160 A 
ATOM     14  C   UNL     1      19.301 -36.032 158.097  1.00  0.00     0.161 A 
ATOM     15  C   UNL     1      17.831 -34.110 157.904  1.00  0.00     0.051 A 
ATOM     16  C   UNL     1      19.105 -36.299 156.727  1.00  0.00     0.062 A 
ATOM     17  C   UNL     1      17.641 -34.382 156.550  1.00  0.00     0.016 A 
BRANCH  13  18
ATOM     18  O   UNL     1      18.882 -34.685 160.052  1.00  0.00    -0.493 OA
ATOM     19  C   UNL     1      17.955 -35.005 161.084  1.00  0.00     0.278 C 
ENDBRANCH  13  18
BRANCH  14  20
ATOM     20  O   UNL     1      20.118 -36.839 158.904  1.00  0.00    -0.493 OA
ATOM     21  C   UNL     1      20.703 -38.068 158.488  1.00  0.00     0.278 C 
ENDBRANCH  14  20
ENDBRANCH   1  12
BRANCH   8  22
ATOM     22  O   UNL     1      20.718 -33.933 151.871  1.00  0.00    -0.490 OA
ATOM     23  C   UNL     1      22.018 -34.379 152.238  1.00  0.00     0.278 C 
ENDBRANCH   8  22
BRANCH  11  24
ATOM     24  O   UNL     1      16.582 -37.268 149.924  1.00  0.00    -0.492 OA
ATOM     25  C   UNL     1      15.405 -36.925 149.198  1.00  0.00     0.278 C 
ENDBRANCH  11  24
BRANCH   9  26
ATOM     26  O   UNL     1      20.234 -34.135 149.072  1.00  0.00    -0.490 OA
ATOM     27  C   UNL     1      21.487 -34.506 148.505  1.00  0.00     0.279 C 
ENDBRANCH   9  26
BRANCH  10  28
ATOM     28  O   UNL     1      18.311 -35.888 148.118  1.00  0.00    -0.490 OA
ATOM     29  C   UNL     1      18.790 -37.010 147.379  1.00  0.00     0.278 C 
ENDBRANCH  10  28
TORSDOF 7
ENDMDL
