MODEL 1
REMARK VINA RESULT:    -1.472      0.000      0.000
REMARK INTER + INTRA:          -2.435
REMARK INTER:                  -2.074
REMARK INTRA:                  -0.361
REMARK UNBOUND:                -0.361
REMARK SMILES CC1=CCC(=C(C)C)CCC(C)=CCC1
REMARK SMILES IDX 5 1 6 2 7 3 8 4 9 5 10 6 11 7 12 8 13 9 4 11 3 12 2 13 1 14
REMARK SMILES IDX 15 15 14 16
REMARK H PARENT
REMARK Flexibility Score: 60.00
ROOT
ATOM      1  C   UNL     1     168.905 172.398 141.440  1.00  0.00    -0.067 C 
ATOM      2  C   UNL     1     169.693 171.752 142.360  1.00  0.00    -0.077 C 
ATOM      3  C   UNL     1     169.108 171.099 143.596  1.00  0.00     0.039 C 
ATOM      4  C   UNL     1     171.195 171.653 142.172  1.00  0.00     0.039 C 
ENDROOT
BRANCH   1   5
ATOM      5  C   UNL     1     169.562 173.029 140.204  1.00  0.00     0.035 C 
BRANCH   5   6
ATOM      6  C   UNL     1     169.061 174.410 139.723  1.00  0.00     0.035 C 
BRANCH   6   7
ATOM      7  C   UNL     1     168.011 174.337 138.621  1.00  0.00    -0.077 C 
ATOM      8  C   UNL     1     168.353 173.578 137.362  1.00  0.00     0.039 C 
ATOM      9  C   UNL     1     166.749 174.822 138.726  1.00  0.00    -0.028 CG0
ATOM     10  G   UNL     1     166.194 175.656 139.860  1.00  0.00     0.000 G0
ENDBRANCH   6   7
ENDBRANCH   5   6
ENDBRANCH   1   5
BRANCH   1  11
ATOM     11  C   UNL     1     167.402 172.517 141.664  1.00  0.00     0.058 C 
BRANCH  11  12
ATOM     12  C   UNL     1     167.102 173.694 142.558  1.00  0.00    -0.024 C 
ATOM     13  C   UNL     1     166.223 174.679 142.272  1.00  0.00    -0.077 C 
ATOM     14  C   UNL     1     166.004 175.756 143.305  1.00  0.00     0.039 C 
BRANCH  13  15
ATOM     15  C   UNL     1     165.475 174.762 140.948  1.00  0.00     0.034 C 
BRANCH  15  16
ATOM     16  C   UNL     1     166.164 175.633 139.869  1.00  0.00     0.032 CG0
ATOM     17  G   UNL     1     166.752 174.828 138.730  1.00  0.00     0.000 G0
ENDBRANCH  15  16
ENDBRANCH  13  15
ENDBRANCH  11  12
ENDBRANCH   1  11
TORSDOF 0
ENDMDL
MODEL 2
REMARK VINA RESULT:    -1.429     14.094     15.217
REMARK INTER + INTRA:          -2.374
REMARK INTER:                  -2.019
REMARK INTRA:                  -0.355
REMARK UNBOUND:                -0.361
REMARK SMILES CC1=CCC(=C(C)C)CCC(C)=CCC1
REMARK SMILES IDX 5 1 6 2 7 3 8 4 9 5 10 6 11 7 12 8 13 9 4 11 3 12 2 13 1 14
REMARK SMILES IDX 15 15 14 16
REMARK H PARENT
REMARK Flexibility Score: 60.00
ROOT
ATOM      1  C   UNL     1     163.257 158.462 140.193  1.00  0.00    -0.067 C 
ATOM      2  C   UNL     1     164.259 158.011 141.016  1.00  0.00    -0.077 C 
ATOM      3  C   UNL     1     164.552 158.667 142.352  1.00  0.00     0.039 C 
ATOM      4  C   UNL     1     165.116 156.821 140.629  1.00  0.00     0.039 C 
ENDROOT
BRANCH   1   5
ATOM      5  C   UNL     1     163.008 157.745 138.859  1.00  0.00     0.035 C 
BRANCH   5   6
ATOM      6  C   UNL     1     163.488 158.421 137.554  1.00  0.00     0.035 C 
BRANCH   6   7
ATOM      7  C   UNL     1     164.210 159.745 137.774  1.00  0.00    -0.077 C 
ATOM      8  C   UNL     1     165.675 159.706 138.134  1.00  0.00     0.039 C 
ATOM      9  C   UNL     1     163.657 160.967 137.574  1.00  0.00    -0.028 CG0
ATOM     10  G   UNL     1     162.205 161.260 137.262  1.00  0.00     0.000 G0
ENDBRANCH   6   7
ENDBRANCH   5   6
ENDBRANCH   1   5
BRANCH   1  11
ATOM     11  C   UNL     1     162.430 159.681 140.584  1.00  0.00     0.058 C 
BRANCH  11  12
ATOM     12  C   UNL     1     161.046 159.582 139.992  1.00  0.00    -0.024 C 
ATOM     13  C   UNL     1     160.553 160.398 139.036  1.00  0.00    -0.077 C 
ATOM     14  C   UNL     1     159.163 160.125 138.518  1.00  0.00     0.039 C 
BRANCH  13  15
ATOM     15  C   UNL     1     161.324 161.592 138.489  1.00  0.00     0.034 C 
BRANCH  15  16
ATOM     16  C   UNL     1     162.198 161.285 137.249  1.00  0.00     0.032 CG0
ATOM     17  G   UNL     1     163.640 160.977 137.588  1.00  0.00     0.000 G0
ENDBRANCH  15  16
ENDBRANCH  13  15
ENDBRANCH  11  12
ENDBRANCH   1  11
TORSDOF 0
ENDMDL
MODEL 3
REMARK VINA RESULT:    -1.336      3.308      5.469
REMARK INTER + INTRA:          -2.243
REMARK INTER:                  -1.870
REMARK INTRA:                  -0.373
REMARK UNBOUND:                -0.361
REMARK SMILES CC1=CCC(=C(C)C)CCC(C)=CCC1
REMARK SMILES IDX 5 1 6 2 7 3 8 4 9 5 10 6 11 7 12 8 13 9 4 11 3 12 2 13 1 14
REMARK SMILES IDX 15 15 14 16
REMARK H PARENT
REMARK Flexibility Score: 60.00
ROOT
ATOM      1  C   UNL     1     167.903 173.625 139.149  1.00  0.00    -0.067 C 
ATOM      2  C   UNL     1     167.050 174.691 139.010  1.00  0.00    -0.077 C 
ATOM      3  C   UNL     1     165.604 174.622 139.462  1.00  0.00     0.039 C 
ATOM      4  C   UNL     1     167.521 175.999 138.405  1.00  0.00     0.039 C 
ENDROOT
BRANCH   1   5
ATOM      5  C   UNL     1     169.358 173.766 138.680  1.00  0.00     0.035 C 
BRANCH   5   6
ATOM      6  C   UNL     1     169.872 172.825 137.566  1.00  0.00     0.035 C 
BRANCH   6   7
ATOM      7  C   UNL     1     170.849 171.763 138.057  1.00  0.00    -0.077 C 
ATOM      8  C   UNL     1     172.173 172.221 138.618  1.00  0.00     0.039 C 
ATOM      9  C   UNL     1     170.578 170.436 138.117  1.00  0.00    -0.028 CG0
ATOM     10  G   UNL     1     169.349 169.740 137.572  1.00  0.00     0.000 G0
ENDBRANCH   6   7
ENDBRANCH   5   6
ENDBRANCH   1   5
BRANCH   1  11
ATOM     11  C   UNL     1     167.401 172.308 139.728  1.00  0.00     0.058 C 
BRANCH  11  12
ATOM     12  C   UNL     1     166.600 171.557 138.693  1.00  0.00    -0.024 C 
ATOM     13  C   UNL     1     166.916 170.338 138.205  1.00  0.00    -0.077 C 
ATOM     14  C   UNL     1     165.974 169.706 137.211  1.00  0.00     0.039 C 
BRANCH  13  15
ATOM     15  C   UNL     1     168.190 169.597 138.590  1.00  0.00     0.034 C 
BRANCH  15  16
ATOM     16  C   UNL     1     169.342 169.715 137.564  1.00  0.00     0.032 CG0
ATOM     17  G   UNL     1     170.557 170.440 138.102  1.00  0.00     0.000 G0
ENDBRANCH  15  16
ENDBRANCH  13  15
ENDBRANCH  11  12
ENDBRANCH   1  11
TORSDOF 0
ENDMDL
MODEL 4
REMARK VINA RESULT:    -1.318     14.114     15.601
REMARK INTER + INTRA:          -2.218
REMARK INTER:                  -1.853
REMARK INTRA:                  -0.365
REMARK UNBOUND:                -0.361
REMARK SMILES CC1=CCC(=C(C)C)CCC(C)=CCC1
REMARK SMILES IDX 5 1 6 2 7 3 8 4 9 5 10 6 11 7 12 8 13 9 4 11 3 12 2 13 1 14
REMARK SMILES IDX 15 15 14 16
REMARK H PARENT
REMARK Flexibility Score: 60.00
ROOT
ATOM      1  C   UNL     1     164.230 158.316 140.337  1.00  0.00    -0.067 C 
ATOM      2  C   UNL     1     164.837 157.164 139.903  1.00  0.00    -0.077 C 
ATOM      3  C   UNL     1     164.654 156.646 138.490  1.00  0.00     0.039 C 
ATOM      4  C   UNL     1     165.733 156.356 140.823  1.00  0.00     0.039 C 
ENDROOT
BRANCH   1   5
ATOM      5  C   UNL     1     164.467 158.789 141.778  1.00  0.00     0.035 C 
BRANCH   5   6
ATOM      6  C   UNL     1     163.263 159.320 142.590  1.00  0.00     0.035 C 
BRANCH   6   7
ATOM      7  C   UNL     1     163.139 160.839 142.589  1.00  0.00    -0.077 C 
ATOM      8  C   UNL     1     164.306 161.648 143.101  1.00  0.00     0.039 C 
ATOM      9  C   UNL     1     162.092 161.526 142.069  1.00  0.00    -0.028 CG0
ATOM     10  G   UNL     1     160.796 160.941 141.550  1.00  0.00     0.000 G0
ENDBRANCH   6   7
ENDBRANCH   5   6
ENDBRANCH   1   5
BRANCH   1  11
ATOM     11  C   UNL     1     163.306 159.095 139.408  1.00  0.00     0.058 C 
BRANCH  11  12
ATOM     12  C   UNL     1     161.921 158.497 139.432  1.00  0.00    -0.024 C 
ATOM     13  C   UNL     1     160.785 159.186 139.674  1.00  0.00    -0.077 C 
ATOM     14  C   UNL     1     159.476 158.439 139.608  1.00  0.00     0.039 C 
BRANCH  13  15
ATOM     15  C   UNL     1     160.775 160.664 140.039  1.00  0.00     0.034 C 
BRANCH  15  16
ATOM     16  C   UNL     1     160.780 160.955 141.559  1.00  0.00     0.032 CG0
ATOM     17  G   UNL     1     162.092 161.518 142.062  1.00  0.00     0.000 G0
ENDBRANCH  15  16
ENDBRANCH  13  15
ENDBRANCH  11  12
ENDBRANCH   1  11
TORSDOF 0
ENDMDL
MODEL 5
REMARK VINA RESULT:    -1.295     14.067     15.714
REMARK INTER + INTRA:          -2.186
REMARK INTER:                  -1.894
REMARK INTRA:                  -0.292
REMARK UNBOUND:                -0.361
REMARK SMILES CC1=CCC(=C(C)C)CCC(C)=CCC1
REMARK SMILES IDX 5 1 6 2 7 3 8 4 9 5 10 6 11 7 12 8 13 9 4 11 3 12 2 13 1 14
REMARK SMILES IDX 15 15 14 16
REMARK H PARENT
REMARK Flexibility Score: 60.00
ROOT
ATOM      1  C   UNL     1     164.688 160.680 140.741  1.00  0.00    -0.067 C 
ATOM      2  C   UNL     1     164.014 161.434 141.670  1.00  0.00    -0.077 C 
ATOM      3  C   UNL     1     163.302 162.719 141.293  1.00  0.00     0.039 C 
ATOM      4  C   UNL     1     163.942 161.006 143.124  1.00  0.00     0.039 C 
ENDROOT
BRANCH   1   5
ATOM      5  C   UNL     1     165.379 159.385 141.189  1.00  0.00     0.035 C 
BRANCH   5   6
ATOM      6  C   UNL     1     164.642 158.042 140.980  1.00  0.00     0.035 C 
BRANCH   6   7
ATOM      7  C   UNL     1     165.394 157.056 140.094  1.00  0.00    -0.077 C 
ATOM      8  C   UNL     1     166.564 156.313 140.692  1.00  0.00     0.039 C 
ATOM      9  C   UNL     1     165.031 156.722 138.832  1.00  0.00    -0.028 CG0
ATOM     10  G   UNL     1     163.935 157.363 138.008  1.00  0.00     0.000 G0
ENDBRANCH   6   7
ENDBRANCH   5   6
ENDBRANCH   1   5
BRANCH   1  11
ATOM     11  C   UNL     1     164.778 161.146 139.293  1.00  0.00     0.058 C 
BRANCH  11  12
ATOM     12  C   UNL     1     163.471 160.893 138.583  1.00  0.00    -0.024 C 
ATOM     13  C   UNL     1     163.209 159.823 137.802  1.00  0.00    -0.077 C 
ATOM     14  C   UNL     1     161.828 159.700 137.209  1.00  0.00     0.039 C 
BRANCH  13  15
ATOM     15  C   UNL     1     164.252 158.764 137.472  1.00  0.00     0.034 C 
BRANCH  15  16
ATOM     16  C   UNL     1     163.925 157.346 138.000  1.00  0.00     0.032 CG0
ATOM     17  G   UNL     1     165.047 156.728 138.806  1.00  0.00     0.000 G0
ENDBRANCH  15  16
ENDBRANCH  13  15
ENDBRANCH  11  12
ENDBRANCH   1  11
TORSDOF 0
ENDMDL
MODEL 6
REMARK VINA RESULT:    -1.291     14.020     15.954
REMARK INTER + INTRA:          -2.181
REMARK INTER:                  -1.963
REMARK INTRA:                  -0.217
REMARK UNBOUND:                -0.361
REMARK SMILES CC1=CCC(=C(C)C)CCC(C)=CCC1
REMARK SMILES IDX 5 1 6 2 7 3 8 4 9 5 10 6 11 7 12 8 13 9 4 11 3 12 2 13 1 14
REMARK SMILES IDX 15 15 14 16
REMARK H PARENT
REMARK Flexibility Score: 60.00
ROOT
ATOM      1  C   UNL     1     165.643 157.839 138.832  1.00  0.00    -0.067 C 
ATOM      2  C   UNL     1     164.483 157.402 138.242  1.00  0.00    -0.077 C 
ATOM      3  C   UNL     1     164.053 155.949 138.305  1.00  0.00     0.039 C 
ATOM      4  C   UNL     1     163.568 158.361 137.505  1.00  0.00     0.039 C 
ENDROOT
BRANCH   1   5
ATOM      5  C   UNL     1     166.014 159.326 138.739  1.00  0.00     0.035 C 
BRANCH   5   6
ATOM      6  C   UNL     1     166.646 160.010 139.973  1.00  0.00     0.035 C 
BRANCH   6   7
ATOM      7  C   UNL     1     168.142 160.268 139.837  1.00  0.00    -0.077 C 
ATOM      8  C   UNL     1     168.622 161.058 138.644  1.00  0.00     0.039 C 
ATOM      9  C   UNL     1     169.071 159.922 140.763  1.00  0.00    -0.028 CG0
ATOM     10  G   UNL     1     168.840 159.087 142.004  1.00  0.00     0.000 G0
ENDBRANCH   6   7
ENDBRANCH   5   6
ENDBRANCH   1   5
BRANCH   1  11
ATOM     11  C   UNL     1     166.566 156.853 139.539  1.00  0.00     0.058 C 
BRANCH  11  12
ATOM     12  C   UNL     1     166.249 156.809 141.013  1.00  0.00    -0.024 C 
ATOM     13  C   UNL     1     167.099 157.170 141.998  1.00  0.00    -0.077 C 
ATOM     14  C   UNL     1     166.601 157.113 143.420  1.00  0.00     0.039 C 
BRANCH  13  15
ATOM     15  C   UNL     1     168.538 157.596 141.735  1.00  0.00     0.034 C 
BRANCH  15  16
ATOM     16  C   UNL     1     168.832 159.089 142.018  1.00  0.00     0.032 CG0
ATOM     17  G   UNL     1     169.077 159.903 140.765  1.00  0.00     0.000 G0
ENDBRANCH  15  16
ENDBRANCH  13  15
ENDBRANCH  11  12
ENDBRANCH   1  11
TORSDOF 0
ENDMDL
MODEL 7
REMARK VINA RESULT:    -1.254      3.321      6.083
REMARK INTER + INTRA:          -2.128
REMARK INTER:                  -1.736
REMARK INTRA:                  -0.391
REMARK UNBOUND:                -0.361
REMARK SMILES CC1=CCC(=C(C)C)CCC(C)=CCC1
REMARK SMILES IDX 5 1 6 2 7 3 8 4 9 5 10 6 11 7 12 8 13 9 4 11 3 12 2 13 1 14
REMARK SMILES IDX 15 15 14 16
REMARK H PARENT
REMARK Flexibility Score: 60.00
ROOT
ATOM      1  C   UNL     1     167.885 172.902 139.311  1.00  0.00    -0.067 C 
ATOM      2  C   UNL     1     167.539 174.214 139.521  1.00  0.00    -0.077 C 
ATOM      3  C   UNL     1     167.473 175.215 138.384  1.00  0.00     0.039 C 
ATOM      4  C   UNL     1     167.193 174.722 140.908  1.00  0.00     0.039 C 
ENDROOT
BRANCH   1   5
ATOM      5  C   UNL     1     167.922 171.939 140.506  1.00  0.00     0.035 C 
BRANCH   5   6
ATOM      6  C   UNL     1     169.267 171.278 140.882  1.00  0.00     0.035 C 
BRANCH   6   7
ATOM      7  C   UNL     1     169.287 169.766 140.691  1.00  0.00    -0.077 C 
ATOM      8  C   UNL     1     168.361 168.929 141.541  1.00  0.00     0.039 C 
ATOM      9  C   UNL     1     170.007 169.118 139.742  1.00  0.00    -0.028 CG0
ATOM     10  G   UNL     1     171.035 169.731 138.814  1.00  0.00     0.000 G0
ENDBRANCH   6   7
ENDBRANCH   5   6
ENDBRANCH   1   5
BRANCH   1  11
ATOM     11  C   UNL     1     168.263 172.420 137.915  1.00  0.00     0.058 C 
BRANCH  11  12
ATOM     12  C   UNL     1     169.703 172.758 137.621  1.00  0.00    -0.024 C 
ATOM     13  C   UNL     1     170.683 171.853 137.413  1.00  0.00    -0.077 C 
ATOM     14  C   UNL     1     172.062 172.365 137.078  1.00  0.00     0.039 C 
BRANCH  13  15
ATOM     15  C   UNL     1     170.463 170.351 137.536  1.00  0.00     0.034 C 
BRANCH  15  16
ATOM     16  C   UNL     1     171.060 169.711 138.813  1.00  0.00     0.032 CG0
ATOM     17  G   UNL     1     170.016 169.116 139.734  1.00  0.00     0.000 G0
ENDBRANCH  15  16
ENDBRANCH  13  15
ENDBRANCH  11  12
ENDBRANCH   1  11
TORSDOF 0
ENDMDL
MODEL 8
REMARK VINA RESULT:    -1.202      2.405      4.561
REMARK INTER + INTRA:          -2.054
REMARK INTER:                  -1.685
REMARK INTRA:                  -0.369
REMARK UNBOUND:                -0.361
REMARK SMILES CC1=CCC(=C(C)C)CCC(C)=CCC1
REMARK SMILES IDX 5 1 6 2 7 3 8 4 9 5 10 6 11 7 12 8 13 9 4 11 3 12 2 13 1 14
REMARK SMILES IDX 15 15 14 16
REMARK H PARENT
REMARK Flexibility Score: 60.00
ROOT
ATOM      1  C   UNL     1     166.806 173.570 139.759  1.00  0.00    -0.067 C 
ATOM      2  C   UNL     1     165.683 174.344 139.916  1.00  0.00    -0.077 C 
ATOM      3  C   UNL     1     164.502 173.881 140.747  1.00  0.00     0.039 C 
ATOM      4  C   UNL     1     165.577 175.712 139.270  1.00  0.00     0.039 C 
ENDROOT
BRANCH   1   5
ATOM      5  C   UNL     1     167.969 174.104 138.912  1.00  0.00     0.035 C 
BRANCH   5   6
ATOM      6  C   UNL     1     169.416 173.822 139.378  1.00  0.00     0.035 C 
BRANCH   6   7
ATOM      7  C   UNL     1     170.061 172.622 138.696  1.00  0.00    -0.077 C 
ATOM      8  C   UNL     1     170.140 172.618 137.188  1.00  0.00     0.039 C 
ATOM      9  C   UNL     1     170.661 171.595 139.348  1.00  0.00    -0.028 CG0
ATOM     10  G   UNL     1     170.667 171.355 140.842  1.00  0.00     0.000 G0
ENDBRANCH   6   7
ENDBRANCH   5   6
ENDBRANCH   1   5
BRANCH   1  11
ATOM     11  C   UNL     1     166.878 172.183 140.387  1.00  0.00     0.058 C 
BRANCH  11  12
ATOM     12  C   UNL     1     167.405 172.279 141.798  1.00  0.00    -0.024 C 
ATOM     13  C   UNL     1     168.523 171.670 142.249  1.00  0.00    -0.077 C 
ATOM     14  C   UNL     1     168.936 171.916 143.679  1.00  0.00     0.039 C 
BRANCH  13  15
ATOM     15  C   UNL     1     169.357 170.729 141.391  1.00  0.00     0.034 C 
BRANCH  15  16
ATOM     16  C   UNL     1     170.675 171.338 140.856  1.00  0.00     0.032 CG0
ATOM     17  G   UNL     1     170.661 171.593 139.364  1.00  0.00     0.000 G0
ENDBRANCH  15  16
ENDBRANCH  13  15
ENDBRANCH  11  12
ENDBRANCH   1  11
TORSDOF 0
ENDMDL
MODEL 9
REMARK VINA RESULT:    -1.114     13.808     14.923
REMARK INTER + INTRA:          -1.931
REMARK INTER:                  -1.566
REMARK INTRA:                  -0.365
REMARK UNBOUND:                -0.361
REMARK SMILES CC1=CCC(=C(C)C)CCC(C)=CCC1
REMARK SMILES IDX 5 1 6 2 7 3 8 4 9 5 10 6 11 7 12 8 13 9 4 11 3 12 2 13 1 14
REMARK SMILES IDX 15 15 14 16
REMARK H PARENT
REMARK Flexibility Score: 60.00
ROOT
ATOM      1  C   UNL     1     164.841 158.670 139.287  1.00  0.00    -0.067 C 
ATOM      2  C   UNL     1     165.538 157.771 140.056  1.00  0.00    -0.077 C 
ATOM      3  C   UNL     1     165.257 156.282 139.999  1.00  0.00     0.039 C 
ATOM      4  C   UNL     1     166.635 158.231 140.998  1.00  0.00     0.039 C 
ENDROOT
BRANCH   1   5
ATOM      5  C   UNL     1     165.183 160.163 139.387  1.00  0.00     0.035 C 
BRANCH   5   6
ATOM      6  C   UNL     1     164.042 161.167 139.669  1.00  0.00     0.035 C 
BRANCH   6   7
ATOM      7  C   UNL     1     163.680 162.041 138.475  1.00  0.00    -0.077 C 
ATOM      8  C   UNL     1     164.759 162.908 137.874  1.00  0.00     0.039 C 
ATOM      9  C   UNL     1     162.478 162.028 137.847  1.00  0.00    -0.028 CG0
ATOM     10  G   UNL     1     161.235 161.286 138.291  1.00  0.00     0.000 G0
ENDBRANCH   6   7
ENDBRANCH   5   6
ENDBRANCH   1   5
BRANCH   1  11
ATOM     11  C   UNL     1     163.719 158.192 138.373  1.00  0.00     0.058 C 
BRANCH  11  12
ATOM     12  C   UNL     1     162.430 158.078 139.149  1.00  0.00    -0.024 C 
ATOM     13  C   UNL     1     161.298 158.762 138.874  1.00  0.00    -0.077 C 
ATOM     14  C   UNL     1     160.081 158.487 139.721  1.00  0.00     0.039 C 
BRANCH  13  15
ATOM     15  C   UNL     1     161.212 159.811 137.774  1.00  0.00     0.034 C 
BRANCH  15  16
ATOM     16  C   UNL     1     161.238 161.276 138.274  1.00  0.00     0.032 CG0
ATOM     17  G   UNL     1     162.476 162.037 137.848  1.00  0.00     0.000 G0
ENDBRANCH  15  16
ENDBRANCH  13  15
ENDBRANCH  11  12
ENDBRANCH   1  11
TORSDOF 0
ENDMDL
