MODEL 1
REMARK VINA RESULT:    -4.602      0.000      0.000
REMARK INTER + INTRA:          -4.737
REMARK INTER:                  -4.737
REMARK INTRA:                   0.000
REMARK UNBOUND:                 0.000
REMARK SMILES Nc1ncnc2nc[nH]c12
REMARK SMILES IDX 8 1 7 2 6 3 5 4 4 5 3 6 2 7 10 8 9 9 1 11
REMARK H PARENT 9 10 1 12 1 13
REMARK Flexibility Score: inf
ROOT
ATOM      1  C   UNL     1    -106.284 194.089  -1.260  1.00  0.00     0.199 A 
ATOM      2  N   UNL     1    -106.797 194.989  -0.377  1.00  0.00    -0.217 NA
ATOM      3  C   UNL     1    -105.763 195.825  -0.188  1.00  0.00     0.182 A 
ATOM      4  N   UNL     1    -105.743 196.916   0.614  1.00  0.00    -0.215 NA
ATOM      5  C   UNL     1    -104.590 197.649   0.677  1.00  0.00     0.226 A 
ATOM      6  N   UNL     1    -103.490 197.282  -0.055  1.00  0.00    -0.217 NA
ATOM      7  C   UNL     1    -103.509 196.181  -0.866  1.00  0.00     0.152 A 
ATOM      8  C   UNL     1    -104.690 195.445  -0.919  1.00  0.00     0.127 A 
ATOM      9  N   UNL     1    -104.996 194.341  -1.611  1.00  0.00    -0.340 N 
ATOM     10  H   UNL     1    -104.398 193.795  -2.268  1.00  0.00     0.168 HD
ENDROOT
BRANCH   7  11
ATOM     11  N   UNL     1    -102.351 195.817  -1.619  1.00  0.00    -0.382 N 
ATOM     12  H   UNL     1    -101.481 196.390  -1.548  1.00  0.00     0.158 HD
ATOM     13  H   UNL     1    -102.351 194.985  -2.248  1.00  0.00     0.158 HD
ENDBRANCH   7  11
TORSDOF 1
ENDMDL
MODEL 2
REMARK VINA RESULT:    -4.597      2.169      2.671
REMARK INTER + INTRA:          -4.732
REMARK INTER:                  -4.732
REMARK INTRA:                   0.000
REMARK UNBOUND:                 0.000
REMARK SMILES Nc1ncnc2nc[nH]c12
REMARK SMILES IDX 8 1 7 2 6 3 5 4 4 5 3 6 2 7 10 8 9 9 1 11
REMARK H PARENT 9 10 1 12 1 13
REMARK Flexibility Score: inf
ROOT
ATOM      1  C   UNL     1    -105.105 198.636  -2.958  1.00  0.00     0.199 A 
ATOM      2  N   UNL     1    -105.717 198.938  -1.780  1.00  0.00    -0.217 NA
ATOM      3  C   UNL     1    -105.074 198.139  -0.913  1.00  0.00     0.182 A 
ATOM      4  N   UNL     1    -105.301 198.046   0.420  1.00  0.00    -0.215 NA
ATOM      5  C   UNL     1    -104.541 197.169   1.144  1.00  0.00     0.226 A 
ATOM      6  N   UNL     1    -103.578 196.409   0.529  1.00  0.00    -0.217 NA
ATOM      7  C   UNL     1    -103.348 196.502  -0.816  1.00  0.00     0.152 A 
ATOM      8  C   UNL     1    -104.130 197.399  -1.539  1.00  0.00     0.127 A 
ATOM      9  N   UNL     1    -104.131 197.698  -2.843  1.00  0.00    -0.340 N 
ATOM     10  H   UNL     1    -103.529 197.310  -3.602  1.00  0.00     0.168 HD
ENDROOT
BRANCH   7  11
ATOM     11  N   UNL     1    -102.340 195.701  -1.435  1.00  0.00    -0.382 N 
ATOM     12  H   UNL     1    -102.308 195.614  -2.474  1.00  0.00     0.158 HD
ATOM     13  H   UNL     1    -101.626 195.193  -0.869  1.00  0.00     0.158 HD
ENDBRANCH   7  11
TORSDOF 1
ENDMDL
MODEL 3
REMARK VINA RESULT:    -4.404      2.446      3.383
REMARK INTER + INTRA:          -4.533
REMARK INTER:                  -4.533
REMARK INTRA:                   0.000
REMARK UNBOUND:                 0.000
REMARK SMILES Nc1ncnc2nc[nH]c12
REMARK SMILES IDX 8 1 7 2 6 3 5 4 4 5 3 6 2 7 10 8 9 9 1 11
REMARK H PARENT 9 10 1 12 1 13
REMARK Flexibility Score: inf
ROOT
ATOM      1  C   UNL     1    -103.599 197.163   0.360  1.00  0.00     0.199 A 
ATOM      2  N   UNL     1    -104.719 196.403   0.223  1.00  0.00    -0.217 NA
ATOM      3  C   UNL     1    -105.135 196.729  -1.012  1.00  0.00     0.182 A 
ATOM      4  N   UNL     1    -106.228 196.245  -1.650  1.00  0.00    -0.215 NA
ATOM      5  C   UNL     1    -106.491 196.700  -2.913  1.00  0.00     0.226 A 
ATOM      6  N   UNL     1    -105.665 197.620  -3.509  1.00  0.00    -0.217 NA
ATOM      7  C   UNL     1    -104.562 198.108  -2.866  1.00  0.00     0.152 A 
ATOM      8  C   UNL     1    -104.308 197.636  -1.581  1.00  0.00     0.127 A 
ATOM      9  N   UNL     1    -103.321 197.928  -0.726  1.00  0.00    -0.340 N 
ATOM     10  H   UNL     1    -102.521 198.586  -0.852  1.00  0.00     0.168 HD
ENDROOT
BRANCH   7  11
ATOM     11  N   UNL     1    -103.716 199.065  -3.506  1.00  0.00    -0.382 N 
ATOM     12  H   UNL     1    -103.224 198.817  -4.393  1.00  0.00     0.158 HD
ATOM     13  H   UNL     1    -103.574 200.018  -3.107  1.00  0.00     0.158 HD
ENDBRANCH   7  11
TORSDOF 1
ENDMDL
MODEL 4
REMARK VINA RESULT:    -4.094     15.991     16.913
REMARK INTER + INTRA:          -4.213
REMARK INTER:                  -4.213
REMARK INTRA:                   0.000
REMARK UNBOUND:                 0.000
REMARK SMILES Nc1ncnc2nc[nH]c12
REMARK SMILES IDX 8 1 7 2 6 3 5 4 4 5 3 6 2 7 10 8 9 9 1 11
REMARK H PARENT 9 10 1 12 1 13
REMARK Flexibility Score: inf
ROOT
ATOM      1  C   UNL     1     -96.895 192.755 -16.254  1.00  0.00     0.199 A 
ATOM      2  N   UNL     1     -95.710 193.240 -15.793  1.00  0.00    -0.217 NA
ATOM      3  C   UNL     1     -96.061 194.450 -15.326  1.00  0.00     0.182 A 
ATOM      4  N   UNL     1     -95.241 195.362 -14.750  1.00  0.00    -0.215 NA
ATOM      5  C   UNL     1     -95.784 196.546 -14.335  1.00  0.00     0.226 A 
ATOM      6  N   UNL     1     -97.123 196.796 -14.502  1.00  0.00    -0.217 NA
ATOM      7  C   UNL     1     -97.951 195.876 -15.082  1.00  0.00     0.152 A 
ATOM      8  C   UNL     1     -97.383 194.675 -15.500  1.00  0.00     0.127 A 
ATOM      9  N   UNL     1     -97.938 193.609 -16.089  1.00  0.00    -0.340 N 
ATOM     10  H   UNL     1     -98.933 193.458 -16.362  1.00  0.00     0.168 HD
ENDROOT
BRANCH   7  11
ATOM     11  N   UNL     1     -99.342 196.157 -15.245  1.00  0.00    -0.382 N 
ATOM     12  H   UNL     1     -99.900 195.639 -15.960  1.00  0.00     0.158 HD
ATOM     13  H   UNL     1     -99.824 196.877 -14.663  1.00  0.00     0.158 HD
ENDBRANCH   7  11
TORSDOF 1
ENDMDL
MODEL 5
REMARK VINA RESULT:    -4.081     12.473     13.124
REMARK INTER + INTRA:          -4.200
REMARK INTER:                  -4.200
REMARK INTRA:                   0.000
REMARK UNBOUND:                 0.000
REMARK SMILES Nc1ncnc2nc[nH]c12
REMARK SMILES IDX 8 1 7 2 6 3 5 4 4 5 3 6 2 7 10 8 9 9 1 11
REMARK H PARENT 9 10 1 12 1 13
REMARK Flexibility Score: inf
ROOT
ATOM      1  C   UNL     1    -104.287 183.035  -3.757  1.00  0.00     0.199 A 
ATOM      2  N   UNL     1    -104.965 182.306  -2.828  1.00  0.00    -0.217 NA
ATOM      3  C   UNL     1    -104.209 182.473  -1.730  1.00  0.00     0.182 A 
ATOM      4  N   UNL     1    -104.442 181.949  -0.503  1.00  0.00    -0.215 NA
ATOM      5  C   UNL     1    -103.555 182.232   0.499  1.00  0.00     0.226 A 
ATOM      6  N   UNL     1    -102.461 183.025   0.257  1.00  0.00    -0.217 NA
ATOM      7  C   UNL     1    -102.226 183.555  -0.981  1.00  0.00     0.152 A 
ATOM      8  C   UNL     1    -103.138 183.258  -1.989  1.00  0.00     0.127 A 
ATOM      9  N   UNL     1    -103.166 183.628  -3.275  1.00  0.00    -0.340 N 
ATOM     10  H   UNL     1    -102.491 184.231  -3.796  1.00  0.00     0.168 HD
ENDROOT
BRANCH   7  11
ATOM     11  N   UNL     1    -101.081 184.379  -1.209  1.00  0.00    -0.382 N 
ATOM     12  H   UNL     1    -100.925 185.230  -0.624  1.00  0.00     0.158 HD
ATOM     13  H   UNL     1    -100.388 184.152  -1.954  1.00  0.00     0.158 HD
ENDBRANCH   7  11
TORSDOF 1
ENDMDL
MODEL 6
REMARK VINA RESULT:    -4.049     15.840     16.968
REMARK INTER + INTRA:          -4.168
REMARK INTER:                  -4.168
REMARK INTRA:                   0.000
REMARK UNBOUND:                 0.000
REMARK SMILES Nc1ncnc2nc[nH]c12
REMARK SMILES IDX 8 1 7 2 6 3 5 4 4 5 3 6 2 7 10 8 9 9 1 11
REMARK H PARENT 9 10 1 12 1 13
REMARK Flexibility Score: inf
ROOT
ATOM      1  C   UNL     1     -98.489 197.015 -14.811  1.00  0.00     0.199 A 
ATOM      2  N   UNL     1     -97.205 197.118 -14.370  1.00  0.00    -0.217 NA
ATOM      3  C   UNL     1     -96.662 195.969 -14.806  1.00  0.00     0.182 A 
ATOM      4  N   UNL     1     -95.380 195.565 -14.632  1.00  0.00    -0.215 NA
ATOM      5  C   UNL     1     -95.009 194.356 -15.151  1.00  0.00     0.226 A 
ATOM      6  N   UNL     1     -95.916 193.580 -15.828  1.00  0.00    -0.217 NA
ATOM      7  C   UNL     1     -97.209 193.987 -16.005  1.00  0.00     0.152 A 
ATOM      8  C   UNL     1     -97.572 195.221 -15.470  1.00  0.00     0.127 A 
ATOM      9  N   UNL     1     -98.744 195.865 -15.487  1.00  0.00    -0.340 N 
ATOM     10  H   UNL     1     -99.648 195.567 -15.915  1.00  0.00     0.168 HD
ENDROOT
BRANCH   7  11
ATOM     11  N   UNL     1     -98.136 193.163 -16.714  1.00  0.00    -0.382 N 
ATOM     12  H   UNL     1     -97.969 192.135 -16.789  1.00  0.00     0.158 HD
ATOM     13  H   UNL     1     -98.987 193.565 -17.164  1.00  0.00     0.158 HD
ENDBRANCH   7  11
TORSDOF 1
ENDMDL
MODEL 7
REMARK VINA RESULT:    -3.922     12.352     13.733
REMARK INTER + INTRA:          -4.037
REMARK INTER:                  -4.037
REMARK INTRA:                   0.000
REMARK UNBOUND:                 0.000
REMARK SMILES Nc1ncnc2nc[nH]c12
REMARK SMILES IDX 8 1 7 2 6 3 5 4 4 5 3 6 2 7 10 8 9 9 1 11
REMARK H PARENT 9 10 1 12 1 13
REMARK Flexibility Score: inf
ROOT
ATOM      1  C   UNL     1    -102.774 180.876  -4.320  1.00  0.00     0.199 A 
ATOM      2  N   UNL     1    -104.116 181.095  -4.269  1.00  0.00    -0.217 NA
ATOM      3  C   UNL     1    -104.215 182.027  -3.306  1.00  0.00     0.182 A 
ATOM      4  N   UNL     1    -105.355 182.604  -2.855  1.00  0.00    -0.215 NA
ATOM      5  C   UNL     1    -105.255 183.540  -1.862  1.00  0.00     0.226 A 
ATOM      6  N   UNL     1    -104.030 183.878  -1.344  1.00  0.00    -0.217 NA
ATOM      7  C   UNL     1    -102.879 183.297  -1.800  1.00  0.00     0.152 A 
ATOM      8  C   UNL     1    -102.998 182.347  -2.810  1.00  0.00     0.127 A 
ATOM      9  N   UNL     1    -102.063 181.626  -3.440  1.00  0.00    -0.340 N 
ATOM     10  H   UNL     1    -101.029 181.630  -3.299  1.00  0.00     0.168 HD
ENDROOT
BRANCH   7  11
ATOM     11  N   UNL     1    -101.615 183.665  -1.246  1.00  0.00    -0.382 N 
ATOM     12  H   UNL     1    -101.241 184.629  -1.393  1.00  0.00     0.158 HD
ATOM     13  H   UNL     1    -101.047 182.989  -0.691  1.00  0.00     0.158 HD
ENDBRANCH   7  11
TORSDOF 1
ENDMDL
MODEL 8
REMARK VINA RESULT:    -3.896      1.831      2.983
REMARK INTER + INTRA:          -4.010
REMARK INTER:                  -4.010
REMARK INTRA:                   0.000
REMARK UNBOUND:                 0.000
REMARK SMILES Nc1ncnc2nc[nH]c12
REMARK SMILES IDX 8 1 7 2 6 3 5 4 4 5 3 6 2 7 10 8 9 9 1 11
REMARK H PARENT 9 10 1 12 1 13
REMARK Flexibility Score: inf
ROOT
ATOM      1  C   UNL     1    -103.013 195.892  -0.288  1.00  0.00     0.199 A 
ATOM      2  N   UNL     1    -103.354 197.082   0.276  1.00  0.00    -0.217 NA
ATOM      3  C   UNL     1    -104.481 197.397  -0.384  1.00  0.00     0.182 A 
ATOM      4  N   UNL     1    -105.240 198.505  -0.203  1.00  0.00    -0.215 NA
ATOM      5  C   UNL     1    -106.359 198.653  -0.975  1.00  0.00     0.226 A 
ATOM      6  N   UNL     1    -106.697 197.701  -1.904  1.00  0.00    -0.217 NA
ATOM      7  C   UNL     1    -105.932 196.583  -2.086  1.00  0.00     0.152 A 
ATOM      8  C   UNL     1    -104.796 196.447  -1.293  1.00  0.00     0.127 A 
ATOM      9  N   UNL     1    -103.875 195.476  -1.252  1.00  0.00    -0.340 N 
ATOM     10  H   UNL     1    -103.821 194.602  -1.819  1.00  0.00     0.168 HD
ENDROOT
BRANCH   7  11
ATOM     11  N   UNL     1    -106.303 195.604  -3.059  1.00  0.00    -0.382 N 
ATOM     12  H   UNL     1    -107.103 195.786  -3.704  1.00  0.00     0.158 HD
ATOM     13  H   UNL     1    -105.789 194.700  -3.144  1.00  0.00     0.158 HD
ENDBRANCH   7  11
TORSDOF 1
ENDMDL
MODEL 9
REMARK VINA RESULT:    -3.889      3.177      3.928
REMARK INTER + INTRA:          -4.003
REMARK INTER:                  -4.003
REMARK INTRA:                   0.000
REMARK UNBOUND:                 0.000
REMARK SMILES Nc1ncnc2nc[nH]c12
REMARK SMILES IDX 8 1 7 2 6 3 5 4 4 5 3 6 2 7 10 8 9 9 1 11
REMARK H PARENT 9 10 1 12 1 13
REMARK Flexibility Score: inf
ROOT
ATOM      1  C   UNL     1    -104.857 199.416  -4.201  1.00  0.00     0.199 A 
ATOM      2  N   UNL     1    -105.887 198.537  -4.336  1.00  0.00    -0.217 NA
ATOM      3  C   UNL     1    -105.701 197.718  -3.289  1.00  0.00     0.182 A 
ATOM      4  N   UNL     1    -106.465 196.650  -2.953  1.00  0.00    -0.215 NA
ATOM      5  C   UNL     1    -106.116 195.930  -1.844  1.00  0.00     0.226 A 
ATOM      6  N   UNL     1    -105.021 196.287  -1.097  1.00  0.00    -0.217 NA
ATOM      7  C   UNL     1    -104.251 197.365  -1.434  1.00  0.00     0.152 A 
ATOM      8  C   UNL     1    -104.619 198.087  -2.567  1.00  0.00     0.127 A 
ATOM      9  N   UNL     1    -104.063 199.167  -3.128  1.00  0.00    -0.340 N 
ATOM     10  H   UNL     1    -103.221 199.702  -2.823  1.00  0.00     0.168 HD
ENDROOT
BRANCH   7  11
ATOM     11  N   UNL     1    -103.115 197.718  -0.642  1.00  0.00    -0.382 N 
ATOM     12  H   UNL     1    -102.679 197.011  -0.010  1.00  0.00     0.158 HD
ATOM     13  H   UNL     1    -102.705 198.676  -0.678  1.00  0.00     0.158 HD
ENDBRANCH   7  11
TORSDOF 1
ENDMDL
