MODEL 1
REMARK VINA RESULT:    -4.111      0.000      0.000
REMARK INTER + INTRA:          -8.070
REMARK INTER:                  -6.514
REMARK INTRA:                  -1.555
REMARK UNBOUND:                -1.555
REMARK SMILES C=CCCCCCCCCCCC
REMARK SMILES IDX 7 1 8 2 9 3 10 4 11 5 12 6 13 7 6 8 5 9 4 10 3 11 2 12 1 13
REMARK H PARENT
REMARK Flexibility Score: inf
ROOT
ATOM      1  C   UNL     1      -1.583  -0.104  12.322  1.00  0.00     0.000 C 
ENDROOT
BRANCH   1   2
ATOM      2  C   UNL     1      -0.707   1.133  12.035  1.00  0.00     0.000 C 
BRANCH   2   3
ATOM      3  C   UNL     1      -1.373   2.098  11.039  1.00  0.00    -0.000 C 
BRANCH   3   4
ATOM      4  C   UNL     1      -0.633   3.442  10.935  1.00  0.00    -0.000 C 
BRANCH   4   5
ATOM      5  C   UNL     1      -1.592   4.643  10.996  1.00  0.00    -0.000 C 
BRANCH   5   6
ATOM      6  C   UNL     1      -3.016   4.284  10.542  1.00  0.00    -0.003 C 
ATOM      7  C   UNL     1      -4.095   5.009  11.346  1.00  0.00     0.004 C 
ENDBRANCH   5   6
ENDBRANCH   4   5
ENDBRANCH   3   4
ENDBRANCH   2   3
ENDBRANCH   1   2
BRANCH   1   8
ATOM      8  C   UNL     1      -1.822  -0.352  13.822  1.00  0.00     0.000 C 
BRANCH   8   9
ATOM      9  C   UNL     1      -1.568   0.897  14.682  1.00  0.00     0.000 C 
BRANCH   9  10
ATOM     10  C   UNL     1      -2.807   1.799  14.791  1.00  0.00     0.004 C 
BRANCH  10  11
ATOM     11  C   UNL     1      -2.507   3.259  14.416  1.00  0.00     0.027 C 
BRANCH  11  12
ATOM     12  C   UNL     1      -1.256   3.746  15.093  1.00  0.00    -0.035 C 
ATOM     13  C   UNL     1      -0.428   4.613  14.502  1.00  0.00     0.004 C 
ENDBRANCH  11  12
ENDBRANCH  10  11
ENDBRANCH   9  10
ENDBRANCH   8   9
ENDBRANCH   1   8
TORSDOF 10
ENDMDL
MODEL 2
REMARK VINA RESULT:    -4.013      1.014      4.088
REMARK INTER + INTRA:          -7.914
REMARK INTER:                  -6.049
REMARK INTRA:                  -1.865
REMARK UNBOUND:                -1.555
REMARK SMILES C=CCCCCCCCCCCC
REMARK SMILES IDX 7 1 8 2 9 3 10 4 11 5 12 6 13 7 6 8 5 9 4 10 3 11 2 12 1 13
REMARK H PARENT
REMARK Flexibility Score: inf
ROOT
ATOM      1  C   UNL     1      -0.722   1.469  13.138  1.00  0.00     0.000 C 
ENDROOT
BRANCH   1   2
ATOM      2  C   UNL     1      -1.868   1.347  14.164  1.00  0.00     0.000 C 
BRANCH   2   3
ATOM      3  C   UNL     1      -1.904   2.538  15.138  1.00  0.00    -0.000 C 
BRANCH   3   4
ATOM      4  C   UNL     1      -0.626   3.389  15.076  1.00  0.00    -0.000 C 
BRANCH   4   5
ATOM      5  C   UNL     1      -0.888   4.863  15.432  1.00  0.00    -0.000 C 
BRANCH   5   6
ATOM      6  C   UNL     1       0.096   5.820  14.740  1.00  0.00    -0.003 C 
ATOM      7  C   UNL     1       1.150   5.088  13.908  1.00  0.00     0.004 C 
ENDBRANCH   5   6
ENDBRANCH   4   5
ENDBRANCH   3   4
ENDBRANCH   2   3
ENDBRANCH   1   2
BRANCH   1   8
ATOM      8  C   UNL     1      -1.114   1.006  11.723  1.00  0.00     0.000 C 
BRANCH   8   9
ATOM      9  C   UNL     1      -1.349   2.177  10.756  1.00  0.00     0.000 C 
BRANCH   9  10
ATOM     10  C   UNL     1      -0.542   3.428  11.138  1.00  0.00     0.004 C 
BRANCH  10  11
ATOM     11  C   UNL     1      -1.346   4.725  10.956  1.00  0.00     0.027 C 
BRANCH  11  12
ATOM     12  C   UNL     1      -2.784   4.532  11.351  1.00  0.00    -0.035 C 
ATOM     13  C   UNL     1      -3.227   4.847  12.572  1.00  0.00     0.004 C 
ENDBRANCH  11  12
ENDBRANCH  10  11
ENDBRANCH   9  10
ENDBRANCH   8   9
ENDBRANCH   1   8
TORSDOF 10
ENDMDL
MODEL 3
REMARK VINA RESULT:    -3.997      1.012      4.148
REMARK INTER + INTRA:          -7.889
REMARK INTER:                  -6.522
REMARK INTRA:                  -1.367
REMARK UNBOUND:                -1.555
REMARK SMILES C=CCCCCCCCCCCC
REMARK SMILES IDX 7 1 8 2 9 3 10 4 11 5 12 6 13 7 6 8 5 9 4 10 3 11 2 12 1 13
REMARK H PARENT
REMARK Flexibility Score: inf
ROOT
ATOM      1  C   UNL     1      -0.715   0.957  12.290  1.00  0.00     0.000 C 
ENDROOT
BRANCH   1   2
ATOM      2  C   UNL     1      -1.390  -0.320  12.831  1.00  0.00     0.000 C 
BRANCH   2   3
ATOM      3  C   UNL     1      -2.008  -0.105  14.223  1.00  0.00    -0.000 C 
BRANCH   3   4
ATOM      4  C   UNL     1      -1.624   1.252  14.836  1.00  0.00    -0.000 C 
BRANCH   4   5
ATOM      5  C   UNL     1      -2.815   2.224  14.894  1.00  0.00    -0.000 C 
BRANCH   5   6
ATOM      6  C   UNL     1      -2.488   3.592  14.274  1.00  0.00    -0.003 C 
ATOM      7  C   UNL     1      -1.018   3.980  14.433  1.00  0.00     0.004 C 
ENDBRANCH   5   6
ENDBRANCH   4   5
ENDBRANCH   3   4
ENDBRANCH   2   3
ENDBRANCH   1   2
BRANCH   1   8
ATOM      8  C   UNL     1      -1.379   1.509  11.016  1.00  0.00     0.000 C 
BRANCH   8   9
ATOM      9  C   UNL     1      -1.080   2.999  10.785  1.00  0.00     0.000 C 
BRANCH   9  10
ATOM     10  C   UNL     1      -2.358   3.840  10.632  1.00  0.00     0.004 C 
BRANCH  10  11
ATOM     11  C   UNL     1      -2.088   5.348  10.746  1.00  0.00     0.027 C 
BRANCH  11  12
ATOM     12  C   UNL     1      -0.636   5.658  10.503  1.00  0.00    -0.035 C 
ATOM     13  C   UNL     1      -0.233   6.353   9.436  1.00  0.00     0.004 C 
ENDBRANCH  11  12
ENDBRANCH  10  11
ENDBRANCH   9  10
ENDBRANCH   8   9
ENDBRANCH   1   8
TORSDOF 10
ENDMDL
MODEL 4
REMARK VINA RESULT:    -3.962      1.204      3.903
REMARK INTER + INTRA:          -7.834
REMARK INTER:                  -6.421
REMARK INTRA:                  -1.412
REMARK UNBOUND:                -1.555
REMARK SMILES C=CCCCCCCCCCCC
REMARK SMILES IDX 7 1 8 2 9 3 10 4 11 5 12 6 13 7 6 8 5 9 4 10 3 11 2 12 1 13
REMARK H PARENT
REMARK Flexibility Score: inf
ROOT
ATOM      1  C   UNL     1      -2.163   0.276  14.127  1.00  0.00     0.000 C 
ENDROOT
BRANCH   1   2
ATOM      2  C   UNL     1      -1.429   1.408  14.874  1.00  0.00     0.000 C 
BRANCH   2   3
ATOM      3  C   UNL     1      -2.166   2.754  14.759  1.00  0.00    -0.000 C 
BRANCH   3   4
ATOM      4  C   UNL     1      -1.220   3.958  14.891  1.00  0.00    -0.000 C 
BRANCH   4   5
ATOM      5  C   UNL     1       0.230   3.607  14.511  1.00  0.00    -0.000 C 
BRANCH   5   6
ATOM      6  C   UNL     1       1.031   4.834  14.047  1.00  0.00    -0.003 C 
ATOM      7  C   UNL     1       0.693   6.097  14.840  1.00  0.00     0.004 C 
ENDBRANCH   5   6
ENDBRANCH   4   5
ENDBRANCH   3   4
ENDBRANCH   2   3
ENDBRANCH   1   2
BRANCH   1   8
ATOM      8  C   UNL     1      -1.499  -0.110  12.793  1.00  0.00     0.000 C 
BRANCH   8   9
ATOM      9  C   UNL     1      -0.719   1.051  12.156  1.00  0.00     0.000 C 
BRANCH   9  10
ATOM     10  C   UNL     1      -1.314   1.492  10.809  1.00  0.00     0.004 C 
BRANCH  10  11
ATOM     11  C   UNL     1      -1.824   2.941  10.837  1.00  0.00     0.027 C 
BRANCH  11  12
ATOM     12  C   UNL     1      -0.681   3.918  10.861  1.00  0.00    -0.035 C 
ATOM     13  C   UNL     1      -0.882   5.238  10.797  1.00  0.00     0.004 C 
ENDBRANCH  11  12
ENDBRANCH  10  11
ENDBRANCH   9  10
ENDBRANCH   8   9
ENDBRANCH   1   8
TORSDOF 10
ENDMDL
MODEL 5
REMARK VINA RESULT:    -3.957      1.262      2.961
REMARK INTER + INTRA:          -7.826
REMARK INTER:                  -6.487
REMARK INTRA:                  -1.339
REMARK UNBOUND:                -1.555
REMARK SMILES C=CCCCCCCCCCCC
REMARK SMILES IDX 7 1 8 2 9 3 10 4 11 5 12 6 13 7 6 8 5 9 4 10 3 11 2 12 1 13
REMARK H PARENT
REMARK Flexibility Score: inf
ROOT
ATOM      1  C   UNL     1      -1.546   3.076  10.869  1.00  0.00     0.000 C 
ENDROOT
BRANCH   1   2
ATOM      2  C   UNL     1      -0.728   3.868  11.911  1.00  0.00     0.000 C 
BRANCH   2   3
ATOM      3  C   UNL     1      -1.583   4.915  12.646  1.00  0.00    -0.000 C 
BRANCH   3   4
ATOM      4  C   UNL     1      -2.829   5.327  11.846  1.00  0.00    -0.000 C 
BRANCH   4   5
ATOM      5  C   UNL     1      -4.136   4.926  12.552  1.00  0.00    -0.000 C 
BRANCH   5   6
ATOM      6  C   UNL     1      -5.369   5.100  11.652  1.00  0.00    -0.003 C 
ATOM      7  C   UNL     1      -5.034   5.006  10.163  1.00  0.00     0.004 C 
ENDBRANCH   5   6
ENDBRANCH   4   5
ENDBRANCH   3   4
ENDBRANCH   2   3
ENDBRANCH   1   2
BRANCH   1   8
ATOM      8  C   UNL     1      -1.341   1.553  10.957  1.00  0.00     0.000 C 
BRANCH   8   9
ATOM      9  C   UNL     1      -0.737   1.109  12.300  1.00  0.00     0.000 C 
BRANCH   9  10
ATOM     10  C   UNL     1      -1.403  -0.161  12.854  1.00  0.00     0.004 C 
BRANCH  10  11
ATOM     11  C   UNL     1      -2.242   0.115  14.111  1.00  0.00     0.027 C 
BRANCH  11  12
ATOM     12  C   UNL     1      -1.968   1.491  14.654  1.00  0.00    -0.035 C 
ATOM     13  C   UNL     1      -2.957   2.318  15.006  1.00  0.00     0.004 C 
ENDBRANCH  11  12
ENDBRANCH  10  11
ENDBRANCH   9  10
ENDBRANCH   8   9
ENDBRANCH   1   8
TORSDOF 10
ENDMDL
MODEL 6
REMARK VINA RESULT:    -3.945      0.870      4.091
REMARK INTER + INTRA:          -7.807
REMARK INTER:                  -6.454
REMARK INTRA:                  -1.353
REMARK UNBOUND:                -1.555
REMARK SMILES C=CCCCCCCCCCCC
REMARK SMILES IDX 7 1 8 2 9 3 10 4 11 5 12 6 13 7 6 8 5 9 4 10 3 11 2 12 1 13
REMARK H PARENT
REMARK Flexibility Score: inf
ROOT
ATOM      1  C   UNL     1      -0.996   0.607  11.492  1.00  0.00     0.000 C 
ENDROOT
BRANCH   1   2
ATOM      2  C   UNL     1      -1.482  -0.176  12.729  1.00  0.00     0.000 C 
BRANCH   2   3
ATOM      3  C   UNL     1      -1.342   0.641  14.025  1.00  0.00    -0.000 C 
BRANCH   3   4
ATOM      4  C   UNL     1      -2.694   1.157  14.546  1.00  0.00    -0.000 C 
BRANCH   4   5
ATOM      5  C   UNL     1      -2.601   2.596  15.084  1.00  0.00    -0.000 C 
BRANCH   5   6
ATOM      6  C   UNL     1      -1.149   3.055  15.290  1.00  0.00    -0.003 C 
ATOM      7  C   UNL     1      -0.972   4.563  15.105  1.00  0.00     0.004 C 
ENDBRANCH   5   6
ENDBRANCH   4   5
ENDBRANCH   3   4
ENDBRANCH   2   3
ENDBRANCH   1   2
BRANCH   1   8
ATOM      8  C   UNL     1      -0.633   2.072  11.797  1.00  0.00     0.000 C 
BRANCH   8   9
ATOM      9  C   UNL     1      -1.260   3.061  10.801  1.00  0.00     0.000 C 
BRANCH   9  10
ATOM     10  C   UNL     1      -1.561   4.427  11.437  1.00  0.00     0.004 C 
BRANCH  10  11
ATOM     11  C   UNL     1      -2.996   4.902  11.161  1.00  0.00     0.027 C 
BRANCH  11  12
ATOM     12  C   UNL     1      -3.807   4.944  12.427  1.00  0.00    -0.035 C 
ATOM     13  C   UNL     1      -5.098   5.285  12.426  1.00  0.00     0.004 C 
ENDBRANCH  11  12
ENDBRANCH  10  11
ENDBRANCH   9  10
ENDBRANCH   8   9
ENDBRANCH   1   8
TORSDOF 10
ENDMDL
MODEL 7
REMARK VINA RESULT:    -3.920      1.003      2.770
REMARK INTER + INTRA:          -7.768
REMARK INTER:                  -6.357
REMARK INTRA:                  -1.411
REMARK UNBOUND:                -1.555
REMARK SMILES C=CCCCCCCCCCCC
REMARK SMILES IDX 7 1 8 2 9 3 10 4 11 5 12 6 13 7 6 8 5 9 4 10 3 11 2 12 1 13
REMARK H PARENT
REMARK Flexibility Score: inf
ROOT
ATOM      1  C   UNL     1       0.172   2.993  12.291  1.00  0.00     0.000 C 
ENDROOT
BRANCH   1   2
ATOM      2  C   UNL     1      -0.748   2.007  11.542  1.00  0.00     0.000 C 
BRANCH   2   3
ATOM      3  C   UNL     1      -1.751   2.729  10.627  1.00  0.00    -0.000 C 
BRANCH   3   4
ATOM      4  C   UNL     1      -1.548   4.253  10.615  1.00  0.00    -0.000 C 
BRANCH   4   5
ATOM      5  C   UNL     1      -2.882   5.020  10.634  1.00  0.00    -0.000 C 
BRANCH   5   6
ATOM      6  C   UNL     1      -3.610   4.902  11.982  1.00  0.00    -0.003 C 
ATOM      7  C   UNL     1      -5.120   5.112  11.860  1.00  0.00     0.004 C 
ENDBRANCH   5   6
ENDBRANCH   4   5
ENDBRANCH   3   4
ENDBRANCH   2   3
ENDBRANCH   1   2
BRANCH   1   8
ATOM      8  C   UNL     1       0.046   2.907  13.823  1.00  0.00     0.000 C 
BRANCH   8   9
ATOM      9  C   UNL     1      -1.256   3.532  14.351  1.00  0.00     0.000 C 
BRANCH   9  10
ATOM     10  C   UNL     1      -2.331   2.479  14.665  1.00  0.00     0.004 C 
BRANCH  10  11
ATOM     11  C   UNL     1      -1.728   1.115  15.035  1.00  0.00     0.027 C 
BRANCH  11  12
ATOM     12  C   UNL     1      -2.315   0.016  14.192  1.00  0.00    -0.035 C 
ATOM     13  C   UNL     1      -1.621  -1.085  13.889  1.00  0.00     0.004 C 
ENDBRANCH  11  12
ENDBRANCH  10  11
ENDBRANCH   9  10
ENDBRANCH   8   9
ENDBRANCH   1   8
TORSDOF 10
ENDMDL
MODEL 8
REMARK VINA RESULT:    -3.831      1.082      3.953
REMARK INTER + INTRA:          -7.627
REMARK INTER:                  -6.067
REMARK INTRA:                  -1.560
REMARK UNBOUND:                -1.555
REMARK SMILES C=CCCCCCCCCCCC
REMARK SMILES IDX 7 1 8 2 9 3 10 4 11 5 12 6 13 7 6 8 5 9 4 10 3 11 2 12 1 13
REMARK H PARENT
REMARK Flexibility Score: inf
ROOT
ATOM      1  C   UNL     1      -1.203   3.562  10.844  1.00  0.00     0.000 C 
ENDROOT
BRANCH   1   2
ATOM      2  C   UNL     1      -1.392   2.031  10.845  1.00  0.00     0.000 C 
BRANCH   2   3
ATOM      3  C   UNL     1      -0.716   1.363  12.054  1.00  0.00    -0.000 C 
BRANCH   3   4
ATOM      4  C   UNL     1      -1.287  -0.033  12.353  1.00  0.00    -0.000 C 
BRANCH   4   5
ATOM      5  C   UNL     1      -2.141  -0.053  13.633  1.00  0.00    -0.000 C 
BRANCH   5   6
ATOM      6  C   UNL     1      -1.751   1.061  14.618  1.00  0.00    -0.003 C 
ATOM      7  C   UNL     1      -2.935   1.944  15.013  1.00  0.00     0.004 C 
ENDBRANCH   5   6
ENDBRANCH   4   5
ENDBRANCH   3   4
ENDBRANCH   2   3
ENDBRANCH   1   2
BRANCH   1   8
ATOM      8  C   UNL     1      -2.510   4.341  11.079  1.00  0.00     0.000 C 
BRANCH   8   9
ATOM      9  C   UNL     1      -2.749   4.673  12.561  1.00  0.00     0.000 C 
BRANCH   9  10
ATOM     10  C   UNL     1      -2.229   6.067  12.945  1.00  0.00     0.004 C 
BRANCH  10  11
ATOM     11  C   UNL     1      -0.853   6.015  13.626  1.00  0.00     0.027 C 
BRANCH  11  12
ATOM     12  C   UNL     1      -0.680   4.738  14.402  1.00  0.00    -0.035 C 
ATOM     13  C   UNL     1       0.457   4.038  14.363  1.00  0.00     0.004 C 
ENDBRANCH  11  12
ENDBRANCH  10  11
ENDBRANCH   9  10
ENDBRANCH   8   9
ENDBRANCH   1   8
TORSDOF 10
ENDMDL
MODEL 9
REMARK VINA RESULT:    -3.822      1.132      5.037
REMARK INTER + INTRA:          -7.612
REMARK INTER:                  -5.940
REMARK INTRA:                  -1.673
REMARK UNBOUND:                -1.555
REMARK SMILES C=CCCCCCCCCCCC
REMARK SMILES IDX 7 1 8 2 9 3 10 4 11 5 12 6 13 7 6 8 5 9 4 10 3 11 2 12 1 13
REMARK H PARENT
REMARK Flexibility Score: inf
ROOT
ATOM      1  C   UNL     1      -1.142   5.816  13.486  1.00  0.00     0.000 C 
ENDROOT
BRANCH   1   2
ATOM      2  C   UNL     1      -0.761   5.034  14.760  1.00  0.00     0.000 C 
BRANCH   2   3
ATOM      3  C   UNL     1       0.103   3.800  14.447  1.00  0.00    -0.000 C 
BRANCH   3   4
ATOM      4  C   UNL     1      -0.490   2.503  15.023  1.00  0.00    -0.000 C 
BRANCH   4   5
ATOM      5  C   UNL     1      -2.019   2.580  15.180  1.00  0.00    -0.000 C 
BRANCH   5   6
ATOM      6  C   UNL     1      -2.728   1.322  14.654  1.00  0.00    -0.003 C 
ATOM      7  C   UNL     1      -1.804   0.106  14.584  1.00  0.00     0.004 C 
ENDBRANCH   5   6
ENDBRANCH   4   5
ENDBRANCH   3   4
ENDBRANCH   2   3
ENDBRANCH   1   2
BRANCH   1   8
ATOM      8  C   UNL     1      -2.570   5.525  12.991  1.00  0.00     0.000 C 
BRANCH   8   9
ATOM      9  C   UNL     1      -2.597   4.837  11.617  1.00  0.00     0.000 C 
BRANCH   9  10
ATOM     10  C   UNL     1      -1.247   4.924  10.887  1.00  0.00     0.004 C 
BRANCH  10  11
ATOM     11  C   UNL     1      -0.530   3.567  10.813  1.00  0.00     0.027 C 
BRANCH  11  12
ATOM     12  C   UNL     1      -1.515   2.431  10.848  1.00  0.00    -0.035 C 
ATOM     13  C   UNL     1      -1.161   1.205  11.241  1.00  0.00     0.004 C 
ENDBRANCH  11  12
ENDBRANCH  10  11
ENDBRANCH   9  10
ENDBRANCH   8   9
ENDBRANCH   1   8
TORSDOF 10
ENDMDL
