MODEL 1
REMARK VINA RESULT:    -4.149      0.000      0.000
REMARK INTER + INTRA:          -4.392
REMARK INTER:                  -4.392
REMARK INTRA:                   0.000
REMARK UNBOUND:                 0.000
REMARK SMILES O=c1ccc2cc(O)c(O)cc2o1
REMARK SMILES IDX 4 1 3 2 2 3 1 4 13 5 12 6 11 7 9 8 7 9 6 10 5 11 8 12 10 14
REMARK H PARENT 8 13 10 15
REMARK Flexibility Score: inf
ROOT
ATOM      1  C   UNL     1      76.854  89.634  14.219  1.00  0.00     0.019 A 
ATOM      2  C   UNL     1      77.399  88.358  14.081  1.00  0.00     0.094 A 
ATOM      3  C   UNL     1      77.277  87.698  12.853  1.00  0.00     0.336 A 
ATOM      4  O   UNL     1      77.763  86.545  12.708  1.00  0.00    -0.246 OA
ATOM      5  O   UNL     1      76.650  88.282  11.835  1.00  0.00    -0.423 OA
ATOM      6  C   UNL     1      76.116  89.497  11.924  1.00  0.00     0.142 A 
ATOM      7  C   UNL     1      75.468  90.059  10.820  1.00  0.00     0.098 A 
ATOM      8  C   UNL     1      74.903  91.340  10.910  1.00  0.00     0.161 A 
ATOM      9  C   UNL     1      74.987  92.061  12.110  1.00  0.00     0.158 A 
ATOM     10  C   UNL     1      75.635  91.502  13.221  1.00  0.00     0.062 A 
ATOM     11  C   UNL     1      76.200  90.223  13.133  1.00  0.00     0.022 A 
ENDROOT
BRANCH   9  12
ATOM     12  O   UNL     1      74.423  93.334  12.191  1.00  0.00    -0.504 OA
ATOM     13  H   UNL     1      74.325  93.923  11.372  1.00  0.00     0.293 HD
ENDBRANCH   9  12
BRANCH   8  14
ATOM     14  O   UNL     1      74.257  91.903   9.811  1.00  0.00    -0.504 OA
ATOM     15  H   UNL     1      74.506  92.821   9.462  1.00  0.00     0.293 HD
ENDBRANCH   8  14
TORSDOF 2
ENDMDL
MODEL 2
REMARK VINA RESULT:    -4.148      1.160      2.261
REMARK INTER + INTRA:          -4.391
REMARK INTER:                  -4.391
REMARK INTRA:                   0.000
REMARK UNBOUND:                 0.000
REMARK SMILES O=c1ccc2cc(O)c(O)cc2o1
REMARK SMILES IDX 4 1 3 2 2 3 1 4 13 5 12 6 11 7 9 8 7 9 6 10 5 11 8 12 10 14
REMARK H PARENT 8 13 10 15
REMARK Flexibility Score: inf
ROOT
ATOM      1  C   UNL     1      76.641  88.214  11.859  1.00  0.00     0.019 A 
ATOM      2  C   UNL     1      77.323  87.718  12.969  1.00  0.00     0.094 A 
ATOM      3  C   UNL     1      77.429  88.517  14.112  1.00  0.00     0.336 A 
ATOM      4  O   UNL     1      78.042  88.087  15.125  1.00  0.00    -0.246 OA
ATOM      5  O   UNL     1      76.885  89.731  14.138  1.00  0.00    -0.423 OA
ATOM      6  C   UNL     1      76.225  90.242  13.102  1.00  0.00     0.142 A 
ATOM      7  C   UNL     1      75.675  91.524  13.187  1.00  0.00     0.098 A 
ATOM      8  C   UNL     1      74.979  92.068  12.096  1.00  0.00     0.161 A 
ATOM      9  C   UNL     1      74.833  91.324  10.916  1.00  0.00     0.158 A 
ATOM     10  C   UNL     1      75.384  90.037  10.825  1.00  0.00     0.062 A 
ATOM     11  C   UNL     1      76.079  89.494  11.913  1.00  0.00     0.022 A 
ENDROOT
BRANCH   9  12
ATOM     12  O   UNL     1      74.140  91.872   9.838  1.00  0.00    -0.504 OA
ATOM     13  H   UNL     1      74.462  92.712   9.372  1.00  0.00     0.293 HD
ENDBRANCH   9  12
BRANCH   8  14
ATOM     14  O   UNL     1      74.429  93.346  12.179  1.00  0.00    -0.504 OA
ATOM     15  H   UNL     1      73.784  93.692  11.478  1.00  0.00     0.293 HD
ENDBRANCH   8  14
TORSDOF 2
ENDMDL
MODEL 3
REMARK VINA RESULT:    -4.038      1.763      2.548
REMARK INTER + INTRA:          -4.274
REMARK INTER:                  -4.274
REMARK INTRA:                   0.000
REMARK UNBOUND:                 0.000
REMARK SMILES O=c1ccc2cc(O)c(O)cc2o1
REMARK SMILES IDX 4 1 3 2 2 3 1 4 13 5 12 6 11 7 9 8 7 9 6 10 5 11 8 12 10 14
REMARK H PARENT 8 13 10 15
REMARK Flexibility Score: inf
ROOT
ATOM      1  C   UNL     1      76.850  87.816  12.148  1.00  0.00     0.019 A 
ATOM      2  C   UNL     1      76.750  87.102  10.955  1.00  0.00     0.094 A 
ATOM      3  C   UNL     1      76.198  87.730   9.833  1.00  0.00     0.336 A 
ATOM      4  O   UNL     1      76.098  87.102   8.746  1.00  0.00    -0.246 OA
ATOM      5  O   UNL     1      75.776  88.990   9.907  1.00  0.00    -0.423 OA
ATOM      6  C   UNL     1      75.853  89.707  11.025  1.00  0.00     0.142 A 
ATOM      7  C   UNL     1      75.393  91.027  11.042  1.00  0.00     0.098 A 
ATOM      8  C   UNL     1      75.472  91.786  12.220  1.00  0.00     0.161 A 
ATOM      9  C   UNL     1      76.014  91.222  13.384  1.00  0.00     0.158 A 
ATOM     10  C   UNL     1      76.476  89.898  13.372  1.00  0.00     0.062 A 
ATOM     11  C   UNL     1      76.398  89.138  12.197  1.00  0.00     0.022 A 
ENDROOT
BRANCH   9  12
ATOM     12  O   UNL     1      76.089  91.984  14.549  1.00  0.00    -0.504 OA
ATOM     13  H   UNL     1      75.269  92.430  14.944  1.00  0.00     0.293 HD
ENDBRANCH   9  12
BRANCH   8  14
ATOM     14  O   UNL     1      75.014  93.103  12.240  1.00  0.00    -0.504 OA
ATOM     15  H   UNL     1      74.280  93.419  11.617  1.00  0.00     0.293 HD
ENDBRANCH   8  14
TORSDOF 2
ENDMDL
MODEL 4
REMARK VINA RESULT:    -4.030      2.342      4.994
REMARK INTER + INTRA:          -4.265
REMARK INTER:                  -4.265
REMARK INTRA:                   0.000
REMARK UNBOUND:                 0.000
REMARK SMILES O=c1ccc2cc(O)c(O)cc2o1
REMARK SMILES IDX 4 1 3 2 2 3 1 4 13 5 12 6 11 7 9 8 7 9 6 10 5 11 8 12 10 14
REMARK H PARENT 8 13 10 15
REMARK Flexibility Score: inf
ROOT
ATOM      1  C   UNL     1      73.191  93.344  13.003  1.00  0.00     0.019 A 
ATOM      2  C   UNL     1      71.892  93.417  12.500  1.00  0.00     0.094 A 
ATOM      3  C   UNL     1      71.491  92.497  11.525  1.00  0.00     0.336 A 
ATOM      4  O   UNL     1      70.322  92.547  11.057  1.00  0.00    -0.246 OA
ATOM      5  O   UNL     1      72.336  91.567  11.087  1.00  0.00    -0.423 OA
ATOM      6  C   UNL     1      73.583  91.462  11.541  1.00  0.00     0.142 A 
ATOM      7  C   UNL     1      74.426  90.465  11.044  1.00  0.00     0.098 A 
ATOM      8  C   UNL     1      75.742  90.351  11.519  1.00  0.00     0.161 A 
ATOM      9  C   UNL     1      76.214  91.239  12.497  1.00  0.00     0.158 A 
ATOM     10  C   UNL     1      75.372  92.242  12.999  1.00  0.00     0.062 A 
ATOM     11  C   UNL     1      74.058  92.357  12.525  1.00  0.00     0.022 A 
ENDROOT
BRANCH   9  12
ATOM     12  O   UNL     1      77.522  91.118  12.963  1.00  0.00    -0.504 OA
ATOM     13  H   UNL     1      78.007  91.898  13.389  1.00  0.00     0.293 HD
ENDBRANCH   9  12
BRANCH   8  14
ATOM     14  O   UNL     1      76.585  89.357  11.025  1.00  0.00    -0.504 OA
ATOM     15  H   UNL     1      77.397  89.582  10.462  1.00  0.00     0.293 HD
ENDBRANCH   8  14
TORSDOF 2
ENDMDL
MODEL 5
REMARK VINA RESULT:    -3.942      4.111      5.430
REMARK INTER + INTRA:          -4.172
REMARK INTER:                  -4.172
REMARK INTRA:                   0.000
REMARK UNBOUND:                 0.000
REMARK SMILES O=c1ccc2cc(O)c(O)cc2o1
REMARK SMILES IDX 4 1 3 2 2 3 1 4 13 5 12 6 11 7 9 8 7 9 6 10 5 11 8 12 10 14
REMARK H PARENT 8 13 10 15
REMARK Flexibility Score: inf
ROOT
ATOM      1  C   UNL     1      77.189  85.875  11.516  1.00  0.00     0.019 A 
ATOM      2  C   UNL     1      75.984  86.092  12.183  1.00  0.00     0.094 A 
ATOM      3  C   UNL     1      74.988  86.848  11.555  1.00  0.00     0.336 A 
ATOM      4  O   UNL     1      73.893  87.055  12.141  1.00  0.00    -0.246 OA
ATOM      5  O   UNL     1      75.191  87.350  10.339  1.00  0.00    -0.423 OA
ATOM      6  C   UNL     1      76.325  87.167   9.668  1.00  0.00     0.142 A 
ATOM      7  C   UNL     1      76.480  87.719   8.394  1.00  0.00     0.098 A 
ATOM      8  C   UNL     1      77.675  87.529   7.683  1.00  0.00     0.161 A 
ATOM      9  C   UNL     1      78.718  86.782   8.250  1.00  0.00     0.158 A 
ATOM     10  C   UNL     1      78.568  86.226   9.529  1.00  0.00     0.062 A 
ATOM     11  C   UNL     1      77.375  86.415  10.240  1.00  0.00     0.022 A 
ENDROOT
BRANCH   9  12
ATOM     12  O   UNL     1      79.901  86.598   7.536  1.00  0.00    -0.504 OA
ATOM     13  H   UNL     1      80.399  87.378   7.125  1.00  0.00     0.293 HD
ENDBRANCH   9  12
BRANCH   8  14
ATOM     14  O   UNL     1      77.833  88.079   6.411  1.00  0.00    -0.504 OA
ATOM     15  H   UNL     1      78.567  88.748   6.210  1.00  0.00     0.293 HD
ENDBRANCH   8  14
TORSDOF 2
ENDMDL
MODEL 6
REMARK VINA RESULT:    -3.883     10.484     11.813
REMARK INTER + INTRA:          -4.110
REMARK INTER:                  -4.110
REMARK INTRA:                   0.000
REMARK UNBOUND:                 0.000
REMARK SMILES O=c1ccc2cc(O)c(O)cc2o1
REMARK SMILES IDX 4 1 3 2 2 3 1 4 13 5 12 6 11 7 9 8 7 9 6 10 5 11 8 12 10 14
REMARK H PARENT 8 13 10 15
REMARK Flexibility Score: inf
ROOT
ATOM      1  C   UNL     1      79.707  85.875   1.114  1.00  0.00     0.019 A 
ATOM      2  C   UNL     1      80.647  85.888   0.084  1.00  0.00     0.094 A 
ATOM      3  C   UNL     1      81.963  86.269   0.372  1.00  0.00     0.336 A 
ATOM      4  O   UNL     1      82.827  86.288  -0.544  1.00  0.00    -0.246 OA
ATOM      5  O   UNL     1      82.309  86.612   1.611  1.00  0.00    -0.423 OA
ATOM      6  C   UNL     1      81.443  86.612   2.622  1.00  0.00     0.142 A 
ATOM      7  C   UNL     1      81.865  86.983   3.902  1.00  0.00     0.098 A 
ATOM      8  C   UNL     1      80.955  86.985   4.971  1.00  0.00     0.161 A 
ATOM      9  C   UNL     1      79.620  86.616   4.757  1.00  0.00     0.158 A 
ATOM     10  C   UNL     1      79.191  86.244   3.474  1.00  0.00     0.062 A 
ATOM     11  C   UNL     1      80.098  86.240   2.406  1.00  0.00     0.022 A 
ENDROOT
BRANCH   9  12
ATOM     12  O   UNL     1      78.723  86.621   5.825  1.00  0.00    -0.504 OA
ATOM     13  H   UNL     1      78.010  87.335   5.915  1.00  0.00     0.293 HD
ENDBRANCH   9  12
BRANCH   8  14
ATOM     14  O   UNL     1      81.373  87.354   6.249  1.00  0.00    -0.504 OA
ATOM     15  H   UNL     1      81.533  88.323   6.496  1.00  0.00     0.293 HD
ENDBRANCH   8  14
TORSDOF 2
ENDMDL
MODEL 7
REMARK VINA RESULT:    -3.878      2.182      5.457
REMARK INTER + INTRA:          -4.105
REMARK INTER:                  -4.105
REMARK INTRA:                   0.000
REMARK UNBOUND:                 0.000
REMARK SMILES O=c1ccc2cc(O)c(O)cc2o1
REMARK SMILES IDX 4 1 3 2 2 3 1 4 13 5 12 6 11 7 9 8 7 9 6 10 5 11 8 12 10 14
REMARK H PARENT 8 13 10 15
REMARK Flexibility Score: inf
ROOT
ATOM      1  C   UNL     1      72.261  91.480  11.135  1.00  0.00     0.019 A 
ATOM      2  C   UNL     1      71.479  92.545  11.580  1.00  0.00     0.094 A 
ATOM      3  C   UNL     1      72.045  93.485  12.448  1.00  0.00     0.336 A 
ATOM      4  O   UNL     1      71.355  94.454  12.862  1.00  0.00    -0.246 OA
ATOM      5  O   UNL     1      73.311  93.363  12.841  1.00  0.00    -0.423 OA
ATOM      6  C   UNL     1      74.091  92.363  12.440  1.00  0.00     0.142 A 
ATOM      7  C   UNL     1      75.414  92.286  12.886  1.00  0.00     0.098 A 
ATOM      8  C   UNL     1      76.240  91.232  12.466  1.00  0.00     0.161 A 
ATOM      9  C   UNL     1      75.740  90.252  11.596  1.00  0.00     0.158 A 
ATOM     10  C   UNL     1      74.414  90.324  11.146  1.00  0.00     0.062 A 
ATOM     11  C   UNL     1      73.588  91.376  11.564  1.00  0.00     0.022 A 
ENDROOT
BRANCH   9  12
ATOM     12  O   UNL     1      76.569  89.210  11.184  1.00  0.00    -0.504 OA
ATOM     13  H   UNL     1      77.548  89.177  11.441  1.00  0.00     0.293 HD
ENDBRANCH   9  12
BRANCH   8  14
ATOM     14  O   UNL     1      77.559  91.153  12.910  1.00  0.00    -0.504 OA
ATOM     15  H   UNL     1      77.813  91.381  13.864  1.00  0.00     0.293 HD
ENDBRANCH   8  14
TORSDOF 2
ENDMDL
MODEL 8
REMARK VINA RESULT:    -3.850      2.823      3.824
REMARK INTER + INTRA:          -4.075
REMARK INTER:                  -4.075
REMARK INTRA:                   0.000
REMARK UNBOUND:                 0.000
REMARK SMILES O=c1ccc2cc(O)c(O)cc2o1
REMARK SMILES IDX 4 1 3 2 2 3 1 4 13 5 12 6 11 7 9 8 7 9 6 10 5 11 8 12 10 14
REMARK H PARENT 8 13 10 15
REMARK Flexibility Score: inf
ROOT
ATOM      1  C   UNL     1      74.986  86.522  10.721  1.00  0.00     0.019 A 
ATOM      2  C   UNL     1      75.429  86.142   9.454  1.00  0.00     0.094 A 
ATOM      3  C   UNL     1      76.404  86.917   8.818  1.00  0.00     0.336 A 
ATOM      4  O   UNL     1      76.817  86.592   7.673  1.00  0.00    -0.246 OA
ATOM      5  O   UNL     1      76.900  87.999   9.414  1.00  0.00    -0.423 OA
ATOM      6  C   UNL     1      76.505  88.395  10.621  1.00  0.00     0.142 A 
ATOM      7  C   UNL     1      77.062  89.541  11.198  1.00  0.00     0.098 A 
ATOM      8  C   UNL     1      76.648  89.963  12.471  1.00  0.00     0.161 A 
ATOM      9  C   UNL     1      75.674  89.235  13.169  1.00  0.00     0.158 A 
ATOM     10  C   UNL     1      75.111  88.085  12.595  1.00  0.00     0.062 A 
ATOM     11  C   UNL     1      75.524  87.663  11.324  1.00  0.00     0.022 A 
ENDROOT
BRANCH   9  12
ATOM     12  O   UNL     1      75.269  89.661  14.433  1.00  0.00    -0.504 OA
ATOM     13  H   UNL     1      75.535  89.160  15.272  1.00  0.00     0.293 HD
ENDBRANCH   9  12
BRANCH   8  14
ATOM     14  O   UNL     1      77.202  91.104  13.048  1.00  0.00    -0.504 OA
ATOM     15  H   UNL     1      77.644  91.077  13.960  1.00  0.00     0.293 HD
ENDBRANCH   8  14
TORSDOF 2
ENDMDL
MODEL 9
REMARK VINA RESULT:    -3.774      1.449      2.666
REMARK INTER + INTRA:          -3.995
REMARK INTER:                  -3.995
REMARK INTRA:                   0.000
REMARK UNBOUND:                 0.000
REMARK SMILES O=c1ccc2cc(O)c(O)cc2o1
REMARK SMILES IDX 4 1 3 2 2 3 1 4 13 5 12 6 11 7 9 8 7 9 6 10 5 11 8 12 10 14
REMARK H PARENT 8 13 10 15
REMARK Flexibility Score: inf
ROOT
ATOM      1  C   UNL     1      75.790  88.679  10.143  1.00  0.00     0.019 A 
ATOM      2  C   UNL     1      76.319  87.395  10.271  1.00  0.00     0.094 A 
ATOM      3  C   UNL     1      76.923  87.029  11.480  1.00  0.00     0.336 A 
ATOM      4  O   UNL     1      77.407  85.875  11.616  1.00  0.00    -0.246 OA
ATOM      5  O   UNL     1      76.989  87.895  12.488  1.00  0.00    -0.423 OA
ATOM      6  C   UNL     1      76.497  89.128  12.407  1.00  0.00     0.142 A 
ATOM      7  C   UNL     1      76.596  89.994  13.501  1.00  0.00     0.098 A 
ATOM      8  C   UNL     1      76.078  91.296  13.419  1.00  0.00     0.161 A 
ATOM      9  C   UNL     1      75.459  91.732  12.239  1.00  0.00     0.158 A 
ATOM     10  C   UNL     1      75.357  90.868  11.139  1.00  0.00     0.062 A 
ATOM     11  C   UNL     1      75.873  89.568  11.219  1.00  0.00     0.022 A 
ENDROOT
BRANCH   9  12
ATOM     12  O   UNL     1      74.947  93.027  12.167  1.00  0.00    -0.504 OA
ATOM     13  H   UNL     1      74.662  93.437  11.286  1.00  0.00     0.293 HD
ENDBRANCH   9  12
BRANCH   8  14
ATOM     14  O   UNL     1      76.175  92.161  14.508  1.00  0.00    -0.504 OA
ATOM     15  H   UNL     1      75.759  91.935  15.404  1.00  0.00     0.293 HD
ENDBRANCH   8  14
TORSDOF 2
ENDMDL
