MODEL 1
REMARK VINA RESULT:    -4.651      0.000      0.000
REMARK INTER + INTRA:          -8.187
REMARK INTER:                  -7.370
REMARK INTRA:                  -0.817
REMARK UNBOUND:                -0.817
REMARK SMILES CCCCCCCCCCCC(=O)[O-]
REMARK SMILES IDX 7 1 8 2 9 3 10 4 11 5 12 6 13 7 14 8 6 9 5 10 4 11 3 12 2 13
REMARK SMILES IDX 1 14
REMARK H PARENT
REMARK Flexibility Score: inf
ROOT
ATOM      1  C   UNL     1     -22.071 -60.454  -0.882  1.00  0.00     0.000 C 
ENDROOT
BRANCH   1   2
ATOM      2  C   UNL     1     -23.088 -59.318  -1.067  1.00  0.00     0.000 C 
BRANCH   2   3
ATOM      3  C   UNL     1     -24.457 -59.709  -0.497  1.00  0.00     0.000 C 
BRANCH   3   4
ATOM      4  C   UNL     1     -25.508 -58.629  -0.796  1.00  0.00     0.006 C 
BRANCH   4   5
ATOM      5  C   UNL     1     -25.160 -57.812  -2.047  1.00  0.00     0.053 C 
BRANCH   5   6
ATOM      6  C   UNL     1     -25.993 -58.217  -3.225  1.00  0.00     0.041 C 
ATOM      7  O   UNL     1     -26.617 -57.349  -3.889  1.00  0.00    -0.550 OA
ATOM      8  O   UNL     1     -26.052 -59.551  -3.610  1.00  0.00    -0.550 OA
ENDBRANCH   5   6
ENDBRANCH   4   5
ENDBRANCH   3   4
ENDBRANCH   2   3
ENDBRANCH   1   2
BRANCH   1   9
ATOM      9  C   UNL     1     -21.877 -60.842   0.593  1.00  0.00     0.000 C 
BRANCH   9  10
ATOM     10  C   UNL     1     -21.942 -62.360   0.820  1.00  0.00    -0.000 C 
BRANCH  10  11
ATOM     11  C   UNL     1     -23.058 -62.718   1.814  1.00  0.00    -0.000 C 
BRANCH  11  12
ATOM     12  C   UNL     1     -23.731 -61.477   2.421  1.00  0.00    -0.000 C 
BRANCH  12  13
ATOM     13  C   UNL     1     -25.130 -61.774   2.978  1.00  0.00    -0.003 C 
ATOM     14  C   UNL     1     -25.230 -63.215   3.471  1.00  0.00     0.004 C 
ENDBRANCH  12  13
ENDBRANCH  11  12
ENDBRANCH  10  11
ENDBRANCH   9  10
ENDBRANCH   1   9
TORSDOF 10
ENDMDL
MODEL 2
REMARK VINA RESULT:    -4.645      1.055      1.812
REMARK INTER + INTRA:          -8.177
REMARK INTER:                  -6.936
REMARK INTRA:                  -1.241
REMARK UNBOUND:                -0.817
REMARK SMILES CCCCCCCCCCCC(=O)[O-]
REMARK SMILES IDX 7 1 8 2 9 3 10 4 11 5 12 6 13 7 14 8 6 9 5 10 4 11 3 12 2 13
REMARK SMILES IDX 1 14
REMARK H PARENT
REMARK Flexibility Score: inf
ROOT
ATOM      1  C   UNL     1     -22.100 -61.044   0.521  1.00  0.00     0.000 C 
ENDROOT
BRANCH   1   2
ATOM      2  C   UNL     1     -22.299 -60.488  -0.897  1.00  0.00     0.000 C 
BRANCH   2   3
ATOM      3  C   UNL     1     -22.524 -58.971  -0.864  1.00  0.00     0.000 C 
BRANCH   3   4
ATOM      4  C   UNL     1     -23.994 -58.639  -0.567  1.00  0.00     0.006 C 
BRANCH   4   5
ATOM      5  C   UNL     1     -24.962 -59.554  -1.328  1.00  0.00     0.053 C 
BRANCH   5   6
ATOM      6  C   UNL     1     -25.573 -58.861  -2.506  1.00  0.00     0.041 C 
ATOM      7  O   UNL     1     -25.701 -57.608  -2.508  1.00  0.00    -0.550 OA
ATOM      8  O   UNL     1     -25.971 -59.594  -3.617  1.00  0.00    -0.550 OA
ENDBRANCH   5   6
ENDBRANCH   4   5
ENDBRANCH   3   4
ENDBRANCH   2   3
ENDBRANCH   1   2
BRANCH   1   9
ATOM      9  C   UNL     1     -22.180 -62.579   0.573  1.00  0.00     0.000 C 
BRANCH   9  10
ATOM     10  C   UNL     1     -22.988 -63.089   1.776  1.00  0.00    -0.000 C 
BRANCH  10  11
ATOM     11  C   UNL     1     -23.451 -61.920   2.660  1.00  0.00    -0.000 C 
BRANCH  11  12
ATOM     12  C   UNL     1     -24.980 -61.779   2.702  1.00  0.00    -0.000 C 
BRANCH  12  13
ATOM     13  C   UNL     1     -25.452 -60.350   2.401  1.00  0.00    -0.003 C 
ATOM     14  C   UNL     1     -24.474 -59.320   2.960  1.00  0.00     0.004 C 
ENDBRANCH  12  13
ENDBRANCH  11  12
ENDBRANCH  10  11
ENDBRANCH   9  10
ENDBRANCH   1   9
TORSDOF 10
ENDMDL
MODEL 3
REMARK VINA RESULT:    -4.625      2.799      4.698
REMARK INTER + INTRA:          -8.145
REMARK INTER:                  -6.958
REMARK INTRA:                  -1.188
REMARK UNBOUND:                -0.817
REMARK SMILES CCCCCCCCCCCC(=O)[O-]
REMARK SMILES IDX 7 1 8 2 9 3 10 4 11 5 12 6 13 7 14 8 6 9 5 10 4 11 3 12 2 13
REMARK SMILES IDX 1 14
REMARK H PARENT
REMARK Flexibility Score: inf
ROOT
ATOM      1  C   UNL     1     -24.795 -62.365   2.838  1.00  0.00     0.000 C 
ENDROOT
BRANCH   1   2
ATOM      2  C   UNL     1     -23.594 -63.142   2.278  1.00  0.00     0.000 C 
BRANCH   2   3
ATOM      3  C   UNL     1     -22.503 -62.184   1.785  1.00  0.00     0.000 C 
BRANCH   3   4
ATOM      4  C   UNL     1     -23.115 -60.996   1.027  1.00  0.00     0.006 C 
BRANCH   4   5
ATOM      5  C   UNL     1     -22.061 -59.951   0.637  1.00  0.00     0.053 C 
BRANCH   5   6
ATOM      6  C   UNL     1     -22.084 -59.659  -0.831  1.00  0.00     0.041 C 
ATOM      7  O   UNL     1     -21.875 -60.580  -1.664  1.00  0.00    -0.550 OA
ATOM      8  O   UNL     1     -22.371 -58.377  -1.282  1.00  0.00    -0.550 OA
ENDBRANCH   5   6
ENDBRANCH   4   5
ENDBRANCH   3   4
ENDBRANCH   2   3
ENDBRANCH   1   2
BRANCH   1   9
ATOM      9  C   UNL     1     -25.406 -63.033   4.081  1.00  0.00     0.000 C 
BRANCH   9  10
ATOM     10  C   UNL     1     -25.138 -62.242   5.370  1.00  0.00    -0.000 C 
BRANCH  10  11
ATOM     11  C   UNL     1     -23.775 -62.619   5.971  1.00  0.00    -0.000 C 
BRANCH  11  12
ATOM     12  C   UNL     1     -22.678 -61.596   5.639  1.00  0.00    -0.000 C 
BRANCH  12  13
ATOM     13  C   UNL     1     -23.134 -60.146   5.858  1.00  0.00    -0.003 C 
ATOM     14  C   UNL     1     -23.045 -59.342   4.564  1.00  0.00     0.004 C 
ENDBRANCH  12  13
ENDBRANCH  11  12
ENDBRANCH  10  11
ENDBRANCH   9  10
ENDBRANCH   1   9
TORSDOF 10
ENDMDL
MODEL 4
REMARK VINA RESULT:    -4.621      1.634      2.805
REMARK INTER + INTRA:          -8.140
REMARK INTER:                  -6.587
REMARK INTRA:                  -1.553
REMARK UNBOUND:                -0.817
REMARK SMILES CCCCCCCCCCCC(=O)[O-]
REMARK SMILES IDX 7 1 8 2 9 3 10 4 11 5 12 6 13 7 14 8 6 9 5 10 4 11 3 12 2 13
REMARK SMILES IDX 1 14
REMARK H PARENT
REMARK Flexibility Score: inf
ROOT
ATOM      1  C   UNL     1     -22.158 -62.155   1.198  1.00  0.00     0.000 C 
ENDROOT
BRANCH   1   2
ATOM      2  C   UNL     1     -21.907 -60.790   0.539  1.00  0.00     0.000 C 
BRANCH   2   3
ATOM      3  C   UNL     1     -22.776 -60.618  -0.713  1.00  0.00     0.000 C 
BRANCH   3   4
ATOM      4  C   UNL     1     -23.509 -59.268  -0.694  1.00  0.00     0.006 C 
BRANCH   4   5
ATOM      5  C   UNL     1     -25.004 -59.414  -1.003  1.00  0.00     0.053 C 
BRANCH   5   6
ATOM      6  C   UNL     1     -25.355 -58.835  -2.339  1.00  0.00     0.041 C 
ATOM      7  O   UNL     1     -26.012 -59.514  -3.171  1.00  0.00    -0.550 OA
ATOM      8  O   UNL     1     -24.986 -57.533  -2.652  1.00  0.00    -0.550 OA
ENDBRANCH   5   6
ENDBRANCH   4   5
ENDBRANCH   3   4
ENDBRANCH   2   3
ENDBRANCH   1   2
BRANCH   1   9
ATOM      9  C   UNL     1     -22.858 -62.035   2.562  1.00  0.00     0.000 C 
BRANCH   9  10
ATOM     10  C   UNL     1     -24.379 -62.229   2.466  1.00  0.00    -0.000 C 
BRANCH  10  11
ATOM     11  C   UNL     1     -25.103 -60.874   2.419  1.00  0.00    -0.000 C 
BRANCH  11  12
ATOM     12  C   UNL     1     -24.519 -59.857   3.412  1.00  0.00    -0.000 C 
BRANCH  12  13
ATOM     13  C   UNL     1     -24.386 -58.451   2.810  1.00  0.00    -0.003 C 
ATOM     14  C   UNL     1     -22.928 -57.999   2.788  1.00  0.00     0.004 C 
ENDBRANCH  12  13
ENDBRANCH  11  12
ENDBRANCH  10  11
ENDBRANCH   9  10
ENDBRANCH   1   9
TORSDOF 10
ENDMDL
MODEL 5
REMARK VINA RESULT:    -4.610      1.598      2.840
REMARK INTER + INTRA:          -8.122
REMARK INTER:                  -6.673
REMARK INTRA:                  -1.450
REMARK UNBOUND:                -0.817
REMARK SMILES CCCCCCCCCCCC(=O)[O-]
REMARK SMILES IDX 7 1 8 2 9 3 10 4 11 5 12 6 13 7 14 8 6 9 5 10 4 11 3 12 2 13
REMARK SMILES IDX 1 14
REMARK H PARENT
REMARK Flexibility Score: inf
ROOT
ATOM      1  C   UNL     1     -22.709 -58.002   1.791  1.00  0.00     0.000 C 
ENDROOT
BRANCH   1   2
ATOM      2  C   UNL     1     -21.999 -59.060   0.933  1.00  0.00     0.000 C 
BRANCH   2   3
ATOM      3  C   UNL     1     -22.222 -58.794  -0.561  1.00  0.00     0.000 C 
BRANCH   3   4
ATOM      4  C   UNL     1     -23.067 -59.907  -1.198  1.00  0.00     0.006 C 
BRANCH   4   5
ATOM      5  C   UNL     1     -24.567 -59.721  -0.934  1.00  0.00     0.053 C 
BRANCH   5   6
ATOM      6  C   UNL     1     -25.240 -58.982  -2.049  1.00  0.00     0.041 C 
ATOM      7  O   UNL     1     -25.634 -59.600  -3.073  1.00  0.00    -0.550 OA
ATOM      8  O   UNL     1     -25.465 -57.615  -1.943  1.00  0.00    -0.550 OA
ENDBRANCH   5   6
ENDBRANCH   4   5
ENDBRANCH   3   4
ENDBRANCH   2   3
ENDBRANCH   1   2
BRANCH   1   9
ATOM      9  C   UNL     1     -23.631 -58.622   2.854  1.00  0.00     0.000 C 
BRANCH   9  10
ATOM     10  C   UNL     1     -23.310 -60.100   3.127  1.00  0.00    -0.000 C 
BRANCH  10  11
ATOM     11  C   UNL     1     -24.466 -61.004   2.672  1.00  0.00    -0.000 C 
BRANCH  11  12
ATOM     12  C   UNL     1     -23.977 -62.341   2.092  1.00  0.00    -0.000 C 
BRANCH  12  13
ATOM     13  C   UNL     1     -22.449 -62.412   1.974  1.00  0.00    -0.003 C 
ATOM     14  C   UNL     1     -22.027 -62.919   0.597  1.00  0.00     0.004 C 
ENDBRANCH  12  13
ENDBRANCH  11  12
ENDBRANCH  10  11
ENDBRANCH   9  10
ENDBRANCH   1   9
TORSDOF 10
ENDMDL
MODEL 6
REMARK VINA RESULT:    -4.534      2.144      4.134
REMARK INTER + INTRA:          -8.001
REMARK INTER:                  -6.795
REMARK INTRA:                  -1.207
REMARK UNBOUND:                -0.817
REMARK SMILES CCCCCCCCCCCC(=O)[O-]
REMARK SMILES IDX 7 1 8 2 9 3 10 4 11 5 12 6 13 7 14 8 6 9 5 10 4 11 3 12 2 13
REMARK SMILES IDX 1 14
REMARK H PARENT
REMARK Flexibility Score: inf
ROOT
ATOM      1  C   UNL     1     -23.720 -63.221   2.403  1.00  0.00     0.000 C 
ENDROOT
BRANCH   1   2
ATOM      2  C   UNL     1     -22.691 -62.129   2.078  1.00  0.00     0.000 C 
BRANCH   2   3
ATOM      3  C   UNL     1     -21.964 -62.434   0.761  1.00  0.00     0.000 C 
BRANCH   3   4
ATOM      4  C   UNL     1     -21.913 -61.191  -0.140  1.00  0.00     0.006 C 
BRANCH   4   5
ATOM      5  C   UNL     1     -23.157 -60.307   0.019  1.00  0.00     0.053 C 
BRANCH   5   6
ATOM      6  C   UNL     1     -23.320 -59.364  -1.134  1.00  0.00     0.041 C 
ATOM      7  O   UNL     1     -22.504 -58.421  -1.302  1.00  0.00    -0.550 OA
ATOM      8  O   UNL     1     -24.354 -59.548  -2.043  1.00  0.00    -0.550 OA
ENDBRANCH   5   6
ENDBRANCH   4   5
ENDBRANCH   3   4
ENDBRANCH   2   3
ENDBRANCH   1   2
BRANCH   1   9
ATOM      9  C   UNL     1     -24.991 -62.661   3.063  1.00  0.00     0.000 C 
BRANCH   9  10
ATOM     10  C   UNL     1     -24.774 -61.271   3.679  1.00  0.00    -0.000 C 
BRANCH  10  11
ATOM     11  C   UNL     1     -25.714 -60.236   3.041  1.00  0.00    -0.000 C 
BRANCH  11  12
ATOM     12  C   UNL     1     -25.014 -58.899   2.754  1.00  0.00    -0.000 C 
BRANCH  12  13
ATOM     13  C   UNL     1     -23.610 -58.821   3.369  1.00  0.00    -0.003 C 
ATOM     14  C   UNL     1     -22.784 -57.718   2.714  1.00  0.00     0.004 C 
ENDBRANCH  12  13
ENDBRANCH  11  12
ENDBRANCH  10  11
ENDBRANCH   9  10
ENDBRANCH   1   9
TORSDOF 10
ENDMDL
MODEL 7
REMARK VINA RESULT:    -4.509      1.172      2.399
REMARK INTER + INTRA:          -7.961
REMARK INTER:                  -7.309
REMARK INTRA:                  -0.652
REMARK UNBOUND:                -0.817
REMARK SMILES CCCCCCCCCCCC(=O)[O-]
REMARK SMILES IDX 7 1 8 2 9 3 10 4 11 5 12 6 13 7 14 8 6 9 5 10 4 11 3 12 2 13
REMARK SMILES IDX 1 14
REMARK H PARENT
REMARK Flexibility Score: inf
ROOT
ATOM      1  C   UNL     1     -22.034 -61.996   0.460  1.00  0.00     0.000 C 
ENDROOT
BRANCH   1   2
ATOM      2  C   UNL     1     -21.977 -60.462   0.407  1.00  0.00     0.000 C 
BRANCH   2   3
ATOM      3  C   UNL     1     -21.920 -59.965  -1.043  1.00  0.00     0.000 C 
BRANCH   3   4
ATOM      4  C   UNL     1     -23.053 -58.968  -1.329  1.00  0.00     0.006 C 
BRANCH   4   5
ATOM      5  C   UNL     1     -24.438 -59.570  -1.058  1.00  0.00     0.053 C 
BRANCH   5   6
ATOM      6  C   UNL     1     -25.466 -59.054  -2.017  1.00  0.00     0.041 C 
ATOM      7  O   UNL     1     -25.570 -59.558  -3.166  1.00  0.00    -0.550 OA
ATOM      8  O   UNL     1     -26.333 -58.039  -1.630  1.00  0.00    -0.550 OA
ENDBRANCH   5   6
ENDBRANCH   4   5
ENDBRANCH   3   4
ENDBRANCH   2   3
ENDBRANCH   1   2
BRANCH   1   9
ATOM      9  C   UNL     1     -22.775 -62.519   1.702  1.00  0.00     0.000 C 
BRANCH   9  10
ATOM     10  C   UNL     1     -23.979 -61.645   2.086  1.00  0.00    -0.000 C 
BRANCH  10  11
ATOM     11  C   UNL     1     -24.936 -62.408   3.015  1.00  0.00    -0.000 C 
BRANCH  11  12
ATOM     12  C   UNL     1     -24.427 -63.816   3.361  1.00  0.00    -0.000 C 
BRANCH  12  13
ATOM     13  C   UNL     1     -25.505 -64.691   4.017  1.00  0.00    -0.003 C 
ATOM     14  C   UNL     1     -25.548 -64.469   5.526  1.00  0.00     0.004 C 
ENDBRANCH  12  13
ENDBRANCH  11  12
ENDBRANCH  10  11
ENDBRANCH   9  10
ENDBRANCH   1   9
TORSDOF 10
ENDMDL
MODEL 8
REMARK VINA RESULT:    -4.502      1.376      2.267
REMARK INTER + INTRA:          -7.950
REMARK INTER:                  -6.610
REMARK INTRA:                  -1.341
REMARK UNBOUND:                -0.817
REMARK SMILES CCCCCCCCCCCC(=O)[O-]
REMARK SMILES IDX 7 1 8 2 9 3 10 4 11 5 12 6 13 7 14 8 6 9 5 10 4 11 3 12 2 13
REMARK SMILES IDX 1 14
REMARK H PARENT
REMARK Flexibility Score: inf
ROOT
ATOM      1  C   UNL     1     -21.884 -59.053   0.614  1.00  0.00     0.000 C 
ENDROOT
BRANCH   1   2
ATOM      2  C   UNL     1     -22.362 -59.073  -0.846  1.00  0.00     0.000 C 
BRANCH   2   3
ATOM      3  C   UNL     1     -23.456 -60.128  -1.051  1.00  0.00     0.000 C 
BRANCH   3   4
ATOM      4  C   UNL     1     -24.763 -59.479  -1.531  1.00  0.00     0.006 C 
BRANCH   4   5
ATOM      5  C   UNL     1     -24.633 -57.959  -1.690  1.00  0.00     0.053 C 
BRANCH   5   6
ATOM      6  C   UNL     1     -25.526 -57.434  -2.772  1.00  0.00     0.041 C 
ATOM      7  O   UNL     1     -26.594 -58.034  -3.059  1.00  0.00    -0.550 OA
ATOM      8  O   UNL     1     -25.195 -56.261  -3.440  1.00  0.00    -0.550 OA
ENDBRANCH   5   6
ENDBRANCH   4   5
ENDBRANCH   3   4
ENDBRANCH   2   3
ENDBRANCH   1   2
BRANCH   1   9
ATOM      9  C   UNL     1     -22.986 -58.617   1.593  1.00  0.00     0.000 C 
BRANCH   9  10
ATOM     10  C   UNL     1     -23.082 -59.532   2.823  1.00  0.00    -0.000 C 
BRANCH  10  11
ATOM     11  C   UNL     1     -24.407 -60.311   2.825  1.00  0.00    -0.000 C 
BRANCH  11  12
ATOM     12  C   UNL     1     -24.287 -61.685   2.149  1.00  0.00    -0.000 C 
BRANCH  12  13
ATOM     13  C   UNL     1     -22.917 -62.339   2.376  1.00  0.00    -0.003 C 
ATOM     14  C   UNL     1     -22.322 -62.836   1.061  1.00  0.00     0.004 C 
ENDBRANCH  12  13
ENDBRANCH  11  12
ENDBRANCH  10  11
ENDBRANCH   9  10
ENDBRANCH   1   9
TORSDOF 10
ENDMDL
MODEL 9
REMARK VINA RESULT:    -4.501      1.235      1.811
REMARK INTER + INTRA:          -7.949
REMARK INTER:                  -6.718
REMARK INTRA:                  -1.232
REMARK UNBOUND:                -0.817
REMARK SMILES CCCCCCCCCCCC(=O)[O-]
REMARK SMILES IDX 7 1 8 2 9 3 10 4 11 5 12 6 13 7 14 8 6 9 5 10 4 11 3 12 2 13
REMARK SMILES IDX 1 14
REMARK H PARENT
REMARK Flexibility Score: inf
ROOT
ATOM      1  C   UNL     1     -21.875 -59.634  -0.812  1.00  0.00     0.000 C 
ENDROOT
BRANCH   1   2
ATOM      2  C   UNL     1     -23.105 -58.770  -1.129  1.00  0.00     0.000 C 
BRANCH   2   3
ATOM      3  C   UNL     1     -24.358 -59.639  -1.296  1.00  0.00     0.000 C 
BRANCH   3   4
ATOM      4  C   UNL     1     -25.631 -58.780  -1.279  1.00  0.00     0.006 C 
BRANCH   4   5
ATOM      5  C   UNL     1     -25.584 -57.651  -2.317  1.00  0.00     0.053 C 
BRANCH   5   6
ATOM      6  C   UNL     1     -26.147 -58.084  -3.635  1.00  0.00     0.041 C 
ATOM      7  O   UNL     1     -26.731 -57.253  -4.378  1.00  0.00    -0.550 OA
ATOM      8  O   UNL     1     -25.996 -59.398  -4.060  1.00  0.00    -0.550 OA
ENDBRANCH   5   6
ENDBRANCH   4   5
ENDBRANCH   3   4
ENDBRANCH   2   3
ENDBRANCH   1   2
BRANCH   1   9
ATOM      9  C   UNL     1     -22.246 -61.077  -0.430  1.00  0.00     0.000 C 
BRANCH   9  10
ATOM     10  C   UNL     1     -22.035 -61.366   1.064  1.00  0.00    -0.000 C 
BRANCH  10  11
ATOM     11  C   UNL     1     -23.355 -61.780   1.734  1.00  0.00    -0.000 C 
BRANCH  11  12
ATOM     12  C   UNL     1     -24.119 -60.584   2.324  1.00  0.00    -0.000 C 
BRANCH  12  13
ATOM     13  C   UNL     1     -23.185 -59.517   2.912  1.00  0.00    -0.003 C 
ATOM     14  C   UNL     1     -23.548 -58.127   2.398  1.00  0.00     0.004 C 
ENDBRANCH  12  13
ENDBRANCH  11  12
ENDBRANCH  10  11
ENDBRANCH   9  10
ENDBRANCH   1   9
TORSDOF 10
ENDMDL
