MODEL 1
REMARK VINA RESULT:    -6.364      0.000      0.000
REMARK INTER + INTRA:          -7.988
REMARK INTER:                  -7.666
REMARK INTRA:                  -0.323
REMARK UNBOUND:                -0.323
REMARK SMILES O=c1c(O)c(-c2ccc(O)c(O)c2)oc2cc(O)cc(O)c12
REMARK SMILES IDX 5 1 3 2 2 3 1 4 22 5 20 6 19 7 17 8 16 9 15 10 14 11 6 12
REMARK SMILES IDX 7 13 8 14 9 15 13 16 11 17 10 18 12 20 4 22 21 24 18 26
REMARK H PARENT 10 19 12 21 4 23 21 25 18 27
REMARK Flexibility Score: inf
ROOT
ATOM      1  C   UNL     1     -16.736  14.551  -6.931  1.00  0.00     0.180 A 
ATOM      2  C   UNL     1     -18.005  13.964  -6.766  1.00  0.00     0.208 A 
ATOM      3  C   UNL     1     -18.423  12.986  -7.682  1.00  0.00     0.238 A 
ATOM      4  O   UNL     1     -19.553  12.444  -7.538  1.00  0.00    -0.285 OA
ATOM      5  C   UNL     1     -17.580  12.629  -8.754  1.00  0.00     0.111 A 
ATOM      6  C   UNL     1     -17.927  11.655  -9.722  1.00  0.00     0.134 A 
ATOM      7  C   UNL     1     -17.036  11.362 -10.765  1.00  0.00     0.093 A 
ATOM      8  C   UNL     1     -15.805  12.022 -10.857  1.00  0.00     0.123 A 
ATOM      9  C   UNL     1     -15.458  12.981  -9.905  1.00  0.00     0.094 A 
ATOM     10  C   UNL     1     -16.331  13.287  -8.857  1.00  0.00     0.146 A 
ATOM     11  O   UNL     1     -15.973  14.200  -7.961  1.00  0.00    -0.452 OA
ENDROOT
BRANCH   1  12
ATOM     12  C   UNL     1     -16.215  15.575  -5.995  1.00  0.00     0.025 A 
ATOM     13  C   UNL     1     -15.467  15.172  -4.878  1.00  0.00     0.016 A 
ATOM     14  C   UNL     1     -14.983  16.118  -3.971  1.00  0.00     0.051 A 
ATOM     15  C   UNL     1     -15.255  17.480  -4.160  1.00  0.00     0.157 A 
ATOM     16  C   UNL     1     -16.503  16.941  -6.170  1.00  0.00     0.062 A 
ATOM     17  C   UNL     1     -16.019  17.891  -5.259  1.00  0.00     0.158 A 
BRANCH  15  18
ATOM     18  O   UNL     1     -14.772  18.427  -3.259  1.00  0.00    -0.504 OA
ATOM     19  H   UNL     1     -14.652  19.398  -3.523  1.00  0.00     0.293 HD
ENDBRANCH  15  18
BRANCH  17  20
ATOM     20  O   UNL     1     -16.298  19.245  -5.437  1.00  0.00    -0.504 OA
ATOM     21  H   UNL     1     -15.576  19.951  -5.355  1.00  0.00     0.293 HD
ENDBRANCH  17  20
ENDBRANCH   1  12
BRANCH   2  22
ATOM     22  O   UNL     1     -18.842  14.371  -5.724  1.00  0.00    -0.502 OA
ATOM     23  H   UNL     1     -18.488  14.822  -4.888  1.00  0.00     0.293 HD
ENDBRANCH   2  22
BRANCH   6  24
ATOM     24  O   UNL     1     -19.148  10.982  -9.656  1.00  0.00    -0.507 OA
ATOM     25  H   UNL     1     -19.465  10.380 -10.407  1.00  0.00     0.293 HD
ENDBRANCH   6  24
BRANCH   8  26
ATOM     26  O   UNL     1     -14.920  11.732 -11.894  1.00  0.00    -0.508 OA
ATOM     27  H   UNL     1     -14.598  10.787 -12.065  1.00  0.00     0.293 HD
ENDBRANCH   8  26
TORSDOF 6
ENDMDL
MODEL 2
REMARK VINA RESULT:    -6.343      1.994      7.321
REMARK INTER + INTRA:          -7.964
REMARK INTER:                  -7.836
REMARK INTRA:                  -0.128
REMARK UNBOUND:                -0.323
REMARK SMILES O=c1c(O)c(-c2ccc(O)c(O)c2)oc2cc(O)cc(O)c12
REMARK SMILES IDX 5 1 3 2 2 3 1 4 22 5 20 6 19 7 17 8 16 9 15 10 14 11 6 12
REMARK SMILES IDX 7 13 8 14 9 15 13 16 11 17 10 18 12 20 4 22 21 24 18 26
REMARK H PARENT 10 19 12 21 4 23 21 25 18 27
REMARK Flexibility Score: inf
ROOT
ATOM      1  C   UNL     1     -16.350  14.679  -8.342  1.00  0.00     0.180 A 
ATOM      2  C   UNL     1     -15.036  15.143  -8.539  1.00  0.00     0.208 A 
ATOM      3  C   UNL     1     -14.416  15.878  -7.516  1.00  0.00     0.238 A 
ATOM      4  O   UNL     1     -13.234  16.290  -7.677  1.00  0.00    -0.285 OA
ATOM      5  C   UNL     1     -15.123  16.152  -6.328  1.00  0.00     0.111 A 
ATOM      6  C   UNL     1     -14.572  16.888  -5.251  1.00  0.00     0.134 A 
ATOM      7  C   UNL     1     -15.344  17.127  -4.104  1.00  0.00     0.093 A 
ATOM      8  C   UNL     1     -16.656  16.644  -4.015  1.00  0.00     0.123 A 
ATOM      9  C   UNL     1     -17.202  15.917  -5.073  1.00  0.00     0.094 A 
ATOM     10  C   UNL     1     -16.448  15.667  -6.224  1.00  0.00     0.146 A 
ATOM     11  O   UNL     1     -16.992  14.968  -7.214  1.00  0.00    -0.452 OA
ENDROOT
BRANCH   1  12
ATOM     12  C   UNL     1     -17.064  13.880  -9.365  1.00  0.00     0.025 A 
ATOM     13  C   UNL     1     -18.304  14.327  -9.846  1.00  0.00     0.016 A 
ATOM     14  C   UNL     1     -19.006  13.581 -10.797  1.00  0.00     0.051 A 
ATOM     15  C   UNL     1     -18.483  12.369 -11.268  1.00  0.00     0.157 A 
ATOM     16  C   UNL     1     -16.553  12.653  -9.825  1.00  0.00     0.062 A 
ATOM     17  C   UNL     1     -17.257  11.903 -10.778  1.00  0.00     0.158 A 
BRANCH  15  18
ATOM     18  O   UNL     1     -19.178  11.622 -12.217  1.00  0.00    -0.504 OA
ATOM     19  H   UNL     1     -20.013  11.981 -12.667  1.00  0.00     0.293 HD
ENDBRANCH  15  18
BRANCH  17  20
ATOM     20  O   UNL     1     -16.746  10.690 -11.238  1.00  0.00    -0.504 OA
ATOM     21  H   UNL     1     -15.949  10.248 -10.796  1.00  0.00     0.293 HD
ENDBRANCH  17  20
ENDBRANCH   1  12
BRANCH   2  22
ATOM     22  O   UNL     1     -14.374  14.900  -9.745  1.00  0.00    -0.502 OA
ATOM     23  H   UNL     1     -13.700  15.549 -10.135  1.00  0.00     0.293 HD
ENDBRANCH   2  22
BRANCH   6  24
ATOM     24  O   UNL     1     -13.269  17.383  -5.312  1.00  0.00    -0.507 OA
ATOM     25  H   UNL     1     -12.559  17.099  -4.646  1.00  0.00     0.293 HD
ENDBRANCH   6  24
BRANCH   8  26
ATOM     26  O   UNL     1     -17.423  16.882  -2.876  1.00  0.00    -0.508 OA
ATOM     27  H   UNL     1     -18.138  16.231  -2.574  1.00  0.00     0.293 HD
ENDBRANCH   8  26
TORSDOF 6
ENDMDL
MODEL 3
REMARK VINA RESULT:    -6.300      2.248      6.481
REMARK INTER + INTRA:          -7.912
REMARK INTER:                  -7.605
REMARK INTRA:                  -0.306
REMARK UNBOUND:                -0.323
REMARK SMILES O=c1c(O)c(-c2ccc(O)c(O)c2)oc2cc(O)cc(O)c12
REMARK SMILES IDX 5 1 3 2 2 3 1 4 22 5 20 6 19 7 17 8 16 9 15 10 14 11 6 12
REMARK SMILES IDX 7 13 8 14 9 15 13 16 11 17 10 18 12 20 4 22 21 24 18 26
REMARK H PARENT 10 19 12 21 4 23 21 25 18 27
REMARK Flexibility Score: inf
ROOT
ATOM      1  C   UNL     1     -17.549  13.585  -7.805  1.00  0.00     0.180 A 
ATOM      2  C   UNL     1     -17.720  14.214  -6.557  1.00  0.00     0.208 A 
ATOM      3  C   UNL     1     -16.844  15.249  -6.194  1.00  0.00     0.238 A 
ATOM      4  O   UNL     1     -16.994  15.827  -5.083  1.00  0.00    -0.285 OA
ATOM      5  C   UNL     1     -15.805  15.622  -7.071  1.00  0.00     0.111 A 
ATOM      6  C   UNL     1     -14.879  16.652  -6.779  1.00  0.00     0.134 A 
ATOM      7  C   UNL     1     -13.866  16.959  -7.701  1.00  0.00     0.093 A 
ATOM      8  C   UNL     1     -13.763  16.255  -8.907  1.00  0.00     0.123 A 
ATOM      9  C   UNL     1     -14.675  15.240  -9.199  1.00  0.00     0.094 A 
ATOM     10  C   UNL     1     -15.692  14.921  -8.294  1.00  0.00     0.146 A 
ATOM     11  O   UNL     1     -16.549  13.953  -8.600  1.00  0.00    -0.452 OA
ENDROOT
BRANCH   1  12
ATOM     12  C   UNL     1     -18.444  12.498  -8.268  1.00  0.00     0.025 A 
ATOM     13  C   UNL     1     -19.534  12.809  -9.096  1.00  0.00     0.016 A 
ATOM     14  C   UNL     1     -20.403  11.804  -9.528  1.00  0.00     0.051 A 
ATOM     15  C   UNL     1     -20.203  10.477  -9.126  1.00  0.00     0.157 A 
ATOM     16  C   UNL     1     -18.259  11.168  -7.850  1.00  0.00     0.062 A 
ATOM     17  C   UNL     1     -19.131  10.159  -8.282  1.00  0.00     0.158 A 
BRANCH  15  18
ATOM     18  O   UNL     1     -21.067   9.471  -9.556  1.00  0.00    -0.504 OA
ATOM     19  H   UNL     1     -21.847   9.669 -10.172  1.00  0.00     0.293 HD
ENDBRANCH  15  18
BRANCH  17  20
ATOM     20  O   UNL     1     -18.943   8.841  -7.873  1.00  0.00    -0.504 OA
ATOM     21  H   UNL     1     -18.364   8.610  -7.073  1.00  0.00     0.293 HD
ENDBRANCH  17  20
ENDBRANCH   1  12
BRANCH   2  22
ATOM     22  O   UNL     1     -18.727  13.791  -5.685  1.00  0.00    -0.502 OA
ATOM     23  H   UNL     1     -19.109  14.393  -4.965  1.00  0.00     0.293 HD
ENDBRANCH   2  22
BRANCH   6  24
ATOM     24  O   UNL     1     -14.955  17.370  -5.585  1.00  0.00    -0.507 OA
ATOM     25  H   UNL     1     -14.161  17.452  -4.961  1.00  0.00     0.293 HD
ENDBRANCH   6  24
BRANCH   8  26
ATOM     26  O   UNL     1     -12.757  16.559  -9.822  1.00  0.00    -0.508 OA
ATOM     27  H   UNL     1     -11.828  16.166  -9.737  1.00  0.00     0.293 HD
ENDBRANCH   8  26
TORSDOF 6
ENDMDL
MODEL 4
REMARK VINA RESULT:    -6.190      1.214      2.865
REMARK INTER + INTRA:          -7.780
REMARK INTER:                  -7.458
REMARK INTRA:                  -0.322
REMARK UNBOUND:                -0.323
REMARK SMILES O=c1c(O)c(-c2ccc(O)c(O)c2)oc2cc(O)cc(O)c12
REMARK SMILES IDX 5 1 3 2 2 3 1 4 22 5 20 6 19 7 17 8 16 9 15 10 14 11 6 12
REMARK SMILES IDX 7 13 8 14 9 15 13 16 11 17 10 18 12 20 4 22 21 24 18 26
REMARK H PARENT 10 19 12 21 4 23 21 25 18 27
REMARK Flexibility Score: inf
ROOT
ATOM      1  C   UNL     1     -16.418  14.589  -7.259  1.00  0.00     0.180 A 
ATOM      2  C   UNL     1     -15.605  14.325  -8.377  1.00  0.00     0.208 A 
ATOM      3  C   UNL     1     -16.005  13.335  -9.288  1.00  0.00     0.238 A 
ATOM      4  O   UNL     1     -15.289  13.097 -10.300  1.00  0.00    -0.285 OA
ATOM      5  C   UNL     1     -17.194  12.614  -9.056  1.00  0.00     0.111 A 
ATOM      6  C   UNL     1     -17.665  11.599  -9.923  1.00  0.00     0.134 A 
ATOM      7  C   UNL     1     -18.855  10.920  -9.618  1.00  0.00     0.093 A 
ATOM      8  C   UNL     1     -19.580  11.238  -8.463  1.00  0.00     0.123 A 
ATOM      9  C   UNL     1     -19.120  12.239  -7.607  1.00  0.00     0.094 A 
ATOM     10  C   UNL     1     -17.938  12.928  -7.894  1.00  0.00     0.146 A 
ATOM     11  O   UNL     1     -17.525  13.880  -7.064  1.00  0.00    -0.452 OA
ENDROOT
BRANCH   1  12
ATOM     12  C   UNL     1     -16.074  15.631  -6.264  1.00  0.00     0.025 A 
ATOM     13  C   UNL     1     -15.477  15.256  -5.050  1.00  0.00     0.016 A 
ATOM     14  C   UNL     1     -15.162  16.220  -4.089  1.00  0.00     0.051 A 
ATOM     15  C   UNL     1     -15.454  17.570  -4.321  1.00  0.00     0.157 A 
ATOM     16  C   UNL     1     -16.385  16.985  -6.485  1.00  0.00     0.062 A 
ATOM     17  C   UNL     1     -16.070  17.953  -5.520  1.00  0.00     0.158 A 
BRANCH  15  18
ATOM     18  O   UNL     1     -15.141  18.535  -3.366  1.00  0.00    -0.504 OA
ATOM     19  H   UNL     1     -15.745  19.331  -3.197  1.00  0.00     0.293 HD
ENDBRANCH  15  18
BRANCH  17  20
ATOM     20  O   UNL     1     -16.372  19.295  -5.742  1.00  0.00    -0.504 OA
ATOM     21  H   UNL     1     -16.644  19.633  -6.657  1.00  0.00     0.293 HD
ENDBRANCH  17  20
ENDBRANCH   1  12
BRANCH   2  22
ATOM     22  O   UNL     1     -14.406  15.020  -8.558  1.00  0.00    -0.502 OA
ATOM     23  H   UNL     1     -13.513  14.548  -8.645  1.00  0.00     0.293 HD
ENDBRANCH   2  22
BRANCH   6  24
ATOM     24  O   UNL     1     -16.963  11.259 -11.080  1.00  0.00    -0.507 OA
ATOM     25  H   UNL     1     -17.268  11.564 -11.998  1.00  0.00     0.293 HD
ENDBRANCH   6  24
BRANCH   8  26
ATOM     26  O   UNL     1     -20.761  10.564  -8.159  1.00  0.00    -0.508 OA
ATOM     27  H   UNL     1     -21.660  11.028  -8.195  1.00  0.00     0.293 HD
ENDBRANCH   8  26
TORSDOF 6
ENDMDL
MODEL 5
REMARK VINA RESULT:    -5.836      1.933      6.743
REMARK INTER + INTRA:          -7.353
REMARK INTER:                  -7.033
REMARK INTRA:                  -0.320
REMARK UNBOUND:                -0.323
REMARK SMILES O=c1c(O)c(-c2ccc(O)c(O)c2)oc2cc(O)cc(O)c12
REMARK SMILES IDX 5 1 3 2 2 3 1 4 22 5 20 6 19 7 17 8 16 9 15 10 14 11 6 12
REMARK SMILES IDX 7 13 8 14 9 15 13 16 11 17 10 18 12 20 4 22 21 24 18 26
REMARK H PARENT 10 19 12 21 4 23 21 25 18 27
REMARK Flexibility Score: inf
ROOT
ATOM      1  C   UNL     1     -17.355  14.378  -7.964  1.00  0.00     0.180 A 
ATOM      2  C   UNL     1     -18.116  15.383  -7.337  1.00  0.00     0.208 A 
ATOM      3  C   UNL     1     -17.501  16.198  -6.374  1.00  0.00     0.238 A 
ATOM      4  O   UNL     1     -18.170  17.108  -5.812  1.00  0.00    -0.285 OA
ATOM      5  C   UNL     1     -16.148  15.983  -6.041  1.00  0.00     0.111 A 
ATOM      6  C   UNL     1     -15.455  16.757  -5.079  1.00  0.00     0.134 A 
ATOM      7  C   UNL     1     -14.110  16.475  -4.796  1.00  0.00     0.093 A 
ATOM      8  C   UNL     1     -13.446  15.435  -5.457  1.00  0.00     0.123 A 
ATOM      9  C   UNL     1     -14.125  14.669  -6.406  1.00  0.00     0.094 A 
ATOM     10  C   UNL     1     -15.465  14.936  -6.703  1.00  0.00     0.146 A 
ATOM     11  O   UNL     1     -16.085  14.195  -7.615  1.00  0.00    -0.452 OA
ENDROOT
BRANCH   1  12
ATOM     12  C   UNL     1     -17.926  13.491  -9.004  1.00  0.00     0.025 A 
ATOM     13  C   UNL     1     -17.959  13.925 -10.339  1.00  0.00     0.016 A 
ATOM     14  C   UNL     1     -18.511  13.115 -11.334  1.00  0.00     0.051 A 
ATOM     15  C   UNL     1     -19.054  11.865 -11.005  1.00  0.00     0.157 A 
ATOM     16  C   UNL     1     -18.491  12.246  -8.675  1.00  0.00     0.062 A 
ATOM     17  C   UNL     1     -19.046  11.432  -9.673  1.00  0.00     0.158 A 
BRANCH  15  18
ATOM     18  O   UNL     1     -19.605  11.053 -11.994  1.00  0.00    -0.504 OA
ATOM     19  H   UNL     1     -19.442  10.052 -12.010  1.00  0.00     0.293 HD
ENDBRANCH  15  18
BRANCH  17  20
ATOM     20  O   UNL     1     -19.599  10.195  -9.347  1.00  0.00    -0.504 OA
ATOM     21  H   UNL     1     -19.272   9.337  -9.777  1.00  0.00     0.293 HD
ENDBRANCH  17  20
ENDBRANCH   1  12
BRANCH   2  22
ATOM     22  O   UNL     1     -19.468  15.543  -7.649  1.00  0.00    -0.502 OA
ATOM     23  H   UNL     1     -20.147  14.803  -7.518  1.00  0.00     0.293 HD
ENDBRANCH   2  22
BRANCH   6  24
ATOM     24  O   UNL     1     -16.091  17.800  -4.403  1.00  0.00    -0.507 OA
ATOM     25  H   UNL     1     -17.064  17.740  -4.126  1.00  0.00     0.293 HD
ENDBRANCH   6  24
BRANCH   8  26
ATOM     26  O   UNL     1     -12.111  15.154  -5.176  1.00  0.00    -0.508 OA
ATOM     27  H   UNL     1     -11.846  14.361  -4.603  1.00  0.00     0.293 HD
ENDBRANCH   8  26
TORSDOF 6
ENDMDL
MODEL 6
REMARK VINA RESULT:    -5.804      1.846      2.123
REMARK INTER + INTRA:          -7.314
REMARK INTER:                  -7.023
REMARK INTRA:                  -0.291
REMARK UNBOUND:                -0.323
REMARK SMILES O=c1c(O)c(-c2ccc(O)c(O)c2)oc2cc(O)cc(O)c12
REMARK SMILES IDX 5 1 3 2 2 3 1 4 22 5 20 6 19 7 17 8 16 9 15 10 14 11 6 12
REMARK SMILES IDX 7 13 8 14 9 15 13 16 11 17 10 18 12 20 4 22 21 24 18 26
REMARK H PARENT 10 19 12 21 4 23 21 25 18 27
REMARK Flexibility Score: inf
ROOT
ATOM      1  C   UNL     1     -16.823  14.202  -7.133  1.00  0.00     0.180 A 
ATOM      2  C   UNL     1     -17.713  13.441  -6.352  1.00  0.00     0.208 A 
ATOM      3  C   UNL     1     -18.724  12.709  -6.994  1.00  0.00     0.238 A 
ATOM      4  O   UNL     1     -19.521  12.015  -6.305  1.00  0.00    -0.285 OA
ATOM      5  C   UNL     1     -18.840  12.767  -8.398  1.00  0.00     0.111 A 
ATOM      6  C   UNL     1     -19.833  12.062  -9.122  1.00  0.00     0.134 A 
ATOM      7  C   UNL     1     -19.888  12.178 -10.519  1.00  0.00     0.093 A 
ATOM      8  C   UNL     1     -18.971  12.984 -11.205  1.00  0.00     0.123 A 
ATOM      9  C   UNL     1     -17.991  13.679 -10.496  1.00  0.00     0.094 A 
ATOM     10  C   UNL     1     -17.918  13.576  -9.103  1.00  0.00     0.146 A 
ATOM     11  O   UNL     1     -16.971  14.244  -8.454  1.00  0.00    -0.452 OA
ENDROOT
BRANCH   1  12
ATOM     12  C   UNL     1     -15.719  14.985  -6.530  1.00  0.00     0.025 A 
ATOM     13  C   UNL     1     -14.421  14.450  -6.518  1.00  0.00     0.016 A 
ATOM     14  C   UNL     1     -13.368  15.160  -5.937  1.00  0.00     0.051 A 
ATOM     15  C   UNL     1     -13.601  16.410  -5.347  1.00  0.00     0.157 A 
ATOM     16  C   UNL     1     -15.952  16.230  -5.919  1.00  0.00     0.062 A 
ATOM     17  C   UNL     1     -14.896  16.943  -5.335  1.00  0.00     0.158 A 
BRANCH  15  18
ATOM     18  O   UNL     1     -12.553  17.123  -4.768  1.00  0.00    -0.504 OA
ATOM     19  H   UNL     1     -11.841  17.573  -5.333  1.00  0.00     0.293 HD
ENDBRANCH  15  18
BRANCH  17  20
ATOM     20  O   UNL     1     -15.126  18.180  -4.735  1.00  0.00    -0.504 OA
ATOM     21  H   UNL     1     -15.944  18.347  -4.160  1.00  0.00     0.293 HD
ENDBRANCH  17  20
ENDBRANCH   1  12
BRANCH   2  22
ATOM     22  O   UNL     1     -17.607  13.440  -4.958  1.00  0.00    -0.502 OA
ATOM     23  H   UNL     1     -16.815  13.847  -4.474  1.00  0.00     0.293 HD
ENDBRANCH   2  22
BRANCH   6  24
ATOM     24  O   UNL     1     -20.761  11.252  -8.466  1.00  0.00    -0.507 OA
ATOM     25  H   UNL     1     -20.859  11.264  -7.457  1.00  0.00     0.293 HD
ENDBRANCH   6  24
BRANCH   8  26
ATOM     26  O   UNL     1     -19.027  13.100 -12.592  1.00  0.00    -0.508 OA
ATOM     27  H   UNL     1     -18.428  13.744 -13.094  1.00  0.00     0.293 HD
ENDBRANCH   8  26
TORSDOF 6
ENDMDL
MODEL 7
REMARK VINA RESULT:    -5.777     15.653     19.166
REMARK INTER + INTRA:          -7.281
REMARK INTER:                  -7.186
REMARK INTRA:                  -0.096
REMARK UNBOUND:                -0.323
REMARK SMILES O=c1c(O)c(-c2ccc(O)c(O)c2)oc2cc(O)cc(O)c12
REMARK SMILES IDX 5 1 3 2 2 3 1 4 22 5 20 6 19 7 17 8 16 9 15 10 14 11 6 12
REMARK SMILES IDX 7 13 8 14 9 15 13 16 11 17 10 18 12 20 4 22 21 24 18 26
REMARK H PARENT 10 19 12 21 4 23 21 25 18 27
REMARK Flexibility Score: inf
ROOT
ATOM      1  C   UNL     1      -5.271   5.087 -18.221  1.00  0.00     0.180 A 
ATOM      2  C   UNL     1      -3.921   4.688 -18.235  1.00  0.00     0.208 A 
ATOM      3  C   UNL     1      -3.233   4.581 -17.016  1.00  0.00     0.238 A 
ATOM      4  O   UNL     1      -2.025   4.213 -17.015  1.00  0.00    -0.285 OA
ATOM      5  C   UNL     1      -3.896   4.893 -15.812  1.00  0.00     0.111 A 
ATOM      6  C   UNL     1      -3.274   4.813 -14.542  1.00  0.00     0.134 A 
ATOM      7  C   UNL     1      -4.000   5.149 -13.390  1.00  0.00     0.093 A 
ATOM      8  C   UNL     1      -5.335   5.562 -13.483  1.00  0.00     0.123 A 
ATOM      9  C   UNL     1      -5.952   5.640 -14.732  1.00  0.00     0.094 A 
ATOM     10  C   UNL     1      -5.246   5.308 -15.892  1.00  0.00     0.146 A 
ATOM     11  O   UNL     1      -5.860   5.386 -17.068  1.00  0.00    -0.452 OA
ENDROOT
BRANCH   1  12
ATOM     12  C   UNL     1      -6.069   5.204 -19.464  1.00  0.00     0.025 A 
ATOM     13  C   UNL     1      -5.669   6.111 -20.457  1.00  0.00     0.016 A 
ATOM     14  C   UNL     1      -6.417   6.253 -21.629  1.00  0.00     0.051 A 
ATOM     15  C   UNL     1      -7.586   5.502 -21.815  1.00  0.00     0.157 A 
ATOM     16  C   UNL     1      -7.254   4.468 -19.645  1.00  0.00     0.062 A 
ATOM     17  C   UNL     1      -8.006   4.611 -20.820  1.00  0.00     0.158 A 
BRANCH  15  18
ATOM     18  O   UNL     1      -8.335   5.640 -22.982  1.00  0.00    -0.504 OA
ATOM     19  H   UNL     1      -8.555   4.843 -23.569  1.00  0.00     0.293 HD
ENDBRANCH  15  18
BRANCH  17  20
ATOM     20  O   UNL     1      -9.176   3.875 -21.002  1.00  0.00    -0.504 OA
ATOM     21  H   UNL     1      -9.381   3.413 -21.880  1.00  0.00     0.293 HD
ENDBRANCH  17  20
ENDBRANCH   1  12
BRANCH   2  22
ATOM     22  O   UNL     1      -3.272   4.432 -19.446  1.00  0.00    -0.502 OA
ATOM     23  H   UNL     1      -3.566   3.694 -20.074  1.00  0.00     0.293 HD
ENDBRANCH   2  22
BRANCH   6  24
ATOM     24  O   UNL     1      -1.945   4.407 -14.418  1.00  0.00    -0.507 OA
ATOM     25  H   UNL     1      -1.696   3.524 -13.986  1.00  0.00     0.293 HD
ENDBRANCH   6  24
BRANCH   8  26
ATOM     26  O   UNL     1      -6.056   5.897 -12.339  1.00  0.00    -0.508 OA
ATOM     27  H   UNL     1      -7.049   6.092 -12.377  1.00  0.00     0.293 HD
ENDBRANCH   8  26
TORSDOF 6
ENDMDL
MODEL 8
REMARK VINA RESULT:    -5.766     15.643     18.516
REMARK INTER + INTRA:          -7.269
REMARK INTER:                  -7.101
REMARK INTRA:                  -0.167
REMARK UNBOUND:                -0.323
REMARK SMILES O=c1c(O)c(-c2ccc(O)c(O)c2)oc2cc(O)cc(O)c12
REMARK SMILES IDX 5 1 3 2 2 3 1 4 22 5 20 6 19 7 17 8 16 9 15 10 14 11 6 12
REMARK SMILES IDX 7 13 8 14 9 15 13 16 11 17 10 18 12 20 4 22 21 24 18 26
REMARK H PARENT 10 19 12 21 4 23 21 25 18 27
REMARK Flexibility Score: inf
ROOT
ATOM      1  C   UNL     1      -4.910   5.116 -17.626  1.00  0.00     0.180 A 
ATOM      2  C   UNL     1      -3.831   5.548 -18.420  1.00  0.00     0.208 A 
ATOM      3  C   UNL     1      -4.011   5.657 -19.808  1.00  0.00     0.238 A 
ATOM      4  O   UNL     1      -3.055   6.053 -20.529  1.00  0.00    -0.285 OA
ATOM      5  C   UNL     1      -5.254   5.312 -20.378  1.00  0.00     0.111 A 
ATOM      6  C   UNL     1      -5.516   5.389 -21.768  1.00  0.00     0.134 A 
ATOM      7  C   UNL     1      -6.777   5.020 -22.260  1.00  0.00     0.093 A 
ATOM      8  C   UNL     1      -7.779   4.576 -21.388  1.00  0.00     0.123 A 
ATOM      9  C   UNL     1      -7.526   4.499 -20.019  1.00  0.00     0.094 A 
ATOM     10  C   UNL     1      -6.276   4.864 -19.509  1.00  0.00     0.146 A 
ATOM     11  O   UNL     1      -6.064   4.786 -18.200  1.00  0.00    -0.452 OA
ENDROOT
BRANCH   1  12
ATOM     12  C   UNL     1      -4.805   4.996 -16.153  1.00  0.00     0.025 A 
ATOM     13  C   UNL     1      -3.956   4.025 -15.600  1.00  0.00     0.016 A 
ATOM     14  C   UNL     1      -3.855   3.879 -14.214  1.00  0.00     0.051 A 
ATOM     15  C   UNL     1      -4.615   4.693 -13.362  1.00  0.00     0.157 A 
ATOM     16  C   UNL     1      -5.581   5.796 -15.296  1.00  0.00     0.062 A 
ATOM     17  C   UNL     1      -5.481   5.650 -13.905  1.00  0.00     0.158 A 
BRANCH  15  18
ATOM     18  O   UNL     1      -4.517   4.552 -11.979  1.00  0.00    -0.504 OA
ATOM     19  H   UNL     1      -3.680   4.182 -11.542  1.00  0.00     0.293 HD
ENDBRANCH  15  18
BRANCH  17  20
ATOM     20  O   UNL     1      -6.245   6.448 -13.055  1.00  0.00    -0.504 OA
ATOM     21  H   UNL     1      -7.203   6.212 -12.824  1.00  0.00     0.293 HD
ENDBRANCH  17  20
ENDBRANCH   1  12
BRANCH   2  22
ATOM     22  O   UNL     1      -2.595   5.836 -17.836  1.00  0.00    -0.502 OA
ATOM     23  H   UNL     1      -2.075   5.151 -17.301  1.00  0.00     0.293 HD
ENDBRANCH   2  22
BRANCH   6  24
ATOM     24  O   UNL     1      -4.536   5.827 -22.660  1.00  0.00    -0.507 OA
ATOM     25  H   UNL     1      -4.380   6.813 -22.838  1.00  0.00     0.293 HD
ENDBRANCH   6  24
BRANCH   8  26
ATOM     26  O   UNL     1      -9.032   4.208 -21.877  1.00  0.00    -0.508 OA
ATOM     27  H   UNL     1      -9.389   3.267 -21.762  1.00  0.00     0.293 HD
ENDBRANCH   8  26
TORSDOF 6
ENDMDL
MODEL 9
REMARK VINA RESULT:    -5.610      1.927      6.966
REMARK INTER + INTRA:          -7.080
REMARK INTER:                  -6.813
REMARK INTRA:                  -0.267
REMARK UNBOUND:                -0.323
REMARK SMILES O=c1c(O)c(-c2ccc(O)c(O)c2)oc2cc(O)cc(O)c12
REMARK SMILES IDX 5 1 3 2 2 3 1 4 22 5 20 6 19 7 17 8 16 9 15 10 14 11 6 12
REMARK SMILES IDX 7 13 8 14 9 15 13 16 11 17 10 18 12 20 4 22 21 24 18 26
REMARK H PARENT 10 19 12 21 4 23 21 25 18 27
REMARK Flexibility Score: inf
ROOT
ATOM      1  C   UNL     1     -17.004  13.655  -7.905  1.00  0.00     0.180 A 
ATOM      2  C   UNL     1     -16.043  14.135  -8.815  1.00  0.00     0.208 A 
ATOM      3  C   UNL     1     -15.123  15.103  -8.382  1.00  0.00     0.238 A 
ATOM      4  O   UNL     1     -14.251  15.533  -9.186  1.00  0.00    -0.285 OA
ATOM      5  C   UNL     1     -15.193  15.588  -7.061  1.00  0.00     0.111 A 
ATOM      6  C   UNL     1     -14.307  16.566  -6.547  1.00  0.00     0.134 A 
ATOM      7  C   UNL     1     -14.447  17.005  -5.222  1.00  0.00     0.093 A 
ATOM      8  C   UNL     1     -15.455  16.484  -4.402  1.00  0.00     0.123 A 
ATOM      9  C   UNL     1     -16.330  15.519  -4.903  1.00  0.00     0.094 A 
ATOM     10  C   UNL     1     -16.206  15.068  -6.221  1.00  0.00     0.146 A 
ATOM     11  O   UNL     1     -17.048  14.145  -6.670  1.00  0.00    -0.452 OA
ENDROOT
BRANCH   1  12
ATOM     12  C   UNL     1     -17.994  12.619  -8.281  1.00  0.00     0.025 A 
ATOM     13  C   UNL     1     -17.791  11.291  -7.874  1.00  0.00     0.016 A 
ATOM     14  C   UNL     1     -18.701  10.293  -8.233  1.00  0.00     0.051 A 
ATOM     15  C   UNL     1     -19.819  10.608  -9.017  1.00  0.00     0.157 A 
ATOM     16  C   UNL     1     -19.106  12.926  -9.085  1.00  0.00     0.062 A 
ATOM     17  C   UNL     1     -20.019  11.925  -9.447  1.00  0.00     0.158 A 
BRANCH  15  18
ATOM     18  O   UNL     1     -20.730   9.616  -9.376  1.00  0.00    -0.504 OA
ATOM     19  H   UNL     1     -20.616   8.656  -9.073  1.00  0.00     0.293 HD
ENDBRANCH  15  18
BRANCH  17  20
ATOM     20  O   UNL     1     -21.125  12.232 -10.239  1.00  0.00    -0.504 OA
ATOM     21  H   UNL     1     -21.916  11.602 -10.313  1.00  0.00     0.293 HD
ENDBRANCH  17  20
ENDBRANCH   1  12
BRANCH   2  22
ATOM     22  O   UNL     1     -16.026  13.673 -10.134  1.00  0.00    -0.502 OA
ATOM     23  H   UNL     1     -16.364  14.232 -10.909  1.00  0.00     0.293 HD
ENDBRANCH   2  22
BRANCH   6  24
ATOM     24  O   UNL     1     -13.293  17.105  -7.341  1.00  0.00    -0.507 OA
ATOM     25  H   UNL     1     -12.384  16.663  -7.416  1.00  0.00     0.293 HD
ENDBRANCH   6  24
BRANCH   8  26
ATOM     26  O   UNL     1     -15.595  16.920  -3.085  1.00  0.00    -0.508 OA
ATOM     27  H   UNL     1     -15.619  17.905  -2.854  1.00  0.00     0.293 HD
ENDBRANCH   8  26
TORSDOF 6
ENDMDL
