MODEL 1
REMARK VINA RESULT:    -4.355      0.000      0.000
REMARK INTER + INTRA:          -7.789
REMARK INTER:                  -6.646
REMARK INTRA:                  -1.142
REMARK UNBOUND:                -1.142
REMARK SMILES CCCCCCCCCCC(=O)[O-]
REMARK SMILES IDX 7 1 8 2 9 3 10 4 11 5 12 6 13 7 6 8 5 9 4 10 3 11 2 12 1 13
REMARK H PARENT
REMARK Flexibility Score: inf
ROOT
ATOM      1  C   UNL     1      62.054  28.628  12.999  1.00  0.00     0.000 C 
ENDROOT
BRANCH   1   2
ATOM      2  C   UNL     1      60.583  28.607  13.439  1.00  0.00     0.000 C 
BRANCH   2   3
ATOM      3  C   UNL     1      59.630  28.190  12.307  1.00  0.00     0.006 C 
BRANCH   3   4
ATOM      4  C   UNL     1      59.586  29.215  11.166  1.00  0.00     0.053 C 
BRANCH   4   5
ATOM      5  C   UNL     1      59.968  28.569   9.871  1.00  0.00     0.041 C 
ATOM      6  O   UNL     1      59.082  28.084   9.119  1.00  0.00    -0.550 OA
ATOM      7  O   UNL     1      61.306  28.459   9.518  1.00  0.00    -0.550 OA
ENDBRANCH   4   5
ENDBRANCH   3   4
ENDBRANCH   2   3
ENDBRANCH   1   2
BRANCH   1   8
ATOM      8  C   UNL     1      62.741  29.929  13.442  1.00  0.00     0.000 C 
BRANCH   8   9
ATOM      9  C   UNL     1      62.683  31.026  12.367  1.00  0.00    -0.000 C 
BRANCH   9  10
ATOM     10  C   UNL     1      62.050  32.329  12.886  1.00  0.00    -0.000 C 
BRANCH  10  11
ATOM     11  C   UNL     1      60.513  32.304  12.826  1.00  0.00    -0.000 C 
BRANCH  11  12
ATOM     12  C   UNL     1      59.864  32.356  14.217  1.00  0.00    -0.003 C 
ATOM     13  C   UNL     1      60.758  33.090  15.212  1.00  0.00     0.004 C 
ENDBRANCH  11  12
ENDBRANCH  10  11
ENDBRANCH   9  10
ENDBRANCH   8   9
ENDBRANCH   1   8
TORSDOF 9
ENDMDL
MODEL 2
REMARK VINA RESULT:    -4.279     13.434     14.749
REMARK INTER + INTRA:          -7.672
REMARK INTER:                  -6.344
REMARK INTRA:                  -1.329
REMARK UNBOUND:                -1.142
REMARK SMILES CCCCCCCCCCC(=O)[O-]
REMARK SMILES IDX 7 1 8 2 9 3 10 4 11 5 12 6 13 7 6 8 5 9 4 10 3 11 2 12 1 13
REMARK H PARENT
REMARK Flexibility Score: inf
ROOT
ATOM      1  C   UNL     1      62.232  29.507  25.241  1.00  0.00     0.000 C 
ENDROOT
BRANCH   1   2
ATOM      2  C   UNL     1      61.358  28.286  24.914  1.00  0.00     0.000 C 
BRANCH   2   3
ATOM      3  C   UNL     1      61.429  27.198  25.997  1.00  0.00     0.006 C 
BRANCH   3   4
ATOM      4  C   UNL     1      62.177  27.663  27.254  1.00  0.00     0.053 C 
BRANCH   4   5
ATOM      5  C   UNL     1      61.228  27.803  28.402  1.00  0.00     0.041 C 
ATOM      6  O   UNL     1      60.865  26.788  29.052  1.00  0.00    -0.550 OA
ATOM      7  O   UNL     1      60.707  29.050  28.724  1.00  0.00    -0.550 OA
ENDBRANCH   4   5
ENDBRANCH   3   4
ENDBRANCH   2   3
ENDBRANCH   1   2
BRANCH   1   8
ATOM      8  C   UNL     1      63.467  29.558  24.330  1.00  0.00     0.000 C 
BRANCH   8   9
ATOM      9  C   UNL     1      64.780  29.710  25.115  1.00  0.00    -0.000 C 
BRANCH   9  10
ATOM     10  C   UNL     1      65.390  28.356  25.515  1.00  0.00    -0.000 C 
BRANCH  10  11
ATOM     11  C   UNL     1      65.463  27.370  24.337  1.00  0.00    -0.000 C 
BRANCH  11  12
ATOM     12  C   UNL     1      64.884  25.990  24.682  1.00  0.00    -0.003 C 
ATOM     13  C   UNL     1      63.773  25.602  23.710  1.00  0.00     0.004 C 
ENDBRANCH  11  12
ENDBRANCH  10  11
ENDBRANCH   9  10
ENDBRANCH   8   9
ENDBRANCH   1   8
TORSDOF 9
ENDMDL
MODEL 3
REMARK VINA RESULT:    -4.223      0.948      1.721
REMARK INTER + INTRA:          -7.587
REMARK INTER:                  -6.641
REMARK INTRA:                  -0.945
REMARK UNBOUND:                -1.142
REMARK SMILES CCCCCCCCCCC(=O)[O-]
REMARK SMILES IDX 7 1 8 2 9 3 10 4 11 5 12 6 13 7 6 8 5 9 4 10 3 11 2 12 1 13
REMARK H PARENT
REMARK Flexibility Score: inf
ROOT
ATOM      1  C   UNL     1      63.078  29.919  13.372  1.00  0.00     0.000 C 
ENDROOT
BRANCH   1   2
ATOM      2  C   UNL     1      62.292  28.600  13.325  1.00  0.00     0.000 C 
BRANCH   2   3
ATOM      3  C   UNL     1      60.781  28.801  13.525  1.00  0.00     0.006 C 
BRANCH   3   4
ATOM      4  C   UNL     1      59.940  27.987  12.531  1.00  0.00     0.053 C 
BRANCH   4   5
ATOM      5  C   UNL     1      60.116  28.518  11.144  1.00  0.00     0.041 C 
ATOM      6  O   UNL     1      60.807  27.883  10.305  1.00  0.00    -0.550 OA
ATOM      7  O   UNL     1      59.555  29.739  10.791  1.00  0.00    -0.550 OA
ENDBRANCH   4   5
ENDBRANCH   3   4
ENDBRANCH   2   3
ENDBRANCH   1   2
BRANCH   1   8
ATOM      8  C   UNL     1      62.660  30.848  12.222  1.00  0.00     0.000 C 
BRANCH   8   9
ATOM      9  C   UNL     1      62.226  32.239  12.710  1.00  0.00    -0.000 C 
BRANCH   9  10
ATOM     10  C   UNL     1      60.700  32.359  12.873  1.00  0.00    -0.000 C 
BRANCH  10  11
ATOM     11  C   UNL     1      60.300  33.091  14.165  1.00  0.00    -0.000 C 
BRANCH  11  12
ATOM     12  C   UNL     1      61.158  32.679  15.371  1.00  0.00    -0.003 C 
ATOM     13  C   UNL     1      61.238  33.804  16.398  1.00  0.00     0.004 C 
ENDBRANCH  11  12
ENDBRANCH  10  11
ENDBRANCH   9  10
ENDBRANCH   8   9
ENDBRANCH   1   8
TORSDOF 9
ENDMDL
MODEL 4
REMARK VINA RESULT:    -4.215     12.765     14.318
REMARK INTER + INTRA:          -7.576
REMARK INTER:                  -6.266
REMARK INTRA:                  -1.310
REMARK UNBOUND:                -1.142
REMARK SMILES CCCCCCCCCCC(=O)[O-]
REMARK SMILES IDX 7 1 8 2 9 3 10 4 11 5 12 6 13 7 6 8 5 9 4 10 3 11 2 12 1 13
REMARK H PARENT
REMARK Flexibility Score: inf
ROOT
ATOM      1  C   UNL     1      63.950  30.058  25.999  1.00  0.00     0.000 C 
ENDROOT
BRANCH   1   2
ATOM      2  C   UNL     1      65.023  28.982  26.226  1.00  0.00     0.000 C 
BRANCH   2   3
ATOM      3  C   UNL     1      65.189  28.045  25.019  1.00  0.00     0.006 C 
BRANCH   3   4
ATOM      4  C   UNL     1      64.816  26.592  25.344  1.00  0.00     0.053 C 
BRANCH   4   5
ATOM      5  C   UNL     1      64.619  25.811  24.083  1.00  0.00     0.041 C 
ATOM      6  O   UNL     1      65.565  25.684  23.262  1.00  0.00    -0.550 OA
ATOM      7  O   UNL     1      63.377  25.263  23.791  1.00  0.00    -0.550 OA
ENDBRANCH   4   5
ENDBRANCH   3   4
ENDBRANCH   2   3
ENDBRANCH   1   2
BRANCH   1   8
ATOM      8  C   UNL     1      63.019  30.169  27.216  1.00  0.00     0.000 C 
BRANCH   8   9
ATOM      9  C   UNL     1      62.979  28.881  28.053  1.00  0.00    -0.000 C 
BRANCH   9  10
ATOM     10  C   UNL     1      61.611  28.179  27.995  1.00  0.00    -0.000 C 
BRANCH  10  11
ATOM     11  C   UNL     1      61.539  27.115  26.887  1.00  0.00    -0.000 C 
BRANCH  11  12
ATOM     12  C   UNL     1      60.587  27.510  25.747  1.00  0.00    -0.003 C 
ATOM     13  C   UNL     1      61.363  28.026  24.539  1.00  0.00     0.004 C 
ENDBRANCH  11  12
ENDBRANCH  10  11
ENDBRANCH   9  10
ENDBRANCH   8   9
ENDBRANCH   1   8
TORSDOF 9
ENDMDL
MODEL 5
REMARK VINA RESULT:    -4.209      2.862      4.948
REMARK INTER + INTRA:          -7.566
REMARK INTER:                  -6.328
REMARK INTRA:                  -1.237
REMARK UNBOUND:                -1.142
REMARK SMILES CCCCCCCCCCC(=O)[O-]
REMARK SMILES IDX 7 1 8 2 9 3 10 4 11 5 12 6 13 7 6 8 5 9 4 10 3 11 2 12 1 13
REMARK H PARENT
REMARK Flexibility Score: inf
ROOT
ATOM      1  C   UNL     1      62.246  29.687  13.803  1.00  0.00     0.000 C 
ENDROOT
BRANCH   1   2
ATOM      2  C   UNL     1      62.718  30.665  12.716  1.00  0.00     0.000 C 
BRANCH   2   3
ATOM      3  C   UNL     1      62.170  32.087  12.920  1.00  0.00     0.006 C 
BRANCH   3   4
ATOM      4  C   UNL     1      60.660  32.181  12.664  1.00  0.00     0.053 C 
BRANCH   4   5
ATOM      5  C   UNL     1      59.932  32.459  13.941  1.00  0.00     0.041 C 
ATOM      6  O   UNL     1      58.969  31.728  14.294  1.00  0.00    -0.550 OA
ATOM      7  O   UNL     1      60.285  33.554  14.718  1.00  0.00    -0.550 OA
ENDBRANCH   4   5
ENDBRANCH   3   4
ENDBRANCH   2   3
ENDBRANCH   1   2
BRANCH   1   8
ATOM      8  C   UNL     1      61.676  28.405  13.177  1.00  0.00     0.000 C 
BRANCH   8   9
ATOM      9  C   UNL     1      60.147  28.448  13.025  1.00  0.00    -0.000 C 
BRANCH   9  10
ATOM     10  C   UNL     1      59.703  28.658  11.567  1.00  0.00    -0.000 C 
BRANCH  10  11
ATOM     11  C   UNL     1      60.781  28.236  10.555  1.00  0.00    -0.000 C 
BRANCH  11  12
ATOM     12  C   UNL     1      61.189  29.380   9.613  1.00  0.00    -0.003 C 
ATOM     13  C   UNL     1      62.620  29.198   9.117  1.00  0.00     0.004 C 
ENDBRANCH  11  12
ENDBRANCH  10  11
ENDBRANCH   9  10
ENDBRANCH   8   9
ENDBRANCH   1   8
TORSDOF 9
ENDMDL
MODEL 6
REMARK VINA RESULT:    -4.160      2.852      4.754
REMARK INTER + INTRA:          -7.491
REMARK INTER:                  -6.277
REMARK INTRA:                  -1.214
REMARK UNBOUND:                -1.142
REMARK SMILES CCCCCCCCCCC(=O)[O-]
REMARK SMILES IDX 7 1 8 2 9 3 10 4 11 5 12 6 13 7 6 8 5 9 4 10 3 11 2 12 1 13
REMARK H PARENT
REMARK Flexibility Score: inf
ROOT
ATOM      1  C   UNL     1      63.333  30.862  11.039  1.00  0.00     0.000 C 
ENDROOT
BRANCH   1   2
ATOM      2  C   UNL     1      63.182  30.954  12.566  1.00  0.00     0.000 C 
BRANCH   2   3
ATOM      3  C   UNL     1      62.440  32.224  13.013  1.00  0.00     0.006 C 
BRANCH   3   4
ATOM      4  C   UNL     1      60.946  32.189  12.663  1.00  0.00     0.053 C 
BRANCH   4   5
ATOM      5  C   UNL     1      60.121  32.495  13.874  1.00  0.00     0.041 C 
ATOM      6  O   UNL     1      60.402  33.484  14.599  1.00  0.00    -0.550 OA
ATOM      7  O   UNL     1      59.070  31.659  14.227  1.00  0.00    -0.550 OA
ENDBRANCH   4   5
ENDBRANCH   3   4
ENDBRANCH   2   3
ENDBRANCH   1   2
BRANCH   1   8
ATOM      8  C   UNL     1      63.309  29.398  10.574  1.00  0.00     0.000 C 
BRANCH   8   9
ATOM      9  C   UNL     1      62.133  29.093   9.632  1.00  0.00    -0.000 C 
BRANCH   9  10
ATOM     10  C   UNL     1      61.028  28.268  10.315  1.00  0.00    -0.000 C 
BRANCH  10  11
ATOM     11  C   UNL     1      59.933  29.148  10.939  1.00  0.00    -0.000 C 
BRANCH  11  12
ATOM     12  C   UNL     1      59.503  28.661  12.331  1.00  0.00    -0.003 C 
ATOM     13  C   UNL     1      60.714  28.286  13.180  1.00  0.00     0.004 C 
ENDBRANCH  11  12
ENDBRANCH  10  11
ENDBRANCH   9  10
ENDBRANCH   8   9
ENDBRANCH   1   8
TORSDOF 9
ENDMDL
MODEL 7
REMARK VINA RESULT:    -4.108      1.885      2.441
REMARK INTER + INTRA:          -7.412
REMARK INTER:                  -6.234
REMARK INTRA:                  -1.177
REMARK UNBOUND:                -1.142
REMARK SMILES CCCCCCCCCCC(=O)[O-]
REMARK SMILES IDX 7 1 8 2 9 3 10 4 11 5 12 6 13 7 6 8 5 9 4 10 3 11 2 12 1 13
REMARK H PARENT
REMARK Flexibility Score: inf
ROOT
ATOM      1  C   UNL     1      63.033  29.000  11.142  1.00  0.00     0.000 C 
ENDROOT
BRANCH   1   2
ATOM      2  C   UNL     1      61.872  29.435  10.235  1.00  0.00     0.000 C 
BRANCH   2   3
ATOM      3  C   UNL     1      60.619  28.564  10.414  1.00  0.00     0.006 C 
BRANCH   3   4
ATOM      4  C   UNL     1      59.602  29.185  11.382  1.00  0.00     0.053 C 
BRANCH   4   5
ATOM      5  C   UNL     1      59.594  28.439  12.678  1.00  0.00     0.041 C 
ATOM      6  O   UNL     1      60.562  28.547  13.477  1.00  0.00    -0.550 OA
ATOM      7  O   UNL     1      58.541  27.587  12.984  1.00  0.00    -0.550 OA
ENDBRANCH   4   5
ENDBRANCH   3   4
ENDBRANCH   2   3
ENDBRANCH   1   2
BRANCH   1   8
ATOM      8  C   UNL     1      63.512  30.167  12.018  1.00  0.00     0.000 C 
BRANCH   8   9
ATOM      9  C   UNL     1      62.668  31.438  11.829  1.00  0.00    -0.000 C 
BRANCH   9  10
ATOM     10  C   UNL     1      62.025  31.921  13.141  1.00  0.00    -0.000 C 
BRANCH  10  11
ATOM     11  C   UNL     1      60.594  32.445  12.940  1.00  0.00    -0.000 C 
BRANCH  11  12
ATOM     12  C   UNL     1      59.633  31.984  14.046  1.00  0.00    -0.003 C 
ATOM     13  C   UNL     1      60.381  31.720  15.349  1.00  0.00     0.004 C 
ENDBRANCH  11  12
ENDBRANCH  10  11
ENDBRANCH   9  10
ENDBRANCH   8   9
ENDBRANCH   1   8
TORSDOF 9
ENDMDL
MODEL 8
REMARK VINA RESULT:    -4.089      1.227      2.235
REMARK INTER + INTRA:          -7.382
REMARK INTER:                  -6.317
REMARK INTRA:                  -1.066
REMARK UNBOUND:                -1.142
REMARK SMILES CCCCCCCCCCC(=O)[O-]
REMARK SMILES IDX 7 1 8 2 9 3 10 4 11 5 12 6 13 7 6 8 5 9 4 10 3 11 2 12 1 13
REMARK H PARENT
REMARK Flexibility Score: inf
ROOT
ATOM      1  C   UNL     1      61.624  29.208  13.578  1.00  0.00     0.000 C 
ENDROOT
BRANCH   1   2
ATOM      2  C   UNL     1      60.445  28.263  13.304  1.00  0.00     0.000 C 
BRANCH   2   3
ATOM      3  C   UNL     1      59.672  28.631  12.027  1.00  0.00     0.006 C 
BRANCH   3   4
ATOM      4  C   UNL     1      60.493  29.511  11.074  1.00  0.00     0.053 C 
BRANCH   4   5
ATOM      5  C   UNL     1      61.221  28.662  10.080  1.00  0.00     0.041 C 
ATOM      6  O   UNL     1      60.585  27.874   9.332  1.00  0.00    -0.550 OA
ATOM      7  O   UNL     1      62.608  28.705  10.014  1.00  0.00    -0.550 OA
ENDBRANCH   4   5
ENDBRANCH   3   4
ENDBRANCH   2   3
ENDBRANCH   1   2
BRANCH   1   8
ATOM      8  C   UNL     1      61.323  30.129  14.771  1.00  0.00     0.000 C 
BRANCH   8   9
ATOM      9  C   UNL     1      60.491  31.360  14.376  1.00  0.00    -0.000 C 
BRANCH   9  10
ATOM     10  C   UNL     1      61.275  32.344  13.491  1.00  0.00    -0.000 C 
BRANCH  10  11
ATOM     11  C   UNL     1      62.641  32.718  14.090  1.00  0.00    -0.000 C 
BRANCH  11  12
ATOM     12  C   UNL     1      63.751  32.793  13.030  1.00  0.00    -0.003 C 
ATOM     13  C   UNL     1      63.455  31.863  11.858  1.00  0.00     0.004 C 
ENDBRANCH  11  12
ENDBRANCH  10  11
ENDBRANCH   9  10
ENDBRANCH   8   9
ENDBRANCH   1   8
TORSDOF 9
ENDMDL
MODEL 9
REMARK VINA RESULT:    -4.082     12.647     14.112
REMARK INTER + INTRA:          -7.373
REMARK INTER:                  -6.338
REMARK INTRA:                  -1.034
REMARK UNBOUND:                -1.142
REMARK SMILES CCCCCCCCCCC(=O)[O-]
REMARK SMILES IDX 7 1 8 2 9 3 10 4 11 5 12 6 13 7 6 8 5 9 4 10 3 11 2 12 1 13
REMARK H PARENT
REMARK Flexibility Score: inf
ROOT
ATOM      1  C   UNL     1      62.245  29.019  24.669  1.00  0.00     0.000 C 
ENDROOT
BRANCH   1   2
ATOM      2  C   UNL     1      63.309  28.609  23.640  1.00  0.00     0.000 C 
BRANCH   2   3
ATOM      3  C   UNL     1      64.696  28.401  24.270  1.00  0.00     0.006 C 
BRANCH   3   4
ATOM      4  C   UNL     1      64.797  27.084  25.052  1.00  0.00     0.053 C 
BRANCH   4   5
ATOM      5  C   UNL     1      64.545  25.920  24.147  1.00  0.00     0.041 C 
ATOM      6  O   UNL     1      65.402  25.589  23.286  1.00  0.00    -0.550 OA
ATOM      7  O   UNL     1      63.342  25.231  24.220  1.00  0.00    -0.550 OA
ENDBRANCH   4   5
ENDBRANCH   3   4
ENDBRANCH   2   3
ENDBRANCH   1   2
BRANCH   1   8
ATOM      8  C   UNL     1      61.174  27.928  24.815  1.00  0.00     0.000 C 
BRANCH   8   9
ATOM      9  C   UNL     1      60.769  27.683  26.277  1.00  0.00    -0.000 C 
BRANCH   9  10
ATOM     10  C   UNL     1      61.912  27.087  27.116  1.00  0.00    -0.000 C 
BRANCH  10  11
ATOM     11  C   UNL     1      62.243  27.936  28.354  1.00  0.00    -0.000 C 
BRANCH  11  12
ATOM     12  C   UNL     1      61.660  29.356  28.272  1.00  0.00    -0.003 C 
ATOM     13  C   UNL     1      62.710  30.402  28.635  1.00  0.00     0.004 C 
ENDBRANCH  11  12
ENDBRANCH  10  11
ENDBRANCH   9  10
ENDBRANCH   8   9
ENDBRANCH   1   8
TORSDOF 9
ENDMDL
