MODEL 1
REMARK VINA RESULT:    -4.788      0.000      0.000
REMARK INTER + INTRA:         -10.465
REMARK INTER:                  -8.706
REMARK INTRA:                  -1.760
REMARK UNBOUND:                -1.760
REMARK SMILES CCCCCCCCCCCCCCCC(=O)[O-]
REMARK SMILES IDX 9 1 10 2 11 3 12 4 13 5 14 6 15 7 16 8 17 9 18 10 8 11 7 12
REMARK SMILES IDX 6 13 5 14 4 15 3 16 2 17 1 18
REMARK H PARENT
REMARK Flexibility Score: inf
ROOT
ATOM      1  C   UNL     1      17.220 -33.728  19.039  1.00  0.00     0.000 C 
ENDROOT
BRANCH   1   2
ATOM      2  C   UNL     1      18.456 -33.770  19.949  1.00  0.00     0.000 C 
BRANCH   2   3
ATOM      3  C   UNL     1      18.827 -32.387  20.510  1.00  0.00     0.000 C 
BRANCH   3   4
ATOM      4  C   UNL     1      17.672 -31.372  20.507  1.00  0.00     0.000 C 
BRANCH   4   5
ATOM      5  C   UNL     1      17.875 -30.235  21.531  1.00  0.00     0.000 C 
BRANCH   5   6
ATOM      6  C   UNL     1      19.135 -29.394  21.245  1.00  0.00     0.006 C 
BRANCH   6   7
ATOM      7  C   UNL     1      18.828 -28.060  20.532  1.00  0.00     0.053 C 
BRANCH   7   8
ATOM      8  C   UNL     1      19.854 -27.007  20.840  1.00  0.00     0.041 C 
ATOM      9  O   UNL     1      20.710 -27.203  21.739  1.00  0.00    -0.550 OA
ATOM     10  O   UNL     1      19.894 -25.831  20.096  1.00  0.00    -0.550 OA
ENDBRANCH   7   8
ENDBRANCH   6   7
ENDBRANCH   5   6
ENDBRANCH   4   5
ENDBRANCH   3   4
ENDBRANCH   2   3
ENDBRANCH   1   2
BRANCH   1  11
ATOM     11  C   UNL     1      16.185 -34.774  19.479  1.00  0.00     0.000 C 
BRANCH  11  12
ATOM     12  C   UNL     1      14.978 -34.154  20.200  1.00  0.00    -0.000 C 
BRANCH  12  13
ATOM     13  C   UNL     1      15.212 -33.998  21.711  1.00  0.00    -0.000 C 
BRANCH  13  14
ATOM     14  C   UNL     1      14.580 -32.705  22.243  1.00  0.00    -0.000 C 
BRANCH  14  15
ATOM     15  C   UNL     1      13.905 -31.927  21.103  1.00  0.00    -0.000 C 
BRANCH  15  16
ATOM     16  C   UNL     1      14.123 -30.410  21.206  1.00  0.00    -0.000 C 
BRANCH  16  17
ATOM     17  C   UNL     1      14.151 -29.913  22.659  1.00  0.00    -0.003 C 
ATOM     18  C   UNL     1      12.749 -29.543  23.140  1.00  0.00     0.004 C 
ENDBRANCH  16  17
ENDBRANCH  15  16
ENDBRANCH  14  15
ENDBRANCH  13  14
ENDBRANCH  12  13
ENDBRANCH  11  12
ENDBRANCH   1  11
TORSDOF 14
ENDMDL
MODEL 2
REMARK VINA RESULT:    -4.778      3.187      4.510
REMARK INTER + INTRA:         -10.447
REMARK INTER:                  -8.224
REMARK INTRA:                  -2.223
REMARK UNBOUND:                -1.760
REMARK SMILES CCCCCCCCCCCCCCCC(=O)[O-]
REMARK SMILES IDX 9 1 10 2 11 3 12 4 13 5 14 6 15 7 16 8 17 9 18 10 8 11 7 12
REMARK SMILES IDX 6 13 5 14 4 15 3 16 2 17 1 18
REMARK H PARENT
REMARK Flexibility Score: inf
ROOT
ATOM      1  C   UNL     1      18.651 -34.069  19.884  1.00  0.00     0.000 C 
ENDROOT
BRANCH   1   2
ATOM      2  C   UNL     1      19.127 -32.655  20.244  1.00  0.00     0.000 C 
BRANCH   2   3
ATOM      3  C   UNL     1      18.287 -32.012  21.360  1.00  0.00     0.000 C 
BRANCH   3   4
ATOM      4  C   UNL     1      17.322 -30.916  20.875  1.00  0.00     0.000 C 
BRANCH   4   5
ATOM      5  C   UNL     1      17.040 -29.851  21.956  1.00  0.00     0.000 C 
BRANCH   5   6
ATOM      6  C   UNL     1      15.729 -30.114  22.725  1.00  0.00     0.006 C 
BRANCH   6   7
ATOM      7  C   UNL     1      14.470 -29.662  21.955  1.00  0.00     0.053 C 
BRANCH   7   8
ATOM      8  C   UNL     1      13.211 -29.928  22.729  1.00  0.00     0.041 C 
ATOM      9  O   UNL     1      12.873 -29.161  23.666  1.00  0.00    -0.550 OA
ATOM     10  O   UNL     1      12.387 -30.992  22.378  1.00  0.00    -0.550 OA
ENDBRANCH   7   8
ENDBRANCH   6   7
ENDBRANCH   5   6
ENDBRANCH   4   5
ENDBRANCH   3   4
ENDBRANCH   2   3
ENDBRANCH   1   2
BRANCH   1  11
ATOM     11  C   UNL     1      17.422 -34.012  18.965  1.00  0.00     0.000 C 
BRANCH  11  12
ATOM     12  C   UNL     1      16.216 -34.780  19.529  1.00  0.00    -0.000 C 
BRANCH  12  13
ATOM     13  C   UNL     1      14.923 -33.951  19.494  1.00  0.00    -0.000 C 
BRANCH  13  14
ATOM     14  C   UNL     1      14.609 -33.349  20.871  1.00  0.00    -0.000 C 
BRANCH  14  15
ATOM     15  C   UNL     1      15.414 -34.063  21.967  1.00  0.00    -0.000 C 
BRANCH  15  16
ATOM     16  C   UNL     1      15.033 -33.602  23.382  1.00  0.00    -0.000 C 
BRANCH  16  17
ATOM     17  C   UNL     1      16.106 -33.949  24.426  1.00  0.00    -0.003 C 
ATOM     18  C   UNL     1      17.106 -34.960  23.870  1.00  0.00     0.004 C 
ENDBRANCH  16  17
ENDBRANCH  15  16
ENDBRANCH  14  15
ENDBRANCH  13  14
ENDBRANCH  12  13
ENDBRANCH  11  12
ENDBRANCH   1  11
TORSDOF 14
ENDMDL
MODEL 3
REMARK VINA RESULT:    -4.745      3.462      5.547
REMARK INTER + INTRA:         -10.389
REMARK INTER:                  -8.681
REMARK INTRA:                  -1.707
REMARK UNBOUND:                -1.760
REMARK SMILES CCCCCCCCCCCCCCCC(=O)[O-]
REMARK SMILES IDX 9 1 10 2 11 3 12 4 13 5 14 6 15 7 16 8 17 9 18 10 8 11 7 12
REMARK SMILES IDX 6 13 5 14 4 15 3 16 2 17 1 18
REMARK H PARENT
REMARK Flexibility Score: inf
ROOT
ATOM      1  C   UNL     1      16.988 -29.672  21.657  1.00  0.00     0.000 C 
ENDROOT
BRANCH   1   2
ATOM      2  C   UNL     1      17.230 -31.104  21.158  1.00  0.00     0.000 C 
BRANCH   2   3
ATOM      3  C   UNL     1      17.864 -32.006  22.230  1.00  0.00     0.000 C 
BRANCH   3   4
ATOM      4  C   UNL     1      16.858 -32.889  22.990  1.00  0.00     0.000 C 
BRANCH   4   5
ATOM      5  C   UNL     1      16.424 -34.129  22.180  1.00  0.00     0.000 C 
BRANCH   5   6
ATOM      6  C   UNL     1      15.001 -33.997  21.604  1.00  0.00     0.006 C 
BRANCH   6   7
ATOM      7  C   UNL     1      14.978 -33.847  20.067  1.00  0.00     0.053 C 
BRANCH   7   8
ATOM      8  C   UNL     1      16.141 -34.539  19.416  1.00  0.00     0.041 C 
ATOM      9  O   UNL     1      17.094 -33.865  18.948  1.00  0.00    -0.550 OA
ATOM     10  O   UNL     1      16.194 -35.928  19.375  1.00  0.00    -0.550 OA
ENDBRANCH   7   8
ENDBRANCH   6   7
ENDBRANCH   5   6
ENDBRANCH   4   5
ENDBRANCH   3   4
ENDBRANCH   2   3
ENDBRANCH   1   2
BRANCH   1  11
ATOM     11  C   UNL     1      15.591 -29.543  22.281  1.00  0.00     0.000 C 
BRANCH  11  12
ATOM     12  C   UNL     1      14.497 -30.228  21.447  1.00  0.00    -0.000 C 
BRANCH  12  13
ATOM     13  C   UNL     1      13.288 -30.651  22.297  1.00  0.00    -0.000 C 
BRANCH  13  14
ATOM     14  C   UNL     1      13.032 -29.654  23.435  1.00  0.00    -0.000 C 
BRANCH  14  15
ATOM     15  C   UNL     1      11.789 -28.801  23.136  1.00  0.00    -0.000 C 
BRANCH  15  16
ATOM     16  C   UNL     1      11.807 -27.448  23.862  1.00  0.00    -0.000 C 
BRANCH  16  17
ATOM     17  C   UNL     1      13.230 -26.957  24.164  1.00  0.00    -0.003 C 
ATOM     18  C   UNL     1      13.499 -25.607  23.501  1.00  0.00     0.004 C 
ENDBRANCH  16  17
ENDBRANCH  15  16
ENDBRANCH  14  15
ENDBRANCH  13  14
ENDBRANCH  12  13
ENDBRANCH  11  12
ENDBRANCH   1  11
TORSDOF 14
ENDMDL
MODEL 4
REMARK VINA RESULT:    -4.718      3.203      5.459
REMARK INTER + INTRA:         -10.340
REMARK INTER:                  -8.925
REMARK INTRA:                  -1.414
REMARK UNBOUND:                -1.760
REMARK SMILES CCCCCCCCCCCCCCCC(=O)[O-]
REMARK SMILES IDX 9 1 10 2 11 3 12 4 13 5 14 6 15 7 16 8 17 9 18 10 8 11 7 12
REMARK SMILES IDX 6 13 5 14 4 15 3 16 2 17 1 18
REMARK H PARENT
REMARK Flexibility Score: inf
ROOT
ATOM      1  C   UNL     1      15.120 -34.184  19.793  1.00  0.00     0.000 C 
ENDROOT
BRANCH   1   2
ATOM      2  C   UNL     1      14.997 -34.118  21.321  1.00  0.00     0.000 C 
BRANCH   2   3
ATOM      3  C   UNL     1      14.606 -32.719  21.826  1.00  0.00     0.000 C 
BRANCH   3   4
ATOM      4  C   UNL     1      14.589 -32.581  23.358  1.00  0.00     0.000 C 
BRANCH   4   5
ATOM      5  C   UNL     1      13.482 -31.628  23.858  1.00  0.00     0.000 C 
BRANCH   5   6
ATOM      6  C   UNL     1      13.049 -30.605  22.789  1.00  0.00     0.006 C 
BRANCH   6   7
ATOM      7  C   UNL     1      13.434 -29.153  23.146  1.00  0.00     0.053 C 
BRANCH   7   8
ATOM      8  C   UNL     1      12.254 -28.358  23.625  1.00  0.00     0.041 C 
ATOM      9  O   UNL     1      11.118 -28.549  23.121  1.00  0.00    -0.550 OA
ATOM     10  O   UNL     1      12.402 -27.444  24.664  1.00  0.00    -0.550 OA
ENDBRANCH   7   8
ENDBRANCH   6   7
ENDBRANCH   5   6
ENDBRANCH   4   5
ENDBRANCH   3   4
ENDBRANCH   2   3
ENDBRANCH   1   2
BRANCH   1  11
ATOM     11  C   UNL     1      16.414 -34.903  19.382  1.00  0.00     0.000 C 
BRANCH  11  12
ATOM     12  C   UNL     1      17.469 -33.950  18.798  1.00  0.00    -0.000 C 
BRANCH  12  13
ATOM     13  C   UNL     1      18.738 -33.878  19.662  1.00  0.00    -0.000 C 
BRANCH  13  14
ATOM     14  C   UNL     1      18.514 -33.014  20.909  1.00  0.00    -0.000 C 
BRANCH  14  15
ATOM     15  C   UNL     1      17.820 -31.695  20.535  1.00  0.00    -0.000 C 
BRANCH  15  16
ATOM     16  C   UNL     1      17.947 -30.623  21.628  1.00  0.00    -0.000 C 
BRANCH  16  17
ATOM     17  C   UNL     1      17.605 -29.215  21.118  1.00  0.00    -0.003 C 
ATOM     18  C   UNL     1      18.865 -28.366  20.966  1.00  0.00     0.004 C 
ENDBRANCH  16  17
ENDBRANCH  15  16
ENDBRANCH  14  15
ENDBRANCH  13  14
ENDBRANCH  12  13
ENDBRANCH  11  12
ENDBRANCH   1  11
TORSDOF 14
ENDMDL
MODEL 5
REMARK VINA RESULT:    -4.715      3.969      5.959
REMARK INTER + INTRA:         -10.334
REMARK INTER:                  -8.272
REMARK INTRA:                  -2.063
REMARK UNBOUND:                -1.760
REMARK SMILES CCCCCCCCCCCCCCCC(=O)[O-]
REMARK SMILES IDX 9 1 10 2 11 3 12 4 13 5 14 6 15 7 16 8 17 9 18 10 8 11 7 12
REMARK SMILES IDX 6 13 5 14 4 15 3 16 2 17 1 18
REMARK H PARENT
REMARK Flexibility Score: inf
ROOT
ATOM      1  C   UNL     1      16.604 -31.945  23.873  1.00  0.00     0.000 C 
ENDROOT
BRANCH   1   2
ATOM      2  C   UNL     1      16.940 -33.408  24.191  1.00  0.00     0.000 C 
BRANCH   2   3
ATOM      3  C   UNL     1      16.347 -34.390  23.166  1.00  0.00     0.000 C 
BRANCH   3   4
ATOM      4  C   UNL     1      15.040 -33.910  22.513  1.00  0.00     0.000 C 
BRANCH   4   5
ATOM      5  C   UNL     1      15.062 -34.037  20.974  1.00  0.00     0.000 C 
BRANCH   5   6
ATOM      6  C   UNL     1      16.464 -34.364  20.423  1.00  0.00     0.006 C 
BRANCH   6   7
ATOM      7  C   UNL     1      16.443 -35.406  19.284  1.00  0.00     0.053 C 
BRANCH   7   8
ATOM      8  C   UNL     1      17.234 -36.635  19.629  1.00  0.00     0.041 C 
ATOM      9  O   UNL     1      17.582 -37.436  18.724  1.00  0.00    -0.550 OA
ATOM     10  O   UNL     1      17.630 -36.865  20.943  1.00  0.00    -0.550 OA
ENDBRANCH   7   8
ENDBRANCH   6   7
ENDBRANCH   5   6
ENDBRANCH   4   5
ENDBRANCH   3   4
ENDBRANCH   2   3
ENDBRANCH   1   2
BRANCH   1  11
ATOM     11  C   UNL     1      17.692 -31.316  22.990  1.00  0.00     0.000 C 
BRANCH  11  12
ATOM     12  C   UNL     1      17.178 -30.915  21.599  1.00  0.00    -0.000 C 
BRANCH  12  13
ATOM     13  C   UNL     1      16.838 -29.419  21.507  1.00  0.00    -0.000 C 
BRANCH  13  14
ATOM     14  C   UNL     1      15.384 -29.152  21.920  1.00  0.00    -0.000 C 
BRANCH  14  15
ATOM     15  C   UNL     1      14.440 -30.170  21.260  1.00  0.00    -0.000 C 
BRANCH  15  16
ATOM     16  C   UNL     1      13.276 -30.582  22.174  1.00  0.00    -0.000 C 
BRANCH  16  17
ATOM     17  C   UNL     1      13.255 -29.798  23.495  1.00  0.00    -0.003 C 
ATOM     18  C   UNL     1      12.133 -28.762  23.500  1.00  0.00     0.004 C 
ENDBRANCH  16  17
ENDBRANCH  15  16
ENDBRANCH  14  15
ENDBRANCH  13  14
ENDBRANCH  12  13
ENDBRANCH  11  12
ENDBRANCH   1  11
TORSDOF 14
ENDMDL
MODEL 6
REMARK VINA RESULT:    -4.712      3.388      5.910
REMARK INTER + INTRA:         -10.328
REMARK INTER:                  -8.357
REMARK INTRA:                  -1.971
REMARK UNBOUND:                -1.760
REMARK SMILES CCCCCCCCCCCCCCCC(=O)[O-]
REMARK SMILES IDX 9 1 10 2 11 3 12 4 13 5 14 6 15 7 16 8 17 9 18 10 8 11 7 12
REMARK SMILES IDX 6 13 5 14 4 15 3 16 2 17 1 18
REMARK H PARENT
REMARK Flexibility Score: inf
ROOT
ATOM      1  C   UNL     1      16.603 -34.116  23.396  1.00  0.00     0.000 C 
ENDROOT
BRANCH   1   2
ATOM      2  C   UNL     1      15.328 -34.011  22.547  1.00  0.00     0.000 C 
BRANCH   2   3
ATOM      3  C   UNL     1      15.171 -32.632  21.882  1.00  0.00     0.000 C 
BRANCH   3   4
ATOM      4  C   UNL     1      14.192 -32.611  20.695  1.00  0.00     0.000 C 
BRANCH   4   5
ATOM      5  C   UNL     1      13.155 -31.472  20.799  1.00  0.00     0.000 C 
BRANCH   5   6
ATOM      6  C   UNL     1      13.658 -30.283  21.642  1.00  0.00     0.006 C 
BRANCH   6   7
ATOM      7  C   UNL     1      12.898 -30.116  22.975  1.00  0.00     0.053 C 
BRANCH   7   8
ATOM      8  C   UNL     1      12.498 -28.690  23.221  1.00  0.00     0.041 C 
ATOM      9  O   UNL     1      11.282 -28.370  23.244  1.00  0.00    -0.550 OA
ATOM     10  O   UNL     1      13.468 -27.726  23.476  1.00  0.00    -0.550 OA
ENDBRANCH   7   8
ENDBRANCH   6   7
ENDBRANCH   5   6
ENDBRANCH   4   5
ENDBRANCH   3   4
ENDBRANCH   2   3
ENDBRANCH   1   2
BRANCH   1  11
ATOM     11  C   UNL     1      17.437 -35.334  22.974  1.00  0.00     0.000 C 
BRANCH  11  12
ATOM     12  C   UNL     1      18.668 -34.955  22.135  1.00  0.00    -0.000 C 
BRANCH  12  13
ATOM     13  C   UNL     1      18.866 -33.434  22.037  1.00  0.00    -0.000 C 
BRANCH  13  14
ATOM     14  C   UNL     1      18.689 -32.941  20.594  1.00  0.00    -0.000 C 
BRANCH  14  15
ATOM     15  C   UNL     1      18.538 -34.130  19.633  1.00  0.00    -0.000 C 
BRANCH  15  16
ATOM     16  C   UNL     1      17.182 -34.144  18.911  1.00  0.00    -0.000 C 
BRANCH  16  17
ATOM     17  C   UNL     1      16.293 -35.320  19.345  1.00  0.00    -0.003 C 
ATOM     18  C   UNL     1      17.040 -36.646  19.225  1.00  0.00     0.004 C 
ENDBRANCH  16  17
ENDBRANCH  15  16
ENDBRANCH  14  15
ENDBRANCH  13  14
ENDBRANCH  12  13
ENDBRANCH  11  12
ENDBRANCH   1  11
TORSDOF 14
ENDMDL
MODEL 7
REMARK VINA RESULT:    -4.704      2.961      5.072
REMARK INTER + INTRA:         -10.314
REMARK INTER:                  -7.757
REMARK INTRA:                  -2.556
REMARK UNBOUND:                -1.760
REMARK SMILES CCCCCCCCCCCCCCCC(=O)[O-]
REMARK SMILES IDX 9 1 10 2 11 3 12 4 13 5 14 6 15 7 16 8 17 9 18 10 8 11 7 12
REMARK SMILES IDX 6 13 5 14 4 15 3 16 2 17 1 18
REMARK H PARENT
REMARK Flexibility Score: inf
ROOT
ATOM      1  C   UNL     1      17.555 -35.353  19.357  1.00  0.00     0.000 C 
ENDROOT
BRANCH   1   2
ATOM      2  C   UNL     1      16.386 -34.384  19.131  1.00  0.00     0.000 C 
BRANCH   2   3
ATOM      3  C   UNL     1      15.219 -34.624  20.103  1.00  0.00     0.000 C 
BRANCH   3   4
ATOM      4  C   UNL     1      14.818 -33.389  20.928  1.00  0.00     0.000 C 
BRANCH   4   5
ATOM      5  C   UNL     1      15.075 -33.573  22.439  1.00  0.00     0.000 C 
BRANCH   5   6
ATOM      6  C   UNL     1      15.024 -32.244  23.219  1.00  0.00     0.006 C 
BRANCH   6   7
ATOM      7  C   UNL     1      13.606 -31.637  23.294  1.00  0.00     0.053 C 
BRANCH   7   8
ATOM      8  C   UNL     1      13.627 -30.141  23.169  1.00  0.00     0.041 C 
ATOM      9  O   UNL     1      14.400 -29.586  22.347  1.00  0.00    -0.550 OA
ATOM     10  O   UNL     1      12.754 -29.365  23.925  1.00  0.00    -0.550 OA
ENDBRANCH   7   8
ENDBRANCH   6   7
ENDBRANCH   5   6
ENDBRANCH   4   5
ENDBRANCH   3   4
ENDBRANCH   2   3
ENDBRANCH   1   2
BRANCH   1  11
ATOM     11  C   UNL     1      17.274 -36.273  20.555  1.00  0.00     0.000 C 
BRANCH  11  12
ATOM     12  C   UNL     1      18.230 -36.030  21.734  1.00  0.00    -0.000 C 
BRANCH  12  13
ATOM     13  C   UNL     1      18.975 -34.691  21.619  1.00  0.00    -0.000 C 
BRANCH  13  14
ATOM     14  C   UNL     1      18.776 -33.833  22.876  1.00  0.00    -0.000 C 
BRANCH  14  15
ATOM     15  C   UNL     1      18.647 -32.349  22.502  1.00  0.00    -0.000 C 
BRANCH  15  16
ATOM     16  C   UNL     1      18.613 -32.118  20.984  1.00  0.00    -0.000 C 
BRANCH  16  17
ATOM     17  C   UNL     1      17.578 -31.061  20.569  1.00  0.00    -0.003 C 
ATOM     18  C   UNL     1      17.857 -29.722  21.247  1.00  0.00     0.004 C 
ENDBRANCH  16  17
ENDBRANCH  15  16
ENDBRANCH  14  15
ENDBRANCH  13  14
ENDBRANCH  12  13
ENDBRANCH  11  12
ENDBRANCH   1  11
TORSDOF 14
ENDMDL
MODEL 8
REMARK VINA RESULT:    -4.689      3.963      5.612
REMARK INTER + INTRA:         -10.286
REMARK INTER:                  -7.841
REMARK INTRA:                  -2.445
REMARK UNBOUND:                -1.760
REMARK SMILES CCCCCCCCCCCCCCCC(=O)[O-]
REMARK SMILES IDX 9 1 10 2 11 3 12 4 13 5 14 6 15 7 16 8 17 9 18 10 8 11 7 12
REMARK SMILES IDX 6 13 5 14 4 15 3 16 2 17 1 18
REMARK H PARENT
REMARK Flexibility Score: inf
ROOT
ATOM      1  C   UNL     1      17.353 -33.094  19.346  1.00  0.00     0.000 C 
ENDROOT
BRANCH   1   2
ATOM      2  C   UNL     1      16.883 -34.523  19.037  1.00  0.00     0.000 C 
BRANCH   2   3
ATOM      3  C   UNL     1      16.045 -35.131  20.174  1.00  0.00     0.000 C 
BRANCH   3   4
ATOM      4  C   UNL     1      14.986 -34.181  20.758  1.00  0.00     0.000 C 
BRANCH   4   5
ATOM      5  C   UNL     1      15.120 -34.006  22.286  1.00  0.00     0.000 C 
BRANCH   5   6
ATOM      6  C   UNL     1      16.450 -34.561  22.835  1.00  0.00     0.006 C 
BRANCH   6   7
ATOM      7  C   UNL     1      16.551 -34.490  24.374  1.00  0.00     0.053 C 
BRANCH   7   8
ATOM      8  C   UNL     1      17.151 -35.736  24.958  1.00  0.00     0.041 C 
ATOM      9  O   UNL     1      16.722 -36.192  26.048  1.00  0.00    -0.550 OA
ATOM     10  O   UNL     1      18.149 -36.420  24.270  1.00  0.00    -0.550 OA
ENDBRANCH   7   8
ENDBRANCH   6   7
ENDBRANCH   5   6
ENDBRANCH   4   5
ENDBRANCH   3   4
ENDBRANCH   2   3
ENDBRANCH   1   2
BRANCH   1  11
ATOM     11  C   UNL     1      18.585 -33.113  20.262  1.00  0.00     0.000 C 
BRANCH  11  12
ATOM     12  C   UNL     1      18.654 -31.897  21.199  1.00  0.00    -0.000 C 
BRANCH  12  13
ATOM     13  C   UNL     1      17.352 -31.080  21.197  1.00  0.00    -0.000 C 
BRANCH  13  14
ATOM     14  C   UNL     1      16.875 -30.790  22.627  1.00  0.00    -0.000 C 
BRANCH  14  15
ATOM     15  C   UNL     1      15.409 -30.332  22.623  1.00  0.00    -0.000 C 
BRANCH  15  16
ATOM     16  C   UNL     1      14.766 -30.401  21.230  1.00  0.00    -0.000 C 
BRANCH  16  17
ATOM     17  C   UNL     1      13.322 -30.924  21.270  1.00  0.00    -0.003 C 
ATOM     18  C   UNL     1      12.532 -30.271  22.402  1.00  0.00     0.004 C 
ENDBRANCH  16  17
ENDBRANCH  15  16
ENDBRANCH  14  15
ENDBRANCH  13  14
ENDBRANCH  12  13
ENDBRANCH  11  12
ENDBRANCH   1  11
TORSDOF 14
ENDMDL
MODEL 9
REMARK VINA RESULT:    -4.656      4.017      6.016
REMARK INTER + INTRA:         -10.225
REMARK INTER:                  -7.956
REMARK INTRA:                  -2.270
REMARK UNBOUND:                -1.760
REMARK SMILES CCCCCCCCCCCCCCCC(=O)[O-]
REMARK SMILES IDX 9 1 10 2 11 3 12 4 13 5 14 6 15 7 16 8 17 9 18 10 8 11 7 12
REMARK SMILES IDX 6 13 5 14 4 15 3 16 2 17 1 18
REMARK H PARENT
REMARK Flexibility Score: inf
ROOT
ATOM      1  C   UNL     1      16.582 -30.174  22.079  1.00  0.00     0.000 C 
ENDROOT
BRANCH   1   2
ATOM      2  C   UNL     1      17.483 -30.427  20.862  1.00  0.00     0.000 C 
BRANCH   2   3
ATOM      3  C   UNL     1      18.686 -31.327  21.190  1.00  0.00     0.000 C 
BRANCH   3   4
ATOM      4  C   UNL     1      18.630 -32.721  20.541  1.00  0.00     0.000 C 
BRANCH   4   5
ATOM      5  C   UNL     1      17.276 -33.004  19.856  1.00  0.00     0.000 C 
BRANCH   5   6
ATOM      6  C   UNL     1      17.322 -34.239  18.934  1.00  0.00     0.006 C 
BRANCH   6   7
ATOM      7  C   UNL     1      16.432 -35.400  19.428  1.00  0.00     0.053 C 
BRANCH   7   8
ATOM      8  C   UNL     1      17.189 -36.695  19.510  1.00  0.00     0.041 C 
ATOM      9  O   UNL     1      17.437 -37.348  18.464  1.00  0.00    -0.550 OA
ATOM     10  O   UNL     1      17.664 -37.150  20.736  1.00  0.00    -0.550 OA
ENDBRANCH   7   8
ENDBRANCH   6   7
ENDBRANCH   5   6
ENDBRANCH   4   5
ENDBRANCH   3   4
ENDBRANCH   2   3
ENDBRANCH   1   2
BRANCH   1  11
ATOM     11  C   UNL     1      15.129 -29.938  21.640  1.00  0.00     0.000 C 
BRANCH  11  12
ATOM     12  C   UNL     1      14.280 -31.218  21.672  1.00  0.00    -0.000 C 
BRANCH  12  13
ATOM     13  C   UNL     1      13.655 -31.475  23.053  1.00  0.00    -0.000 C 
BRANCH  13  14
ATOM     14  C   UNL     1      14.213 -32.755  23.688  1.00  0.00    -0.000 C 
BRANCH  14  15
ATOM     15  C   UNL     1      14.962 -33.594  22.641  1.00  0.00    -0.000 C 
BRANCH  15  16
ATOM     16  C   UNL     1      16.300 -34.140  23.161  1.00  0.00    -0.000 C 
BRANCH  16  17
ATOM     17  C   UNL     1      16.813 -33.375  24.390  1.00  0.00    -0.003 C 
ATOM     18  C   UNL     1      18.273 -32.964  24.212  1.00  0.00     0.004 C 
ENDBRANCH  16  17
ENDBRANCH  15  16
ENDBRANCH  14  15
ENDBRANCH  13  14
ENDBRANCH  12  13
ENDBRANCH  11  12
ENDBRANCH   1  11
TORSDOF 14
ENDMDL
