MODEL 1
REMARK VINA RESULT:    -4.014      0.000      0.000
REMARK INTER + INTRA:          -8.126
REMARK INTER:                  -7.299
REMARK INTRA:                  -0.827
REMARK UNBOUND:                -0.827
REMARK SMILES CCCCCCCCCCCCCCCC(=O)[O-]
REMARK SMILES IDX 9 1 10 2 11 3 12 4 13 5 14 6 15 7 16 8 17 9 18 10 8 11 7 12
REMARK SMILES IDX 6 13 5 14 4 15 3 16 2 17 1 18
REMARK H PARENT
REMARK Flexibility Score: inf
ROOT
ATOM      1  C   UNL     1       5.151  12.958  33.958  1.00  0.00     0.000 C 
ENDROOT
BRANCH   1   2
ATOM      2  C   UNL     1       5.477  13.206  35.442  1.00  0.00     0.000 C 
BRANCH   2   3
ATOM      3  C   UNL     1       5.588  14.705  35.783  1.00  0.00     0.000 C 
BRANCH   3   4
ATOM      4  C   UNL     1       5.640  15.644  34.563  1.00  0.00     0.000 C 
BRANCH   4   5
ATOM      5  C   UNL     1       6.819  16.631  34.618  1.00  0.00     0.000 C 
BRANCH   5   6
ATOM      6  C   UNL     1       6.373  18.066  34.941  1.00  0.00     0.006 C 
BRANCH   6   7
ATOM      7  C   UNL     1       6.131  18.912  33.683  1.00  0.00     0.053 C 
BRANCH   7   8
ATOM      8  C   UNL     1       7.119  20.033  33.608  1.00  0.00     0.041 C 
ATOM      9  O   UNL     1       7.603  20.376  32.497  1.00  0.00    -0.550 OA
ATOM     10  O   UNL     1       7.550  20.662  34.770  1.00  0.00    -0.550 OA
ENDBRANCH   7   8
ENDBRANCH   6   7
ENDBRANCH   5   6
ENDBRANCH   4   5
ENDBRANCH   3   4
ENDBRANCH   2   3
ENDBRANCH   1   2
BRANCH   1  11
ATOM     11  C   UNL     1       5.166  11.464  33.596  1.00  0.00     0.000 C 
BRANCH  11  12
ATOM     12  C   UNL     1       5.133  10.556  34.835  1.00  0.00    -0.000 C 
BRANCH  12  13
ATOM     13  C   UNL     1       5.783   9.200  34.539  1.00  0.00    -0.000 C 
BRANCH  13  14
ATOM     14  C   UNL     1       6.851   9.328  33.443  1.00  0.00    -0.000 C 
BRANCH  14  15
ATOM     15  C   UNL     1       7.706   8.056  33.287  1.00  0.00    -0.000 C 
BRANCH  15  16
ATOM     16  C   UNL     1       7.167   6.817  34.026  1.00  0.00    -0.000 C 
BRANCH  16  17
ATOM     17  C   UNL     1       8.112   6.318  35.130  1.00  0.00    -0.003 C 
ATOM     18  C   UNL     1       7.350   6.052  36.425  1.00  0.00     0.004 C 
ENDBRANCH  16  17
ENDBRANCH  15  16
ENDBRANCH  14  15
ENDBRANCH  13  14
ENDBRANCH  12  13
ENDBRANCH  11  12
ENDBRANCH   1  11
TORSDOF 14
ENDMDL
MODEL 2
REMARK VINA RESULT:    -3.935      2.837      5.259
REMARK INTER + INTRA:          -7.983
REMARK INTER:                  -6.864
REMARK INTRA:                  -1.119
REMARK UNBOUND:                -0.827
REMARK SMILES CCCCCCCCCCCCCCCC(=O)[O-]
REMARK SMILES IDX 9 1 10 2 11 3 12 4 13 5 14 6 15 7 16 8 17 9 18 10 8 11 7 12
REMARK SMILES IDX 6 13 5 14 4 15 3 16 2 17 1 18
REMARK H PARENT
REMARK Flexibility Score: inf
ROOT
ATOM      1  C   UNL     1       7.680   7.938  33.603  1.00  0.00     0.000 C 
ENDROOT
BRANCH   1   2
ATOM      2  C   UNL     1       6.822   9.205  33.439  1.00  0.00     0.000 C 
BRANCH   2   3
ATOM      3  C   UNL     1       6.089   9.598  34.737  1.00  0.00     0.000 C 
BRANCH   3   4
ATOM      4  C   UNL     1       5.069  10.742  34.583  1.00  0.00     0.000 C 
BRANCH   4   5
ATOM      5  C   UNL     1       5.326  11.607  33.336  1.00  0.00     0.000 C 
BRANCH   5   6
ATOM      6  C   UNL     1       5.222  13.112  33.631  1.00  0.00     0.006 C 
BRANCH   6   7
ATOM      7  C   UNL     1       5.032  13.415  35.124  1.00  0.00     0.053 C 
BRANCH   7   8
ATOM      8  C   UNL     1       6.000  14.464  35.573  1.00  0.00     0.041 C 
ATOM      9  O   UNL     1       6.585  14.353  36.682  1.00  0.00    -0.550 OA
ATOM     10  O   UNL     1       6.213  15.595  34.792  1.00  0.00    -0.550 OA
ENDBRANCH   7   8
ENDBRANCH   6   7
ENDBRANCH   5   6
ENDBRANCH   4   5
ENDBRANCH   3   4
ENDBRANCH   2   3
ENDBRANCH   1   2
BRANCH   1  11
ATOM     11  C   UNL     1       7.363   7.177  34.900  1.00  0.00     0.000 C 
BRANCH  11  12
ATOM     12  C   UNL     1       6.694   5.818  34.638  1.00  0.00    -0.000 C 
BRANCH  12  13
ATOM     13  C   UNL     1       6.907   4.866  35.820  1.00  0.00    -0.000 C 
BRANCH  13  14
ATOM     14  C   UNL     1       8.290   5.074  36.455  1.00  0.00    -0.000 C 
BRANCH  14  15
ATOM     15  C   UNL     1       9.178   3.818  36.381  1.00  0.00    -0.000 C 
BRANCH  15  16
ATOM     16  C   UNL     1      10.380   3.928  35.425  1.00  0.00    -0.000 C 
BRANCH  16  17
ATOM     17  C   UNL     1      10.405   5.248  34.640  1.00  0.00    -0.003 C 
ATOM     18  C   UNL     1      11.574   5.283  33.661  1.00  0.00     0.004 C 
ENDBRANCH  16  17
ENDBRANCH  15  16
ENDBRANCH  14  15
ENDBRANCH  13  14
ENDBRANCH  12  13
ENDBRANCH  11  12
ENDBRANCH   1  11
TORSDOF 14
ENDMDL
MODEL 3
REMARK VINA RESULT:    -3.923      2.774      5.128
REMARK INTER + INTRA:          -7.962
REMARK INTER:                  -6.596
REMARK INTRA:                  -1.366
REMARK UNBOUND:                -0.827
REMARK SMILES CCCCCCCCCCCCCCCC(=O)[O-]
REMARK SMILES IDX 9 1 10 2 11 3 12 4 13 5 14 6 15 7 16 8 17 9 18 10 8 11 7 12
REMARK SMILES IDX 6 13 5 14 4 15 3 16 2 17 1 18
REMARK H PARENT
REMARK Flexibility Score: inf
ROOT
ATOM      1  C   UNL     1       7.070   7.441  33.804  1.00  0.00     0.000 C 
ENDROOT
BRANCH   1   2
ATOM      2  C   UNL     1       7.155   8.957  34.055  1.00  0.00     0.000 C 
BRANCH   2   3
ATOM      3  C   UNL     1       6.550   9.784  32.903  1.00  0.00     0.000 C 
BRANCH   3   4
ATOM      4  C   UNL     1       5.644  10.947  33.349  1.00  0.00     0.000 C 
BRANCH   4   5
ATOM      5  C   UNL     1       5.343  10.925  34.858  1.00  0.00     0.000 C 
BRANCH   5   6
ATOM      6  C   UNL     1       5.045  12.324  35.420  1.00  0.00     0.006 C 
BRANCH   6   7
ATOM      7  C   UNL     1       5.295  13.443  34.398  1.00  0.00     0.053 C 
BRANCH   7   8
ATOM      8  C   UNL     1       5.842  14.659  35.077  1.00  0.00     0.041 C 
ATOM      9  O   UNL     1       5.693  15.796  34.555  1.00  0.00    -0.550 OA
ATOM     10  O   UNL     1       6.567  14.533  36.256  1.00  0.00    -0.550 OA
ENDBRANCH   7   8
ENDBRANCH   6   7
ENDBRANCH   5   6
ENDBRANCH   4   5
ENDBRANCH   3   4
ENDBRANCH   2   3
ENDBRANCH   1   2
BRANCH   1  11
ATOM     11  C   UNL     1       5.676   6.871  34.115  1.00  0.00     0.000 C 
BRANCH  11  12
ATOM     12  C   UNL     1       5.301   5.697  33.197  1.00  0.00    -0.000 C 
BRANCH  12  13
ATOM     13  C   UNL     1       5.403   4.363  33.945  1.00  0.00    -0.000 C 
BRANCH  13  14
ATOM     14  C   UNL     1       5.470   4.584  35.463  1.00  0.00    -0.000 C 
BRANCH  14  15
ATOM     15  C   UNL     1       6.226   3.463  36.200  1.00  0.00    -0.000 C 
BRANCH  15  16
ATOM     16  C   UNL     1       7.759   3.608  36.204  1.00  0.00    -0.000 C 
BRANCH  16  17
ATOM     17  C   UNL     1       8.225   5.053  36.437  1.00  0.00    -0.003 C 
ATOM     18  C   UNL     1       9.425   5.391  35.558  1.00  0.00     0.004 C 
ENDBRANCH  16  17
ENDBRANCH  15  16
ENDBRANCH  14  15
ENDBRANCH  13  14
ENDBRANCH  12  13
ENDBRANCH  11  12
ENDBRANCH   1  11
TORSDOF 14
ENDMDL
MODEL 4
REMARK VINA RESULT:    -3.888      5.231     10.167
REMARK INTER + INTRA:          -7.897
REMARK INTER:                  -7.049
REMARK INTRA:                  -0.849
REMARK UNBOUND:                -0.827
REMARK SMILES CCCCCCCCCCCCCCCC(=O)[O-]
REMARK SMILES IDX 9 1 10 2 11 3 12 4 13 5 14 6 15 7 16 8 17 9 18 10 8 11 7 12
REMARK SMILES IDX 6 13 5 14 4 15 3 16 2 17 1 18
REMARK H PARENT
REMARK Flexibility Score: inf
ROOT
ATOM      1  C   UNL     1       5.563  10.941  33.417  1.00  0.00     0.000 C 
ENDROOT
BRANCH   1   2
ATOM      2  C   UNL     1       5.593  10.368  34.845  1.00  0.00     0.000 C 
BRANCH   2   3
ATOM      3  C   UNL     1       6.521   9.145  34.975  1.00  0.00     0.000 C 
BRANCH   3   4
ATOM      4  C   UNL     1       7.210   8.713  33.667  1.00  0.00     0.000 C 
BRANCH   4   5
ATOM      5  C   UNL     1       7.139   7.195  33.428  1.00  0.00     0.000 C 
BRANCH   5   6
ATOM      6  C   UNL     1       5.794   6.591  33.865  1.00  0.00     0.006 C 
BRANCH   6   7
ATOM      7  C   UNL     1       5.944   5.210  34.518  1.00  0.00     0.053 C 
BRANCH   7   8
ATOM      8  C   UNL     1       6.805   5.298  35.739  1.00  0.00     0.041 C 
ATOM      9  O   UNL     1       6.509   6.099  36.664  1.00  0.00    -0.550 OA
ATOM     10  O   UNL     1       7.965   4.538  35.829  1.00  0.00    -0.550 OA
ENDBRANCH   7   8
ENDBRANCH   6   7
ENDBRANCH   5   6
ENDBRANCH   4   5
ENDBRANCH   3   4
ENDBRANCH   2   3
ENDBRANCH   1   2
BRANCH   1  11
ATOM     11  C   UNL     1       5.029  12.382  33.373  1.00  0.00     0.000 C 
BRANCH  11  12
ATOM     12  C   UNL     1       5.307  13.153  34.673  1.00  0.00    -0.000 C 
BRANCH  12  13
ATOM     13  C   UNL     1       5.015  14.648  34.497  1.00  0.00    -0.000 C 
BRANCH  13  14
ATOM     14  C   UNL     1       6.004  15.503  35.302  1.00  0.00    -0.000 C 
BRANCH  14  15
ATOM     15  C   UNL     1       6.527  16.718  34.514  1.00  0.00    -0.000 C 
BRANCH  15  16
ATOM     16  C   UNL     1       5.665  17.988  34.630  1.00  0.00    -0.000 C 
BRANCH  16  17
ATOM     17  C   UNL     1       5.800  18.919  33.416  1.00  0.00    -0.003 C 
ATOM     18  C   UNL     1       7.142  19.645  33.427  1.00  0.00     0.004 C 
ENDBRANCH  16  17
ENDBRANCH  15  16
ENDBRANCH  14  15
ENDBRANCH  13  14
ENDBRANCH  12  13
ENDBRANCH  11  12
ENDBRANCH   1  11
TORSDOF 14
ENDMDL
MODEL 5
REMARK VINA RESULT:    -3.799      5.610     10.214
REMARK INTER + INTRA:          -7.735
REMARK INTER:                  -6.759
REMARK INTRA:                  -0.976
REMARK UNBOUND:                -0.827
REMARK SMILES CCCCCCCCCCCCCCCC(=O)[O-]
REMARK SMILES IDX 9 1 10 2 11 3 12 4 13 5 14 6 15 7 16 8 17 9 18 10 8 11 7 12
REMARK SMILES IDX 6 13 5 14 4 15 3 16 2 17 1 18
REMARK H PARENT
REMARK Flexibility Score: inf
ROOT
ATOM      1  C   UNL     1       7.550   8.379  33.236  1.00  0.00     0.000 C 
ENDROOT
BRANCH   1   2
ATOM      2  C   UNL     1       7.186   7.244  34.211  1.00  0.00     0.000 C 
BRANCH   2   3
ATOM      3  C   UNL     1       6.071   6.330  33.669  1.00  0.00     0.000 C 
BRANCH   3   4
ATOM      4  C   UNL     1       5.792   5.076  34.519  1.00  0.00     0.000 C 
BRANCH   4   5
ATOM      5  C   UNL     1       5.596   5.397  36.011  1.00  0.00     0.000 C 
BRANCH   5   6
ATOM      6  C   UNL     1       6.770   4.914  36.878  1.00  0.00     0.006 C 
BRANCH   6   7
ATOM      7  C   UNL     1       7.712   3.962  36.128  1.00  0.00     0.053 C 
BRANCH   7   8
ATOM      8  C   UNL     1       9.138   4.366  36.333  1.00  0.00     0.041 C 
ATOM      9  O   UNL     1       9.514   5.530  36.036  1.00  0.00    -0.550 OA
ATOM     10  O   UNL     1      10.064   3.440  36.799  1.00  0.00    -0.550 OA
ENDBRANCH   7   8
ENDBRANCH   6   7
ENDBRANCH   5   6
ENDBRANCH   4   5
ENDBRANCH   3   4
ENDBRANCH   2   3
ENDBRANCH   1   2
BRANCH   1  11
ATOM     11  C   UNL     1       6.596   9.579  33.349  1.00  0.00     0.000 C 
BRANCH  11  12
ATOM     12  C   UNL     1       5.890   9.645  34.713  1.00  0.00    -0.000 C 
BRANCH  12  13
ATOM     13  C   UNL     1       5.046  10.919  34.832  1.00  0.00    -0.000 C 
BRANCH  13  14
ATOM     14  C   UNL     1       5.278  11.849  33.632  1.00  0.00    -0.000 C 
BRANCH  14  15
ATOM     15  C   UNL     1       5.381  13.332  34.034  1.00  0.00    -0.000 C 
BRANCH  15  16
ATOM     16  C   UNL     1       5.389  13.595  35.551  1.00  0.00    -0.000 C 
BRANCH  16  17
ATOM     17  C   UNL     1       5.770  15.039  35.909  1.00  0.00    -0.003 C 
ATOM     18  C   UNL     1       6.364  15.764  34.705  1.00  0.00     0.004 C 
ENDBRANCH  16  17
ENDBRANCH  15  16
ENDBRANCH  14  15
ENDBRANCH  13  14
ENDBRANCH  12  13
ENDBRANCH  11  12
ENDBRANCH   1  11
TORSDOF 14
ENDMDL
MODEL 6
REMARK VINA RESULT:    -3.760      3.610      5.340
REMARK INTER + INTRA:          -7.665
REMARK INTER:                  -5.986
REMARK INTRA:                  -1.679
REMARK UNBOUND:                -0.827
REMARK SMILES CCCCCCCCCCCCCCCC(=O)[O-]
REMARK SMILES IDX 9 1 10 2 11 3 12 4 13 5 14 6 15 7 16 8 17 9 18 10 8 11 7 12
REMARK SMILES IDX 6 13 5 14 4 15 3 16 2 17 1 18
REMARK H PARENT
REMARK Flexibility Score: inf
ROOT
ATOM      1  C   UNL     1       7.936   8.824  33.480  1.00  0.00     0.000 C 
ENDROOT
BRANCH   1   2
ATOM      2  C   UNL     1       6.552   9.240  32.951  1.00  0.00     0.000 C 
BRANCH   2   3
ATOM      3  C   UNL     1       5.976  10.463  33.692  1.00  0.00     0.000 C 
BRANCH   3   4
ATOM      4  C   UNL     1       5.168  10.130  34.960  1.00  0.00     0.000 C 
BRANCH   4   5
ATOM      5  C   UNL     1       5.964  10.369  36.255  1.00  0.00     0.000 C 
BRANCH   5   6
ATOM      6  C   UNL     1       5.358  11.483  37.123  1.00  0.00     0.006 C 
BRANCH   6   7
ATOM      7  C   UNL     1       6.203  12.765  37.124  1.00  0.00     0.053 C 
BRANCH   7   8
ATOM      8  C   UNL     1       5.560  13.818  36.278  1.00  0.00     0.041 C 
ATOM      9  O   UNL     1       5.587  13.724  35.023  1.00  0.00    -0.550 OA
ATOM     10  O   UNL     1       4.982  14.932  36.874  1.00  0.00    -0.550 OA
ENDBRANCH   7   8
ENDBRANCH   6   7
ENDBRANCH   5   6
ENDBRANCH   4   5
ENDBRANCH   3   4
ENDBRANCH   2   3
ENDBRANCH   1   2
BRANCH   1  11
ATOM     11  C   UNL     1       7.999   7.333  33.850  1.00  0.00     0.000 C 
BRANCH  11  12
ATOM     12  C   UNL     1       6.607   6.722  34.073  1.00  0.00    -0.000 C 
BRANCH  12  13
ATOM     13  C   UNL     1       6.275   6.646  35.568  1.00  0.00    -0.000 C 
BRANCH  13  14
ATOM     14  C   UNL     1       7.542   6.794  36.423  1.00  0.00    -0.000 C 
BRANCH  14  15
ATOM     15  C   UNL     1       8.026   5.457  37.015  1.00  0.00    -0.000 C 
BRANCH  15  16
ATOM     16  C   UNL     1       9.282   4.868  36.347  1.00  0.00    -0.000 C 
BRANCH  16  17
ATOM     17  C   UNL     1       9.311   3.333  36.369  1.00  0.00    -0.003 C 
ATOM     18  C   UNL     1       7.899   2.757  36.326  1.00  0.00     0.004 C 
ENDBRANCH  16  17
ENDBRANCH  15  16
ENDBRANCH  14  15
ENDBRANCH  13  14
ENDBRANCH  12  13
ENDBRANCH  11  12
ENDBRANCH   1  11
TORSDOF 14
ENDMDL
MODEL 7
REMARK VINA RESULT:    -3.682      6.633     11.074
REMARK INTER + INTRA:          -7.523
REMARK INTER:                  -6.853
REMARK INTRA:                  -0.670
REMARK UNBOUND:                -0.827
REMARK SMILES CCCCCCCCCCCCCCCC(=O)[O-]
REMARK SMILES IDX 9 1 10 2 11 3 12 4 13 5 14 6 15 7 16 8 17 9 18 10 8 11 7 12
REMARK SMILES IDX 6 13 5 14 4 15 3 16 2 17 1 18
REMARK H PARENT
REMARK Flexibility Score: inf
ROOT
ATOM      1  C   UNL     1       7.053   8.361  33.389  1.00  0.00     0.000 C 
ENDROOT
BRANCH   1   2
ATOM      2  C   UNL     1       6.388   6.982  33.548  1.00  0.00     0.000 C 
BRANCH   2   3
ATOM      3  C   UNL     1       6.819   6.260  34.839  1.00  0.00     0.000 C 
BRANCH   3   4
ATOM      4  C   UNL     1       8.342   6.150  35.041  1.00  0.00     0.000 C 
BRANCH   4   5
ATOM      5  C   UNL     1       8.730   5.830  36.495  1.00  0.00     0.000 C 
BRANCH   5   6
ATOM      6  C   UNL     1       8.980   4.330  36.722  1.00  0.00     0.006 C 
BRANCH   6   7
ATOM      7  C   UNL     1      10.010   3.743  35.747  1.00  0.00     0.053 C 
BRANCH   7   8
ATOM      8  C   UNL     1      10.453   2.389  36.204  1.00  0.00     0.041 C 
ATOM      9  O   UNL     1      11.595   2.235  36.711  1.00  0.00    -0.550 OA
ATOM     10  O   UNL     1       9.626   1.287  36.018  1.00  0.00    -0.550 OA
ENDBRANCH   7   8
ENDBRANCH   6   7
ENDBRANCH   5   6
ENDBRANCH   4   5
ENDBRANCH   3   4
ENDBRANCH   2   3
ENDBRANCH   1   2
BRANCH   1  11
ATOM     11  C   UNL     1       6.183   9.501  33.942  1.00  0.00     0.000 C 
BRANCH  11  12
ATOM     12  C   UNL     1       6.059  10.677  32.960  1.00  0.00    -0.000 C 
BRANCH  12  13
ATOM     13  C   UNL     1       4.970  11.656  33.414  1.00  0.00    -0.000 C 
BRANCH  13  14
ATOM     14  C   UNL     1       4.919  11.755  34.945  1.00  0.00    -0.000 C 
BRANCH  14  15
ATOM     15  C   UNL     1       5.490  13.082  35.481  1.00  0.00    -0.000 C 
BRANCH  15  16
ATOM     16  C   UNL     1       5.314  14.290  34.542  1.00  0.00    -0.000 C 
BRANCH  16  17
ATOM     17  C   UNL     1       6.315  15.420  34.823  1.00  0.00    -0.003 C 
ATOM     18  C   UNL     1       5.683  16.511  35.682  1.00  0.00     0.004 C 
ENDBRANCH  16  17
ENDBRANCH  15  16
ENDBRANCH  14  15
ENDBRANCH  13  14
ENDBRANCH  12  13
ENDBRANCH  11  12
ENDBRANCH   1  11
TORSDOF 14
ENDMDL
MODEL 8
REMARK VINA RESULT:    -3.656      4.594      7.031
REMARK INTER + INTRA:          -7.475
REMARK INTER:                  -5.502
REMARK INTRA:                  -1.973
REMARK UNBOUND:                -0.827
REMARK SMILES CCCCCCCCCCCCCCCC(=O)[O-]
REMARK SMILES IDX 9 1 10 2 11 3 12 4 13 5 14 6 15 7 16 8 17 9 18 10 8 11 7 12
REMARK SMILES IDX 6 13 5 14 4 15 3 16 2 17 1 18
REMARK H PARENT
REMARK Flexibility Score: inf
ROOT
ATOM      1  C   UNL     1       9.318   6.434  34.325  1.00  0.00     0.000 C 
ENDROOT
BRANCH   1   2
ATOM      2  C   UNL     1       7.886   6.908  34.017  1.00  0.00     0.000 C 
BRANCH   2   3
ATOM      3  C   UNL     1       7.670   8.398  34.343  1.00  0.00     0.000 C 
BRANCH   3   4
ATOM      4  C   UNL     1       7.361   8.699  35.822  1.00  0.00     0.000 C 
BRANCH   4   5
ATOM      5  C   UNL     1       5.854   8.684  36.132  1.00  0.00     0.000 C 
BRANCH   5   6
ATOM      6  C   UNL     1       5.019   9.366  35.037  1.00  0.00     0.006 C 
BRANCH   6   7
ATOM      7  C   UNL     1       5.007  10.896  35.162  1.00  0.00     0.053 C 
BRANCH   7   8
ATOM      8  C   UNL     1       5.369  11.532  33.857  1.00  0.00     0.041 C 
ATOM      9  O   UNL     1       5.819  10.829  32.914  1.00  0.00    -0.550 OA
ATOM     10  O   UNL     1       5.264  12.909  33.700  1.00  0.00    -0.550 OA
ENDBRANCH   7   8
ENDBRANCH   6   7
ENDBRANCH   5   6
ENDBRANCH   4   5
ENDBRANCH   3   4
ENDBRANCH   2   3
ENDBRANCH   1   2
BRANCH   1  11
ATOM     11  C   UNL     1       9.344   5.189  35.226  1.00  0.00     0.000 C 
BRANCH  11  12
ATOM     12  C   UNL     1       8.870   5.487  36.657  1.00  0.00    -0.000 C 
BRANCH  12  13
ATOM     13  C   UNL     1       7.398   5.097  36.838  1.00  0.00    -0.000 C 
BRANCH  13  14
ATOM     14  C   UNL     1       7.068   3.811  36.067  1.00  0.00    -0.000 C 
BRANCH  14  15
ATOM     15  C   UNL     1       5.609   3.765  35.574  1.00  0.00    -0.000 C 
BRANCH  15  16
ATOM     16  C   UNL     1       4.940   5.140  35.399  1.00  0.00    -0.000 C 
BRANCH  16  17
ATOM     17  C   UNL     1       4.875   5.595  33.932  1.00  0.00    -0.003 C 
ATOM     18  C   UNL     1       4.875   4.398  32.987  1.00  0.00     0.004 C 
ENDBRANCH  16  17
ENDBRANCH  15  16
ENDBRANCH  14  15
ENDBRANCH  13  14
ENDBRANCH  12  13
ENDBRANCH  11  12
ENDBRANCH   1  11
TORSDOF 14
ENDMDL
MODEL 9
REMARK VINA RESULT:    -3.531      6.101     10.783
REMARK INTER + INTRA:          -7.248
REMARK INTER:                  -5.971
REMARK INTRA:                  -1.276
REMARK UNBOUND:                -0.827
REMARK SMILES CCCCCCCCCCCCCCCC(=O)[O-]
REMARK SMILES IDX 9 1 10 2 11 3 12 4 13 5 14 6 15 7 16 8 17 9 18 10 8 11 7 12
REMARK SMILES IDX 6 13 5 14 4 15 3 16 2 17 1 18
REMARK H PARENT
REMARK Flexibility Score: inf
ROOT
ATOM      1  C   UNL     1       8.656   6.849  34.062  1.00  0.00     0.000 C 
ENDROOT
BRANCH   1   2
ATOM      2  C   UNL     1       8.347   6.186  35.416  1.00  0.00     0.000 C 
BRANCH   2   3
ATOM      3  C   UNL     1       9.292   5.010  35.731  1.00  0.00     0.000 C 
BRANCH   3   4
ATOM      4  C   UNL     1       8.917   4.196  36.984  1.00  0.00     0.000 C 
BRANCH   4   5
ATOM      5  C   UNL     1       8.455   2.767  36.651  1.00  0.00     0.000 C 
BRANCH   5   6
ATOM      6  C   UNL     1       6.930   2.602  36.751  1.00  0.00     0.006 C 
BRANCH   6   7
ATOM      7  C   UNL     1       6.257   2.448  35.379  1.00  0.00     0.053 C 
BRANCH   7   8
ATOM      8  C   UNL     1       5.532   3.703  35.007  1.00  0.00     0.041 C 
ATOM      9  O   UNL     1       5.222   4.541  35.895  1.00  0.00    -0.550 OA
ATOM     10  O   UNL     1       5.148   3.921  33.690  1.00  0.00    -0.550 OA
ENDBRANCH   7   8
ENDBRANCH   6   7
ENDBRANCH   5   6
ENDBRANCH   4   5
ENDBRANCH   3   4
ENDBRANCH   2   3
ENDBRANCH   1   2
BRANCH   1  11
ATOM     11  C   UNL     1       7.579   7.865  33.646  1.00  0.00     0.000 C 
BRANCH  11  12
ATOM     12  C   UNL     1       6.158   7.288  33.738  1.00  0.00    -0.000 C 
BRANCH  12  13
ATOM     13  C   UNL     1       5.349   7.999  34.829  1.00  0.00    -0.000 C 
BRANCH  13  14
ATOM     14  C   UNL     1       5.940   9.382  35.143  1.00  0.00    -0.000 C 
BRANCH  14  15
ATOM     15  C   UNL     1       5.016  10.539  34.720  1.00  0.00    -0.000 C 
BRANCH  15  16
ATOM     16  C   UNL     1       5.453  11.286  33.446  1.00  0.00    -0.000 C 
BRANCH  16  17
ATOM     17  C   UNL     1       5.158  12.792  33.501  1.00  0.00    -0.003 C 
ATOM     18  C   UNL     1       5.337  13.335  34.916  1.00  0.00     0.004 C 
ENDBRANCH  16  17
ENDBRANCH  15  16
ENDBRANCH  14  15
ENDBRANCH  13  14
ENDBRANCH  12  13
ENDBRANCH  11  12
ENDBRANCH   1  11
TORSDOF 14
ENDMDL
