MODEL 1
REMARK VINA RESULT:    -7.341      0.000      0.000
REMARK INTER + INTRA:          -8.125
REMARK INTER:                  -8.629
REMARK INTRA:                   0.503
REMARK UNBOUND:                 0.503
REMARK SMILES O=c1c(O)c(-c2ccc(O)cc2)oc2cc(O)cc(O)c12
REMARK SMILES IDX 5 1 3 2 2 3 1 4 21 5 19 6 18 7 16 8 15 9 14 10 13 11 6 12
REMARK SMILES IDX 7 13 8 14 9 15 12 16 11 17 10 18 4 20 20 22 17 24
REMARK H PARENT 10 19 4 21 20 23 17 25
REMARK Flexibility Score: inf
ROOT
ATOM      1  C   UNL     1     -16.897  -7.753  44.861  1.00  0.00     0.180 A 
ATOM      2  C   UNL     1     -17.132  -8.892  45.651  1.00  0.00     0.208 A 
ATOM      3  C   UNL     1     -16.756  -8.872  47.004  1.00  0.00     0.238 A 
ATOM      4  O   UNL     1     -17.019  -9.875  47.719  1.00  0.00    -0.285 OA
ATOM      5  C   UNL     1     -16.135  -7.722  47.545  1.00  0.00     0.111 A 
ATOM      6  C   UNL     1     -15.677  -7.606  48.892  1.00  0.00     0.134 A 
ATOM      7  C   UNL     1     -15.197  -6.375  49.355  1.00  0.00     0.093 A 
ATOM      8  C   UNL     1     -15.097  -5.273  48.501  1.00  0.00     0.123 A 
ATOM      9  C   UNL     1     -15.487  -5.394  47.170  1.00  0.00     0.094 A 
ATOM     10  C   UNL     1     -16.004  -6.599  46.688  1.00  0.00     0.146 A 
ATOM     11  O   UNL     1     -16.374  -6.666  45.415  1.00  0.00    -0.452 OA
ENDROOT
BRANCH   1  12
ATOM     12  C   UNL     1     -17.242  -7.708  43.422  1.00  0.00     0.021 A 
ATOM     13  C   UNL     1     -17.831  -8.810  42.774  1.00  0.00     0.016 A 
ATOM     14  C   UNL     1     -18.125  -8.752  41.408  1.00  0.00     0.047 A 
ATOM     15  C   UNL     1     -17.824  -7.602  40.671  1.00  0.00     0.115 A 
ATOM     16  C   UNL     1     -16.924  -6.564  42.670  1.00  0.00     0.016 A 
ATOM     17  C   UNL     1     -17.221  -6.509  41.305  1.00  0.00     0.047 A 
BRANCH  15  18
ATOM     18  O   UNL     1     -18.125  -7.559  39.311  1.00  0.00    -0.508 OA
ATOM     19  H   UNL     1     -18.455  -6.708  38.869  1.00  0.00     0.293 HD
ENDBRANCH  15  18
ENDBRANCH   1  12
BRANCH   2  20
ATOM     20  O   UNL     1     -17.766 -10.010  45.101  1.00  0.00    -0.502 OA
ATOM     21  H   UNL     1     -18.720  -9.981  44.759  1.00  0.00     0.293 HD
ENDBRANCH   2  20
BRANCH   6  22
ATOM     22  O   UNL     1     -15.647  -8.669  49.800  1.00  0.00    -0.507 OA
ATOM     23  H   UNL     1     -15.851  -9.629  49.568  1.00  0.00     0.293 HD
ENDBRANCH   6  22
BRANCH   8  24
ATOM     24  O   UNL     1     -14.604  -4.057  48.966  1.00  0.00    -0.508 OA
ATOM     25  H   UNL     1     -14.764  -3.748  49.918  1.00  0.00     0.293 HD
ENDBRANCH   8  24
TORSDOF 5
ENDMDL
MODEL 2
REMARK VINA RESULT:    -7.306      3.190      6.799
REMARK INTER + INTRA:          -8.084
REMARK INTER:                  -7.791
REMARK INTRA:                  -0.293
REMARK UNBOUND:                 0.503
REMARK SMILES O=c1c(O)c(-c2ccc(O)cc2)oc2cc(O)cc(O)c12
REMARK SMILES IDX 5 1 3 2 2 3 1 4 21 5 19 6 18 7 16 8 15 9 14 10 13 11 6 12
REMARK SMILES IDX 7 13 8 14 9 15 12 16 11 17 10 18 4 20 20 22 17 24
REMARK H PARENT 10 19 4 21 20 23 17 25
REMARK Flexibility Score: inf
ROOT
ATOM      1  C   UNL     1     -13.452  -8.052  47.409  1.00  0.00     0.180 A 
ATOM      2  C   UNL     1     -13.888  -9.379  47.567  1.00  0.00     0.208 A 
ATOM      3  C   UNL     1     -15.078  -9.783  46.939  1.00  0.00     0.238 A 
ATOM      4  O   UNL     1     -15.435 -10.986  47.039  1.00  0.00    -0.285 OA
ATOM      5  C   UNL     1     -15.824  -8.852  46.178  1.00  0.00     0.111 A 
ATOM      6  C   UNL     1     -17.064  -9.141  45.532  1.00  0.00     0.134 A 
ATOM      7  C   UNL     1     -17.648  -8.181  44.697  1.00  0.00     0.093 A 
ATOM      8  C   UNL     1     -17.071  -6.918  44.536  1.00  0.00     0.123 A 
ATOM      9  C   UNL     1     -15.892  -6.607  45.210  1.00  0.00     0.094 A 
ATOM     10  C   UNL     1     -15.266  -7.557  46.021  1.00  0.00     0.146 A 
ATOM     11  O   UNL     1     -14.138  -7.221  46.635  1.00  0.00    -0.452 OA
ENDROOT
BRANCH   1  12
ATOM     12  C   UNL     1     -12.221  -7.546  48.060  1.00  0.00     0.021 A 
ATOM     13  C   UNL     1     -12.233  -7.079  49.388  1.00  0.00     0.016 A 
ATOM     14  C   UNL     1     -11.062  -6.583  49.972  1.00  0.00     0.047 A 
ATOM     15  C   UNL     1      -9.874  -6.534  49.237  1.00  0.00     0.115 A 
ATOM     16  C   UNL     1     -11.028  -7.474  47.321  1.00  0.00     0.016 A 
ATOM     17  C   UNL     1      -9.860  -6.978  47.909  1.00  0.00     0.047 A 
BRANCH  15  18
ATOM     18  O   UNL     1      -8.716  -6.039  49.833  1.00  0.00    -0.508 OA
ATOM     19  H   UNL     1      -8.627  -5.972  50.841  1.00  0.00     0.293 HD
ENDBRANCH  15  18
ENDBRANCH   1  12
BRANCH   2  20
ATOM     20  O   UNL     1     -13.125 -10.288  48.305  1.00  0.00    -0.502 OA
ATOM     21  H   UNL     1     -13.544 -11.024  48.862  1.00  0.00     0.293 HD
ENDBRANCH   2  20
BRANCH   6  22
ATOM     22  O   UNL     1     -17.770 -10.336  45.700  1.00  0.00    -0.507 OA
ATOM     23  H   UNL     1     -18.765 -10.398  45.853  1.00  0.00     0.293 HD
ENDBRANCH   6  22
BRANCH   8  24
ATOM     24  O   UNL     1     -17.667  -5.964  43.716  1.00  0.00    -0.508 OA
ATOM     25  H   UNL     1     -17.238  -5.061  43.553  1.00  0.00     0.293 HD
ENDBRANCH   8  24
TORSDOF 5
ENDMDL
MODEL 3
REMARK VINA RESULT:    -7.222      7.393     10.018
REMARK INTER + INTRA:          -7.985
REMARK INTER:                  -7.774
REMARK INTRA:                  -0.212
REMARK UNBOUND:                 0.503
REMARK SMILES O=c1c(O)c(-c2ccc(O)cc2)oc2cc(O)cc(O)c12
REMARK SMILES IDX 5 1 3 2 2 3 1 4 21 5 19 6 18 7 16 8 15 9 14 10 13 11 6 12
REMARK SMILES IDX 7 13 8 14 9 15 12 16 11 17 10 18 4 20 20 22 17 24
REMARK H PARENT 10 19 4 21 20 23 17 25
REMARK Flexibility Score: inf
ROOT
ATOM      1  C   UNL     1     -10.726  -8.690  39.918  1.00  0.00     0.180 A 
ATOM      2  C   UNL     1     -10.624  -9.056  38.564  1.00  0.00     0.208 A 
ATOM      3  C   UNL     1     -11.514  -8.490  37.637  1.00  0.00     0.238 A 
ATOM      4  O   UNL     1     -11.383  -8.779  36.419  1.00  0.00    -0.285 OA
ATOM      5  C   UNL     1     -12.504  -7.579  38.077  1.00  0.00     0.111 A 
ATOM      6  C   UNL     1     -13.483  -6.976  37.231  1.00  0.00     0.134 A 
ATOM      7  C   UNL     1     -14.330  -5.989  37.750  1.00  0.00     0.093 A 
ATOM      8  C   UNL     1     -14.278  -5.632  39.100  1.00  0.00     0.123 A 
ATOM      9  C   UNL     1     -13.366  -6.258  39.946  1.00  0.00     0.094 A 
ATOM     10  C   UNL     1     -12.483  -7.220  39.449  1.00  0.00     0.146 A 
ATOM     11  O   UNL     1     -11.622  -7.783  40.288  1.00  0.00    -0.452 OA
ENDROOT
BRANCH   1  12
ATOM     12  C   UNL     1      -9.840  -9.263  40.958  1.00  0.00     0.021 A 
ATOM     13  C   UNL     1      -9.956 -10.607  41.359  1.00  0.00     0.016 A 
ATOM     14  C   UNL     1      -9.123 -11.118  42.361  1.00  0.00     0.047 A 
ATOM     15  C   UNL     1      -8.179 -10.295  42.981  1.00  0.00     0.115 A 
ATOM     16  C   UNL     1      -8.903  -8.436  41.600  1.00  0.00     0.016 A 
ATOM     17  C   UNL     1      -8.072  -8.951  42.600  1.00  0.00     0.047 A 
BRANCH  15  18
ATOM     18  O   UNL     1      -7.357 -10.819  43.976  1.00  0.00    -0.508 OA
ATOM     19  H   UNL     1      -6.415 -10.473  44.120  1.00  0.00     0.293 HD
ENDBRANCH  15  18
ENDBRANCH   1  12
BRANCH   2  20
ATOM     20  O   UNL     1      -9.625  -9.941  38.148  1.00  0.00    -0.502 OA
ATOM     21  H   UNL     1      -9.306 -10.711  38.725  1.00  0.00     0.293 HD
ENDBRANCH   2  20
BRANCH   6  22
ATOM     22  O   UNL     1     -13.681  -7.327  35.892  1.00  0.00    -0.507 OA
ATOM     23  H   UNL     1     -14.212  -6.786  35.229  1.00  0.00     0.293 HD
ENDBRANCH   6  22
BRANCH   8  24
ATOM     24  O   UNL     1     -15.136  -4.661  39.611  1.00  0.00    -0.508 OA
ATOM     25  H   UNL     1     -16.093  -4.576  39.289  1.00  0.00     0.293 HD
ENDBRANCH   8  24
TORSDOF 5
ENDMDL
MODEL 4
REMARK VINA RESULT:    -7.219      8.467     10.384
REMARK INTER + INTRA:          -7.982
REMARK INTER:                  -8.309
REMARK INTRA:                   0.327
REMARK UNBOUND:                 0.503
REMARK SMILES O=c1c(O)c(-c2ccc(O)cc2)oc2cc(O)cc(O)c12
REMARK SMILES IDX 5 1 3 2 2 3 1 4 21 5 19 6 18 7 16 8 15 9 14 10 13 11 6 12
REMARK SMILES IDX 7 13 8 14 9 15 12 16 11 17 10 18 4 20 20 22 17 24
REMARK H PARENT 10 19 4 21 20 23 17 25
REMARK Flexibility Score: inf
ROOT
ATOM      1  C   UNL     1     -10.882  -8.687  38.297  1.00  0.00     0.180 A 
ATOM      2  C   UNL     1     -10.089  -8.910  37.158  1.00  0.00     0.208 A 
ATOM      3  C   UNL     1      -8.954  -9.729  37.269  1.00  0.00     0.238 A 
ATOM      4  O   UNL     1      -8.278  -9.969  36.234  1.00  0.00    -0.285 OA
ATOM      5  C   UNL     1      -8.617 -10.300  38.519  1.00  0.00     0.111 A 
ATOM      6  C   UNL     1      -7.468 -11.113  38.756  1.00  0.00     0.134 A 
ATOM      7  C   UNL     1      -7.305 -11.733  40.000  1.00  0.00     0.093 A 
ATOM      8  C   UNL     1      -8.215 -11.517  41.038  1.00  0.00     0.123 A 
ATOM      9  C   UNL     1      -9.308 -10.678  40.835  1.00  0.00     0.094 A 
ATOM     10  C   UNL     1      -9.517 -10.074  39.592  1.00  0.00     0.146 A 
ATOM     11  O   UNL     1     -10.578  -9.291  39.439  1.00  0.00    -0.452 OA
ENDROOT
BRANCH   1  12
ATOM     12  C   UNL     1     -12.080  -7.816  38.264  1.00  0.00     0.021 A 
ATOM     13  C   UNL     1     -12.835  -7.652  37.088  1.00  0.00     0.016 A 
ATOM     14  C   UNL     1     -13.948  -6.803  37.076  1.00  0.00     0.047 A 
ATOM     15  C   UNL     1     -14.310  -6.101  38.229  1.00  0.00     0.115 A 
ATOM     16  C   UNL     1     -12.438  -7.090  39.413  1.00  0.00     0.016 A 
ATOM     17  C   UNL     1     -13.552  -6.244  39.397  1.00  0.00     0.047 A 
BRANCH  15  18
ATOM     18  O   UNL     1     -15.422  -5.261  38.201  1.00  0.00    -0.508 OA
ATOM     19  H   UNL     1     -15.532  -4.553  37.485  1.00  0.00     0.293 HD
ENDBRANCH  15  18
ENDBRANCH   1  12
BRANCH   2  20
ATOM     20  O   UNL     1     -10.452  -8.353  35.928  1.00  0.00    -0.502 OA
ATOM     21  H   UNL     1     -10.512  -8.903  35.079  1.00  0.00     0.293 HD
ENDBRANCH   2  20
BRANCH   6  22
ATOM     22  O   UNL     1      -6.452 -11.319  37.818  1.00  0.00    -0.507 OA
ATOM     23  H   UNL     1      -6.496 -11.981  37.058  1.00  0.00     0.293 HD
ENDBRANCH   6  22
BRANCH   8  24
ATOM     24  O   UNL     1      -8.036 -12.125  42.278  1.00  0.00    -0.508 OA
ATOM     25  H   UNL     1      -8.171 -11.616  43.143  1.00  0.00     0.293 HD
ENDBRANCH   8  24
TORSDOF 5
ENDMDL
MODEL 5
REMARK VINA RESULT:    -7.183      3.716      5.452
REMARK INTER + INTRA:          -7.940
REMARK INTER:                  -7.844
REMARK INTRA:                  -0.096
REMARK UNBOUND:                 0.503
REMARK SMILES O=c1c(O)c(-c2ccc(O)cc2)oc2cc(O)cc(O)c12
REMARK SMILES IDX 5 1 3 2 2 3 1 4 21 5 19 6 18 7 16 8 15 9 14 10 13 11 6 12
REMARK SMILES IDX 7 13 8 14 9 15 12 16 11 17 10 18 4 20 20 22 17 24
REMARK H PARENT 10 19 4 21 20 23 17 25
REMARK Flexibility Score: inf
ROOT
ATOM      1  C   UNL     1     -14.380  -5.943  41.156  1.00  0.00     0.180 A 
ATOM      2  C   UNL     1     -13.389  -5.276  41.898  1.00  0.00     0.208 A 
ATOM      3  C   UNL     1     -13.559  -5.131  43.285  1.00  0.00     0.238 A 
ATOM      4  O   UNL     1     -12.644  -4.582  43.951  1.00  0.00    -0.285 OA
ATOM      5  C   UNL     1     -14.724  -5.639  43.908  1.00  0.00     0.111 A 
ATOM      6  C   UNL     1     -15.019  -5.513  45.299  1.00  0.00     0.134 A 
ATOM      7  C   UNL     1     -16.136  -6.167  45.830  1.00  0.00     0.093 A 
ATOM      8  C   UNL     1     -17.007  -6.889  45.009  1.00  0.00     0.123 A 
ATOM      9  C   UNL     1     -16.759  -6.968  43.641  1.00  0.00     0.094 A 
ATOM     10  C   UNL     1     -15.632  -6.356  43.087  1.00  0.00     0.146 A 
ATOM     11  O   UNL     1     -15.428  -6.466  41.780  1.00  0.00    -0.452 OA
ENDROOT
BRANCH   1  12
ATOM     12  C   UNL     1     -14.283  -6.113  39.688  1.00  0.00     0.021 A 
ATOM     13  C   UNL     1     -15.247  -5.565  38.822  1.00  0.00     0.016 A 
ATOM     14  C   UNL     1     -15.147  -5.761  37.440  1.00  0.00     0.047 A 
ATOM     15  C   UNL     1     -14.095  -6.514  36.910  1.00  0.00     0.115 A 
ATOM     16  C   UNL     1     -13.241  -6.887  39.149  1.00  0.00     0.016 A 
ATOM     17  C   UNL     1     -13.144  -7.079  37.768  1.00  0.00     0.047 A 
BRANCH  15  18
ATOM     18  O   UNL     1     -14.008  -6.699  35.531  1.00  0.00    -0.508 OA
ATOM     19  H   UNL     1     -13.140  -6.977  35.089  1.00  0.00     0.293 HD
ENDBRANCH  15  18
ENDBRANCH   1  12
BRANCH   2  20
ATOM     20  O   UNL     1     -12.237  -4.802  41.265  1.00  0.00    -0.502 OA
ATOM     21  H   UNL     1     -11.758  -5.327  40.543  1.00  0.00     0.293 HD
ENDBRANCH   2  20
BRANCH   6  22
ATOM     22  O   UNL     1     -14.267  -4.739  46.189  1.00  0.00    -0.507 OA
ATOM     23  H   UNL     1     -13.389  -4.296  45.965  1.00  0.00     0.293 HD
ENDBRANCH   6  22
BRANCH   8  24
ATOM     24  O   UNL     1     -18.125  -7.524  45.544  1.00  0.00    -0.508 OA
ATOM     25  H   UNL     1     -18.763  -8.054  44.962  1.00  0.00     0.293 HD
ENDBRANCH   8  24
TORSDOF 5
ENDMDL
MODEL 6
REMARK VINA RESULT:    -7.101      1.858      3.299
REMARK INTER + INTRA:          -7.843
REMARK INTER:                  -7.682
REMARK INTRA:                  -0.161
REMARK UNBOUND:                 0.503
REMARK SMILES O=c1c(O)c(-c2ccc(O)cc2)oc2cc(O)cc(O)c12
REMARK SMILES IDX 5 1 3 2 2 3 1 4 21 5 19 6 18 7 16 8 15 9 14 10 13 11 6 12
REMARK SMILES IDX 7 13 8 14 9 15 12 16 11 17 10 18 4 20 20 22 17 24
REMARK H PARENT 10 19 4 21 20 23 17 25
REMARK Flexibility Score: inf
ROOT
ATOM      1  C   UNL     1     -15.910  -7.422  44.947  1.00  0.00     0.180 A 
ATOM      2  C   UNL     1     -15.791  -6.418  45.924  1.00  0.00     0.208 A 
ATOM      3  C   UNL     1     -15.310  -6.761  47.198  1.00  0.00     0.238 A 
ATOM      4  O   UNL     1     -15.154  -5.849  48.051  1.00  0.00    -0.285 OA
ATOM      5  C   UNL     1     -14.970  -8.105  47.484  1.00  0.00     0.111 A 
ATOM      6  C   UNL     1     -14.510  -8.573  48.752  1.00  0.00     0.134 A 
ATOM      7  C   UNL     1     -14.078  -9.898  48.884  1.00  0.00     0.093 A 
ATOM      8  C   UNL     1     -14.151 -10.790  47.810  1.00  0.00     0.123 A 
ATOM      9  C   UNL     1     -14.654 -10.358  46.586  1.00  0.00     0.094 A 
ATOM     10  C   UNL     1     -15.058  -9.032  46.413  1.00  0.00     0.146 A 
ATOM     11  O   UNL     1     -15.521  -8.660  45.226  1.00  0.00    -0.452 OA
ENDROOT
BRANCH   1  12
ATOM     12  C   UNL     1     -16.434  -7.142  43.590  1.00  0.00     0.021 A 
ATOM     13  C   UNL     1     -17.664  -7.668  43.156  1.00  0.00     0.016 A 
ATOM     14  C   UNL     1     -18.125  -7.409  41.860  1.00  0.00     0.047 A 
ATOM     15  C   UNL     1     -17.360  -6.636  40.982  1.00  0.00     0.115 A 
ATOM     16  C   UNL     1     -15.661  -6.383  42.695  1.00  0.00     0.016 A 
ATOM     17  C   UNL     1     -16.125  -6.126  41.401  1.00  0.00     0.047 A 
BRANCH  15  18
ATOM     18  O   UNL     1     -17.833  -6.385  39.696  1.00  0.00    -0.508 OA
ATOM     19  H   UNL     1     -17.358  -5.742  39.073  1.00  0.00     0.293 HD
ENDBRANCH  15  18
ENDBRANCH   1  12
BRANCH   2  20
ATOM     20  O   UNL     1     -16.112  -5.093  45.614  1.00  0.00    -0.502 OA
ATOM     21  H   UNL     1     -15.780  -4.636  44.773  1.00  0.00     0.293 HD
ENDBRANCH   2  20
BRANCH   6  22
ATOM     22  O   UNL     1     -14.485  -7.790  49.910  1.00  0.00    -0.507 OA
ATOM     23  H   UNL     1     -13.648  -7.434  50.345  1.00  0.00     0.293 HD
ENDBRANCH   6  22
BRANCH   8  24
ATOM     24  O   UNL     1     -13.734 -12.111  47.955  1.00  0.00    -0.508 OA
ATOM     25  H   UNL     1     -14.080 -12.846  47.350  1.00  0.00     0.293 HD
ENDBRANCH   8  24
TORSDOF 5
ENDMDL
MODEL 7
REMARK VINA RESULT:    -6.938      3.836      4.648
REMARK INTER + INTRA:          -7.652
REMARK INTER:                  -7.357
REMARK INTRA:                  -0.294
REMARK UNBOUND:                 0.503
REMARK SMILES O=c1c(O)c(-c2ccc(O)cc2)oc2cc(O)cc(O)c12
REMARK SMILES IDX 5 1 3 2 2 3 1 4 21 5 19 6 18 7 16 8 15 9 14 10 13 11 6 12
REMARK SMILES IDX 7 13 8 14 9 15 12 16 11 17 10 18 4 20 20 22 17 24
REMARK H PARENT 10 19 4 21 20 23 17 25
REMARK Flexibility Score: inf
ROOT
ATOM      1  C   UNL     1     -13.991  -8.449  46.469  1.00  0.00     0.180 A 
ATOM      2  C   UNL     1     -14.196  -8.201  47.838  1.00  0.00     0.208 A 
ATOM      3  C   UNL     1     -13.115  -7.760  48.620  1.00  0.00     0.238 A 
ATOM      4  O   UNL     1     -13.317  -7.489  49.832  1.00  0.00    -0.285 OA
ATOM      5  C   UNL     1     -11.841  -7.590  48.027  1.00  0.00     0.111 A 
ATOM      6  C   UNL     1     -10.667  -7.187  48.731  1.00  0.00     0.134 A 
ATOM      7  C   UNL     1      -9.491  -6.923  48.019  1.00  0.00     0.093 A 
ATOM      8  C   UNL     1      -9.428  -7.111  46.636  1.00  0.00     0.123 A 
ATOM      9  C   UNL     1     -10.553  -7.561  45.949  1.00  0.00     0.094 A 
ATOM     10  C   UNL     1     -11.751  -7.798  46.626  1.00  0.00     0.146 A 
ATOM     11  O   UNL     1     -12.801  -8.215  45.930  1.00  0.00    -0.452 OA
ENDROOT
BRANCH   1  12
ATOM     12  C   UNL     1     -15.075  -8.939  45.587  1.00  0.00     0.021 A 
ATOM     13  C   UNL     1     -15.280 -10.314  45.372  1.00  0.00     0.016 A 
ATOM     14  C   UNL     1     -16.295 -10.751  44.514  1.00  0.00     0.047 A 
ATOM     15  C   UNL     1     -17.107  -9.824  43.854  1.00  0.00     0.115 A 
ATOM     16  C   UNL     1     -15.882  -8.013  44.904  1.00  0.00     0.016 A 
ATOM     17  C   UNL     1     -16.896  -8.454  44.048  1.00  0.00     0.047 A 
BRANCH  15  18
ATOM     18  O   UNL     1     -18.115 -10.275  43.004  1.00  0.00    -0.508 OA
ATOM     19  H   UNL     1     -18.522 -11.197  43.109  1.00  0.00     0.293 HD
ENDBRANCH  15  18
ENDBRANCH   1  12
BRANCH   2  20
ATOM     20  O   UNL     1     -15.467  -8.356  48.398  1.00  0.00    -0.502 OA
ATOM     21  H   UNL     1     -15.634  -8.286  49.396  1.00  0.00     0.293 HD
ENDBRANCH   2  20
BRANCH   6  22
ATOM     22  O   UNL     1     -10.597  -7.059  50.122  1.00  0.00    -0.507 OA
ATOM     23  H   UNL     1     -10.860  -6.233  50.637  1.00  0.00     0.293 HD
ENDBRANCH   6  22
BRANCH   8  24
ATOM     24  O   UNL     1      -8.249  -6.861  45.938  1.00  0.00    -0.508 OA
ATOM     25  H   UNL     1      -8.136  -7.140  44.971  1.00  0.00     0.293 HD
ENDBRANCH   8  24
TORSDOF 5
ENDMDL
MODEL 8
REMARK VINA RESULT:    -6.892      9.102     11.368
REMARK INTER + INTRA:          -7.597
REMARK INTER:                  -7.990
REMARK INTRA:                   0.394
REMARK UNBOUND:                 0.503
REMARK SMILES O=c1c(O)c(-c2ccc(O)cc2)oc2cc(O)cc(O)c12
REMARK SMILES IDX 5 1 3 2 2 3 1 4 21 5 19 6 18 7 16 8 15 9 14 10 13 11 6 12
REMARK SMILES IDX 7 13 8 14 9 15 12 16 11 17 10 18 4 20 20 22 17 24
REMARK H PARENT 10 19 4 21 20 23 17 25
REMARK Flexibility Score: inf
ROOT
ATOM      1  C   UNL     1     -10.593  -8.713  38.053  1.00  0.00     0.180 A 
ATOM      2  C   UNL     1     -10.069  -9.393  39.166  1.00  0.00     0.208 A 
ATOM      3  C   UNL     1      -8.915 -10.177  39.004  1.00  0.00     0.238 A 
ATOM      4  O   UNL     1      -8.419 -10.739  40.015  1.00  0.00    -0.285 OA
ATOM      5  C   UNL     1      -8.310 -10.284  37.729  1.00  0.00     0.111 A 
ATOM      6  C   UNL     1      -7.162 -11.081  37.441  1.00  0.00     0.134 A 
ATOM      7  C   UNL     1      -6.571 -11.009  36.174  1.00  0.00     0.093 A 
ATOM      8  C   UNL     1      -7.125 -10.218  35.164  1.00  0.00     0.123 A 
ATOM      9  C   UNL     1      -8.280  -9.483  35.418  1.00  0.00     0.094 A 
ATOM     10  C   UNL     1      -8.872  -9.506  36.684  1.00  0.00     0.146 A 
ATOM     11  O   UNL     1      -9.965  -8.781  36.886  1.00  0.00    -0.452 OA
ENDROOT
BRANCH   1  12
ATOM     12  C   UNL     1     -11.821  -7.889  38.140  1.00  0.00     0.021 A 
ATOM     13  C   UNL     1     -12.633  -7.663  37.014  1.00  0.00     0.016 A 
ATOM     14  C   UNL     1     -13.775  -6.860  37.117  1.00  0.00     0.047 A 
ATOM     15  C   UNL     1     -14.109  -6.264  38.336  1.00  0.00     0.115 A 
ATOM     16  C   UNL     1     -12.152  -7.270  39.357  1.00  0.00     0.016 A 
ATOM     17  C   UNL     1     -13.294  -6.468  39.456  1.00  0.00     0.047 A 
BRANCH  15  18
ATOM     18  O   UNL     1     -15.250  -5.468  38.423  1.00  0.00    -0.508 OA
ATOM     19  H   UNL     1     -16.133  -5.764  38.025  1.00  0.00     0.293 HD
ENDBRANCH  15  18
ENDBRANCH   1  12
BRANCH   2  20
ATOM     20  O   UNL     1     -10.670  -9.256  40.421  1.00  0.00    -0.502 OA
ATOM     21  H   UNL     1     -11.641  -8.989  40.532  1.00  0.00     0.293 HD
ENDBRANCH   2  20
BRANCH   6  22
ATOM     22  O   UNL     1      -6.585 -11.975  38.349  1.00  0.00    -0.507 OA
ATOM     23  H   UNL     1      -5.747 -11.793  38.880  1.00  0.00     0.293 HD
ENDBRANCH   6  22
BRANCH   8  24
ATOM     24  O   UNL     1      -6.539 -10.165  33.902  1.00  0.00    -0.508 OA
ATOM     25  H   UNL     1      -6.468  -9.296  33.386  1.00  0.00     0.293 HD
ENDBRANCH   8  24
TORSDOF 5
ENDMDL
MODEL 9
REMARK VINA RESULT:    -6.771      4.514      6.354
REMARK INTER + INTRA:          -7.455
REMARK INTER:                  -7.178
REMARK INTRA:                  -0.276
REMARK UNBOUND:                 0.503
REMARK SMILES O=c1c(O)c(-c2ccc(O)cc2)oc2cc(O)cc(O)c12
REMARK SMILES IDX 5 1 3 2 2 3 1 4 21 5 19 6 18 7 16 8 15 9 14 10 13 11 6 12
REMARK SMILES IDX 7 13 8 14 9 15 12 16 11 17 10 18 4 20 20 22 17 24
REMARK H PARENT 10 19 4 21 20 23 17 25
REMARK Flexibility Score: inf
ROOT
ATOM      1  C   UNL     1     -12.821  -8.893  45.510  1.00  0.00     0.180 A 
ATOM      2  C   UNL     1     -13.323 -10.043  46.143  1.00  0.00     0.208 A 
ATOM      3  C   UNL     1     -14.711 -10.252  46.174  1.00  0.00     0.238 A 
ATOM      4  O   UNL     1     -15.151 -11.310  46.695  1.00  0.00    -0.285 OA
ATOM      5  C   UNL     1     -15.579  -9.301  45.587  1.00  0.00     0.111 A 
ATOM      6  C   UNL     1     -17.004  -9.391  45.595  1.00  0.00     0.134 A 
ATOM      7  C   UNL     1     -17.759  -8.462  44.870  1.00  0.00     0.093 A 
ATOM      8  C   UNL     1     -17.144  -7.406  44.191  1.00  0.00     0.123 A 
ATOM      9  C   UNL     1     -15.758  -7.277  44.227  1.00  0.00     0.094 A 
ATOM     10  C   UNL     1     -14.975  -8.210  44.912  1.00  0.00     0.146 A 
ATOM     11  O   UNL     1     -13.657  -8.054  44.911  1.00  0.00    -0.452 OA
ENDROOT
BRANCH   1  12
ATOM     12  C   UNL     1     -11.371  -8.591  45.458  1.00  0.00     0.021 A 
ATOM     13  C   UNL     1     -10.774  -7.708  46.376  1.00  0.00     0.016 A 
ATOM     14  C   UNL     1      -9.407  -7.420  46.291  1.00  0.00     0.047 A 
ATOM     15  C   UNL     1      -8.627  -7.998  45.286  1.00  0.00     0.115 A 
ATOM     16  C   UNL     1     -10.585  -9.152  44.437  1.00  0.00     0.016 A 
ATOM     17  C   UNL     1      -9.219  -8.862  44.357  1.00  0.00     0.047 A 
BRANCH  15  18
ATOM     18  O   UNL     1      -7.266  -7.703  45.215  1.00  0.00    -0.508 OA
ATOM     19  H   UNL     1      -6.909  -7.004  44.573  1.00  0.00     0.293 HD
ENDBRANCH  15  18
ENDBRANCH   1  12
BRANCH   2  20
ATOM     20  O   UNL     1     -12.446 -10.980  46.697  1.00  0.00    -0.502 OA
ATOM     21  H   UNL     1     -12.745 -11.907  46.976  1.00  0.00     0.293 HD
ENDBRANCH   2  20
BRANCH   6  22
ATOM     22  O   UNL     1     -17.721 -10.351  46.317  1.00  0.00    -0.507 OA
ATOM     23  H   UNL     1     -17.651 -10.492  47.313  1.00  0.00     0.293 HD
ENDBRANCH   6  22
BRANCH   8  24
ATOM     24  O   UNL     1     -17.904  -6.477  43.486  1.00  0.00    -0.508 OA
ATOM     25  H   UNL     1     -18.098  -6.590  42.498  1.00  0.00     0.293 HD
ENDBRANCH   8  24
TORSDOF 5
ENDMDL
