MODEL 1
REMARK VINA RESULT:    -5.479      0.000      0.000
REMARK INTER + INTRA:         -16.269
REMARK INTER:                 -13.807
REMARK INTRA:                  -2.462
REMARK UNBOUND:                -2.462
REMARK SMILES CCCCCCCCCCCCCCCCCCCCCCCCCCCC(=O)[O-]
REMARK SMILES IDX 15 1 16 2 17 3 18 4 19 5 20 6 21 7 22 8 23 9 24 10 25 11
REMARK SMILES IDX 26 12 27 13 28 14 29 15 30 16 14 17 13 18 12 19 11 20 10 21
REMARK SMILES IDX 9 22 8 23 7 24 6 25 5 26 4 27 3 28 2 29 1 30
REMARK H PARENT
REMARK Flexibility Score: inf
ROOT
ATOM      1  C   UNL     1      -0.115  -6.228  -1.150  1.00  0.00     0.000 C 
ENDROOT
BRANCH   1   2
ATOM      2  C   UNL     1       0.336  -5.408  -2.369  1.00  0.00     0.000 C 
BRANCH   2   3
ATOM      3  C   UNL     1       0.407  -3.901  -2.078  1.00  0.00     0.000 C 
BRANCH   3   4
ATOM      4  C   UNL     1       1.049  -3.590  -0.717  1.00  0.00     0.000 C 
BRANCH   4   5
ATOM      5  C   UNL     1       0.332  -2.420  -0.032  1.00  0.00     0.000 C 
BRANCH   5   6
ATOM      6  C   UNL     1       1.154  -1.884   1.150  1.00  0.00     0.000 C 
BRANCH   6   7
ATOM      7  C   UNL     1       0.739  -0.463   1.573  1.00  0.00     0.000 C 
BRANCH   7   8
ATOM      8  C   UNL     1       0.353   0.475   0.414  1.00  0.00     0.000 C 
BRANCH   8   9
ATOM      9  C   UNL     1      -0.383   1.736   0.885  1.00  0.00     0.000 C 
BRANCH   9  10
ATOM     10  C   UNL     1      -1.572   2.050  -0.036  1.00  0.00     0.000 C 
BRANCH  10  11
ATOM     11  C   UNL     1      -1.626   1.137  -1.271  1.00  0.00     0.000 C 
BRANCH  11  12
ATOM     12  C   UNL     1      -1.438   1.908  -2.589  1.00  0.00     0.006 C 
BRANCH  12  13
ATOM     13  C   UNL     1      -0.738   3.256  -2.375  1.00  0.00     0.053 C 
BRANCH  13  14
ATOM     14  C   UNL     1       0.534   3.351  -3.161  1.00  0.00     0.041 C 
ATOM     15  O   UNL     1       1.223   4.405  -3.131  1.00  0.00    -0.550 OA
ATOM     16  O   UNL     1       0.975   2.263  -3.903  1.00  0.00    -0.550 OA
ENDBRANCH  13  14
ENDBRANCH  12  13
ENDBRANCH  11  12
ENDBRANCH  10  11
ENDBRANCH   9  10
ENDBRANCH   8   9
ENDBRANCH   7   8
ENDBRANCH   6   7
ENDBRANCH   5   6
ENDBRANCH   4   5
ENDBRANCH   3   4
ENDBRANCH   2   3
ENDBRANCH   1   2
BRANCH   1  17
ATOM     17  C   UNL     1      -1.073  -7.353  -1.569  1.00  0.00     0.000 C 
BRANCH  17  18
ATOM     18  C   UNL     1      -1.637  -8.144  -0.373  1.00  0.00     0.000 C 
BRANCH  18  19
ATOM     19  C   UNL     1      -1.354  -9.657  -0.398  1.00  0.00     0.000 C 
BRANCH  19  20
ATOM     20  C   UNL     1      -0.139 -10.115   0.433  1.00  0.00     0.000 C 
BRANCH  20  21
ATOM     21  C   UNL     1       1.226  -9.778  -0.205  1.00  0.00     0.000 C 
BRANCH  21  22
ATOM     22  C   UNL     1       1.228  -9.947  -1.736  1.00  0.00    -0.000 C 
BRANCH  22  23
ATOM     23  C   UNL     1       2.177  -8.962  -2.437  1.00  0.00    -0.000 C 
BRANCH  23  24
ATOM     24  C   UNL     1       2.860  -9.572  -3.673  1.00  0.00    -0.000 C 
BRANCH  24  25
ATOM     25  C   UNL     1       4.342  -9.179  -3.784  1.00  0.00    -0.000 C 
BRANCH  25  26
ATOM     26  C   UNL     1       4.694  -8.579  -5.154  1.00  0.00    -0.000 C 
BRANCH  26  27
ATOM     27  C   UNL     1       3.548  -8.782  -6.158  1.00  0.00    -0.000 C 
BRANCH  27  28
ATOM     28  C   UNL     1       2.995  -7.453  -6.697  1.00  0.00    -0.000 C 
BRANCH  28  29
ATOM     29  C   UNL     1       2.304  -6.614  -5.613  1.00  0.00    -0.003 C 
ATOM     30  C   UNL     1       1.781  -5.300  -6.186  1.00  0.00     0.004 C 
ENDBRANCH  28  29
ENDBRANCH  27  28
ENDBRANCH  26  27
ENDBRANCH  25  26
ENDBRANCH  24  25
ENDBRANCH  23  24
ENDBRANCH  22  23
ENDBRANCH  21  22
ENDBRANCH  20  21
ENDBRANCH  19  20
ENDBRANCH  18  19
ENDBRANCH  17  18
ENDBRANCH   1  17
TORSDOF 26
ENDMDL
MODEL 2
REMARK VINA RESULT:    -5.159      0.936      4.066
REMARK INTER + INTRA:         -15.463
REMARK INTER:                 -13.577
REMARK INTRA:                  -1.886
REMARK UNBOUND:                -2.462
REMARK SMILES CCCCCCCCCCCCCCCCCCCCCCCCCCCC(=O)[O-]
REMARK SMILES IDX 15 1 16 2 17 3 18 4 19 5 20 6 21 7 22 8 23 9 24 10 25 11
REMARK SMILES IDX 26 12 27 13 28 14 29 15 30 16 14 17 13 18 12 19 11 20 10 21
REMARK SMILES IDX 9 22 8 23 7 24 6 25 5 26 4 27 3 28 2 29 1 30
REMARK H PARENT
REMARK Flexibility Score: inf
ROOT
ATOM      1  C   UNL     1       0.316  -4.668  -2.593  1.00  0.00     0.000 C 
ENDROOT
BRANCH   1   2
ATOM      2  C   UNL     1       0.840  -3.370  -1.958  1.00  0.00     0.000 C 
BRANCH   2   3
ATOM      3  C   UNL     1       0.756  -3.384  -0.423  1.00  0.00     0.000 C 
BRANCH   3   4
ATOM      4  C   UNL     1       0.165  -2.086   0.149  1.00  0.00     0.000 C 
BRANCH   4   5
ATOM      5  C   UNL     1       1.121  -1.458   1.170  1.00  0.00     0.000 C 
BRANCH   5   6
ATOM      6  C   UNL     1       0.670  -0.039   1.550  1.00  0.00     0.000 C 
BRANCH   6   7
ATOM      7  C   UNL     1       0.203   0.786   0.337  1.00  0.00     0.000 C 
BRANCH   7   8
ATOM      8  C   UNL     1      -0.887   1.830   0.641  1.00  0.00     0.000 C 
BRANCH   8   9
ATOM      9  C   UNL     1      -2.150   1.642  -0.211  1.00  0.00     0.000 C 
BRANCH   9  10
ATOM     10  C   UNL     1      -2.225   2.706  -1.317  1.00  0.00     0.000 C 
BRANCH  10  11
ATOM     11  C   UNL     1      -1.308   3.909  -1.049  1.00  0.00     0.000 C 
BRANCH  11  12
ATOM     12  C   UNL     1      -0.295   4.148  -2.183  1.00  0.00     0.006 C 
BRANCH  12  13
ATOM     13  C   UNL     1      -0.250   2.977  -3.174  1.00  0.00     0.053 C 
BRANCH  13  14
ATOM     14  C   UNL     1       1.059   2.916  -3.901  1.00  0.00     0.041 C 
ATOM     15  O   UNL     1       1.598   1.805  -4.147  1.00  0.00    -0.550 OA
ATOM     16  O   UNL     1       1.669   4.087  -4.333  1.00  0.00    -0.550 OA
ENDBRANCH  13  14
ENDBRANCH  12  13
ENDBRANCH  11  12
ENDBRANCH  10  11
ENDBRANCH   9  10
ENDBRANCH   8   9
ENDBRANCH   7   8
ENDBRANCH   6   7
ENDBRANCH   5   6
ENDBRANCH   4   5
ENDBRANCH   3   4
ENDBRANCH   2   3
ENDBRANCH   1   2
BRANCH   1  17
ATOM     17  C   UNL     1       0.022  -4.467  -4.087  1.00  0.00     0.000 C 
BRANCH  17  18
ATOM     18  C   UNL     1       1.297  -4.416  -4.951  1.00  0.00     0.000 C 
BRANCH  18  19
ATOM     19  C   UNL     1       1.267  -5.296  -6.214  1.00  0.00     0.000 C 
BRANCH  19  20
ATOM     20  C   UNL     1       2.529  -6.147  -6.456  1.00  0.00     0.000 C 
BRANCH  20  21
ATOM     21  C   UNL     1       2.645  -7.380  -5.534  1.00  0.00     0.000 C 
BRANCH  21  22
ATOM     22  C   UNL     1       3.521  -8.496  -6.134  1.00  0.00    -0.000 C 
BRANCH  22  23
ATOM     23  C   UNL     1       4.709  -8.864  -5.232  1.00  0.00    -0.000 C 
BRANCH  23  24
ATOM     24  C   UNL     1       4.336  -8.891  -3.740  1.00  0.00    -0.000 C 
BRANCH  24  25
ATOM     25  C   UNL     1       3.253  -9.935  -3.420  1.00  0.00    -0.000 C 
BRANCH  25  26
ATOM     26  C   UNL     1       2.011  -9.316  -2.758  1.00  0.00    -0.000 C 
BRANCH  26  27
ATOM     27  C   UNL     1       1.624 -10.084  -1.485  1.00  0.00    -0.000 C 
BRANCH  27  28
ATOM     28  C   UNL     1       0.763  -9.243  -0.528  1.00  0.00    -0.000 C 
BRANCH  28  29
ATOM     29  C   UNL     1       0.049  -8.083  -1.237  1.00  0.00    -0.003 C 
ATOM     30  C   UNL     1      -1.350  -7.870  -0.665  1.00  0.00     0.004 C 
ENDBRANCH  28  29
ENDBRANCH  27  28
ENDBRANCH  26  27
ENDBRANCH  25  26
ENDBRANCH  24  25
ENDBRANCH  23  24
ENDBRANCH  22  23
ENDBRANCH  21  22
ENDBRANCH  20  21
ENDBRANCH  19  20
ENDBRANCH  18  19
ENDBRANCH  17  18
ENDBRANCH   1  17
TORSDOF 26
ENDMDL
MODEL 3
REMARK VINA RESULT:    -5.073      3.081     10.431
REMARK INTER + INTRA:         -15.246
REMARK INTER:                 -13.601
REMARK INTRA:                  -1.645
REMARK UNBOUND:                -2.462
REMARK SMILES CCCCCCCCCCCCCCCCCCCCCCCCCCCC(=O)[O-]
REMARK SMILES IDX 15 1 16 2 17 3 18 4 19 5 20 6 21 7 22 8 23 9 24 10 25 11
REMARK SMILES IDX 26 12 27 13 28 14 29 15 30 16 14 17 13 18 12 19 11 20 10 21
REMARK SMILES IDX 9 22 8 23 7 24 6 25 5 26 4 27 3 28 2 29 1 30
REMARK H PARENT
REMARK Flexibility Score: inf
ROOT
ATOM      1  C   UNL     1       0.404  -4.455  -4.697  1.00  0.00     0.000 C 
ENDROOT
BRANCH   1   2
ATOM      2  C   UNL     1       1.831  -4.720  -5.203  1.00  0.00     0.000 C 
BRANCH   2   3
ATOM      3  C   UNL     1       1.875  -5.751  -6.342  1.00  0.00     0.000 C 
BRANCH   3   4
ATOM      4  C   UNL     1       2.678  -7.007  -5.973  1.00  0.00     0.000 C 
BRANCH   4   5
ATOM      5  C   UNL     1       3.005  -7.831  -7.224  1.00  0.00     0.000 C 
BRANCH   5   6
ATOM      6  C   UNL     1       4.091  -8.877  -6.930  1.00  0.00     0.000 C 
BRANCH   6   7
ATOM      7  C   UNL     1       4.889  -8.568  -5.650  1.00  0.00     0.000 C 
BRANCH   7   8
ATOM      8  C   UNL     1       4.816  -9.654  -4.560  1.00  0.00     0.000 C 
BRANCH   8   9
ATOM      9  C   UNL     1       4.014  -9.212  -3.328  1.00  0.00     0.000 C 
BRANCH   9  10
ATOM     10  C   UNL     1       2.601  -9.815  -3.352  1.00  0.00     0.000 C 
BRANCH  10  11
ATOM     11  C   UNL     1       1.770  -9.431  -2.117  1.00  0.00     0.000 C 
BRANCH  11  12
ATOM     12  C   UNL     1       0.320  -9.939  -2.196  1.00  0.00     0.006 C 
BRANCH  12  13
ATOM     13  C   UNL     1      -0.381  -9.904  -0.831  1.00  0.00     0.053 C 
BRANCH  13  14
ATOM     14  C   UNL     1      -1.181  -8.651  -0.651  1.00  0.00     0.041 C 
ATOM     15  O   UNL     1      -2.164  -8.633   0.135  1.00  0.00    -0.550 OA
ATOM     16  O   UNL     1      -0.822  -7.493  -1.329  1.00  0.00    -0.550 OA
ENDBRANCH  13  14
ENDBRANCH  12  13
ENDBRANCH  11  12
ENDBRANCH  10  11
ENDBRANCH   9  10
ENDBRANCH   8   9
ENDBRANCH   7   8
ENDBRANCH   6   7
ENDBRANCH   5   6
ENDBRANCH   4   5
ENDBRANCH   3   4
ENDBRANCH   2   3
ENDBRANCH   1   2
BRANCH   1  17
ATOM     17  C   UNL     1       0.340  -4.547  -3.166  1.00  0.00     0.000 C 
BRANCH  17  18
ATOM     18  C   UNL     1       0.996  -3.345  -2.460  1.00  0.00     0.000 C 
BRANCH  18  19
ATOM     19  C   UNL     1       1.075  -3.450  -0.925  1.00  0.00     0.000 C 
BRANCH  19  20
ATOM     20  C   UNL     1       0.257  -2.401  -0.149  1.00  0.00     0.000 C 
BRANCH  20  21
ATOM     21  C   UNL     1       0.985  -1.815   1.080  1.00  0.00     0.000 C 
BRANCH  21  22
ATOM     22  C   UNL     1       0.779  -0.296   1.231  1.00  0.00    -0.000 C 
BRANCH  22  23
ATOM     23  C   UNL     1      -0.091   0.295   0.111  1.00  0.00    -0.000 C 
BRANCH  23  24
ATOM     24  C   UNL     1      -0.683   1.667   0.480  1.00  0.00    -0.000 C 
BRANCH  24  25
ATOM     25  C   UNL     1      -1.536   2.265  -0.651  1.00  0.00    -0.000 C 
BRANCH  25  26
ATOM     26  C   UNL     1      -1.423   3.796  -0.729  1.00  0.00    -0.000 C 
BRANCH  26  27
ATOM     27  C   UNL     1      -0.610   4.228  -1.959  1.00  0.00    -0.000 C 
BRANCH  27  28
ATOM     28  C   UNL     1       0.449   3.188  -2.360  1.00  0.00    -0.000 C 
BRANCH  28  29
ATOM     29  C   UNL     1       0.094   2.451  -3.660  1.00  0.00    -0.003 C 
ATOM     30  C   UNL     1       1.120   2.741  -4.752  1.00  0.00     0.004 C 
ENDBRANCH  28  29
ENDBRANCH  27  28
ENDBRANCH  26  27
ENDBRANCH  25  26
ENDBRANCH  24  25
ENDBRANCH  23  24
ENDBRANCH  22  23
ENDBRANCH  21  22
ENDBRANCH  20  21
ENDBRANCH  19  20
ENDBRANCH  18  19
ENDBRANCH  17  18
ENDBRANCH   1  17
TORSDOF 26
ENDMDL
MODEL 4
REMARK VINA RESULT:    -5.001      1.191      1.999
REMARK INTER + INTRA:         -15.064
REMARK INTER:                 -12.907
REMARK INTRA:                  -2.157
REMARK UNBOUND:                -2.462
REMARK SMILES CCCCCCCCCCCCCCCCCCCCCCCCCCCC(=O)[O-]
REMARK SMILES IDX 15 1 16 2 17 3 18 4 19 5 20 6 21 7 22 8 23 9 24 10 25 11
REMARK SMILES IDX 26 12 27 13 28 14 29 15 30 16 14 17 13 18 12 19 11 20 10 21
REMARK SMILES IDX 9 22 8 23 7 24 6 25 5 26 4 27 3 28 2 29 1 30
REMARK H PARENT
REMARK Flexibility Score: inf
ROOT
ATOM      1  C   UNL     1       0.137  -5.290  -2.718  1.00  0.00     0.000 C 
ENDROOT
BRANCH   1   2
ATOM      2  C   UNL     1       0.393  -3.845  -2.262  1.00  0.00     0.000 C 
BRANCH   2   3
ATOM      3  C   UNL     1       0.798  -3.751  -0.783  1.00  0.00     0.000 C 
BRANCH   3   4
ATOM      4  C   UNL     1       0.296  -2.464  -0.111  1.00  0.00     0.000 C 
BRANCH   4   5
ATOM      5  C   UNL     1       1.223  -2.055   1.040  1.00  0.00     0.000 C 
BRANCH   5   6
ATOM      6  C   UNL     1       0.841  -0.672   1.592  1.00  0.00     0.000 C 
BRANCH   6   7
ATOM      7  C   UNL     1       0.348   0.294   0.500  1.00  0.00     0.000 C 
BRANCH   7   8
ATOM      8  C   UNL     1      -0.168   1.649   1.016  1.00  0.00     0.000 C 
BRANCH   8   9
ATOM      9  C   UNL     1      -0.986   2.417  -0.033  1.00  0.00     0.000 C 
BRANCH   9  10
ATOM     10  C   UNL     1      -1.980   1.484  -0.740  1.00  0.00     0.000 C 
BRANCH  10  11
ATOM     11  C   UNL     1      -1.795   1.464  -2.266  1.00  0.00     0.000 C 
BRANCH  11  12
ATOM     12  C   UNL     1      -0.317   1.544  -2.686  1.00  0.00     0.006 C 
BRANCH  12  13
ATOM     13  C   UNL     1      -0.093   2.548  -3.825  1.00  0.00     0.053 C 
BRANCH  13  14
ATOM     14  C   UNL     1       0.538   3.815  -3.332  1.00  0.00     0.041 C 
ATOM     15  O   UNL     1       1.613   4.228  -3.840  1.00  0.00    -0.550 OA
ATOM     16  O   UNL     1      -0.079   4.554  -2.331  1.00  0.00    -0.550 OA
ENDBRANCH  13  14
ENDBRANCH  12  13
ENDBRANCH  11  12
ENDBRANCH  10  11
ENDBRANCH   9  10
ENDBRANCH   8   9
ENDBRANCH   7   8
ENDBRANCH   6   7
ENDBRANCH   5   6
ENDBRANCH   4   5
ENDBRANCH   3   4
ENDBRANCH   2   3
ENDBRANCH   1   2
BRANCH   1  17
ATOM     17  C   UNL     1      -0.061  -6.218  -1.511  1.00  0.00     0.000 C 
BRANCH  17  18
ATOM     18  C   UNL     1      -1.324  -7.094  -1.623  1.00  0.00     0.000 C 
BRANCH  18  19
ATOM     19  C   UNL     1      -1.779  -7.757  -0.310  1.00  0.00     0.000 C 
BRANCH  19  20
ATOM     20  C   UNL     1      -1.717  -9.297  -0.292  1.00  0.00     0.000 C 
BRANCH  20  21
ATOM     21  C   UNL     1      -0.734  -9.878   0.747  1.00  0.00     0.000 C 
BRANCH  21  22
ATOM     22  C   UNL     1       0.672 -10.125   0.167  1.00  0.00    -0.000 C 
BRANCH  22  23
ATOM     23  C   UNL     1       0.698 -10.059  -1.368  1.00  0.00    -0.000 C 
BRANCH  23  24
ATOM     24  C   UNL     1       1.980  -9.407  -1.913  1.00  0.00    -0.000 C 
BRANCH  24  25
ATOM     25  C   UNL     1       2.077  -9.486  -3.445  1.00  0.00    -0.000 C 
BRANCH  25  26
ATOM     26  C   UNL     1       3.459  -9.956  -3.928  1.00  0.00    -0.000 C 
BRANCH  26  27
ATOM     27  C   UNL     1       4.468  -8.797  -3.925  1.00  0.00    -0.000 C 
BRANCH  27  28
ATOM     28  C   UNL     1       5.109  -8.571  -5.304  1.00  0.00    -0.000 C 
BRANCH  28  29
ATOM     29  C   UNL     1       4.515  -9.479  -6.391  1.00  0.00    -0.003 C 
ATOM     30  C   UNL     1       3.823  -8.657  -7.474  1.00  0.00     0.004 C 
ENDBRANCH  28  29
ENDBRANCH  27  28
ENDBRANCH  26  27
ENDBRANCH  25  26
ENDBRANCH  24  25
ENDBRANCH  23  24
ENDBRANCH  22  23
ENDBRANCH  21  22
ENDBRANCH  20  21
ENDBRANCH  19  20
ENDBRANCH  18  19
ENDBRANCH  17  18
ENDBRANCH   1  17
TORSDOF 26
ENDMDL
MODEL 5
REMARK VINA RESULT:    -4.950      1.049      4.197
REMARK INTER + INTRA:         -14.936
REMARK INTER:                 -12.506
REMARK INTRA:                  -2.431
REMARK UNBOUND:                -2.462
REMARK SMILES CCCCCCCCCCCCCCCCCCCCCCCCCCCC(=O)[O-]
REMARK SMILES IDX 15 1 16 2 17 3 18 4 19 5 20 6 21 7 22 8 23 9 24 10 25 11
REMARK SMILES IDX 26 12 27 13 28 14 29 15 30 16 14 17 13 18 12 19 11 20 10 21
REMARK SMILES IDX 9 22 8 23 7 24 6 25 5 26 4 27 3 28 2 29 1 30
REMARK H PARENT
REMARK Flexibility Score: inf
ROOT
ATOM      1  C   UNL     1       0.358  -4.668  -5.487  1.00  0.00     0.000 C 
ENDROOT
BRANCH   1   2
ATOM      2  C   UNL     1       0.113  -4.498  -3.980  1.00  0.00     0.000 C 
BRANCH   2   3
ATOM      3  C   UNL     1       1.240  -3.724  -3.279  1.00  0.00     0.000 C 
BRANCH   3   4
ATOM      4  C   UNL     1       0.738  -2.903  -2.082  1.00  0.00     0.000 C 
BRANCH   4   5
ATOM      5  C   UNL     1       0.803  -3.727  -0.790  1.00  0.00     0.000 C 
BRANCH   5   6
ATOM      6  C   UNL     1       1.181  -2.846   0.410  1.00  0.00     0.000 C 
BRANCH   6   7
ATOM      7  C   UNL     1       0.459  -1.487   0.407  1.00  0.00     0.000 C 
BRANCH   7   8
ATOM      8  C   UNL     1       0.914  -0.506   1.503  1.00  0.00     0.000 C 
BRANCH   8   9
ATOM      9  C   UNL     1       0.168   0.835   1.455  1.00  0.00     0.000 C 
BRANCH   9  10
ATOM     10  C   UNL     1      -0.188   1.210   0.008  1.00  0.00     0.000 C 
BRANCH  10  11
ATOM     11  C   UNL     1      -1.514   1.979  -0.098  1.00  0.00     0.000 C 
BRANCH  11  12
ATOM     12  C   UNL     1      -1.859   2.372  -1.545  1.00  0.00     0.006 C 
BRANCH  12  13
ATOM     13  C   UNL     1      -0.796   1.893  -2.544  1.00  0.00     0.053 C 
BRANCH  13  14
ATOM     14  C   UNL     1       0.099   3.011  -2.981  1.00  0.00     0.041 C 
ATOM     15  O   UNL     1      -0.082   4.178  -2.544  1.00  0.00    -0.550 OA
ATOM     16  O   UNL     1       1.154   2.758  -3.848  1.00  0.00    -0.550 OA
ENDBRANCH  13  14
ENDBRANCH  12  13
ENDBRANCH  11  12
ENDBRANCH  10  11
ENDBRANCH   9  10
ENDBRANCH   8   9
ENDBRANCH   7   8
ENDBRANCH   6   7
ENDBRANCH   5   6
ENDBRANCH   4   5
ENDBRANCH   3   4
ENDBRANCH   2   3
ENDBRANCH   1   2
BRANCH   1  17
ATOM     17  C   UNL     1       1.850  -4.882  -5.780  1.00  0.00     0.000 C 
BRANCH  17  18
ATOM     18  C   UNL     1       2.312  -6.332  -5.536  1.00  0.00     0.000 C 
BRANCH  18  19
ATOM     19  C   UNL     1       2.351  -7.225  -6.790  1.00  0.00     0.000 C 
BRANCH  19  20
ATOM     20  C   UNL     1       3.740  -7.780  -7.162  1.00  0.00     0.000 C 
BRANCH  20  21
ATOM     21  C   UNL     1       3.815  -9.321  -7.199  1.00  0.00     0.000 C 
BRANCH  21  22
ATOM     22  C   UNL     1       4.460  -9.920  -5.935  1.00  0.00    -0.000 C 
BRANCH  22  23
ATOM     23  C   UNL     1       5.078  -8.849  -5.023  1.00  0.00    -0.000 C 
BRANCH  23  24
ATOM     24  C   UNL     1       4.436  -8.815  -3.626  1.00  0.00    -0.000 C 
BRANCH  24  25
ATOM     25  C   UNL     1       2.958  -9.240  -3.645  1.00  0.00    -0.000 C 
BRANCH  25  26
ATOM     26  C   UNL     1       2.346  -9.316  -2.237  1.00  0.00    -0.000 C 
BRANCH  26  27
ATOM     27  C   UNL     1       0.857  -8.937  -2.261  1.00  0.00    -0.000 C 
BRANCH  27  28
ATOM     28  C   UNL     1       0.556  -7.677  -1.434  1.00  0.00    -0.000 C 
BRANCH  28  29
ATOM     29  C   UNL     1      -0.942  -7.500  -1.146  1.00  0.00    -0.003 C 
ATOM     30  C   UNL     1      -1.531  -8.758  -0.514  1.00  0.00     0.004 C 
ENDBRANCH  28  29
ENDBRANCH  27  28
ENDBRANCH  26  27
ENDBRANCH  25  26
ENDBRANCH  24  25
ENDBRANCH  23  24
ENDBRANCH  22  23
ENDBRANCH  21  22
ENDBRANCH  20  21
ENDBRANCH  19  20
ENDBRANCH  18  19
ENDBRANCH  17  18
ENDBRANCH   1  17
TORSDOF 26
ENDMDL
MODEL 6
REMARK VINA RESULT:    -4.710      2.272      9.748
REMARK INTER + INTRA:         -14.330
REMARK INTER:                 -12.605
REMARK INTRA:                  -1.725
REMARK UNBOUND:                -2.462
REMARK SMILES CCCCCCCCCCCCCCCCCCCCCCCCCCCC(=O)[O-]
REMARK SMILES IDX 15 1 16 2 17 3 18 4 19 5 20 6 21 7 22 8 23 9 24 10 25 11
REMARK SMILES IDX 26 12 27 13 28 14 29 15 30 16 14 17 13 18 12 19 11 20 10 21
REMARK SMILES IDX 9 22 8 23 7 24 6 25 5 26 4 27 3 28 2 29 1 30
REMARK H PARENT
REMARK Flexibility Score: inf
ROOT
ATOM      1  C   UNL     1       0.139  -7.176  -1.197  1.00  0.00     0.000 C 
ENDROOT
BRANCH   1   2
ATOM      2  C   UNL     1      -1.159  -7.975  -1.389  1.00  0.00     0.000 C 
BRANCH   2   3
ATOM      3  C   UNL     1      -0.903  -9.452  -1.728  1.00  0.00     0.000 C 
BRANCH   3   4
ATOM      4  C   UNL     1       0.573  -9.848  -1.573  1.00  0.00     0.000 C 
BRANCH   4   5
ATOM      5  C   UNL     1       1.216 -10.097  -2.943  1.00  0.00     0.000 C 
BRANCH   5   6
ATOM      6  C   UNL     1       2.201  -8.975  -3.304  1.00  0.00     0.000 C 
BRANCH   6   7
ATOM      7  C   UNL     1       3.654  -9.469  -3.428  1.00  0.00     0.000 C 
BRANCH   7   8
ATOM      8  C   UNL     1       4.046  -9.992  -4.822  1.00  0.00     0.000 C 
BRANCH   8   9
ATOM      9  C   UNL     1       4.775  -8.941  -5.672  1.00  0.00     0.000 C 
BRANCH   9  10
ATOM     10  C   UNL     1       4.282  -8.977  -7.127  1.00  0.00     0.000 C 
BRANCH  10  11
ATOM     11  C   UNL     1       3.302  -7.838  -7.451  1.00  0.00     0.000 C 
BRANCH  11  12
ATOM     12  C   UNL     1       2.924  -7.009  -6.212  1.00  0.00     0.006 C 
BRANCH  12  13
ATOM     13  C   UNL     1       1.770  -6.038  -6.495  1.00  0.00     0.053 C 
BRANCH  13  14
ATOM     14  C   UNL     1       1.787  -4.868  -5.559  1.00  0.00     0.041 C 
ATOM     15  O   UNL     1       2.833  -4.184  -5.415  1.00  0.00    -0.550 OA
ATOM     16  O   UNL     1       0.634  -4.516  -4.867  1.00  0.00    -0.550 OA
ENDBRANCH  13  14
ENDBRANCH  12  13
ENDBRANCH  11  12
ENDBRANCH  10  11
ENDBRANCH   9  10
ENDBRANCH   8   9
ENDBRANCH   7   8
ENDBRANCH   6   7
ENDBRANCH   5   6
ENDBRANCH   4   5
ENDBRANCH   3   4
ENDBRANCH   2   3
ENDBRANCH   1   2
BRANCH   1  17
ATOM     17  C   UNL     1      -0.097  -5.679  -1.449  1.00  0.00     0.000 C 
BRANCH  17  18
ATOM     18  C   UNL     1       0.565  -4.777  -0.389  1.00  0.00     0.000 C 
BRANCH  18  19
ATOM     19  C   UNL     1       0.869  -3.340  -0.851  1.00  0.00     0.000 C 
BRANCH  19  20
ATOM     20  C   UNL     1       0.211  -2.225  -0.016  1.00  0.00     0.000 C 
BRANCH  20  21
ATOM     21  C   UNL     1       1.135  -1.610   1.057  1.00  0.00     0.000 C 
BRANCH  21  22
ATOM     22  C   UNL     1       0.593  -0.286   1.627  1.00  0.00    -0.000 C 
BRANCH  22  23
ATOM     23  C   UNL     1       0.593   0.848   0.590  1.00  0.00    -0.000 C 
BRANCH  23  24
ATOM     24  C   UNL     1      -0.789   1.504   0.426  1.00  0.00    -0.000 C 
BRANCH  24  25
ATOM     25  C   UNL     1      -1.370   1.312  -0.985  1.00  0.00    -0.000 C 
BRANCH  25  26
ATOM     26  C   UNL     1      -1.838   2.633  -1.616  1.00  0.00    -0.000 C 
BRANCH  26  27
ATOM     27  C   UNL     1      -0.788   3.739  -1.428  1.00  0.00    -0.000 C 
BRANCH  27  28
ATOM     28  C   UNL     1       0.102   3.923  -2.668  1.00  0.00    -0.000 C 
BRANCH  28  29
ATOM     29  C   UNL     1       0.640   2.593  -3.215  1.00  0.00    -0.003 C 
ATOM     30  C   UNL     1       0.967   2.705  -4.702  1.00  0.00     0.004 C 
ENDBRANCH  28  29
ENDBRANCH  27  28
ENDBRANCH  26  27
ENDBRANCH  25  26
ENDBRANCH  24  25
ENDBRANCH  23  24
ENDBRANCH  22  23
ENDBRANCH  21  22
ENDBRANCH  20  21
ENDBRANCH  19  20
ENDBRANCH  18  19
ENDBRANCH  17  18
ENDBRANCH   1  17
TORSDOF 26
ENDMDL
MODEL 7
REMARK VINA RESULT:    -4.699      3.518     10.557
REMARK INTER + INTRA:         -14.303
REMARK INTER:                 -12.794
REMARK INTRA:                  -1.510
REMARK UNBOUND:                -2.462
REMARK SMILES CCCCCCCCCCCCCCCCCCCCCCCCCCCC(=O)[O-]
REMARK SMILES IDX 15 1 16 2 17 3 18 4 19 5 20 6 21 7 22 8 23 9 24 10 25 11
REMARK SMILES IDX 26 12 27 13 28 14 29 15 30 16 14 17 13 18 12 19 11 20 10 21
REMARK SMILES IDX 9 22 8 23 7 24 6 25 5 26 4 27 3 28 2 29 1 30
REMARK H PARENT
REMARK Flexibility Score: inf
ROOT
ATOM      1  C   UNL     1       0.788  -4.082  -1.922  1.00  0.00     0.000 C 
ENDROOT
BRANCH   1   2
ATOM      2  C   UNL     1       0.035  -5.388  -2.223  1.00  0.00     0.000 C 
BRANCH   2   3
ATOM      3  C   UNL     1      -0.161  -6.261  -0.973  1.00  0.00     0.000 C 
BRANCH   3   4
ATOM      4  C   UNL     1      -1.069  -7.472  -1.234  1.00  0.00     0.000 C 
BRANCH   4   5
ATOM      5  C   UNL     1      -1.974  -7.743  -0.027  1.00  0.00     0.000 C 
BRANCH   5   6
ATOM      6  C   UNL     1      -1.984  -9.237   0.333  1.00  0.00     0.000 C 
BRANCH   6   7
ATOM      7  C   UNL     1      -0.890 -10.037  -0.398  1.00  0.00     0.000 C 
BRANCH   7   8
ATOM      8  C   UNL     1       0.531  -9.863   0.169  1.00  0.00     0.000 C 
BRANCH   8   9
ATOM      9  C   UNL     1       1.627 -10.125  -0.874  1.00  0.00     0.000 C 
BRANCH   9  10
ATOM     10  C   UNL     1       1.445  -9.215  -2.098  1.00  0.00     0.000 C 
BRANCH  10  11
ATOM     11  C   UNL     1       2.022  -9.826  -3.385  1.00  0.00     0.000 C 
BRANCH  11  12
ATOM     12  C   UNL     1       2.676  -8.775  -4.299  1.00  0.00     0.006 C 
BRANCH  12  13
ATOM     13  C   UNL     1       4.208  -8.811  -4.219  1.00  0.00     0.053 C 
BRANCH  13  14
ATOM     14  C   UNL     1       4.832  -8.932  -5.576  1.00  0.00     0.041 C 
ATOM     15  O   UNL     1       6.009  -9.361  -5.698  1.00  0.00    -0.550 OA
ATOM     16  O   UNL     1       4.100  -8.599  -6.709  1.00  0.00    -0.550 OA
ENDBRANCH  13  14
ENDBRANCH  12  13
ENDBRANCH  11  12
ENDBRANCH  10  11
ENDBRANCH   9  10
ENDBRANCH   8   9
ENDBRANCH   7   8
ENDBRANCH   6   7
ENDBRANCH   5   6
ENDBRANCH   4   5
ENDBRANCH   3   4
ENDBRANCH   2   3
ENDBRANCH   1   2
BRANCH   1  17
ATOM     17  C   UNL     1       0.629  -3.685  -0.447  1.00  0.00     0.000 C 
BRANCH  17  18
ATOM     18  C   UNL     1       0.365  -2.180  -0.252  1.00  0.00     0.000 C 
BRANCH  18  19
ATOM     19  C   UNL     1       0.645  -1.644   1.165  1.00  0.00     0.000 C 
BRANCH  19  20
ATOM     20  C   UNL     1       0.733  -0.110   1.285  1.00  0.00     0.000 C 
BRANCH  20  21
ATOM     21  C   UNL     1       0.109   0.653   0.097  1.00  0.00     0.000 C 
BRANCH  21  22
ATOM     22  C   UNL     1      -0.844   1.778   0.542  1.00  0.00    -0.000 C 
BRANCH  22  23
ATOM     23  C   UNL     1      -2.196   1.729  -0.186  1.00  0.00    -0.000 C 
BRANCH  23  24
ATOM     24  C   UNL     1      -2.756   3.128  -0.494  1.00  0.00    -0.000 C 
BRANCH  24  25
ATOM     25  C   UNL     1      -1.710   4.238  -0.302  1.00  0.00    -0.000 C 
BRANCH  25  26
ATOM     26  C   UNL     1      -1.065   4.678  -1.626  1.00  0.00    -0.000 C 
BRANCH  26  27
ATOM     27  C   UNL     1       0.100   3.753  -2.007  1.00  0.00    -0.000 C 
BRANCH  27  28
ATOM     28  C   UNL     1      -0.259   2.794  -3.154  1.00  0.00    -0.000 C 
BRANCH  28  29
ATOM     29  C   UNL     1       0.978   2.233  -3.869  1.00  0.00    -0.003 C 
ATOM     30  C   UNL     1       1.163   2.884  -5.237  1.00  0.00     0.004 C 
ENDBRANCH  28  29
ENDBRANCH  27  28
ENDBRANCH  26  27
ENDBRANCH  25  26
ENDBRANCH  24  25
ENDBRANCH  23  24
ENDBRANCH  22  23
ENDBRANCH  21  22
ENDBRANCH  20  21
ENDBRANCH  19  20
ENDBRANCH  18  19
ENDBRANCH  17  18
ENDBRANCH   1  17
TORSDOF 26
ENDMDL
MODEL 8
REMARK VINA RESULT:    -4.538      2.232     10.005
REMARK INTER + INTRA:         -13.898
REMARK INTER:                 -11.911
REMARK INTRA:                  -1.987
REMARK UNBOUND:                -2.462
REMARK SMILES CCCCCCCCCCCCCCCCCCCCCCCCCCCC(=O)[O-]
REMARK SMILES IDX 15 1 16 2 17 3 18 4 19 5 20 6 21 7 22 8 23 9 24 10 25 11
REMARK SMILES IDX 26 12 27 13 28 14 29 15 30 16 14 17 13 18 12 19 11 20 10 21
REMARK SMILES IDX 9 22 8 23 7 24 6 25 5 26 4 27 3 28 2 29 1 30
REMARK H PARENT
REMARK Flexibility Score: inf
ROOT
ATOM      1  C   UNL     1       0.356  -4.337  -1.546  1.00  0.00     0.000 C 
ENDROOT
BRANCH   1   2
ATOM      2  C   UNL     1       0.127  -5.636  -0.759  1.00  0.00     0.000 C 
BRANCH   2   3
ATOM      3  C   UNL     1      -0.005  -6.867  -1.669  1.00  0.00     0.000 C 
BRANCH   3   4
ATOM      4  C   UNL     1      -1.034  -7.882  -1.148  1.00  0.00     0.000 C 
BRANCH   4   5
ATOM      5  C   UNL     1      -0.340  -9.157  -0.655  1.00  0.00     0.000 C 
BRANCH   5   6
ATOM      6  C   UNL     1       1.188  -9.029  -0.755  1.00  0.00     0.000 C 
BRANCH   6   7
ATOM      7  C   UNL     1       1.808 -10.026  -1.751  1.00  0.00     0.000 C 
BRANCH   7   8
ATOM      8  C   UNL     1       2.779  -9.405  -2.773  1.00  0.00     0.000 C 
BRANCH   8   9
ATOM      9  C   UNL     1       2.194  -9.337  -4.190  1.00  0.00     0.000 C 
BRANCH   9  10
ATOM     10  C   UNL     1       3.295  -9.520  -5.245  1.00  0.00     0.000 C 
BRANCH  10  11
ATOM     11  C   UNL     1       3.355  -8.360  -6.251  1.00  0.00     0.000 C 
BRANCH  11  12
ATOM     12  C   UNL     1       3.094  -6.992  -5.596  1.00  0.00     0.006 C 
BRANCH  12  13
ATOM     13  C   UNL     1       2.023  -6.187  -6.344  1.00  0.00     0.053 C 
BRANCH  13  14
ATOM     14  C   UNL     1       1.766  -4.864  -5.690  1.00  0.00     0.041 C 
ATOM     15  O   UNL     1       0.592  -4.515  -5.401  1.00  0.00    -0.550 OA
ATOM     16  O   UNL     1       2.830  -4.028  -5.374  1.00  0.00    -0.550 OA
ENDBRANCH  13  14
ENDBRANCH  12  13
ENDBRANCH  11  12
ENDBRANCH  10  11
ENDBRANCH   9  10
ENDBRANCH   8   9
ENDBRANCH   7   8
ENDBRANCH   6   7
ENDBRANCH   5   6
ENDBRANCH   4   5
ENDBRANCH   3   4
ENDBRANCH   2   3
ENDBRANCH   1   2
BRANCH   1  17
ATOM     17  C   UNL     1       1.227  -3.357  -0.746  1.00  0.00     0.000 C 
BRANCH  17  18
ATOM     18  C   UNL     1       0.402  -2.328   0.051  1.00  0.00     0.000 C 
BRANCH  18  19
ATOM     19  C   UNL     1       1.108  -1.740   1.287  1.00  0.00     0.000 C 
BRANCH  19  20
ATOM     20  C   UNL     1       0.607  -0.354   1.736  1.00  0.00     0.000 C 
BRANCH  20  21
ATOM     21  C   UNL     1       0.612   0.712   0.618  1.00  0.00     0.000 C 
BRANCH  21  22
ATOM     22  C   UNL     1      -0.785   1.304   0.350  1.00  0.00    -0.000 C 
BRANCH  22  23
ATOM     23  C   UNL     1      -1.283   1.019  -1.076  1.00  0.00    -0.000 C 
BRANCH  23  24
ATOM     24  C   UNL     1      -2.174   2.144  -1.630  1.00  0.00    -0.000 C 
BRANCH  24  25
ATOM     25  C   UNL     1      -2.465   3.235  -0.586  1.00  0.00    -0.000 C 
BRANCH  25  26
ATOM     26  C   UNL     1      -1.463   4.399  -0.651  1.00  0.00    -0.000 C 
BRANCH  26  27
ATOM     27  C   UNL     1      -0.852   4.523  -2.055  1.00  0.00    -0.000 C 
BRANCH  27  28
ATOM     28  C   UNL     1       0.574   3.953  -2.130  1.00  0.00    -0.000 C 
BRANCH  28  29
ATOM     29  C   UNL     1       1.057   3.749  -3.573  1.00  0.00    -0.003 C 
ATOM     30  C   UNL     1       0.850   2.305  -4.021  1.00  0.00     0.004 C 
ENDBRANCH  28  29
ENDBRANCH  27  28
ENDBRANCH  26  27
ENDBRANCH  25  26
ENDBRANCH  24  25
ENDBRANCH  23  24
ENDBRANCH  22  23
ENDBRANCH  21  22
ENDBRANCH  20  21
ENDBRANCH  19  20
ENDBRANCH  18  19
ENDBRANCH  17  18
ENDBRANCH   1  17
TORSDOF 26
ENDMDL
MODEL 9
REMARK VINA RESULT:    -4.496      3.395     10.368
REMARK INTER + INTRA:         -13.791
REMARK INTER:                 -11.576
REMARK INTRA:                  -2.215
REMARK UNBOUND:                -2.462
REMARK SMILES CCCCCCCCCCCCCCCCCCCCCCCCCCCC(=O)[O-]
REMARK SMILES IDX 15 1 16 2 17 3 18 4 19 5 20 6 21 7 22 8 23 9 24 10 25 11
REMARK SMILES IDX 26 12 27 13 28 14 29 15 30 16 14 17 13 18 12 19 11 20 10 21
REMARK SMILES IDX 9 22 8 23 7 24 6 25 5 26 4 27 3 28 2 29 1 30
REMARK H PARENT
REMARK Flexibility Score: inf
ROOT
ATOM      1  C   UNL     1       0.372  -4.746  -1.112  1.00  0.00     0.000 C 
ENDROOT
BRANCH   1   2
ATOM      2  C   UNL     1       0.050  -5.212  -2.540  1.00  0.00     0.000 C 
BRANCH   2   3
ATOM      3  C   UNL     1       0.626  -4.274  -3.614  1.00  0.00     0.000 C 
BRANCH   3   4
ATOM      4  C   UNL     1      -0.220  -4.253  -4.896  1.00  0.00     0.000 C 
BRANCH   4   5
ATOM      5  C   UNL     1       0.638  -4.597  -6.120  1.00  0.00     0.000 C 
BRANCH   5   6
ATOM      6  C   UNL     1       2.007  -5.151  -5.697  1.00  0.00     0.000 C 
BRANCH   6   7
ATOM      7  C   UNL     1       2.194  -6.633  -6.070  1.00  0.00     0.000 C 
BRANCH   7   8
ATOM      8  C   UNL     1       3.202  -7.401  -5.195  1.00  0.00     0.000 C 
BRANCH   8   9
ATOM      9  C   UNL     1       2.646  -8.733  -4.672  1.00  0.00     0.000 C 
BRANCH   9  10
ATOM     10  C   UNL     1       3.216  -9.055  -3.282  1.00  0.00     0.000 C 
BRANCH  10  11
ATOM     11  C   UNL     1       2.195  -9.746  -2.365  1.00  0.00     0.000 C 
BRANCH  11  12
ATOM     12  C   UNL     1       1.134  -8.774  -1.819  1.00  0.00     0.006 C 
BRANCH  12  13
ATOM     13  C   UNL     1       0.783  -9.064  -0.354  1.00  0.00     0.053 C 
BRANCH  13  14
ATOM     14  C   UNL     1      -0.699  -9.135  -0.142  1.00  0.00     0.041 C 
ATOM     15  O   UNL     1      -1.476  -8.448  -0.854  1.00  0.00    -0.550 OA
ATOM     16  O   UNL     1      -1.222  -9.986   0.823  1.00  0.00    -0.550 OA
ENDBRANCH  13  14
ENDBRANCH  12  13
ENDBRANCH  11  12
ENDBRANCH  10  11
ENDBRANCH   9  10
ENDBRANCH   8   9
ENDBRANCH   7   8
ENDBRANCH   6   7
ENDBRANCH   5   6
ENDBRANCH   4   5
ENDBRANCH   3   4
ENDBRANCH   2   3
ENDBRANCH   1   2
BRANCH   1  17
ATOM     17  C   UNL     1       1.096  -3.392  -1.126  1.00  0.00     0.000 C 
BRANCH  17  18
ATOM     18  C   UNL     1       0.306  -2.276  -0.416  1.00  0.00     0.000 C 
BRANCH  18  19
ATOM     19  C   UNL     1       0.731  -1.995   1.037  1.00  0.00     0.000 C 
BRANCH  19  20
ATOM     20  C   UNL     1       1.209  -0.558   1.318  1.00  0.00     0.000 C 
BRANCH  20  21
ATOM     21  C   UNL     1       0.065   0.457   1.531  1.00  0.00     0.000 C 
BRANCH  21  22
ATOM     22  C   UNL     1      -0.113   1.417   0.339  1.00  0.00    -0.000 C 
BRANCH  22  23
ATOM     23  C   UNL     1      -1.177   0.931  -0.657  1.00  0.00    -0.000 C 
BRANCH  23  24
ATOM     24  C   UNL     1      -2.165   2.040  -1.059  1.00  0.00    -0.000 C 
BRANCH  24  25
ATOM     25  C   UNL     1      -1.782   3.411  -0.479  1.00  0.00    -0.000 C 
BRANCH  25  26
ATOM     26  C   UNL     1      -1.159   4.345  -1.528  1.00  0.00    -0.000 C 
BRANCH  26  27
ATOM     27  C   UNL     1       0.324   4.011  -1.753  1.00  0.00    -0.000 C 
BRANCH  27  28
ATOM     28  C   UNL     1       0.709   4.013  -3.242  1.00  0.00    -0.000 C 
BRANCH  28  29
ATOM     29  C   UNL     1       1.041   2.610  -3.770  1.00  0.00    -0.003 C 
ATOM     30  C   UNL     1       0.982   2.570  -5.295  1.00  0.00     0.004 C 
ENDBRANCH  28  29
ENDBRANCH  27  28
ENDBRANCH  26  27
ENDBRANCH  25  26
ENDBRANCH  24  25
ENDBRANCH  23  24
ENDBRANCH  22  23
ENDBRANCH  21  22
ENDBRANCH  20  21
ENDBRANCH  19  20
ENDBRANCH  18  19
ENDBRANCH  17  18
ENDBRANCH   1  17
TORSDOF 26
ENDMDL
