MODEL 1
REMARK VINA RESULT:    -6.872      0.000      0.000
REMARK INTER + INTRA:          -8.354
REMARK INTER:                  -8.077
REMARK INTRA:                  -0.277
REMARK UNBOUND:                -0.277
REMARK SMILES O=c1c(O)c(-c2ccc(O)cc2)oc2cc(O)cc(O)c12
REMARK SMILES IDX 5 1 3 2 2 3 1 4 21 5 19 6 18 7 16 8 15 9 14 10 13 11 6 12
REMARK SMILES IDX 7 13 8 14 9 15 12 16 11 17 10 18 4 20 20 22 17 24
REMARK H PARENT 10 19 4 21 20 23 17 25
REMARK Flexibility Score: inf
ROOT
ATOM      1  C   UNL     1      26.360   8.656 -32.762  1.00  0.00     0.180 A 
ATOM      2  C   UNL     1      25.923   9.823 -32.114  1.00  0.00     0.208 A 
ATOM      3  C   UNL     1      26.767  10.945 -32.089  1.00  0.00     0.238 A 
ATOM      4  O   UNL     1      26.347  12.005 -31.555  1.00  0.00    -0.285 OA
ATOM      5  C   UNL     1      28.043  10.880 -32.697  1.00  0.00     0.111 A 
ATOM      6  C   UNL     1      28.996  11.943 -32.697  1.00  0.00     0.134 A 
ATOM      7  C   UNL     1      30.175  11.814 -33.442  1.00  0.00     0.093 A 
ATOM      8  C   UNL     1      30.465  10.638 -34.132  1.00  0.00     0.123 A 
ATOM      9  C   UNL     1      29.568   9.570 -34.090  1.00  0.00     0.094 A 
ATOM     10  C   UNL     1      28.367   9.683 -33.385  1.00  0.00     0.146 A 
ATOM     11  O   UNL     1      27.536   8.647 -33.380  1.00  0.00    -0.452 OA
ENDROOT
BRANCH   1  12
ATOM     12  C   UNL     1      25.538   7.425 -32.809  1.00  0.00     0.021 A 
ATOM     13  C   UNL     1      25.718   6.435 -31.830  1.00  0.00     0.016 A 
ATOM     14  C   UNL     1      24.936   5.274 -31.842  1.00  0.00     0.047 A 
ATOM     15  C   UNL     1      23.954   5.099 -32.826  1.00  0.00     0.115 A 
ATOM     16  C   UNL     1      24.536   7.251 -33.781  1.00  0.00     0.016 A 
ATOM     17  C   UNL     1      23.755   6.091 -33.791  1.00  0.00     0.047 A 
BRANCH  15  18
ATOM     18  O   UNL     1      23.169   3.948 -32.848  1.00  0.00    -0.508 OA
ATOM     19  H   UNL     1      22.464   3.802 -33.561  1.00  0.00     0.293 HD
ENDBRANCH  15  18
ENDBRANCH   1  12
BRANCH   2  20
ATOM     20  O   UNL     1      24.650   9.874 -31.539  1.00  0.00    -0.502 OA
ATOM     21  H   UNL     1      24.046   9.063 -31.482  1.00  0.00     0.293 HD
ENDBRANCH   2  20
BRANCH   6  22
ATOM     22  O   UNL     1      28.846  13.125 -31.966  1.00  0.00    -0.507 OA
ATOM     23  H   UNL     1      28.918  13.194 -30.962  1.00  0.00     0.293 HD
ENDBRANCH   6  22
BRANCH   8  24
ATOM     24  O   UNL     1      31.655  10.538 -34.850  1.00  0.00    -0.508 OA
ATOM     25  H   UNL     1      31.665  10.554 -35.863  1.00  0.00     0.293 HD
ENDBRANCH   8  24
TORSDOF 5
ENDMDL
MODEL 2
REMARK VINA RESULT:    -6.073     12.819     14.169
REMARK INTER + INTRA:          -7.416
REMARK INTER:                  -7.191
REMARK INTRA:                  -0.224
REMARK UNBOUND:                -0.277
REMARK SMILES O=c1c(O)c(-c2ccc(O)cc2)oc2cc(O)cc(O)c12
REMARK SMILES IDX 5 1 3 2 2 3 1 4 21 5 19 6 18 7 16 8 15 9 14 10 13 11 6 12
REMARK SMILES IDX 7 13 8 14 9 15 12 16 11 17 10 18 4 20 20 22 17 24
REMARK H PARENT 10 19 4 21 20 23 17 25
REMARK Flexibility Score: inf
ROOT
ATOM      1  C   UNL     1      34.681   6.011 -22.322  1.00  0.00     0.180 A 
ATOM      2  C   UNL     1      34.402   7.046 -21.413  1.00  0.00     0.208 A 
ATOM      3  C   UNL     1      33.075   7.482 -21.266  1.00  0.00     0.238 A 
ATOM      4  O   UNL     1      32.824   8.371 -20.410  1.00  0.00    -0.285 OA
ATOM      5  C   UNL     1      32.049   6.891 -22.040  1.00  0.00     0.111 A 
ATOM      6  C   UNL     1      30.677   7.283 -22.002  1.00  0.00     0.134 A 
ATOM      7  C   UNL     1      29.726   6.542 -22.714  1.00  0.00     0.093 A 
ATOM      8  C   UNL     1      30.106   5.465 -23.515  1.00  0.00     0.123 A 
ATOM      9  C   UNL     1      31.452   5.111 -23.607  1.00  0.00     0.094 A 
ATOM     10  C   UNL     1      32.419   5.809 -22.879  1.00  0.00     0.146 A 
ATOM     11  O   UNL     1      33.688   5.432 -22.987  1.00  0.00    -0.452 OA
ENDROOT
BRANCH   1  12
ATOM     12  C   UNL     1      36.058   5.513 -22.551  1.00  0.00     0.021 A 
ATOM     13  C   UNL     1      36.407   4.224 -22.118  1.00  0.00     0.016 A 
ATOM     14  C   UNL     1      37.695   3.725 -22.344  1.00  0.00     0.047 A 
ATOM     15  C   UNL     1      38.643   4.506 -23.019  1.00  0.00     0.115 A 
ATOM     16  C   UNL     1      37.009   6.283 -23.246  1.00  0.00     0.016 A 
ATOM     17  C   UNL     1      38.295   5.782 -23.471  1.00  0.00     0.047 A 
BRANCH  15  18
ATOM     18  O   UNL     1      39.928   4.019 -23.250  1.00  0.00    -0.508 OA
ATOM     19  H   UNL     1      40.341   3.311 -22.655  1.00  0.00     0.293 HD
ENDBRANCH  15  18
ENDBRANCH   1  12
BRANCH   2  20
ATOM     20  O   UNL     1      35.426   7.600 -20.641  1.00  0.00    -0.502 OA
ATOM     21  H   UNL     1      36.205   7.052 -20.296  1.00  0.00     0.293 HD
ENDBRANCH   2  20
BRANCH   6  22
ATOM     22  O   UNL     1      30.204   8.399 -21.306  1.00  0.00    -0.507 OA
ATOM     23  H   UNL     1      30.747   8.943 -20.653  1.00  0.00     0.293 HD
ENDBRANCH   6  22
BRANCH   8  24
ATOM     24  O   UNL     1      29.135   4.759 -24.223  1.00  0.00    -0.508 OA
ATOM     25  H   UNL     1      28.945   4.956 -25.199  1.00  0.00     0.293 HD
ENDBRANCH   8  24
TORSDOF 5
ENDMDL
MODEL 3
REMARK VINA RESULT:    -5.958      2.365      6.957
REMARK INTER + INTRA:          -7.280
REMARK INTER:                  -7.000
REMARK INTRA:                  -0.280
REMARK UNBOUND:                -0.277
REMARK SMILES O=c1c(O)c(-c2ccc(O)cc2)oc2cc(O)cc(O)c12
REMARK SMILES IDX 5 1 3 2 2 3 1 4 21 5 19 6 18 7 16 8 15 9 14 10 13 11 6 12
REMARK SMILES IDX 7 13 8 14 9 15 12 16 11 17 10 18 4 20 20 22 17 24
REMARK H PARENT 10 19 4 21 20 23 17 25
REMARK Flexibility Score: inf
ROOT
ATOM      1  C   UNL     1      26.267   8.527 -31.549  1.00  0.00     0.180 A 
ATOM      2  C   UNL     1      24.974   8.436 -32.093  1.00  0.00     0.208 A 
ATOM      3  C   UNL     1      24.115   7.422 -31.640  1.00  0.00     0.238 A 
ATOM      4  O   UNL     1      22.940   7.380 -32.090  1.00  0.00    -0.285 OA
ATOM      5  C   UNL     1      24.564   6.503 -30.663  1.00  0.00     0.111 A 
ATOM      6  C   UNL     1      23.793   5.411 -30.161  1.00  0.00     0.134 A 
ATOM      7  C   UNL     1      24.289   4.643 -29.100  1.00  0.00     0.093 A 
ATOM      8  C   UNL     1      25.556   4.885 -28.568  1.00  0.00     0.123 A 
ATOM      9  C   UNL     1      26.343   5.912 -29.091  1.00  0.00     0.094 A 
ATOM     10  C   UNL     1      25.859   6.717 -30.125  1.00  0.00     0.146 A 
ATOM     11  O   UNL     1      26.637   7.690 -30.587  1.00  0.00    -0.452 OA
ENDROOT
BRANCH   1  12
ATOM     12  C   UNL     1      27.238   9.553 -31.993  1.00  0.00     0.021 A 
ATOM     13  C   UNL     1      28.146   9.248 -33.020  1.00  0.00     0.016 A 
ATOM     14  C   UNL     1      29.057  10.209 -33.470  1.00  0.00     0.047 A 
ATOM     15  C   UNL     1      29.059  11.493 -32.909  1.00  0.00     0.115 A 
ATOM     16  C   UNL     1      27.233  10.851 -31.449  1.00  0.00     0.016 A 
ATOM     17  C   UNL     1      28.144  11.811 -31.901  1.00  0.00     0.047 A 
BRANCH  15  18
ATOM     18  O   UNL     1      29.962  12.459 -33.349  1.00  0.00    -0.508 OA
ATOM     19  H   UNL     1      30.391  12.404 -34.266  1.00  0.00     0.293 HD
ENDBRANCH  15  18
ENDBRANCH   1  12
BRANCH   2  20
ATOM     20  O   UNL     1      24.542   9.368 -33.040  1.00  0.00    -0.502 OA
ATOM     21  H   UNL     1      24.073  10.229 -32.783  1.00  0.00     0.293 HD
ENDBRANCH   2  20
BRANCH   6  22
ATOM     22  O   UNL     1      22.554   5.026 -30.683  1.00  0.00    -0.507 OA
ATOM     23  H   UNL     1      21.805   4.618 -30.145  1.00  0.00     0.293 HD
ENDBRANCH   6  22
BRANCH   8  24
ATOM     24  O   UNL     1      26.025   4.091 -27.524  1.00  0.00    -0.508 OA
ATOM     25  H   UNL     1      25.873   3.090 -27.511  1.00  0.00     0.293 HD
ENDBRANCH   8  24
TORSDOF 5
ENDMDL
MODEL 4
REMARK VINA RESULT:    -5.874      2.006      6.626
REMARK INTER + INTRA:          -7.181
REMARK INTER:                  -7.335
REMARK INTRA:                   0.154
REMARK UNBOUND:                -0.277
REMARK SMILES O=c1c(O)c(-c2ccc(O)cc2)oc2cc(O)cc(O)c12
REMARK SMILES IDX 5 1 3 2 2 3 1 4 21 5 19 6 18 7 16 8 15 9 14 10 13 11 6 12
REMARK SMILES IDX 7 13 8 14 9 15 12 16 11 17 10 18 4 20 20 22 17 24
REMARK H PARENT 10 19 4 21 20 23 17 25
REMARK Flexibility Score: inf
ROOT
ATOM      1  C   UNL     1      27.175   8.379 -32.136  1.00  0.00     0.180 A 
ATOM      2  C   UNL     1      25.845   8.825 -32.069  1.00  0.00     0.208 A 
ATOM      3  C   UNL     1      24.893   8.030 -31.410  1.00  0.00     0.238 A 
ATOM      4  O   UNL     1      23.715   8.461 -31.305  1.00  0.00    -0.285 OA
ATOM      5  C   UNL     1      25.280   6.793 -30.842  1.00  0.00     0.111 A 
ATOM      6  C   UNL     1      24.391   5.888 -30.187  1.00  0.00     0.134 A 
ATOM      7  C   UNL     1      24.907   4.754 -29.547  1.00  0.00     0.093 A 
ATOM      8  C   UNL     1      26.269   4.458 -29.595  1.00  0.00     0.123 A 
ATOM      9  C   UNL     1      27.138   5.304 -30.284  1.00  0.00     0.094 A 
ATOM     10  C   UNL     1      26.658   6.462 -30.901  1.00  0.00     0.146 A 
ATOM     11  O   UNL     1      27.521   7.245 -31.537  1.00  0.00    -0.452 OA
ENDROOT
BRANCH   1  12
ATOM     12  C   UNL     1      28.231   9.149 -32.835  1.00  0.00     0.021 A 
ATOM     13  C   UNL     1      28.327  10.535 -32.627  1.00  0.00     0.016 A 
ATOM     14  C   UNL     1      29.330  11.278 -33.259  1.00  0.00     0.047 A 
ATOM     15  C   UNL     1      30.257  10.641 -34.094  1.00  0.00     0.115 A 
ATOM     16  C   UNL     1      29.177   8.514 -33.659  1.00  0.00     0.016 A 
ATOM     17  C   UNL     1      30.179   9.259 -34.289  1.00  0.00     0.047 A 
BRANCH  15  18
ATOM     18  O   UNL     1      31.260  11.371 -34.729  1.00  0.00    -0.508 OA
ATOM     19  H   UNL     1      31.851  10.953 -35.437  1.00  0.00     0.293 HD
ENDBRANCH  15  18
ENDBRANCH   1  12
BRANCH   2  20
ATOM     20  O   UNL     1      25.488  10.060 -32.617  1.00  0.00    -0.502 OA
ATOM     21  H   UNL     1      25.816  10.368 -33.524  1.00  0.00     0.293 HD
ENDBRANCH   2  20
BRANCH   6  22
ATOM     22  O   UNL     1      23.002   6.043 -30.158  1.00  0.00    -0.507 OA
ATOM     23  H   UNL     1      22.463   6.246 -29.331  1.00  0.00     0.293 HD
ENDBRANCH   6  22
BRANCH   8  24
ATOM     24  O   UNL     1      26.745   3.312 -28.962  1.00  0.00    -0.508 OA
ATOM     25  H   UNL     1      26.295   2.413 -29.085  1.00  0.00     0.293 HD
ENDBRANCH   8  24
TORSDOF 5
ENDMDL
MODEL 5
REMARK VINA RESULT:    -5.626     10.582     11.052
REMARK INTER + INTRA:          -6.889
REMARK INTER:                  -6.643
REMARK INTRA:                  -0.246
REMARK UNBOUND:                -0.277
REMARK SMILES O=c1c(O)c(-c2ccc(O)cc2)oc2cc(O)cc(O)c12
REMARK SMILES IDX 5 1 3 2 2 3 1 4 21 5 19 6 18 7 16 8 15 9 14 10 13 11 6 12
REMARK SMILES IDX 7 13 8 14 9 15 12 16 11 17 10 18 4 20 20 22 17 24
REMARK H PARENT 10 19 4 21 20 23 17 25
REMARK Flexibility Score: inf
ROOT
ATOM      1  C   UNL     1      30.819   5.286 -24.066  1.00  0.00     0.180 A 
ATOM      2  C   UNL     1      30.040   6.048 -23.178  1.00  0.00     0.208 A 
ATOM      3  C   UNL     1      30.685   6.807 -22.187  1.00  0.00     0.238 A 
ATOM      4  O   UNL     1      29.986   7.530 -21.430  1.00  0.00    -0.285 OA
ATOM      5  C   UNL     1      32.096   6.781 -22.087  1.00  0.00     0.111 A 
ATOM      6  C   UNL     1      32.852   7.478 -21.097  1.00  0.00     0.134 A 
ATOM      7  C   UNL     1      34.250   7.486 -21.172  1.00  0.00     0.093 A 
ATOM      8  C   UNL     1      34.921   6.768 -22.162  1.00  0.00     0.123 A 
ATOM      9  C   UNL     1      34.194   6.035 -23.099  1.00  0.00     0.094 A 
ATOM     10  C   UNL     1      32.797   6.037 -23.071  1.00  0.00     0.146 A 
ATOM     11  O   UNL     1      32.143   5.334 -23.988  1.00  0.00    -0.452 OA
ENDROOT
BRANCH   1  12
ATOM     12  C   UNL     1      30.211   4.442 -25.121  1.00  0.00     0.021 A 
ATOM     13  C   UNL     1      29.633   3.210 -24.774  1.00  0.00     0.016 A 
ATOM     14  C   UNL     1      29.034   2.408 -25.751  1.00  0.00     0.047 A 
ATOM     15  C   UNL     1      28.993   2.836 -27.084  1.00  0.00     0.115 A 
ATOM     16  C   UNL     1      30.148   4.875 -26.459  1.00  0.00     0.016 A 
ATOM     17  C   UNL     1      29.547   4.071 -27.433  1.00  0.00     0.047 A 
BRANCH  15  18
ATOM     18  O   UNL     1      28.399   2.045 -28.066  1.00  0.00    -0.508 OA
ATOM     19  H   UNL     1      27.395   2.038 -28.204  1.00  0.00     0.293 HD
ENDBRANCH  15  18
ENDBRANCH   1  12
BRANCH   2  20
ATOM     20  O   UNL     1      28.650   6.078 -23.309  1.00  0.00    -0.502 OA
ATOM     21  H   UNL     1      28.057   5.316 -23.001  1.00  0.00     0.293 HD
ENDBRANCH   2  20
BRANCH   6  22
ATOM     22  O   UNL     1      32.282   8.151 -20.012  1.00  0.00    -0.507 OA
ATOM     23  H   UNL     1      32.357   9.143 -19.847  1.00  0.00     0.293 HD
ENDBRANCH   6  22
BRANCH   8  24
ATOM     24  O   UNL     1      36.314   6.785 -22.197  1.00  0.00    -0.508 OA
ATOM     25  H   UNL     1      36.867   6.412 -21.435  1.00  0.00     0.293 HD
ENDBRANCH   8  24
TORSDOF 5
ENDMDL
MODEL 6
REMARK VINA RESULT:    -5.608     13.613     14.265
REMARK INTER + INTRA:          -6.868
REMARK INTER:                  -6.707
REMARK INTRA:                  -0.161
REMARK UNBOUND:                -0.277
REMARK SMILES O=c1c(O)c(-c2ccc(O)cc2)oc2cc(O)cc(O)c12
REMARK SMILES IDX 5 1 3 2 2 3 1 4 21 5 19 6 18 7 16 8 15 9 14 10 13 11 6 12
REMARK SMILES IDX 7 13 8 14 9 15 12 16 11 17 10 18 4 20 20 22 17 24
REMARK H PARENT 10 19 4 21 20 23 17 25
REMARK Flexibility Score: inf
ROOT
ATOM      1  C   UNL     1      31.186   4.127 -20.159  1.00  0.00     0.180 A 
ATOM      2  C   UNL     1      30.684   5.367 -20.588  1.00  0.00     0.208 A 
ATOM      3  C   UNL     1      31.497   6.193 -21.381  1.00  0.00     0.238 A 
ATOM      4  O   UNL     1      31.022   7.278 -21.807  1.00  0.00    -0.285 OA
ATOM      5  C   UNL     1      32.807   5.777 -21.719  1.00  0.00     0.111 A 
ATOM      6  C   UNL     1      33.732   6.551 -22.481  1.00  0.00     0.134 A 
ATOM      7  C   UNL     1      34.954   5.986 -22.867  1.00  0.00     0.093 A 
ATOM      8  C   UNL     1      35.311   4.700 -22.463  1.00  0.00     0.123 A 
ATOM      9  C   UNL     1      34.439   3.957 -21.667  1.00  0.00     0.094 A 
ATOM     10  C   UNL     1      33.198   4.480 -21.297  1.00  0.00     0.146 A 
ATOM     11  O   UNL     1      32.394   3.735 -20.547  1.00  0.00    -0.452 OA
ENDROOT
BRANCH   1  12
ATOM     12  C   UNL     1      30.398   3.211 -19.301  1.00  0.00     0.021 A 
ATOM     13  C   UNL     1      30.060   1.934 -19.780  1.00  0.00     0.016 A 
ATOM     14  C   UNL     1      29.336   1.046 -18.978  1.00  0.00     0.047 A 
ATOM     15  C   UNL     1      28.954   1.419 -17.683  1.00  0.00     0.115 A 
ATOM     16  C   UNL     1      30.028   3.571 -17.992  1.00  0.00     0.016 A 
ATOM     17  C   UNL     1      29.305   2.680 -17.193  1.00  0.00     0.047 A 
BRANCH  15  18
ATOM     18  O   UNL     1      28.232   0.542 -16.875  1.00  0.00    -0.508 OA
ATOM     19  H   UNL     1      27.362   0.129 -17.188  1.00  0.00     0.293 HD
ENDBRANCH  15  18
ENDBRANCH   1  12
BRANCH   2  20
ATOM     20  O   UNL     1      29.380   5.749 -20.262  1.00  0.00    -0.502 OA
ATOM     21  H   UNL     1      28.593   5.114 -20.330  1.00  0.00     0.293 HD
ENDBRANCH   2  20
BRANCH   6  22
ATOM     22  O   UNL     1      33.512   7.879 -22.860  1.00  0.00    -0.507 OA
ATOM     23  H   UNL     1      34.231   8.516 -23.168  1.00  0.00     0.293 HD
ENDBRANCH   6  22
BRANCH   8  24
ATOM     24  O   UNL     1      36.542   4.175 -22.852  1.00  0.00    -0.508 OA
ATOM     25  H   UNL     1      37.141   4.661 -23.509  1.00  0.00     0.293 HD
ENDBRANCH   8  24
TORSDOF 5
ENDMDL
MODEL 7
REMARK VINA RESULT:    -5.574     15.138     15.974
REMARK INTER + INTRA:          -6.828
REMARK INTER:                  -6.549
REMARK INTRA:                  -0.279
REMARK UNBOUND:                -0.277
REMARK SMILES O=c1c(O)c(-c2ccc(O)cc2)oc2cc(O)cc(O)c12
REMARK SMILES IDX 5 1 3 2 2 3 1 4 21 5 19 6 18 7 16 8 15 9 14 10 13 11 6 12
REMARK SMILES IDX 7 13 8 14 9 15 12 16 11 17 10 18 4 20 20 22 17 24
REMARK H PARENT 10 19 4 21 20 23 17 25
REMARK Flexibility Score: inf
ROOT
ATOM      1  C   UNL     1      36.106   6.596 -20.792  1.00  0.00     0.180 A 
ATOM      2  C   UNL     1      36.781   6.270 -19.604  1.00  0.00     0.208 A 
ATOM      3  C   UNL     1      38.135   5.903 -19.669  1.00  0.00     0.238 A 
ATOM      4  O   UNL     1      38.749   5.665 -18.596  1.00  0.00    -0.285 OA
ATOM      5  C   UNL     1      38.791   5.850 -20.922  1.00  0.00     0.111 A 
ATOM      6  C   UNL     1      40.149   5.452 -21.111  1.00  0.00     0.134 A 
ATOM      7  C   UNL     1      40.732   5.563 -22.379  1.00  0.00     0.093 A 
ATOM      8  C   UNL     1      39.989   5.995 -23.477  1.00  0.00     0.123 A 
ATOM      9  C   UNL     1      38.645   6.330 -23.316  1.00  0.00     0.094 A 
ATOM     10  C   UNL     1      38.045   6.263 -22.056  1.00  0.00     0.146 A 
ATOM     11  O   UNL     1      36.765   6.601 -21.944  1.00  0.00    -0.452 OA
ENDROOT
BRANCH   1  12
ATOM     12  C   UNL     1      34.672   6.969 -20.806  1.00  0.00     0.021 A 
ATOM     13  C   UNL     1      34.302   8.304 -20.575  1.00  0.00     0.016 A 
ATOM     14  C   UNL     1      32.956   8.683 -20.607  1.00  0.00     0.047 A 
ATOM     15  C   UNL     1      31.965   7.732 -20.886  1.00  0.00     0.115 A 
ATOM     16  C   UNL     1      33.673   6.025 -21.106  1.00  0.00     0.016 A 
ATOM     17  C   UNL     1      32.328   6.406 -21.138  1.00  0.00     0.047 A 
BRANCH  15  18
ATOM     18  O   UNL     1      30.621   8.098 -20.920  1.00  0.00    -0.508 OA
ATOM     19  H   UNL     1      30.324   9.044 -20.713  1.00  0.00     0.293 HD
ENDBRANCH  15  18
ENDBRANCH   1  12
BRANCH   2  20
ATOM     20  O   UNL     1      36.121   6.351 -18.375  1.00  0.00    -0.502 OA
ATOM     21  H   UNL     1      36.225   7.143 -17.752  1.00  0.00     0.293 HD
ENDBRANCH   2  20
BRANCH   6  22
ATOM     22  O   UNL     1      40.953   4.921 -20.098  1.00  0.00    -0.507 OA
ATOM     23  H   UNL     1      40.776   5.021 -19.111  1.00  0.00     0.293 HD
ENDBRANCH   6  22
BRANCH   8  24
ATOM     24  O   UNL     1      40.598   6.078 -24.728  1.00  0.00    -0.508 OA
ATOM     25  H   UNL     1      41.592   6.246 -24.823  1.00  0.00     0.293 HD
ENDBRANCH   8  24
TORSDOF 5
ENDMDL
MODEL 8
REMARK VINA RESULT:    -5.551     14.495     15.197
REMARK INTER + INTRA:          -6.802
REMARK INTER:                  -6.503
REMARK INTRA:                  -0.299
REMARK UNBOUND:                -0.277
REMARK SMILES O=c1c(O)c(-c2ccc(O)cc2)oc2cc(O)cc(O)c12
REMARK SMILES IDX 5 1 3 2 2 3 1 4 21 5 19 6 18 7 16 8 15 9 14 10 13 11 6 12
REMARK SMILES IDX 7 13 8 14 9 15 12 16 11 17 10 18 4 20 20 22 17 24
REMARK H PARENT 10 19 4 21 20 23 17 25
REMARK Flexibility Score: inf
ROOT
ATOM      1  C   UNL     1      34.466   6.453 -21.192  1.00  0.00     0.180 A 
ATOM      2  C   UNL     1      35.176   6.446 -22.405  1.00  0.00     0.208 A 
ATOM      3  C   UNL     1      36.580   6.463 -22.371  1.00  0.00     0.238 A 
ATOM      4  O   UNL     1      37.210   6.401 -23.459  1.00  0.00    -0.285 OA
ATOM      5  C   UNL     1      37.254   6.505 -21.129  1.00  0.00     0.111 A 
ATOM      6  C   UNL     1      38.673   6.566 -20.978  1.00  0.00     0.134 A 
ATOM      7  C   UNL     1      39.237   6.471 -19.700  1.00  0.00     0.093 A 
ATOM      8  C   UNL     1      38.433   6.383 -18.563  1.00  0.00     0.123 A 
ATOM      9  C   UNL     1      37.044   6.383 -18.695  1.00  0.00     0.094 A 
ATOM     10  C   UNL     1      36.453   6.440 -19.959  1.00  0.00     0.146 A 
ATOM     11  O   UNL     1      35.128   6.426 -20.041  1.00  0.00    -0.452 OA
ENDROOT
BRANCH   1  12
ATOM     12  C   UNL     1      32.985   6.461 -21.145  1.00  0.00     0.021 A 
ATOM     13  C   UNL     1      32.292   5.248 -21.001  1.00  0.00     0.016 A 
ATOM     14  C   UNL     1      30.895   5.234 -20.932  1.00  0.00     0.047 A 
ATOM     15  C   UNL     1      30.176   6.435 -20.991  1.00  0.00     0.115 A 
ATOM     16  C   UNL     1      32.257   7.664 -21.184  1.00  0.00     0.016 A 
ATOM     17  C   UNL     1      30.861   7.647 -21.114  1.00  0.00     0.047 A 
BRANCH  15  18
ATOM     18  O   UNL     1      28.784   6.433 -20.924  1.00  0.00    -0.508 OA
ATOM     19  H   UNL     1      28.241   7.250 -21.176  1.00  0.00     0.293 HD
ENDBRANCH  15  18
ENDBRANCH   1  12
BRANCH   2  20
ATOM     20  O   UNL     1      34.490   6.382 -23.621  1.00  0.00    -0.502 OA
ATOM     21  H   UNL     1      34.960   6.216 -24.502  1.00  0.00     0.293 HD
ENDBRANCH   2  20
BRANCH   6  22
ATOM     22  O   UNL     1      39.563   6.746 -22.040  1.00  0.00    -0.507 OA
ATOM     23  H   UNL     1      40.062   6.002 -22.504  1.00  0.00     0.293 HD
ENDBRANCH   6  22
BRANCH   8  24
ATOM     24  O   UNL     1      39.028   6.306 -17.305  1.00  0.00    -0.508 OA
ATOM     25  H   UNL     1      39.893   5.799 -17.159  1.00  0.00     0.293 HD
ENDBRANCH   8  24
TORSDOF 5
ENDMDL
MODEL 9
REMARK VINA RESULT:    -5.436     13.889     14.810
REMARK INTER + INTRA:          -6.666
REMARK INTER:                  -6.413
REMARK INTRA:                  -0.254
REMARK UNBOUND:                -0.277
REMARK SMILES O=c1c(O)c(-c2ccc(O)cc2)oc2cc(O)cc(O)c12
REMARK SMILES IDX 5 1 3 2 2 3 1 4 21 5 19 6 18 7 16 8 15 9 14 10 13 11 6 12
REMARK SMILES IDX 7 13 8 14 9 15 12 16 11 17 10 18 4 20 20 22 17 24
REMARK H PARENT 10 19 4 21 20 23 17 25
REMARK Flexibility Score: inf
ROOT
ATOM      1  C   UNL     1      30.957   3.341 -19.702  1.00  0.00     0.180 A 
ATOM      2  C   UNL     1      32.274   2.941 -19.987  1.00  0.00     0.208 A 
ATOM      3  C   UNL     1      33.135   3.844 -20.632  1.00  0.00     0.238 A 
ATOM      4  O   UNL     1      34.328   3.500 -20.835  1.00  0.00    -0.285 OA
ATOM      5  C   UNL     1      32.664   5.127 -20.998  1.00  0.00     0.111 A 
ATOM      6  C   UNL     1      33.436   6.107 -21.691  1.00  0.00     0.134 A 
ATOM      7  C   UNL     1      32.912   7.390 -21.886  1.00  0.00     0.093 A 
ATOM      8  C   UNL     1      31.618   7.710 -21.472  1.00  0.00     0.123 A 
ATOM      9  C   UNL     1      30.833   6.741 -20.847  1.00  0.00     0.094 A 
ATOM     10  C   UNL     1      31.342   5.463 -20.606  1.00  0.00     0.146 A 
ATOM     11  O   UNL     1      30.564   4.574 -19.999  1.00  0.00    -0.452 OA
ENDROOT
BRANCH   1  12
ATOM     12  C   UNL     1      29.983   2.437 -19.047  1.00  0.00     0.021 A 
ATOM     13  C   UNL     1      29.632   2.655 -17.704  1.00  0.00     0.016 A 
ATOM     14  C   UNL     1      28.698   1.827 -17.072  1.00  0.00     0.047 A 
ATOM     15  C   UNL     1      28.092   0.782 -17.781  1.00  0.00     0.115 A 
ATOM     16  C   UNL     1      29.356   1.398 -19.757  1.00  0.00     0.016 A 
ATOM     17  C   UNL     1      28.421   0.572 -19.124  1.00  0.00     0.047 A 
BRANCH  15  18
ATOM     18  O   UNL     1      27.160  -0.049 -17.163  1.00  0.00    -0.508 OA
ATOM     19  H   UNL     1      27.430  -0.693 -16.428  1.00  0.00     0.293 HD
ENDBRANCH  15  18
ENDBRANCH   1  12
BRANCH   2  20
ATOM     20  O   UNL     1      32.725   1.678 -19.597  1.00  0.00    -0.502 OA
ATOM     21  H   UNL     1      32.120   0.995 -19.157  1.00  0.00     0.293 HD
ENDBRANCH   2  20
BRANCH   6  22
ATOM     22  O   UNL     1      34.705   5.864 -22.227  1.00  0.00    -0.507 OA
ATOM     23  H   UNL     1      35.356   6.580 -22.511  1.00  0.00     0.293 HD
ENDBRANCH   6  22
BRANCH   8  24
ATOM     24  O   UNL     1      31.122   8.992 -21.697  1.00  0.00    -0.508 OA
ATOM     25  H   UNL     1      30.126   9.173 -21.746  1.00  0.00     0.293 HD
ENDBRANCH   8  24
TORSDOF 5
ENDMDL
