MODEL 1
REMARK VINA RESULT:     0.000      0.000      0.000
REMARK INTER + INTRA:          -0.104
REMARK INTER:                   0.000
REMARK INTRA:                  -0.104
REMARK UNBOUND:                -0.104
REMARK SMILES COc1cc(C(=O)[O-])ccc1O
REMARK SMILES IDX 5 1 9 2 4 3 10 4 3 5 11 6 6 7 7 8 8 9 2 10 1 11 12 12
REMARK H PARENT 12 13
REMARK Flexibility Score: inf
ROOT
ATOM      1  C   UNL     1      43.616 -13.848   2.504  1.00  0.00     0.001 A 
ATOM      2  C   UNL     1      44.433 -13.562   3.610  1.00  0.00     0.014 A 
ATOM      3  C   UNL     1      43.262 -15.186   2.244  1.00  0.00     0.060 A 
ATOM      4  C   UNL     1      44.886 -14.589   4.438  1.00  0.00     0.051 A 
ATOM      5  C   UNL     1      43.717 -16.227   3.077  1.00  0.00     0.161 A 
ATOM      6  C   UNL     1      44.536 -15.916   4.179  1.00  0.00     0.157 A 
ENDROOT
BRANCH   1   7
ATOM      7  C   UNL     1      43.138 -12.756   1.629  1.00  0.00     0.072 C 
ATOM      8  O   UNL     1      43.429 -11.556   1.881  1.00  0.00    -0.545 OA
ATOM      9  O   UNL     1      42.359 -13.038   0.512  1.00  0.00    -0.545 OA
ENDBRANCH   1   7
BRANCH   5  10
ATOM     10  O   UNL     1      43.381 -17.569   2.843  1.00  0.00    -0.493 OA
ATOM     11  C   UNL     1      42.152 -18.175   3.233  1.00  0.00     0.278 C 
ENDBRANCH   5  10
BRANCH   6  12
ATOM     12  O   UNL     1      45.008 -16.916   5.030  1.00  0.00    -0.504 OA
ATOM     13  H   UNL     1      44.631 -17.058   5.958  1.00  0.00     0.293 HD
ENDBRANCH   6  12
TORSDOF 3
ENDMDL
MODEL 2
REMARK VINA RESULT:     0.000      9.524     12.389
REMARK INTER + INTRA:          -0.104
REMARK INTER:                   0.000
REMARK INTRA:                  -0.104
REMARK UNBOUND:                -0.104
REMARK SMILES COc1cc(C(=O)[O-])ccc1O
REMARK SMILES IDX 5 1 9 2 4 3 10 4 3 5 11 6 6 7 7 8 8 9 2 10 1 11 12 12
REMARK H PARENT 12 13
REMARK Flexibility Score: inf
ROOT
ATOM      1  C   UNL     1      43.366  -5.528  -2.144  1.00  0.00     0.001 A 
ATOM      2  C   UNL     1      42.844  -4.320  -1.653  1.00  0.00     0.014 A 
ATOM      3  C   UNL     1      43.237  -5.822  -3.514  1.00  0.00     0.060 A 
ATOM      4  C   UNL     1      42.206  -3.425  -2.513  1.00  0.00     0.051 A 
ATOM      5  C   UNL     1      42.594  -4.922  -4.387  1.00  0.00     0.161 A 
ATOM      6  C   UNL     1      42.077  -3.718  -3.873  1.00  0.00     0.157 A 
ENDROOT
BRANCH   1   7
ATOM      7  C   UNL     1      44.042  -6.474  -1.228  1.00  0.00     0.072 C 
ATOM      8  O   UNL     1      44.185  -6.195  -0.008  1.00  0.00    -0.545 OA
ATOM      9  O   UNL     1      44.528  -7.687  -1.702  1.00  0.00    -0.545 OA
ENDBRANCH   1   7
BRANCH   5  10
ATOM     10  O   UNL     1      42.450  -5.188  -5.758  1.00  0.00    -0.493 OA
ATOM     11  C   UNL     1      43.464  -4.970  -6.735  1.00  0.00     0.278 C 
ENDBRANCH   5  10
BRANCH   6  12
ATOM     12  O   UNL     1      41.433  -2.798  -4.702  1.00  0.00    -0.504 OA
ATOM     13  H   UNL     1      41.356  -2.935  -5.702  1.00  0.00     0.293 HD
ENDBRANCH   6  12
TORSDOF 3
ENDMDL
MODEL 3
REMARK VINA RESULT:     0.000      5.309      6.595
REMARK INTER + INTRA:          -0.104
REMARK INTER:                   0.000
REMARK INTRA:                  -0.104
REMARK UNBOUND:                -0.104
REMARK SMILES COc1cc(C(=O)[O-])ccc1O
REMARK SMILES IDX 5 1 9 2 4 3 10 4 3 5 11 6 6 7 7 8 8 9 2 10 1 11 12 12
REMARK H PARENT 12 13
REMARK Flexibility Score: inf
ROOT
ATOM      1  C   UNL     1      43.055 -10.630   5.564  1.00  0.00     0.001 A 
ATOM      2  C   UNL     1      42.538 -10.559   4.260  1.00  0.00     0.014 A 
ATOM      3  C   UNL     1      44.445 -10.511   5.755  1.00  0.00     0.060 A 
ATOM      4  C   UNL     1      43.391 -10.373   3.171  1.00  0.00     0.051 A 
ATOM      5  C   UNL     1      45.310 -10.324   4.659  1.00  0.00     0.161 A 
ATOM      6  C   UNL     1      44.770 -10.257   3.362  1.00  0.00     0.157 A 
ENDROOT
BRANCH   1   7
ATOM      7  C   UNL     1      42.148 -10.827   6.715  1.00  0.00     0.072 C 
ATOM      8  O   UNL     1      40.901 -10.901   6.546  1.00  0.00    -0.545 OA
ATOM      9  O   UNL     1      42.658 -10.934   8.004  1.00  0.00    -0.545 OA
ENDBRANCH   1   7
BRANCH   5  10
ATOM     10  O   UNL     1      46.699 -10.202   4.819  1.00  0.00    -0.493 OA
ATOM     11  C   UNL     1      47.369  -9.001   5.191  1.00  0.00     0.278 C 
ENDBRANCH   5  10
BRANCH   6  12
ATOM     12  O   UNL     1      45.590 -10.072   2.248  1.00  0.00    -0.504 OA
ATOM     13  H   UNL     1      46.448  -9.536   2.293  1.00  0.00     0.293 HD
ENDBRANCH   6  12
TORSDOF 3
ENDMDL
MODEL 4
REMARK VINA RESULT:     0.000     10.286     12.479
REMARK INTER + INTRA:          -0.104
REMARK INTER:                   0.000
REMARK INTRA:                  -0.104
REMARK UNBOUND:                -0.104
REMARK SMILES COc1cc(C(=O)[O-])ccc1O
REMARK SMILES IDX 5 1 9 2 4 3 10 4 3 5 11 6 6 7 7 8 8 9 2 10 1 11 12 12
REMARK H PARENT 12 13
REMARK Flexibility Score: inf
ROOT
ATOM      1  C   UNL     1      46.290  -9.880  -6.604  1.00  0.00     0.001 A 
ATOM      2  C   UNL     1      45.268  -9.206  -7.293  1.00  0.00     0.014 A 
ATOM      3  C   UNL     1      47.039 -10.861  -7.281  1.00  0.00     0.060 A 
ATOM      4  C   UNL     1      45.002  -9.505  -8.630  1.00  0.00     0.051 A 
ATOM      5  C   UNL     1      46.774 -11.167  -8.631  1.00  0.00     0.161 A 
ATOM      6  C   UNL     1      45.746 -10.479  -9.301  1.00  0.00     0.157 A 
ENDROOT
BRANCH   1   7
ATOM      7  C   UNL     1      46.569  -9.560  -5.187  1.00  0.00     0.072 C 
ATOM      8  O   UNL     1      45.918  -8.659  -4.591  1.00  0.00    -0.545 OA
ATOM      9  O   UNL     1      47.554 -10.250  -4.490  1.00  0.00    -0.545 OA
ENDBRANCH   1   7
BRANCH   5  10
ATOM     10  O   UNL     1      47.505 -12.139  -9.331  1.00  0.00    -0.493 OA
ATOM     11  C   UNL     1      48.780 -11.920  -9.925  1.00  0.00     0.278 C 
ENDBRANCH   5  10
BRANCH   6  12
ATOM     12  O   UNL     1      45.450 -10.750 -10.638  1.00  0.00    -0.504 OA
ATOM     13  H   UNL     1      45.110 -10.037 -11.270  1.00  0.00     0.293 HD
ENDBRANCH   6  12
TORSDOF 3
ENDMDL
MODEL 5
REMARK VINA RESULT:     0.000      5.759      6.856
REMARK INTER + INTRA:          -0.104
REMARK INTER:                   0.000
REMARK INTRA:                  -0.104
REMARK UNBOUND:                -0.104
REMARK SMILES COc1cc(C(=O)[O-])ccc1O
REMARK SMILES IDX 5 1 9 2 4 3 10 4 3 5 11 6 6 7 7 8 8 9 2 10 1 11 12 12
REMARK H PARENT 12 13
REMARK Flexibility Score: inf
ROOT
ATOM      1  C   UNL     1      38.286 -14.982  -0.552  1.00  0.00     0.001 A 
ATOM      2  C   UNL     1      36.941 -14.579  -0.588  1.00  0.00     0.014 A 
ATOM      3  C   UNL     1      38.738 -15.761   0.531  1.00  0.00     0.060 A 
ATOM      4  C   UNL     1      36.067 -14.946   0.435  1.00  0.00     0.051 A 
ATOM      5  C   UNL     1      37.858 -16.134   1.567  1.00  0.00     0.161 A 
ATOM      6  C   UNL     1      36.515 -15.718   1.510  1.00  0.00     0.157 A 
ENDROOT
BRANCH   1   7
ATOM      7  C   UNL     1      39.211 -14.591  -1.639  1.00  0.00     0.072 C 
ATOM      8  O   UNL     1      38.798 -13.921  -2.623  1.00  0.00    -0.545 OA
ATOM      9  O   UNL     1      40.551 -14.957  -1.589  1.00  0.00    -0.545 OA
ENDBRANCH   1   7
BRANCH   5  10
ATOM     10  O   UNL     1      38.280 -16.909   2.658  1.00  0.00    -0.493 OA
ATOM     11  C   UNL     1      38.409 -18.327   2.641  1.00  0.00     0.278 C 
ENDBRANCH   5  10
BRANCH   6  12
ATOM     12  O   UNL     1      35.610 -16.065   2.514  1.00  0.00    -0.504 OA
ATOM     13  H   UNL     1      34.627 -16.215   2.326  1.00  0.00     0.293 HD
ENDBRANCH   6  12
TORSDOF 3
ENDMDL
MODEL 6
REMARK VINA RESULT:     0.000      3.200      4.110
REMARK INTER + INTRA:          -0.104
REMARK INTER:                   0.000
REMARK INTRA:                  -0.104
REMARK UNBOUND:                -0.104
REMARK SMILES COc1cc(C(=O)[O-])ccc1O
REMARK SMILES IDX 5 1 9 2 4 3 10 4 3 5 11 6 6 7 7 8 8 9 2 10 1 11 12 12
REMARK H PARENT 12 13
REMARK Flexibility Score: inf
ROOT
ATOM      1  C   UNL     1      42.081 -12.157   0.786  1.00  0.00     0.001 A 
ATOM      2  C   UNL     1      41.136 -13.127   1.160  1.00  0.00     0.014 A 
ATOM      3  C   UNL     1      43.368 -12.572   0.396  1.00  0.00     0.060 A 
ATOM      4  C   UNL     1      41.471 -14.482   1.144  1.00  0.00     0.051 A 
ATOM      5  C   UNL     1      43.711 -13.939   0.378  1.00  0.00     0.161 A 
ATOM      6  C   UNL     1      42.749 -14.893   0.757  1.00  0.00     0.157 A 
ENDROOT
BRANCH   1   7
ATOM      7  C   UNL     1      41.723 -10.722   0.804  1.00  0.00     0.072 C 
ATOM      8  O   UNL     1      40.560 -10.354   1.122  1.00  0.00    -0.545 OA
ATOM      9  O   UNL     1      42.665  -9.757   0.470  1.00  0.00    -0.545 OA
ENDBRANCH   1   7
BRANCH   5  10
ATOM     10  O   UNL     1      44.986 -14.382  -0.006  1.00  0.00    -0.493 OA
ATOM     11  C   UNL     1      45.412 -14.549  -1.355  1.00  0.00     0.278 C 
ENDBRANCH   5  10
BRANCH   6  12
ATOM     12  O   UNL     1      43.045 -16.257   0.754  1.00  0.00    -0.504 OA
ATOM     13  H   UNL     1      42.414 -16.945   0.365  1.00  0.00     0.293 HD
ENDBRANCH   6  12
TORSDOF 3
ENDMDL
MODEL 7
REMARK VINA RESULT:     0.000      8.195     10.011
REMARK INTER + INTRA:          -0.104
REMARK INTER:                   0.000
REMARK INTRA:                  -0.104
REMARK UNBOUND:                -0.104
REMARK SMILES COc1cc(C(=O)[O-])ccc1O
REMARK SMILES IDX 5 1 9 2 4 3 10 4 3 5 11 6 6 7 7 8 8 9 2 10 1 11 12 12
REMARK H PARENT 12 13
REMARK Flexibility Score: inf
ROOT
ATOM      1  C   UNL     1      36.259 -10.019  -2.004  1.00  0.00     0.001 A 
ATOM      2  C   UNL     1      35.036 -10.491  -2.509  1.00  0.00     0.014 A 
ATOM      3  C   UNL     1      37.363 -10.891  -1.960  1.00  0.00     0.060 A 
ATOM      4  C   UNL     1      34.920 -11.806  -2.961  1.00  0.00     0.051 A 
ATOM      5  C   UNL     1      37.250 -12.220  -2.415  1.00  0.00     0.161 A 
ATOM      6  C   UNL     1      36.016 -12.671  -2.917  1.00  0.00     0.157 A 
ENDROOT
BRANCH   1   7
ATOM      7  C   UNL     1      36.378  -8.624  -1.526  1.00  0.00     0.072 C 
ATOM      8  O   UNL     1      35.398  -7.835  -1.595  1.00  0.00    -0.545 OA
ATOM      9  O   UNL     1      37.576  -8.163  -0.991  1.00  0.00    -0.545 OA
ENDBRANCH   1   7
BRANCH   5  10
ATOM     10  O   UNL     1      38.334 -13.112  -2.384  1.00  0.00    -0.493 OA
ATOM     11  C   UNL     1      39.367 -13.164  -3.362  1.00  0.00     0.278 C 
ENDBRANCH   5  10
BRANCH   6  12
ATOM     12  O   UNL     1      35.860 -13.979  -3.378  1.00  0.00    -0.504 OA
ATOM     13  H   UNL     1      36.525 -14.412  -4.007  1.00  0.00     0.293 HD
ENDBRANCH   6  12
TORSDOF 3
ENDMDL
MODEL 8
REMARK VINA RESULT:     0.000     10.841     13.490
REMARK INTER + INTRA:          -0.104
REMARK INTER:                   0.000
REMARK INTRA:                  -0.104
REMARK UNBOUND:                -0.104
REMARK SMILES COc1cc(C(=O)[O-])ccc1O
REMARK SMILES IDX 5 1 9 2 4 3 10 4 3 5 11 6 6 7 7 8 8 9 2 10 1 11 12 12
REMARK H PARENT 12 13
REMARK Flexibility Score: inf
ROOT
ATOM      1  C   UNL     1      38.313 -10.412  -6.745  1.00  0.00     0.001 A 
ATOM      2  C   UNL     1      38.819 -10.565  -8.047  1.00  0.00     0.014 A 
ATOM      3  C   UNL     1      36.929 -10.225  -6.567  1.00  0.00     0.060 A 
ATOM      4  C   UNL     1      37.961 -10.532  -9.146  1.00  0.00     0.051 A 
ATOM      5  C   UNL     1      36.058 -10.191  -7.675  1.00  0.00     0.161 A 
ATOM      6  C   UNL     1      36.587 -10.346  -8.969  1.00  0.00     0.157 A 
ENDROOT
BRANCH   1   7
ATOM      7  C   UNL     1      39.226 -10.448  -5.582  1.00  0.00     0.072 C 
ATOM      8  O   UNL     1      40.461 -10.647  -5.740  1.00  0.00    -0.545 OA
ATOM      9  O   UNL     1      38.735 -10.261  -4.295  1.00  0.00    -0.545 OA
ENDBRANCH   1   7
BRANCH   5  10
ATOM     10  O   UNL     1      34.675 -10.006  -7.528  1.00  0.00    -0.493 OA
ATOM     11  C   UNL     1      33.752 -11.039  -7.193  1.00  0.00     0.278 C 
ENDBRANCH   5  10
BRANCH   6  12
ATOM     12  O   UNL     1      35.761 -10.318 -10.093  1.00  0.00    -0.504 OA
ATOM     13  H   UNL     1      35.859 -10.982 -10.852  1.00  0.00     0.293 HD
ENDBRANCH   6  12
TORSDOF 3
ENDMDL
MODEL 9
REMARK VINA RESULT:     0.000      9.782     11.691
REMARK INTER + INTRA:          -0.104
REMARK INTER:                   0.000
REMARK INTRA:                  -0.104
REMARK UNBOUND:                -0.104
REMARK SMILES COc1cc(C(=O)[O-])ccc1O
REMARK SMILES IDX 5 1 9 2 4 3 10 4 3 5 11 6 6 7 7 8 8 9 2 10 1 11 12 12
REMARK H PARENT 12 13
REMARK Flexibility Score: inf
ROOT
ATOM      1  C   UNL     1      35.016  -6.640   0.595  1.00  0.00     0.001 A 
ATOM      2  C   UNL     1      34.639  -7.893   1.106  1.00  0.00     0.014 A 
ATOM      3  C   UNL     1      36.204  -6.043   1.058  1.00  0.00     0.060 A 
ATOM      4  C   UNL     1      35.431  -8.535   2.058  1.00  0.00     0.051 A 
ATOM      5  C   UNL     1      37.008  -6.688   2.019  1.00  0.00     0.161 A 
ATOM      6  C   UNL     1      36.609  -7.942   2.517  1.00  0.00     0.157 A 
ENDROOT
BRANCH   1   7
ATOM      7  C   UNL     1      34.173  -5.963  -0.415  1.00  0.00     0.072 C 
ATOM      8  O   UNL     1      33.127  -6.512  -0.851  1.00  0.00    -0.545 OA
ATOM      9  O   UNL     1      34.524  -4.707  -0.896  1.00  0.00    -0.545 OA
ENDBRANCH   1   7
BRANCH   5  10
ATOM     10  O   UNL     1      38.197  -6.117   2.499  1.00  0.00    -0.493 OA
ATOM     11  C   UNL     1      39.451  -6.175   1.826  1.00  0.00     0.278 C 
ENDBRANCH   5  10
BRANCH   6  12
ATOM     12  O   UNL     1      37.375  -8.615   3.470  1.00  0.00    -0.504 OA
ATOM     13  H   UNL     1      36.972  -9.291   4.106  1.00  0.00     0.293 HD
ENDBRANCH   6  12
TORSDOF 3
ENDMDL
