MODEL 1
REMARK VINA RESULT:    -1.781      0.000      0.000
REMARK INTER + INTRA:          -2.137
REMARK INTER:                  -1.937
REMARK INTRA:                  -0.200
REMARK UNBOUND:                -0.200
REMARK SMILES O=C([O-])c1ccccc1O
REMARK SMILES IDX 4 1 9 2 5 3 8 4 6 5 7 6 2 7 1 8 3 9 10 10
REMARK H PARENT 10 11
REMARK Flexibility Score: inf
ROOT
ATOM      1  C   UNL     1      -5.882   3.664  15.417  1.00  0.00     0.039 A 
ATOM      2  C   UNL     1      -6.397   4.737  16.189  1.00  0.00     0.124 A 
ATOM      3  C   UNL     1      -6.510   3.337  14.201  1.00  0.00     0.014 A 
ATOM      4  C   UNL     1      -7.473   5.487  15.701  1.00  0.00     0.047 A 
ATOM      5  C   UNL     1      -7.597   4.084  13.739  1.00  0.00     0.001 A 
ATOM      6  C   UNL     1      -8.072   5.162  14.483  1.00  0.00     0.004 A 
ENDROOT
BRANCH   1   7
ATOM      7  C   UNL     1      -4.683   2.898  15.824  1.00  0.00     0.075 C 
ATOM      8  O   UNL     1      -4.721   2.163  16.848  1.00  0.00    -0.545 OA
ATOM      9  O   UNL     1      -3.528   2.919  15.053  1.00  0.00    -0.545 OA
ENDBRANCH   1   7
BRANCH   2  10
ATOM     10  O   UNL     1      -5.894   5.064  17.450  1.00  0.00    -0.507 OA
ATOM     11  H   UNL     1      -4.928   5.307  17.619  1.00  0.00     0.293 HD
ENDBRANCH   2  10
TORSDOF 2
ENDMDL
MODEL 2
REMARK VINA RESULT:    -1.779      2.578      3.759
REMARK INTER + INTRA:          -2.135
REMARK INTER:                  -1.923
REMARK INTRA:                  -0.211
REMARK UNBOUND:                -0.200
REMARK SMILES O=C([O-])c1ccccc1O
REMARK SMILES IDX 4 1 9 2 5 3 8 4 6 5 7 6 2 7 1 8 3 9 10 10
REMARK H PARENT 10 11
REMARK Flexibility Score: inf
ROOT
ATOM      1  C   UNL     1      -6.233   5.294  16.138  1.00  0.00     0.039 A 
ATOM      2  C   UNL     1      -6.890   4.726  15.016  1.00  0.00     0.124 A 
ATOM      3  C   UNL     1      -5.766   4.442  17.156  1.00  0.00     0.014 A 
ATOM      4  C   UNL     1      -7.007   3.335  14.913  1.00  0.00     0.047 A 
ATOM      5  C   UNL     1      -5.909   3.057  17.047  1.00  0.00     0.001 A 
ATOM      6  C   UNL     1      -6.520   2.503  15.923  1.00  0.00     0.004 A 
ENDROOT
BRANCH   1   7
ATOM      7  C   UNL     1      -5.984   6.747  16.260  1.00  0.00     0.075 C 
ATOM      8  O   UNL     1      -6.121   7.498  15.256  1.00  0.00    -0.545 OA
ATOM      9  O   UNL     1      -5.668   7.316  17.487  1.00  0.00    -0.545 OA
ENDBRANCH   1   7
BRANCH   2  10
ATOM     10  O   UNL     1      -7.469   5.504  14.011  1.00  0.00    -0.507 OA
ATOM     11  H   UNL     1      -8.466   5.633  13.911  1.00  0.00     0.293 HD
ENDBRANCH   2  10
TORSDOF 2
ENDMDL
MODEL 3
REMARK VINA RESULT:    -1.311      2.206      3.410
REMARK INTER + INTRA:          -1.626
REMARK INTER:                  -1.377
REMARK INTRA:                  -0.249
REMARK UNBOUND:                -0.200
REMARK SMILES O=C([O-])c1ccccc1O
REMARK SMILES IDX 4 1 9 2 5 3 8 4 6 5 7 6 2 7 1 8 3 9 10 10
REMARK H PARENT 10 11
REMARK Flexibility Score: inf
ROOT
ATOM      1  C   UNL     1      -6.685   4.600  15.527  1.00  0.00     0.039 A 
ATOM      2  C   UNL     1      -6.048   4.824  16.775  1.00  0.00     0.124 A 
ATOM      3  C   UNL     1      -6.818   3.280  15.059  1.00  0.00     0.014 A 
ATOM      4  C   UNL     1      -5.623   3.733  17.542  1.00  0.00     0.047 A 
ATOM      5  C   UNL     1      -6.369   2.203  15.828  1.00  0.00     0.001 A 
ATOM      6  C   UNL     1      -5.781   2.428  17.071  1.00  0.00     0.004 A 
ENDROOT
BRANCH   1   7
ATOM      7  C   UNL     1      -7.250   5.701  14.716  1.00  0.00     0.075 C 
ATOM      8  O   UNL     1      -8.350   5.545  14.119  1.00  0.00    -0.545 OA
ATOM      9  O   UNL     1      -6.621   6.938  14.656  1.00  0.00    -0.545 OA
ENDBRANCH   1   7
BRANCH   2  10
ATOM     10  O   UNL     1      -5.789   6.105  17.267  1.00  0.00    -0.507 OA
ATOM     11  H   UNL     1      -5.915   6.366  18.235  1.00  0.00     0.293 HD
ENDBRANCH   2  10
TORSDOF 2
ENDMDL
MODEL 4
REMARK VINA RESULT:    -1.153      1.280      1.918
REMARK INTER + INTRA:          -1.454
REMARK INTER:                  -1.231
REMARK INTRA:                  -0.223
REMARK UNBOUND:                -0.200
REMARK SMILES O=C([O-])c1ccccc1O
REMARK SMILES IDX 4 1 9 2 5 3 8 4 6 5 7 6 2 7 1 8 3 9 10 10
REMARK H PARENT 10 11
REMARK Flexibility Score: inf
ROOT
ATOM      1  C   UNL     1      -5.628   3.518  14.456  1.00  0.00     0.039 A 
ATOM      2  C   UNL     1      -5.746   3.627  15.866  1.00  0.00     0.124 A 
ATOM      3  C   UNL     1      -6.705   3.932  13.649  1.00  0.00     0.014 A 
ATOM      4  C   UNL     1      -6.897   4.198  16.423  1.00  0.00     0.047 A 
ATOM      5  C   UNL     1      -7.855   4.480  14.223  1.00  0.00     0.001 A 
ATOM      6  C   UNL     1      -7.947   4.622  15.606  1.00  0.00     0.004 A 
ENDROOT
BRANCH   1   7
ATOM      7  C   UNL     1      -4.399   3.022  13.800  1.00  0.00     0.075 C 
ATOM      8  O   UNL     1      -4.407   2.746  12.570  1.00  0.00    -0.545 OA
ATOM      9  O   UNL     1      -3.207   2.917  14.505  1.00  0.00    -0.545 OA
ENDBRANCH   1   7
BRANCH   2  10
ATOM     10  O   UNL     1      -4.768   3.152  16.741  1.00  0.00    -0.507 OA
ATOM     11  H   UNL     1      -4.678   3.463  17.698  1.00  0.00     0.293 HD
ENDBRANCH   2  10
TORSDOF 2
ENDMDL
MODEL 5
REMARK VINA RESULT:    -1.078      1.047      2.142
REMARK INTER + INTRA:          -1.373
REMARK INTER:                  -1.121
REMARK INTRA:                  -0.251
REMARK UNBOUND:                -0.200
REMARK SMILES O=C([O-])c1ccccc1O
REMARK SMILES IDX 4 1 9 2 5 3 8 4 6 5 7 6 2 7 1 8 3 9 10 10
REMARK H PARENT 10 11
REMARK Flexibility Score: inf
ROOT
ATOM      1  C   UNL     1      -6.013   3.639  15.417  1.00  0.00     0.039 A 
ATOM      2  C   UNL     1      -6.250   3.669  14.019  1.00  0.00     0.124 A 
ATOM      3  C   UNL     1      -6.930   4.272  16.277  1.00  0.00     0.014 A 
ATOM      4  C   UNL     1      -7.416   4.268  13.527  1.00  0.00     0.047 A 
ATOM      5  C   UNL     1      -8.078   4.884  15.767  1.00  0.00     0.001 A 
ATOM      6  C   UNL     1      -8.325   4.874  14.395  1.00  0.00     0.004 A 
ENDROOT
BRANCH   1   7
ATOM      7  C   UNL     1      -4.856   2.933  16.010  1.00  0.00     0.075 C 
ATOM      8  O   UNL     1      -5.004   2.244  17.055  1.00  0.00    -0.545 OA
ATOM      9  O   UNL     1      -3.612   2.959  15.392  1.00  0.00    -0.545 OA
ENDBRANCH   1   7
BRANCH   2  10
ATOM     10  O   UNL     1      -5.343   3.152  13.091  1.00  0.00    -0.507 OA
ATOM     11  H   UNL     1      -5.313   2.177  12.826  1.00  0.00     0.293 HD
ENDBRANCH   2  10
TORSDOF 2
ENDMDL
MODEL 6
REMARK VINA RESULT:    -1.065      2.190      3.988
REMARK INTER + INTRA:          -1.357
REMARK INTER:                  -1.281
REMARK INTRA:                  -0.077
REMARK UNBOUND:                -0.200
REMARK SMILES O=C([O-])c1ccccc1O
REMARK SMILES IDX 4 1 9 2 5 3 8 4 6 5 7 6 2 7 1 8 3 9 10 10
REMARK H PARENT 10 11
REMARK Flexibility Score: inf
ROOT
ATOM      1  C   UNL     1      -6.686   4.276  15.253  1.00  0.00     0.039 A 
ATOM      2  C   UNL     1      -5.691   3.515  14.587  1.00  0.00     0.124 A 
ATOM      3  C   UNL     1      -6.802   4.170  16.652  1.00  0.00     0.014 A 
ATOM      4  C   UNL     1      -4.808   2.726  15.333  1.00  0.00     0.047 A 
ATOM      5  C   UNL     1      -5.926   3.360  17.379  1.00  0.00     0.001 A 
ATOM      6  C   UNL     1      -4.924   2.648  16.722  1.00  0.00     0.004 A 
ENDROOT
BRANCH   1   7
ATOM      7  C   UNL     1      -7.583   5.209  14.536  1.00  0.00     0.075 C 
ATOM      8  O   UNL     1      -8.685   4.801  14.080  1.00  0.00    -0.545 OA
ATOM      9  O   UNL     1      -7.262   6.555  14.414  1.00  0.00    -0.545 OA
ENDBRANCH   1   7
BRANCH   2  10
ATOM     10  O   UNL     1      -5.572   3.488  13.196  1.00  0.00    -0.507 OA
ATOM     11  H   UNL     1      -6.308   3.780  12.568  1.00  0.00     0.293 HD
ENDBRANCH   2  10
TORSDOF 2
ENDMDL
MODEL 7
REMARK VINA RESULT:    -0.520      1.654      3.083
REMARK INTER + INTRA:          -0.765
REMARK INTER:                  -0.552
REMARK INTRA:                  -0.213
REMARK UNBOUND:                -0.200
REMARK SMILES O=C([O-])c1ccccc1O
REMARK SMILES IDX 4 1 9 2 5 3 8 4 6 5 7 6 2 7 1 8 3 9 10 10
REMARK H PARENT 10 11
REMARK Flexibility Score: inf
ROOT
ATOM      1  C   UNL     1      -6.293   5.483  15.930  1.00  0.00     0.039 A 
ATOM      2  C   UNL     1      -6.046   4.245  16.577  1.00  0.00     0.124 A 
ATOM      3  C   UNL     1      -6.924   5.480  14.672  1.00  0.00     0.014 A 
ATOM      4  C   UNL     1      -6.487   3.055  15.986  1.00  0.00     0.047 A 
ATOM      5  C   UNL     1      -7.338   4.281  14.087  1.00  0.00     0.001 A 
ATOM      6  C   UNL     1      -7.129   3.071  14.747  1.00  0.00     0.004 A 
ENDROOT
BRANCH   1   7
ATOM      7  C   UNL     1      -5.948   6.783  16.547  1.00  0.00     0.075 C 
ATOM      8  O   UNL     1      -5.670   6.845  17.775  1.00  0.00    -0.545 OA
ATOM      9  O   UNL     1      -5.856   7.936  15.777  1.00  0.00    -0.545 OA
ENDBRANCH   1   7
BRANCH   2  10
ATOM     10  O   UNL     1      -5.340   4.153  17.778  1.00  0.00    -0.507 OA
ATOM     11  H   UNL     1      -4.548   3.540  17.913  1.00  0.00     0.293 HD
ENDBRANCH   2  10
TORSDOF 2
ENDMDL
MODEL 8
REMARK VINA RESULT:    -0.072      2.065      2.874
REMARK INTER + INTRA:          -0.278
REMARK INTER:                  -0.061
REMARK INTRA:                  -0.217
REMARK UNBOUND:                -0.200
REMARK SMILES O=C([O-])c1ccccc1O
REMARK SMILES IDX 4 1 9 2 5 3 8 4 6 5 7 6 2 7 1 8 3 9 10 10
REMARK H PARENT 10 11
REMARK Flexibility Score: inf
ROOT
ATOM      1  C   UNL     1      -5.256   3.399  14.701  1.00  0.00     0.039 A 
ATOM      2  C   UNL     1      -6.517   4.013  14.494  1.00  0.00     0.124 A 
ATOM      3  C   UNL     1      -4.834   3.138  16.019  1.00  0.00     0.014 A 
ATOM      4  C   UNL     1      -7.342   4.290  15.591  1.00  0.00     0.047 A 
ATOM      5  C   UNL     1      -5.661   3.440  17.103  1.00  0.00     0.001 A 
ATOM      6  C   UNL     1      -6.917   4.006  16.890  1.00  0.00     0.004 A 
ENDROOT
BRANCH   1   7
ATOM      7  C   UNL     1      -4.381   2.986  13.582  1.00  0.00     0.075 C 
ATOM      8  O   UNL     1      -4.851   2.888  12.416  1.00  0.00    -0.545 OA
ATOM      9  O   UNL     1      -3.024   2.767  13.781  1.00  0.00    -0.545 OA
ENDBRANCH   1   7
BRANCH   2  10
ATOM     10  O   UNL     1      -6.968   4.395  13.228  1.00  0.00    -0.507 OA
ATOM     11  H   UNL     1      -7.936   4.594  13.019  1.00  0.00     0.293 HD
ENDBRANCH   2  10
TORSDOF 2
ENDMDL
MODEL 9
REMARK VINA RESULT:     0.230      1.847      2.642
REMARK INTER + INTRA:           0.051
REMARK INTER:                   0.273
REMARK INTRA:                  -0.223
REMARK UNBOUND:                -0.200
REMARK SMILES O=C([O-])c1ccccc1O
REMARK SMILES IDX 4 1 9 2 5 3 8 4 6 5 7 6 2 7 1 8 3 9 10 10
REMARK H PARENT 10 11
REMARK Flexibility Score: inf
ROOT
ATOM      1  C   UNL     1      -6.403   4.668  15.658  1.00  0.00     0.039 A 
ATOM      2  C   UNL     1      -5.968   4.960  16.977  1.00  0.00     0.124 A 
ATOM      3  C   UNL     1      -6.645   5.733  14.770  1.00  0.00     0.014 A 
ATOM      4  C   UNL     1      -5.728   6.288  17.349  1.00  0.00     0.047 A 
ATOM      5  C   UNL     1      -6.421   7.054  15.165  1.00  0.00     0.001 A 
ATOM      6  C   UNL     1      -5.954   7.331  16.449  1.00  0.00     0.004 A 
ENDROOT
BRANCH   1   7
ATOM      7  C   UNL     1      -6.575   3.283  15.169  1.00  0.00     0.075 C 
ATOM      8  O   UNL     1      -6.522   3.038  13.933  1.00  0.00    -0.545 OA
ATOM      9  O   UNL     1      -6.728   2.226  16.058  1.00  0.00    -0.545 OA
ENDBRANCH   1   7
BRANCH   2  10
ATOM     10  O   UNL     1      -5.798   3.971  17.948  1.00  0.00    -0.507 OA
ATOM     11  H   UNL     1      -5.472   3.037  17.741  1.00  0.00     0.293 HD
ENDBRANCH   2  10
TORSDOF 2
ENDMDL
