MODEL 1
REMARK VINA RESULT:    -3.585      0.000      0.000
REMARK INTER + INTRA:          -5.286
REMARK INTER:                  -4.842
REMARK INTRA:                  -0.444
REMARK UNBOUND:                -0.444
REMARK SMILES CCCCCCCC(=O)[O-]
REMARK SMILES IDX 5 1 6 2 7 3 8 4 9 5 10 6 4 7 3 8 2 9 1 10
REMARK H PARENT
REMARK Flexibility Score: inf
ROOT
ATOM      1  C   UNL     1      -6.002   8.143  -6.841  1.00  0.00     0.000 C 
ENDROOT
BRANCH   1   2
ATOM      2  C   UNL     1      -7.155   8.065  -7.848  1.00  0.00     0.006 C 
BRANCH   2   3
ATOM      3  C   UNL     1      -6.987   6.867  -8.785  1.00  0.00     0.053 C 
BRANCH   3   4
ATOM      4  C   UNL     1      -7.239   5.587  -8.052  1.00  0.00     0.041 C 
ATOM      5  O   UNL     1      -6.441   4.621  -8.171  1.00  0.00    -0.550 OA
ATOM      6  O   UNL     1      -8.329   5.479  -7.197  1.00  0.00    -0.550 OA
ENDBRANCH   3   4
ENDBRANCH   2   3
ENDBRANCH   1   2
BRANCH   1   7
ATOM      7  C   UNL     1      -4.646   8.173  -7.557  1.00  0.00     0.000 C 
BRANCH   7   8
ATOM      8  C   UNL     1      -3.580   7.419  -6.748  1.00  0.00    -0.000 C 
BRANCH   8   9
ATOM      9  C   UNL     1      -4.102   6.092  -6.177  1.00  0.00    -0.003 C 
ATOM     10  C   UNL     1      -3.466   5.734  -4.834  1.00  0.00     0.004 C 
ENDBRANCH   8   9
ENDBRANCH   7   8
ENDBRANCH   1   7
TORSDOF 6
ENDMDL
MODEL 2
REMARK VINA RESULT:    -3.554      1.984      3.747
REMARK INTER + INTRA:          -5.244
REMARK INTER:                  -4.579
REMARK INTRA:                  -0.665
REMARK UNBOUND:                -0.444
REMARK SMILES CCCCCCCC(=O)[O-]
REMARK SMILES IDX 5 1 6 2 7 3 8 4 9 5 10 6 4 7 3 8 2 9 1 10
REMARK H PARENT
REMARK Flexibility Score: inf
ROOT
ATOM      1  C   UNL     1      -4.728   7.942  -9.229  1.00  0.00     0.000 C 
ENDROOT
BRANCH   1   2
ATOM      2  C   UNL     1      -4.477   8.406  -7.790  1.00  0.00     0.006 C 
BRANCH   2   3
ATOM      3  C   UNL     1      -3.413   7.539  -7.111  1.00  0.00     0.053 C 
BRANCH   3   4
ATOM      4  C   UNL     1      -4.034   6.678  -6.056  1.00  0.00     0.041 C 
ATOM      5  O   UNL     1      -4.859   7.169  -5.242  1.00  0.00    -0.550 OA
ATOM      6  O   UNL     1      -3.737   5.321  -6.003  1.00  0.00    -0.550 OA
ENDBRANCH   3   4
ENDBRANCH   2   3
ENDBRANCH   1   2
BRANCH   1   7
ATOM      7  C   UNL     1      -6.099   7.267  -9.360  1.00  0.00     0.000 C 
BRANCH   7   8
ATOM      8  C   UNL     1      -6.998   7.610  -8.163  1.00  0.00    -0.000 C 
BRANCH   8   9
ATOM      9  C   UNL     1      -7.547   6.358  -7.460  1.00  0.00    -0.003 C 
ATOM     10  C   UNL     1      -6.803   5.083  -7.857  1.00  0.00     0.004 C 
ENDBRANCH   8   9
ENDBRANCH   7   8
ENDBRANCH   1   7
TORSDOF 6
ENDMDL
MODEL 3
REMARK VINA RESULT:    -3.538      1.778      3.840
REMARK INTER + INTRA:          -5.223
REMARK INTER:                  -4.902
REMARK INTRA:                  -0.321
REMARK UNBOUND:                -0.444
REMARK SMILES CCCCCCCC(=O)[O-]
REMARK SMILES IDX 5 1 6 2 7 3 8 4 9 5 10 6 4 7 3 8 2 9 1 10
REMARK H PARENT
REMARK Flexibility Score: inf
ROOT
ATOM      1  C   UNL     1      -5.908   8.203  -6.799  1.00  0.00     0.000 C 
ENDROOT
BRANCH   1   2
ATOM      2  C   UNL     1      -4.642   8.069  -7.651  1.00  0.00     0.006 C 
BRANCH   2   3
ATOM      3  C   UNL     1      -3.472   7.537  -6.819  1.00  0.00     0.053 C 
BRANCH   3   4
ATOM      4  C   UNL     1      -3.905   6.364  -5.996  1.00  0.00     0.041 C 
ATOM      5  O   UNL     1      -3.836   6.411  -4.740  1.00  0.00    -0.550 OA
ATOM      6  O   UNL     1      -4.430   5.236  -6.615  1.00  0.00    -0.550 OA
ENDBRANCH   3   4
ENDBRANCH   2   3
ENDBRANCH   1   2
BRANCH   1   7
ATOM      7  C   UNL     1      -7.080   8.739  -7.631  1.00  0.00     0.000 C 
BRANCH   7   8
ATOM      8  C   UNL     1      -7.830   7.593  -8.325  1.00  0.00    -0.000 C 
BRANCH   8   9
ATOM      9  C   UNL     1      -7.709   6.263  -7.566  1.00  0.00    -0.003 C 
ATOM     10  C   UNL     1      -7.403   5.081  -8.486  1.00  0.00     0.004 C 
ENDBRANCH   8   9
ENDBRANCH   7   8
ENDBRANCH   1   7
TORSDOF 6
ENDMDL
MODEL 4
REMARK VINA RESULT:    -3.395      2.146      4.185
REMARK INTER + INTRA:          -5.030
REMARK INTER:                  -4.551
REMARK INTRA:                  -0.480
REMARK UNBOUND:                -0.444
REMARK SMILES CCCCCCCC(=O)[O-]
REMARK SMILES IDX 5 1 6 2 7 3 8 4 9 5 10 6 4 7 3 8 2 9 1 10
REMARK H PARENT
REMARK Flexibility Score: inf
ROOT
ATOM      1  C   UNL     1      -4.255   8.487  -8.817  1.00  0.00     0.000 C 
ENDROOT
BRANCH   1   2
ATOM      2  C   UNL     1      -3.633   8.204  -7.446  1.00  0.00     0.006 C 
BRANCH   2   3
ATOM      3  C   UNL     1      -4.625   7.483  -6.529  1.00  0.00     0.053 C 
BRANCH   3   4
ATOM      4  C   UNL     1      -3.979   6.297  -5.887  1.00  0.00     0.041 C 
ATOM      5  O   UNL     1      -3.372   6.422  -4.791  1.00  0.00    -0.550 OA
ATOM      6  O   UNL     1      -4.089   5.042  -6.474  1.00  0.00    -0.550 OA
ENDBRANCH   3   4
ENDBRANCH   2   3
ENDBRANCH   1   2
BRANCH   1   7
ATOM      7  C   UNL     1      -5.363   7.477  -9.140  1.00  0.00     0.000 C 
BRANCH   7   8
ATOM      8  C   UNL     1      -6.647   8.194  -9.587  1.00  0.00    -0.000 C 
BRANCH   8   9
ATOM      9  C   UNL     1      -7.672   8.330  -8.451  1.00  0.00    -0.003 C 
ATOM     10  C   UNL     1      -7.607   9.689  -7.754  1.00  0.00     0.004 C 
ENDBRANCH   8   9
ENDBRANCH   7   8
ENDBRANCH   1   7
TORSDOF 6
ENDMDL
MODEL 5
REMARK VINA RESULT:    -3.390      1.131      1.884
REMARK INTER + INTRA:          -5.023
REMARK INTER:                  -4.460
REMARK INTRA:                  -0.564
REMARK UNBOUND:                -0.444
REMARK SMILES CCCCCCCC(=O)[O-]
REMARK SMILES IDX 5 1 6 2 7 3 8 4 9 5 10 6 4 7 3 8 2 9 1 10
REMARK H PARENT
REMARK Flexibility Score: inf
ROOT
ATOM      1  C   UNL     1      -7.541   8.002  -8.028  1.00  0.00     0.000 C 
ENDROOT
BRANCH   1   2
ATOM      2  C   UNL     1      -7.130   7.233  -9.289  1.00  0.00     0.006 C 
BRANCH   2   3
ATOM      3  C   UNL     1      -7.778   5.846  -9.323  1.00  0.00     0.053 C 
BRANCH   3   4
ATOM      4  C   UNL     1      -7.407   5.064  -8.102  1.00  0.00     0.041 C 
ATOM      5  O   UNL     1      -6.215   4.704  -7.918  1.00  0.00    -0.550 OA
ATOM      6  O   UNL     1      -8.369   4.776  -7.142  1.00  0.00    -0.550 OA
ENDBRANCH   3   4
ENDBRANCH   2   3
ENDBRANCH   1   2
BRANCH   1   7
ATOM      7  C   UNL     1      -6.341   8.728  -7.409  1.00  0.00     0.000 C 
BRANCH   7   8
ATOM      8  C   UNL     1      -5.651   7.850  -6.355  1.00  0.00    -0.000 C 
BRANCH   8   9
ATOM      9  C   UNL     1      -4.240   7.416  -6.780  1.00  0.00    -0.003 C 
ATOM     10  C   UNL     1      -3.737   8.166  -8.013  1.00  0.00     0.004 C 
ENDBRANCH   8   9
ENDBRANCH   7   8
ENDBRANCH   1   7
TORSDOF 6
ENDMDL
MODEL 6
REMARK VINA RESULT:    -3.313      2.991      4.801
REMARK INTER + INTRA:          -4.919
REMARK INTER:                  -4.708
REMARK INTRA:                  -0.211
REMARK UNBOUND:                -0.444
REMARK SMILES CCCCCCCC(=O)[O-]
REMARK SMILES IDX 5 1 6 2 7 3 8 4 9 5 10 6 4 7 3 8 2 9 1 10
REMARK H PARENT
REMARK Flexibility Score: inf
ROOT
ATOM      1  C   UNL     1      -7.031   4.914  -7.669  1.00  0.00     0.000 C 
ENDROOT
BRANCH   1   2
ATOM      2  C   UNL     1      -5.981   5.990  -7.965  1.00  0.00     0.006 C 
BRANCH   2   3
ATOM      3  C   UNL     1      -5.965   7.060  -6.869  1.00  0.00     0.053 C 
BRANCH   3   4
ATOM      4  C   UNL     1      -4.579   7.244  -6.336  1.00  0.00     0.041 C 
ATOM      5  O   UNL     1      -4.244   6.713  -5.245  1.00  0.00    -0.550 OA
ATOM      6  O   UNL     1      -3.642   7.963  -7.069  1.00  0.00    -0.550 OA
ENDBRANCH   3   4
ENDBRANCH   2   3
ENDBRANCH   1   2
BRANCH   1   7
ATOM      7  C   UNL     1      -8.346   5.542  -7.192  1.00  0.00     0.000 C 
BRANCH   7   8
ATOM      8  C   UNL     1      -9.439   4.475  -7.031  1.00  0.00    -0.000 C 
BRANCH   8   9
ATOM      9  C   UNL     1      -9.951   4.368  -5.586  1.00  0.00    -0.003 C 
ATOM     10  C   UNL     1      -9.802   2.961  -5.008  1.00  0.00     0.004 C 
ENDBRANCH   8   9
ENDBRANCH   7   8
ENDBRANCH   1   7
TORSDOF 6
ENDMDL
MODEL 7
REMARK VINA RESULT:    -3.289      3.524      5.530
REMARK INTER + INTRA:          -4.887
REMARK INTER:                  -4.704
REMARK INTRA:                  -0.183
REMARK UNBOUND:                -0.444
REMARK SMILES CCCCCCCC(=O)[O-]
REMARK SMILES IDX 5 1 6 2 7 3 8 4 9 5 10 6 4 7 3 8 2 9 1 10
REMARK H PARENT
REMARK Flexibility Score: inf
ROOT
ATOM      1  C   UNL     1      -2.544   4.136  -4.316  1.00  0.00     0.000 C 
ENDROOT
BRANCH   1   2
ATOM      2  C   UNL     1      -3.367   5.414  -4.516  1.00  0.00     0.006 C 
BRANCH   2   3
ATOM      3  C   UNL     1      -3.815   5.558  -5.973  1.00  0.00     0.053 C 
BRANCH   3   4
ATOM      4  C   UNL     1      -4.184   6.977  -6.270  1.00  0.00     0.041 C 
ATOM      5  O   UNL     1      -5.168   7.510  -5.694  1.00  0.00    -0.550 OA
ATOM      6  O   UNL     1      -3.410   7.727  -7.147  1.00  0.00    -0.550 OA
ENDBRANCH   3   4
ENDBRANCH   2   3
ENDBRANCH   1   2
BRANCH   1   7
ATOM      7  C   UNL     1      -2.985   3.388  -3.052  1.00  0.00     0.000 C 
BRANCH   7   8
ATOM      8  C   UNL     1      -1.769   2.909  -2.245  1.00  0.00    -0.000 C 
BRANCH   8   9
ATOM      9  C   UNL     1      -0.754   2.142  -3.107  1.00  0.00    -0.003 C 
ATOM     10  C   UNL     1      -1.132   0.673  -3.300  1.00  0.00     0.004 C 
ENDBRANCH   8   9
ENDBRANCH   7   8
ENDBRANCH   1   7
TORSDOF 6
ENDMDL
MODEL 8
REMARK VINA RESULT:    -3.007      1.912      2.812
REMARK INTER + INTRA:          -4.506
REMARK INTER:                  -4.120
REMARK INTRA:                  -0.386
REMARK UNBOUND:                -0.444
REMARK SMILES CCCCCCCC(=O)[O-]
REMARK SMILES IDX 5 1 6 2 7 3 8 4 9 5 10 6 4 7 3 8 2 9 1 10
REMARK H PARENT
REMARK Flexibility Score: inf
ROOT
ATOM      1  C   UNL     1      -5.379   5.471  -7.242  1.00  0.00     0.000 C 
ENDROOT
BRANCH   1   2
ATOM      2  C   UNL     1      -6.624   5.225  -8.101  1.00  0.00     0.006 C 
BRANCH   2   3
ATOM      3  C   UNL     1      -7.857   5.893  -7.487  1.00  0.00     0.053 C 
BRANCH   3   4
ATOM      4  C   UNL     1      -8.993   4.923  -7.406  1.00  0.00     0.041 C 
ATOM      5  O   UNL     1      -9.289   4.384  -6.307  1.00  0.00    -0.550 OA
ATOM      6  O   UNL     1      -9.758   4.650  -8.534  1.00  0.00    -0.550 OA
ENDBRANCH   3   4
ENDBRANCH   2   3
ENDBRANCH   1   2
BRANCH   1   7
ATOM      7  C   UNL     1      -5.337   6.917  -6.733  1.00  0.00     0.000 C 
BRANCH   7   8
ATOM      8  C   UNL     1      -3.928   7.511  -6.883  1.00  0.00    -0.000 C 
BRANCH   8   9
ATOM      9  C   UNL     1      -3.774   8.347  -8.163  1.00  0.00    -0.003 C 
ATOM     10  C   UNL     1      -5.095   8.955  -8.636  1.00  0.00     0.004 C 
ENDBRANCH   8   9
ENDBRANCH   7   8
ENDBRANCH   1   7
TORSDOF 6
ENDMDL
MODEL 9
REMARK VINA RESULT:    -2.912      2.484      2.923
REMARK INTER + INTRA:          -4.378
REMARK INTER:                  -3.910
REMARK INTRA:                  -0.468
REMARK UNBOUND:                -0.444
REMARK SMILES CCCCCCCC(=O)[O-]
REMARK SMILES IDX 5 1 6 2 7 3 8 4 9 5 10 6 4 7 3 8 2 9 1 10
REMARK H PARENT
REMARK Flexibility Score: inf
ROOT
ATOM      1  C   UNL     1      -5.623   6.962  -8.798  1.00  0.00     0.000 C 
ENDROOT
BRANCH   1   2
ATOM      2  C   UNL     1      -6.803   7.555  -9.576  1.00  0.00     0.006 C 
BRANCH   2   3
ATOM      3  C   UNL     1      -6.822   9.082  -9.466  1.00  0.00     0.053 C 
BRANCH   3   4
ATOM      4  C   UNL     1      -7.706   9.516  -8.339  1.00  0.00     0.041 C 
ATOM      5  O   UNL     1      -8.943   9.661  -8.524  1.00  0.00    -0.550 OA
ATOM      6  O   UNL     1      -7.171   9.714  -7.072  1.00  0.00    -0.550 OA
ENDBRANCH   3   4
ENDBRANCH   2   3
ENDBRANCH   1   2
BRANCH   1   7
ATOM      7  C   UNL     1      -4.447   7.945  -8.743  1.00  0.00     0.000 C 
BRANCH   7   8
ATOM      8  C   UNL     1      -3.767   7.911  -7.367  1.00  0.00    -0.000 C 
BRANCH   8   9
ATOM      9  C   UNL     1      -4.620   7.202  -6.304  1.00  0.00    -0.003 C 
ATOM     10  C   UNL     1      -3.852   6.106  -5.564  1.00  0.00     0.004 C 
ENDBRANCH   8   9
ENDBRANCH   7   8
ENDBRANCH   1   7
TORSDOF 6
ENDMDL
