MODEL 1
REMARK VINA RESULT:    -3.414      0.000      0.000
REMARK INTER + INTRA:          -4.400
REMARK INTER:                  -4.213
REMARK INTRA:                  -0.187
REMARK UNBOUND:                -0.187
REMARK SMILES CCCCCC(=O)[O-]
REMARK SMILES IDX 4 1 5 2 6 3 7 4 8 5 3 6 2 7 1 8
REMARK H PARENT
REMARK Flexibility Score: inf
ROOT
ATOM      1  C   UNL     1     106.216  11.735  15.644  1.00  0.00     0.006 C 
ENDROOT
BRANCH   1   2
ATOM      2  C   UNL     1     105.013  11.167  14.886  1.00  0.00     0.053 C 
BRANCH   2   3
ATOM      3  C   UNL     1     103.735  11.604  15.529  1.00  0.00     0.041 C 
ATOM      4  O   UNL     1     103.656  11.697  16.782  1.00  0.00    -0.550 OA
ATOM      5  O   UNL     1     102.615  11.860  14.747  1.00  0.00    -0.550 OA
ENDBRANCH   2   3
ENDBRANCH   1   2
BRANCH   1   6
ATOM      6  C   UNL     1     106.984  10.620  16.370  1.00  0.00     0.000 C 
BRANCH   6   7
ATOM      7  C   UNL     1     107.479  11.052  17.760  1.00  0.00    -0.003 C 
ATOM      8  C   UNL     1     106.766  12.301  18.279  1.00  0.00     0.004 C 
ENDBRANCH   6   7
ENDBRANCH   1   6
TORSDOF 4
ENDMDL
MODEL 2
REMARK VINA RESULT:    -3.370      1.027      1.593
REMARK INTER + INTRA:          -4.345
REMARK INTER:                  -4.183
REMARK INTRA:                  -0.162
REMARK UNBOUND:                -0.187
REMARK SMILES CCCCCC(=O)[O-]
REMARK SMILES IDX 4 1 5 2 6 3 7 4 8 5 3 6 2 7 1 8
REMARK H PARENT
REMARK Flexibility Score: inf
ROOT
ATOM      1  C   UNL     1     106.172  11.886  15.500  1.00  0.00     0.006 C 
ENDROOT
BRANCH   1   2
ATOM      2  C   UNL     1     105.025  11.199  14.754  1.00  0.00     0.053 C 
BRANCH   2   3
ATOM      3  C   UNL     1     103.713  11.815  15.127  1.00  0.00     0.041 C 
ATOM      4  O   UNL     1     103.474  13.018  14.842  1.00  0.00    -0.550 OA
ATOM      5  O   UNL     1     102.773  11.075  15.835  1.00  0.00    -0.550 OA
ENDBRANCH   2   3
ENDBRANCH   1   2
BRANCH   1   6
ATOM      6  C   UNL     1     106.152  11.525  16.992  1.00  0.00     0.000 C 
BRANCH   6   7
ATOM      7  C   UNL     1     107.481  10.919  17.471  1.00  0.00    -0.003 C 
ATOM      8  C   UNL     1     107.837   9.623  16.742  1.00  0.00     0.004 C 
ENDBRANCH   6   7
ENDBRANCH   1   6
TORSDOF 4
ENDMDL
MODEL 3
REMARK VINA RESULT:    -3.242      1.265      2.106
REMARK INTER + INTRA:          -4.187
REMARK INTER:                  -4.087
REMARK INTRA:                  -0.099
REMARK UNBOUND:                -0.187
REMARK SMILES CCCCCC(=O)[O-]
REMARK SMILES IDX 4 1 5 2 6 3 7 4 8 5 3 6 2 7 1 8
REMARK H PARENT
REMARK Flexibility Score: inf
ROOT
ATOM      1  C   UNL     1     104.742  11.403  15.058  1.00  0.00     0.006 C 
ENDROOT
BRANCH   1   2
ATOM      2  C   UNL     1     103.881  11.659  16.299  1.00  0.00     0.053 C 
BRANCH   2   3
ATOM      3  C   UNL     1     102.459  11.273  16.039  1.00  0.00     0.041 C 
ATOM      4  O   UNL     1     101.863  11.700  15.015  1.00  0.00    -0.550 OA
ATOM      5  O   UNL     1     101.775  10.480  16.953  1.00  0.00    -0.550 OA
ENDBRANCH   2   3
ENDBRANCH   1   2
BRANCH   1   6
ATOM      6  C   UNL     1     106.233  11.591  15.376  1.00  0.00     0.000 C 
BRANCH   6   7
ATOM      7  C   UNL     1     106.622  11.014  16.746  1.00  0.00    -0.003 C 
ATOM      8  C   UNL     1     107.650   9.887  16.642  1.00  0.00     0.004 C 
ENDBRANCH   6   7
ENDBRANCH   1   6
TORSDOF 4
ENDMDL
MODEL 4
REMARK VINA RESULT:    -3.162     13.333     14.262
REMARK INTER + INTRA:          -4.088
REMARK INTER:                  -3.977
REMARK INTRA:                  -0.111
REMARK UNBOUND:                -0.187
REMARK SMILES CCCCCC(=O)[O-]
REMARK SMILES IDX 4 1 5 2 6 3 7 4 8 5 3 6 2 7 1 8
REMARK H PARENT
REMARK Flexibility Score: inf
ROOT
ATOM      1  C   UNL     1      95.722   5.453  24.442  1.00  0.00     0.006 C 
ENDROOT
BRANCH   1   2
ATOM      2  C   UNL     1      96.513   4.414  23.642  1.00  0.00     0.053 C 
BRANCH   2   3
ATOM      3  C   UNL     1      96.368   3.058  24.257  1.00  0.00     0.041 C 
ATOM      4  O   UNL     1      95.900   2.103  23.584  1.00  0.00    -0.550 OA
ATOM      5  O   UNL     1      96.704   2.860  25.592  1.00  0.00    -0.550 OA
ENDBRANCH   2   3
ENDBRANCH   1   2
BRANCH   1   6
ATOM      6  C   UNL     1      95.080   6.491  23.509  1.00  0.00     0.000 C 
BRANCH   6   7
ATOM      7  C   UNL     1      95.659   6.445  22.086  1.00  0.00    -0.003 C 
ATOM      8  C   UNL     1      94.705   7.025  21.042  1.00  0.00     0.004 C 
ENDBRANCH   6   7
ENDBRANCH   1   6
TORSDOF 4
ENDMDL
MODEL 5
REMARK VINA RESULT:    -3.148      2.827      4.135
REMARK INTER + INTRA:          -4.071
REMARK INTER:                  -3.928
REMARK INTRA:                  -0.143
REMARK UNBOUND:                -0.187
REMARK SMILES CCCCCC(=O)[O-]
REMARK SMILES IDX 4 1 5 2 6 3 7 4 8 5 3 6 2 7 1 8
REMARK H PARENT
REMARK Flexibility Score: inf
ROOT
ATOM      1  C   UNL     1     106.188  11.317  15.487  1.00  0.00     0.006 C 
ENDROOT
BRANCH   1   2
ATOM      2  C   UNL     1     106.568  11.389  16.968  1.00  0.00     0.053 C 
BRANCH   2   3
ATOM      3  C   UNL     1     107.470  10.254  17.334  1.00  0.00     0.041 C 
ATOM      4  O   UNL     1     107.755   9.371  16.482  1.00  0.00    -0.550 OA
ATOM      5  O   UNL     1     107.958  10.143  18.630  1.00  0.00    -0.550 OA
ENDBRANCH   2   3
ENDBRANCH   1   2
BRANCH   1   6
ATOM      6  C   UNL     1     104.664  11.390  15.306  1.00  0.00     0.000 C 
BRANCH   6   7
ATOM      7  C   UNL     1     103.962  12.085  16.483  1.00  0.00    -0.003 C 
ATOM      8  C   UNL     1     102.651  11.404  16.875  1.00  0.00     0.004 C 
ENDBRANCH   6   7
ENDBRANCH   1   6
TORSDOF 4
ENDMDL
MODEL 6
REMARK VINA RESULT:    -3.075     14.274     14.885
REMARK INTER + INTRA:          -3.981
REMARK INTER:                  -3.754
REMARK INTRA:                  -0.228
REMARK UNBOUND:                -0.187
REMARK SMILES CCCCCC(=O)[O-]
REMARK SMILES IDX 4 1 5 2 6 3 7 4 8 5 3 6 2 7 1 8
REMARK H PARENT
REMARK Flexibility Score: inf
ROOT
ATOM      1  C   UNL     1      97.679   4.457  25.623  1.00  0.00     0.006 C 
ENDROOT
BRANCH   1   2
ATOM      2  C   UNL     1      97.118   3.060  25.901  1.00  0.00     0.053 C 
BRANCH   2   3
ATOM      3  C   UNL     1      97.015   2.275  24.632  1.00  0.00     0.041 C 
ATOM      4  O   UNL     1      97.929   1.472  24.307  1.00  0.00    -0.550 OA
ATOM      5  O   UNL     1      95.932   2.466  23.782  1.00  0.00    -0.550 OA
ENDBRANCH   2   3
ENDBRANCH   1   2
BRANCH   1   6
ATOM      6  C   UNL     1      96.780   5.542  26.235  1.00  0.00     0.000 C 
BRANCH   6   7
ATOM      7  C   UNL     1      95.353   5.517  25.666  1.00  0.00    -0.003 C 
ATOM      8  C   UNL     1      95.282   6.025  24.226  1.00  0.00     0.004 C 
ENDBRANCH   6   7
ENDBRANCH   1   6
TORSDOF 4
ENDMDL
MODEL 7
REMARK VINA RESULT:    -3.074     13.902     14.599
REMARK INTER + INTRA:          -3.979
REMARK INTER:                  -3.897
REMARK INTRA:                  -0.082
REMARK UNBOUND:                -0.187
REMARK SMILES CCCCCC(=O)[O-]
REMARK SMILES IDX 4 1 5 2 6 3 7 4 8 5 3 6 2 7 1 8
REMARK H PARENT
REMARK Flexibility Score: inf
ROOT
ATOM      1  C   UNL     1      96.102   3.868  24.626  1.00  0.00     0.006 C 
ENDROOT
BRANCH   1   2
ATOM      2  C   UNL     1      96.369   2.507  23.976  1.00  0.00     0.053 C 
BRANCH   2   3
ATOM      3  C   UNL     1      97.647   1.923  24.489  1.00  0.00     0.041 C 
ATOM      4  O   UNL     1      98.267   2.484  25.430  1.00  0.00    -0.550 OA
ATOM      5  O   UNL     1      98.179   0.785  23.896  1.00  0.00    -0.550 OA
ENDBRANCH   2   3
ENDBRANCH   1   2
BRANCH   1   6
ATOM      6  C   UNL     1      96.270   5.006  23.608  1.00  0.00     0.000 C 
BRANCH   6   7
ATOM      7  C   UNL     1      95.382   6.219  23.925  1.00  0.00    -0.003 C 
ATOM      8  C   UNL     1      94.691   6.786  22.685  1.00  0.00     0.004 C 
ENDBRANCH   6   7
ENDBRANCH   1   6
TORSDOF 4
ENDMDL
MODEL 8
REMARK VINA RESULT:    -3.030     13.373     13.845
REMARK INTER + INTRA:          -3.925
REMARK INTER:                  -3.686
REMARK INTRA:                  -0.240
REMARK UNBOUND:                -0.187
REMARK SMILES CCCCCC(=O)[O-]
REMARK SMILES IDX 4 1 5 2 6 3 7 4 8 5 3 6 2 7 1 8
REMARK H PARENT
REMARK Flexibility Score: inf
ROOT
ATOM      1  C   UNL     1      98.451   2.144  25.056  1.00  0.00     0.006 C 
ENDROOT
BRANCH   1   2
ATOM      2  C   UNL     1      97.137   2.820  25.459  1.00  0.00     0.053 C 
BRANCH   2   3
ATOM      3  C   UNL     1      96.282   3.061  24.256  1.00  0.00     0.041 C 
ATOM      4  O   UNL     1      95.852   2.090  23.578  1.00  0.00    -0.550 OA
ATOM      5  O   UNL     1      95.999   4.361  23.853  1.00  0.00    -0.550 OA
ENDBRANCH   2   3
ENDBRANCH   1   2
BRANCH   1   6
ATOM      6  C   UNL     1      99.553   3.185  24.813  1.00  0.00     0.000 C 
BRANCH   6   7
ATOM      7  C   UNL     1      99.854   3.390  23.320  1.00  0.00    -0.003 C 
ATOM      8  C   UNL     1      99.356   4.737  22.796  1.00  0.00     0.004 C 
ENDBRANCH   6   7
ENDBRANCH   1   6
TORSDOF 4
ENDMDL
MODEL 9
REMARK VINA RESULT:    -3.022     12.671     13.444
REMARK INTER + INTRA:          -3.916
REMARK INTER:                  -3.694
REMARK INTRA:                  -0.222
REMARK UNBOUND:                -0.187
REMARK SMILES CCCCCC(=O)[O-]
REMARK SMILES IDX 4 1 5 2 6 3 7 4 8 5 3 6 2 7 1 8
REMARK H PARENT
REMARK Flexibility Score: inf
ROOT
ATOM      1  C   UNL     1      98.557   4.702  24.144  1.00  0.00     0.006 C 
ENDROOT
BRANCH   1   2
ATOM      2  C   UNL     1      99.535   4.249  23.056  1.00  0.00     0.053 C 
BRANCH   2   3
ATOM      3  C   UNL     1     100.119   2.916  23.399  1.00  0.00     0.041 C 
ATOM      4  O   UNL     1      99.594   2.205  24.295  1.00  0.00    -0.550 OA
ATOM      5  O   UNL     1     101.275   2.478  22.762  1.00  0.00    -0.550 OA
ENDBRANCH   2   3
ENDBRANCH   1   2
BRANCH   1   6
ATOM      6  C   UNL     1      97.113   4.700  23.620  1.00  0.00     0.000 C 
BRANCH   6   7
ATOM      7  C   UNL     1      96.189   3.786  24.440  1.00  0.00    -0.003 C 
ATOM      8  C   UNL     1      96.117   2.365  23.881  1.00  0.00     0.004 C 
ENDBRANCH   6   7
ENDBRANCH   1   6
TORSDOF 4
ENDMDL
