MODEL 1
REMARK VINA RESULT:    -6.373      0.000      0.000
REMARK INTER + INTRA:          -7.603
REMARK INTER:                  -7.305
REMARK INTRA:                  -0.299
REMARK UNBOUND:                -0.299
REMARK SMILES O=C1C[C@H](c2ccc(O)cc2)Oc2cc(O)cc(O)c21
REMARK SMILES IDX 3 1 4 2 12 3 13 4 14 5 15 6 17 7 18 8 20 9 2 10 1 11 5 12
REMARK SMILES IDX 6 13 11 14 7 15 10 16 8 17 9 18 19 20 16 22
REMARK H PARENT 9 19 19 21 16 23
REMARK Flexibility Score: inf
ROOT
ATOM      1  C   UNL     1       8.736  -7.967  -8.985  1.00  0.00     0.131 C 
ATOM      2  C   UNL     1       9.006  -6.587  -8.369  1.00  0.00     0.211 C 
ATOM      3  O   UNL     1       8.294  -5.570  -9.080  1.00  0.00    -0.484 OA
ATOM      4  C   UNL     1       8.158  -5.577 -10.475  1.00  0.00     0.138 A 
ATOM      5  C   UNL     1       7.699  -4.424 -11.116  1.00  0.00     0.093 A 
ATOM      6  C   UNL     1       7.569  -4.396 -12.507  1.00  0.00     0.123 A 
ATOM      7  C   UNL     1       7.870  -5.536 -13.255  1.00  0.00     0.093 A 
ATOM      8  C   UNL     1       8.293  -6.715 -12.630  1.00  0.00     0.133 A 
ATOM      9  C   UNL     1       8.474  -6.733 -11.222  1.00  0.00     0.102 A 
ATOM     10  C   UNL     1       8.984  -7.901 -10.463  1.00  0.00     0.174 C 
ATOM     11  O   UNL     1       9.664  -8.807 -11.016  1.00  0.00    -0.294 OA
ENDROOT
BRANCH   2  12
ATOM     12  C   UNL     1       8.616  -6.568  -6.910  1.00  0.00    -0.007 A 
ATOM     13  C   UNL     1       8.740  -5.389  -6.153  1.00  0.00     0.011 A 
ATOM     14  C   UNL     1       8.070  -7.714  -6.309  1.00  0.00     0.011 A 
ATOM     15  C   UNL     1       8.349  -5.367  -4.811  1.00  0.00     0.046 A 
ATOM     16  C   UNL     1       7.680  -7.689  -4.966  1.00  0.00     0.046 A 
ATOM     17  C   UNL     1       7.820  -6.516  -4.213  1.00  0.00     0.115 A 
BRANCH  17  18
ATOM     18  O   UNL     1       7.435  -6.480  -2.875  1.00  0.00    -0.508 OA
ATOM     19  H   UNL     1       6.802  -7.170  -2.488  1.00  0.00     0.293 HD
ENDBRANCH  17  18
ENDBRANCH   2  12
BRANCH   8  20
ATOM     20  O   UNL     1       8.485  -7.837 -13.439  1.00  0.00    -0.507 OA
ATOM     21  H   UNL     1       8.405  -7.827 -14.445  1.00  0.00     0.293 HD
ENDBRANCH   8  20
BRANCH   6  22
ATOM     22  O   UNL     1       7.132  -3.244 -13.156  1.00  0.00    -0.508 OA
ATOM     23  H   UNL     1       7.243  -3.124 -14.157  1.00  0.00     0.293 HD
ENDBRANCH   6  22
TORSDOF 4
ENDMDL
MODEL 2
REMARK VINA RESULT:    -6.264      3.079      6.606
REMARK INTER + INTRA:          -7.479
REMARK INTER:                  -7.172
REMARK INTRA:                  -0.306
REMARK UNBOUND:                -0.299
REMARK SMILES O=C1C[C@H](c2ccc(O)cc2)Oc2cc(O)cc(O)c21
REMARK SMILES IDX 3 1 4 2 12 3 13 4 14 5 15 6 17 7 18 8 20 9 2 10 1 11 5 12
REMARK SMILES IDX 6 13 11 14 7 15 10 16 8 17 9 18 19 20 16 22
REMARK H PARENT 9 19 19 21 16 23
REMARK Flexibility Score: inf
ROOT
ATOM      1  C   UNL     1       9.825  -8.211  -9.474  1.00  0.00     0.131 C 
ATOM      2  C   UNL     1      10.143  -6.736  -9.757  1.00  0.00     0.211 C 
ATOM      3  O   UNL     1      10.196  -5.990  -8.537  1.00  0.00    -0.484 OA
ATOM      4  C   UNL     1       9.305  -6.209  -7.477  1.00  0.00     0.138 A 
ATOM      5  C   UNL     1       9.237  -5.270  -6.446  1.00  0.00     0.093 A 
ATOM      6  C   UNL     1       8.347  -5.453  -5.384  1.00  0.00     0.123 A 
ATOM      7  C   UNL     1       7.545  -6.595  -5.340  1.00  0.00     0.093 A 
ATOM      8  C   UNL     1       7.626  -7.569  -6.343  1.00  0.00     0.133 A 
ATOM      9  C   UNL     1       8.493  -7.364  -7.448  1.00  0.00     0.102 A 
ATOM     10  C   UNL     1       8.608  -8.292  -8.600  1.00  0.00     0.174 C 
ATOM     11  O   UNL     1       7.690  -9.104  -8.893  1.00  0.00    -0.294 OA
ENDROOT
BRANCH   2  12
ATOM     12  C   UNL     1      11.450  -6.605 -10.501  1.00  0.00    -0.007 A 
ATOM     13  C   UNL     1      11.986  -7.701 -11.202  1.00  0.00     0.011 A 
ATOM     14  C   UNL     1      12.115  -5.369 -10.550  1.00  0.00     0.011 A 
ATOM     15  C   UNL     1      13.181  -7.566 -11.916  1.00  0.00     0.046 A 
ATOM     16  C   UNL     1      13.310  -5.238 -11.265  1.00  0.00     0.046 A 
ATOM     17  C   UNL     1      13.847  -6.337 -11.948  1.00  0.00     0.115 A 
BRANCH  17  18
ATOM     18  O   UNL     1      15.036  -6.217 -12.663  1.00  0.00    -0.508 OA
ATOM     19  H   UNL     1      15.383  -6.971 -13.244  1.00  0.00     0.293 HD
ENDBRANCH  17  18
ENDBRANCH   2  12
BRANCH   8  20
ATOM     20  O   UNL     1       6.860  -8.725  -6.178  1.00  0.00    -0.507 OA
ATOM     21  H   UNL     1       6.116  -9.002  -6.802  1.00  0.00     0.293 HD
ENDBRANCH   8  20
BRANCH   6  22
ATOM     22  O   UNL     1       8.257  -4.511  -4.362  1.00  0.00    -0.508 OA
ATOM     23  H   UNL     1       8.018  -3.544  -4.552  1.00  0.00     0.293 HD
ENDBRANCH   6  22
TORSDOF 4
ENDMDL
MODEL 3
REMARK VINA RESULT:    -6.058     21.345     23.558
REMARK INTER + INTRA:          -7.242
REMARK INTER:                  -6.943
REMARK INTRA:                  -0.299
REMARK UNBOUND:                -0.299
REMARK SMILES O=C1C[C@H](c2ccc(O)cc2)Oc2cc(O)cc(O)c21
REMARK SMILES IDX 3 1 4 2 12 3 13 4 14 5 15 6 17 7 18 8 20 9 2 10 1 11 5 12
REMARK SMILES IDX 6 13 11 14 7 15 10 16 8 17 9 18 19 20 16 22
REMARK H PARENT 9 19 19 21 16 23
REMARK Flexibility Score: inf
ROOT
ATOM      1  C   UNL     1      24.247   8.387 -18.307  1.00  0.00     0.131 C 
ATOM      2  C   UNL     1      24.871   6.993 -18.465  1.00  0.00     0.211 C 
ATOM      3  O   UNL     1      24.654   6.208 -17.289  1.00  0.00    -0.484 OA
ATOM      4  C   UNL     1      24.730   6.746 -15.996  1.00  0.00     0.138 A 
ATOM      5  C   UNL     1      24.783   5.877 -14.904  1.00  0.00     0.093 A 
ATOM      6  C   UNL     1      24.875   6.384 -13.605  1.00  0.00     0.123 A 
ATOM      7  C   UNL     1      24.882   7.764 -13.397  1.00  0.00     0.093 A 
ATOM      8  C   UNL     1      24.788   8.653 -14.475  1.00  0.00     0.133 A 
ATOM      9  C   UNL     1      24.745   8.144 -15.799  1.00  0.00     0.102 A 
ATOM     10  C   UNL     1      24.716   8.991 -17.017  1.00  0.00     0.174 C 
ATOM     11  O   UNL     1      25.125  10.183 -17.006  1.00  0.00    -0.294 OA
ENDROOT
BRANCH   2  12
ATOM     12  C   UNL     1      24.302   6.286 -19.671  1.00  0.00    -0.007 A 
ATOM     13  C   UNL     1      23.028   5.693 -19.616  1.00  0.00     0.011 A 
ATOM     14  C   UNL     1      25.017   6.264 -20.880  1.00  0.00     0.011 A 
ATOM     15  C   UNL     1      22.492   5.065 -20.745  1.00  0.00     0.046 A 
ATOM     16  C   UNL     1      24.477   5.636 -22.008  1.00  0.00     0.046 A 
ATOM     17  C   UNL     1      23.214   5.033 -21.942  1.00  0.00     0.115 A 
BRANCH  17  18
ATOM     18  O   UNL     1      22.667   4.406 -23.059  1.00  0.00    -0.508 OA
ATOM     19  H   UNL     1      23.144   4.407 -23.953  1.00  0.00     0.293 HD
ENDBRANCH  17  18
ENDBRANCH   2  12
BRANCH   8  20
ATOM     20  O   UNL     1      24.708  10.016 -14.178  1.00  0.00    -0.507 OA
ATOM     21  H   UNL     1      25.133  10.442 -13.367  1.00  0.00     0.293 HD
ENDBRANCH   8  20
BRANCH   6  22
ATOM     22  O   UNL     1      24.950   5.524 -12.511  1.00  0.00    -0.508 OA
ATOM     23  H   UNL     1      25.589   4.737 -12.498  1.00  0.00     0.293 HD
ENDBRANCH   6  22
TORSDOF 4
ENDMDL
MODEL 4
REMARK VINA RESULT:    -6.004     16.146     17.636
REMARK INTER + INTRA:          -7.180
REMARK INTER:                  -6.859
REMARK INTRA:                  -0.321
REMARK UNBOUND:                -0.299
REMARK SMILES O=C1C[C@H](c2ccc(O)cc2)Oc2cc(O)cc(O)c21
REMARK SMILES IDX 3 1 4 2 12 3 13 4 14 5 15 6 17 7 18 8 20 9 2 10 1 11 5 12
REMARK SMILES IDX 6 13 11 14 7 15 10 16 8 17 9 18 19 20 16 22
REMARK H PARENT 9 19 19 21 16 23
REMARK Flexibility Score: inf
ROOT
ATOM      1  C   UNL     1      20.430   0.659 -16.293  1.00  0.00     0.131 C 
ATOM      2  C   UNL     1      21.941   0.850 -16.481  1.00  0.00     0.211 C 
ATOM      3  O   UNL     1      22.226   1.357 -17.787  1.00  0.00    -0.484 OA
ATOM      4  C   UNL     1      21.539   0.927 -18.932  1.00  0.00     0.138 A 
ATOM      5  C   UNL     1      22.050   1.252 -20.190  1.00  0.00     0.093 A 
ATOM      6  C   UNL     1      21.396   0.825 -21.348  1.00  0.00     0.123 A 
ATOM      7  C   UNL     1      20.209   0.096 -21.246  1.00  0.00     0.093 A 
ATOM      8  C   UNL     1      19.657  -0.206 -19.995  1.00  0.00     0.133 A 
ATOM      9  C   UNL     1      20.344   0.184 -18.815  1.00  0.00     0.102 A 
ATOM     10  C   UNL     1      19.890  -0.142 -17.441  1.00  0.00     0.174 C 
ATOM     11  O   UNL     1      19.110  -1.104 -17.210  1.00  0.00    -0.294 OA
ENDROOT
BRANCH   2  12
ATOM     12  C   UNL     1      22.496   1.783 -15.431  1.00  0.00    -0.007 A 
ATOM     13  C   UNL     1      23.283   2.888 -15.802  1.00  0.00     0.011 A 
ATOM     14  C   UNL     1      22.183   1.589 -14.076  1.00  0.00     0.011 A 
ATOM     15  C   UNL     1      23.769   3.767 -14.830  1.00  0.00     0.046 A 
ATOM     16  C   UNL     1      22.671   2.470 -13.105  1.00  0.00     0.046 A 
ATOM     17  C   UNL     1      23.467   3.561 -13.480  1.00  0.00     0.115 A 
BRANCH  17  18
ATOM     18  O   UNL     1      23.957   4.445 -12.522  1.00  0.00    -0.508 OA
ATOM     19  H   UNL     1      24.947   4.644 -12.444  1.00  0.00     0.293 HD
ENDBRANCH  17  18
ENDBRANCH   2  12
BRANCH   8  20
ATOM     20  O   UNL     1      18.421  -0.857 -19.979  1.00  0.00    -0.507 OA
ATOM     21  H   UNL     1      17.679  -0.674 -20.639  1.00  0.00     0.293 HD
ENDBRANCH   8  20
BRANCH   6  22
ATOM     22  O   UNL     1      21.911   1.126 -22.607  1.00  0.00    -0.508 OA
ATOM     23  H   UNL     1      22.774   1.646 -22.716  1.00  0.00     0.293 HD
ENDBRANCH   6  22
TORSDOF 4
ENDMDL
MODEL 5
REMARK VINA RESULT:    -5.864      4.034      6.485
REMARK INTER + INTRA:          -7.020
REMARK INTER:                  -6.704
REMARK INTRA:                  -0.316
REMARK UNBOUND:                -0.299
REMARK SMILES O=C1C[C@H](c2ccc(O)cc2)Oc2cc(O)cc(O)c21
REMARK SMILES IDX 3 1 4 2 12 3 13 4 14 5 15 6 17 7 18 8 20 9 2 10 1 11 5 12
REMARK SMILES IDX 6 13 11 14 7 15 10 16 8 17 9 18 19 20 16 22
REMARK H PARENT 9 19 19 21 16 23
REMARK Flexibility Score: inf
ROOT
ATOM      1  C   UNL     1      11.901  -6.722  -9.406  1.00  0.00     0.131 C 
ATOM      2  C   UNL     1      11.314  -5.918 -10.574  1.00  0.00     0.211 C 
ATOM      3  O   UNL     1      10.206  -5.127 -10.134  1.00  0.00    -0.484 OA
ATOM      4  C   UNL     1       9.263  -5.596  -9.208  1.00  0.00     0.138 A 
ATOM      5  C   UNL     1       8.071  -4.888  -9.039  1.00  0.00     0.093 A 
ATOM      6  C   UNL     1       7.106  -5.340  -8.135  1.00  0.00     0.123 A 
ATOM      7  C   UNL     1       7.349  -6.486  -7.376  1.00  0.00     0.093 A 
ATOM      8  C   UNL     1       8.554  -7.188  -7.500  1.00  0.00     0.133 A 
ATOM      9  C   UNL     1       9.516  -6.761  -8.452  1.00  0.00     0.102 A 
ATOM     10  C   UNL     1      10.794  -7.466  -8.718  1.00  0.00     0.174 C 
ATOM     11  O   UNL     1      10.953  -8.683  -8.432  1.00  0.00    -0.294 OA
ENDROOT
BRANCH   2  12
ATOM     12  C   UNL     1      12.367  -5.032 -11.194  1.00  0.00    -0.007 A 
ATOM     13  C   UNL     1      12.005  -3.834 -11.837  1.00  0.00     0.011 A 
ATOM     14  C   UNL     1      13.727  -5.366 -11.085  1.00  0.00     0.011 A 
ATOM     15  C   UNL     1      12.986  -3.001 -12.383  1.00  0.00     0.046 A 
ATOM     16  C   UNL     1      14.706  -4.531 -11.633  1.00  0.00     0.046 A 
ATOM     17  C   UNL     1      14.338  -3.347 -12.285  1.00  0.00     0.115 A 
BRANCH  17  18
ATOM     18  O   UNL     1      15.304  -2.508 -12.833  1.00  0.00    -0.508 OA
ATOM     19  H   UNL     1      15.292  -2.256 -13.815  1.00  0.00     0.293 HD
ENDBRANCH  17  18
ENDBRANCH   2  12
BRANCH   8  20
ATOM     20  O   UNL     1       8.759  -8.269  -6.639  1.00  0.00    -0.507 OA
ATOM     21  H   UNL     1       8.017  -8.751  -6.153  1.00  0.00     0.293 HD
ENDBRANCH   8  20
BRANCH   6  22
ATOM     22  O   UNL     1       5.905  -4.652  -7.976  1.00  0.00    -0.508 OA
ATOM     23  H   UNL     1       5.402  -4.273  -8.770  1.00  0.00     0.293 HD
ENDBRANCH   6  22
TORSDOF 4
ENDMDL
MODEL 6
REMARK VINA RESULT:    -5.853     12.096     13.076
REMARK INTER + INTRA:          -7.008
REMARK INTER:                  -6.721
REMARK INTRA:                  -0.287
REMARK UNBOUND:                -0.299
REMARK SMILES O=C1C[C@H](c2ccc(O)cc2)Oc2cc(O)cc(O)c21
REMARK SMILES IDX 3 1 4 2 12 3 13 4 14 5 15 6 17 7 18 8 20 9 2 10 1 11 5 12
REMARK SMILES IDX 6 13 11 14 7 15 10 16 8 17 9 18 19 20 16 22
REMARK H PARENT 9 19 19 21 16 23
REMARK Flexibility Score: inf
ROOT
ATOM      1  C   UNL     1      20.218  -0.340  -7.366  1.00  0.00     0.131 C 
ATOM      2  C   UNL     1      20.058  -1.768  -6.825  1.00  0.00     0.211 C 
ATOM      3  O   UNL     1      19.260  -2.556  -7.713  1.00  0.00    -0.484 OA
ATOM      4  C   UNL     1      18.133  -2.045  -8.372  1.00  0.00     0.138 A 
ATOM      5  C   UNL     1      17.253  -2.932  -8.994  1.00  0.00     0.093 A 
ATOM      6  C   UNL     1      16.113  -2.453  -9.646  1.00  0.00     0.123 A 
ATOM      7  C   UNL     1      15.871  -1.079  -9.700  1.00  0.00     0.093 A 
ATOM      8  C   UNL     1      16.761  -0.169  -9.118  1.00  0.00     0.133 A 
ATOM      9  C   UNL     1      17.895  -0.653  -8.413  1.00  0.00     0.102 A 
ATOM     10  C   UNL     1      18.864   0.213  -7.699  1.00  0.00     0.174 C 
ATOM     11  O   UNL     1      18.562   1.376  -7.321  1.00  0.00    -0.294 OA
ENDROOT
BRANCH   2  12
ATOM     12  C   UNL     1      21.406  -2.418  -6.625  1.00  0.00    -0.007 A 
ATOM     13  C   UNL     1      21.638  -3.256  -5.520  1.00  0.00     0.011 A 
ATOM     14  C   UNL     1      22.425  -2.238  -7.575  1.00  0.00     0.011 A 
ATOM     15  C   UNL     1      22.878  -3.881  -5.356  1.00  0.00     0.046 A 
ATOM     16  C   UNL     1      23.665  -2.865  -7.408  1.00  0.00     0.046 A 
ATOM     17  C   UNL     1      23.895  -3.687  -6.296  1.00  0.00     0.115 A 
BRANCH  17  18
ATOM     18  O   UNL     1      25.125  -4.315  -6.121  1.00  0.00    -0.508 OA
ATOM     19  H   UNL     1      25.276  -4.985  -5.376  1.00  0.00     0.293 HD
ENDBRANCH  17  18
ENDBRANCH   2  12
BRANCH   8  20
ATOM     20  O   UNL     1      16.497   1.191  -9.296  1.00  0.00    -0.507 OA
ATOM     21  H   UNL     1      16.990   1.929  -8.814  1.00  0.00     0.293 HD
ENDBRANCH   8  20
BRANCH   6  22
ATOM     22  O   UNL     1      15.218  -3.333 -10.250  1.00  0.00    -0.508 OA
ATOM     23  H   UNL     1      15.011  -3.280 -11.241  1.00  0.00     0.293 HD
ENDBRANCH   6  22
TORSDOF 4
ENDMDL
MODEL 7
REMARK VINA RESULT:    -5.694     11.647     14.486
REMARK INTER + INTRA:          -6.825
REMARK INTER:                  -6.528
REMARK INTRA:                  -0.297
REMARK UNBOUND:                -0.299
REMARK SMILES O=C1C[C@H](c2ccc(O)cc2)Oc2cc(O)cc(O)c21
REMARK SMILES IDX 3 1 4 2 12 3 13 4 14 5 15 6 17 7 18 8 20 9 2 10 1 11 5 12
REMARK SMILES IDX 6 13 11 14 7 15 10 16 8 17 9 18 19 20 16 22
REMARK H PARENT 9 19 19 21 16 23
REMARK Flexibility Score: inf
ROOT
ATOM      1  C   UNL     1      17.467   0.013 -15.871  1.00  0.00     0.131 C 
ATOM      2  C   UNL     1      18.661  -0.904 -16.168  1.00  0.00     0.211 C 
ATOM      3  O   UNL     1      18.258  -2.276 -16.156  1.00  0.00    -0.484 OA
ATOM      4  C   UNL     1      17.340  -2.786 -15.227  1.00  0.00     0.138 A 
ATOM      5  C   UNL     1      17.207  -4.170 -15.097  1.00  0.00     0.093 A 
ATOM      6  C   UNL     1      16.311  -4.708 -14.168  1.00  0.00     0.123 A 
ATOM      7  C   UNL     1      15.524  -3.856 -13.390  1.00  0.00     0.093 A 
ATOM      8  C   UNL     1      15.612  -2.466 -13.533  1.00  0.00     0.133 A 
ATOM      9  C   UNL     1      16.555  -1.915 -14.439  1.00  0.00     0.102 A 
ATOM     10  C   UNL     1      16.784  -0.461 -14.622  1.00  0.00     0.174 C 
ATOM     11  O   UNL     1      16.470   0.377 -13.734  1.00  0.00    -0.294 OA
ENDROOT
BRANCH   2  12
ATOM     12  C   UNL     1      19.280  -0.559 -17.501  1.00  0.00    -0.007 A 
ATOM     13  C   UNL     1      20.498   0.142 -17.563  1.00  0.00     0.011 A 
ATOM     14  C   UNL     1      18.674  -0.986 -18.694  1.00  0.00     0.011 A 
ATOM     15  C   UNL     1      21.084   0.433 -18.799  1.00  0.00     0.046 A 
ATOM     16  C   UNL     1      19.263  -0.694 -19.929  1.00  0.00     0.046 A 
ATOM     17  C   UNL     1      20.469   0.018 -19.985  1.00  0.00     0.115 A 
BRANCH  17  18
ATOM     18  O   UNL     1      21.063   0.314 -21.209  1.00  0.00    -0.508 OA
ATOM     19  H   UNL     1      21.686   1.106 -21.317  1.00  0.00     0.293 HD
ENDBRANCH  17  18
ENDBRANCH   2  12
BRANCH   8  20
ATOM     20  O   UNL     1      14.726  -1.687 -12.786  1.00  0.00    -0.507 OA
ATOM     21  H   UNL     1      14.380  -0.786 -13.082  1.00  0.00     0.293 HD
ENDBRANCH   8  20
BRANCH   6  22
ATOM     22  O   UNL     1      16.188  -6.087 -14.017  1.00  0.00    -0.508 OA
ATOM     23  H   UNL     1      15.298  -6.518 -13.795  1.00  0.00     0.293 HD
ENDBRANCH   6  22
TORSDOF 4
ENDMDL
MODEL 8
REMARK VINA RESULT:    -5.674      4.271      6.341
REMARK INTER + INTRA:          -6.802
REMARK INTER:                  -6.492
REMARK INTRA:                  -0.309
REMARK UNBOUND:                -0.299
REMARK SMILES O=C1C[C@H](c2ccc(O)cc2)Oc2cc(O)cc(O)c21
REMARK SMILES IDX 3 1 4 2 12 3 13 4 14 5 15 6 17 7 18 8 20 9 2 10 1 11 5 12
REMARK SMILES IDX 6 13 11 14 7 15 10 16 8 17 9 18 19 20 16 22
REMARK H PARENT 9 19 19 21 16 23
REMARK Flexibility Score: inf
ROOT
ATOM      1  C   UNL     1      11.662  -6.113  -9.143  1.00  0.00     0.131 C 
ATOM      2  C   UNL     1      12.157  -6.254 -10.589  1.00  0.00     0.211 C 
ATOM      3  O   UNL     1      11.053  -6.310 -11.496  1.00  0.00    -0.484 OA
ATOM      4  C   UNL     1       9.872  -7.008 -11.206  1.00  0.00     0.138 A 
ATOM      5  C   UNL     1       8.960  -7.252 -12.236  1.00  0.00     0.093 A 
ATOM      6  C   UNL     1       7.782  -7.958 -11.981  1.00  0.00     0.123 A 
ATOM      7  C   UNL     1       7.501  -8.394 -10.685  1.00  0.00     0.093 A 
ATOM      8  C   UNL     1       8.381  -8.126  -9.630  1.00  0.00     0.133 A 
ATOM      9  C   UNL     1       9.603  -7.452  -9.893  1.00  0.00     0.102 A 
ATOM     10  C   UNL     1      10.640  -7.176  -8.869  1.00  0.00     0.174 C 
ATOM     11  O   UNL     1      10.716  -7.846  -7.804  1.00  0.00    -0.294 OA
ENDROOT
BRANCH   2  12
ATOM     12  C   UNL     1      13.069  -5.107 -10.955  1.00  0.00    -0.007 A 
ATOM     13  C   UNL     1      14.352  -5.006 -10.388  1.00  0.00     0.011 A 
ATOM     14  C   UNL     1      12.666  -4.161 -11.911  1.00  0.00     0.011 A 
ATOM     15  C   UNL     1      15.205  -3.960 -10.753  1.00  0.00     0.046 A 
ATOM     16  C   UNL     1      13.522  -3.115 -12.274  1.00  0.00     0.046 A 
ATOM     17  C   UNL     1      14.793  -3.012 -11.694  1.00  0.00     0.115 A 
BRANCH  17  18
ATOM     18  O   UNL     1      15.653  -1.975 -12.049  1.00  0.00    -0.508 OA
ATOM     19  H   UNL     1      16.315  -2.073 -12.810  1.00  0.00     0.293 HD
ENDBRANCH  17  18
ENDBRANCH   2  12
BRANCH   8  20
ATOM     20  O   UNL     1       7.985  -8.514  -8.348  1.00  0.00    -0.507 OA
ATOM     21  H   UNL     1       8.256  -9.384  -7.913  1.00  0.00     0.293 HD
ENDBRANCH   8  20
BRANCH   6  22
ATOM     22  O   UNL     1       6.877  -8.225 -13.006  1.00  0.00    -0.508 OA
ATOM     23  H   UNL     1       6.392  -9.112 -13.068  1.00  0.00     0.293 HD
ENDBRANCH   6  22
TORSDOF 4
ENDMDL
MODEL 9
REMARK VINA RESULT:    -5.313     15.684     18.166
REMARK INTER + INTRA:          -6.389
REMARK INTER:                  -6.102
REMARK INTRA:                  -0.287
REMARK UNBOUND:                -0.299
REMARK SMILES O=C1C[C@H](c2ccc(O)cc2)Oc2cc(O)cc(O)c21
REMARK SMILES IDX 3 1 4 2 12 3 13 4 14 5 15 6 17 7 18 8 20 9 2 10 1 11 5 12
REMARK SMILES IDX 6 13 11 14 7 15 10 16 8 17 9 18 19 20 16 22
REMARK H PARENT 9 19 19 21 16 23
REMARK Flexibility Score: inf
ROOT
ATOM      1  C   UNL     1      19.855   0.620 -16.746  1.00  0.00     0.131 C 
ATOM      2  C   UNL     1      21.098   1.036 -17.545  1.00  0.00     0.211 C 
ATOM      3  O   UNL     1      22.291   0.653 -16.855  1.00  0.00    -0.484 OA
ATOM      4  C   UNL     1      22.425   0.753 -15.463  1.00  0.00     0.138 A 
ATOM      5  C   UNL     1      23.694   0.628 -14.894  1.00  0.00     0.093 A 
ATOM      6  C   UNL     1      23.860   0.739 -13.511  1.00  0.00     0.123 A 
ATOM      7  C   UNL     1      22.747   0.943 -12.693  1.00  0.00     0.093 A 
ATOM      8  C   UNL     1      21.460   1.030 -13.238  1.00  0.00     0.133 A 
ATOM      9  C   UNL     1      21.292   0.968 -14.646  1.00  0.00     0.102 A 
ATOM     10  C   UNL     1      19.989   1.119 -15.338  1.00  0.00     0.174 C 
ATOM     11  O   UNL     1      19.012   1.700 -14.793  1.00  0.00    -0.294 OA
ENDROOT
BRANCH   2  12
ATOM     12  C   UNL     1      21.078   0.420 -18.923  1.00  0.00    -0.007 A 
ATOM     13  C   UNL     1      20.591  -0.886 -19.115  1.00  0.00     0.011 A 
ATOM     14  C   UNL     1      21.492   1.167 -20.038  1.00  0.00     0.011 A 
ATOM     15  C   UNL     1      20.545  -1.442 -20.398  1.00  0.00     0.046 A 
ATOM     16  C   UNL     1      21.445   0.608 -21.320  1.00  0.00     0.046 A 
ATOM     17  C   UNL     1      20.973  -0.699 -21.502  1.00  0.00     0.115 A 
BRANCH  17  18
ATOM     18  O   UNL     1      20.921  -1.264 -22.774  1.00  0.00    -0.508 OA
ATOM     19  H   UNL     1      21.764  -1.460 -23.301  1.00  0.00     0.293 HD
ENDBRANCH  17  18
ENDBRANCH   2  12
BRANCH   8  20
ATOM     20  O   UNL     1      20.391   1.141 -12.346  1.00  0.00    -0.507 OA
ATOM     21  H   UNL     1      20.488   1.101 -11.342  1.00  0.00     0.293 HD
ENDBRANCH   8  20
BRANCH   6  22
ATOM     22  O   UNL     1      25.125   0.637 -12.937  1.00  0.00    -0.508 OA
ATOM     23  H   UNL     1      25.846   1.326 -13.119  1.00  0.00     0.293 HD
ENDBRANCH   6  22
TORSDOF 4
ENDMDL
