MODEL 1
REMARK VINA RESULT:    -4.200      0.000      0.000
REMARK INTER + INTRA:          -5.153
REMARK INTER:                  -4.814
REMARK INTRA:                  -0.338
REMARK UNBOUND:                -0.338
REMARK SMILES COc1ccc(C(C)=O)c(O)c1
REMARK SMILES IDX 6 1 10 2 12 3 3 4 4 5 5 6 7 7 8 8 9 9 11 10 2 12 1 13
REMARK H PARENT 11 11
REMARK Flexibility Score: inf
ROOT
ATOM      1  C   UNL     1      25.551  28.569  26.686  1.00  0.00     0.059 A 
ATOM      2  C   UNL     1      25.417  29.447  25.585  1.00  0.00     0.130 A 
ATOM      3  C   UNL     1      26.457  29.570  24.651  1.00  0.00     0.093 A 
ATOM      4  C   UNL     1      27.643  28.829  24.797  1.00  0.00     0.122 A 
ATOM      5  C   UNL     1      27.774  27.965  25.885  1.00  0.00     0.047 A 
ATOM      6  C   UNL     1      26.745  27.834  26.820  1.00  0.00     0.019 A 
ENDROOT
BRANCH   1   7
ATOM      7  C   UNL     1      24.456  28.412  27.688  1.00  0.00     0.163 C 
ATOM      8  C   UNL     1      23.984  27.060  28.134  1.00  0.00     0.093 C 
ATOM      9  O   UNL     1      23.882  29.428  28.163  1.00  0.00    -0.294 OA
ENDBRANCH   1   7
BRANCH   2  10
ATOM     10  O   UNL     1      24.259  30.209  25.419  1.00  0.00    -0.507 OA
ATOM     11  H   UNL     1      24.195  30.938  24.719  1.00  0.00     0.293 HD
ENDBRANCH   2  10
BRANCH   4  12
ATOM     12  O   UNL     1      28.706  28.922  23.886  1.00  0.00    -0.497 OA
ATOM     13  C   UNL     1      28.692  29.723  22.710  1.00  0.00     0.278 C 
ENDBRANCH   4  12
TORSDOF 3
ENDMDL
MODEL 2
REMARK VINA RESULT:    -4.170     10.745     12.741
REMARK INTER + INTRA:          -5.117
REMARK INTER:                  -4.806
REMARK INTRA:                  -0.312
REMARK UNBOUND:                -0.338
REMARK SMILES COc1ccc(C(C)=O)c(O)c1
REMARK SMILES IDX 6 1 10 2 12 3 3 4 4 5 5 6 7 7 8 8 9 9 11 10 2 12 1 13
REMARK H PARENT 11 11
REMARK Flexibility Score: inf
ROOT
ATOM      1  C   UNL     1      26.621  40.372  19.961  1.00  0.00     0.059 A 
ATOM      2  C   UNL     1      25.773  39.678  20.854  1.00  0.00     0.130 A 
ATOM      3  C   UNL     1      25.507  38.314  20.657  1.00  0.00     0.093 A 
ATOM      4  C   UNL     1      26.072  37.623  19.572  1.00  0.00     0.122 A 
ATOM      5  C   UNL     1      26.907  38.311  18.689  1.00  0.00     0.047 A 
ATOM      6  C   UNL     1      27.179  39.667  18.877  1.00  0.00     0.019 A 
ENDROOT
BRANCH   1   7
ATOM      7  C   UNL     1      26.928  41.820  20.153  1.00  0.00     0.163 C 
ATOM      8  C   UNL     1      27.157  42.738  18.990  1.00  0.00     0.093 C 
ATOM      9  O   UNL     1      27.029  42.297  21.315  1.00  0.00    -0.294 OA
ENDBRANCH   1   7
BRANCH   2  10
ATOM     10  O   UNL     1      25.182  40.338  21.933  1.00  0.00    -0.507 OA
ATOM     11  H   UNL     1      25.214  39.960  22.872  1.00  0.00     0.293 HD
ENDBRANCH   2  10
BRANCH   4  12
ATOM     12  O   UNL     1      25.833  36.260  19.338  1.00  0.00    -0.497 OA
ATOM     13  C   UNL     1      24.726  35.752  18.601  1.00  0.00     0.278 C 
ENDBRANCH   4  12
TORSDOF 3
ENDMDL
MODEL 3
REMARK VINA RESULT:    -4.073      2.051      4.512
REMARK INTER + INTRA:          -5.006
REMARK INTER:                  -4.669
REMARK INTRA:                  -0.337
REMARK UNBOUND:                -0.338
REMARK SMILES COc1ccc(C(C)=O)c(O)c1
REMARK SMILES IDX 6 1 10 2 12 3 3 4 4 5 5 6 7 7 8 8 9 9 11 10 2 12 1 13
REMARK H PARENT 11 11
REMARK Flexibility Score: inf
ROOT
ATOM      1  C   UNL     1      28.086  29.579  24.625  1.00  0.00     0.059 A 
ATOM      2  C   UNL     1      26.823  29.312  25.204  1.00  0.00     0.130 A 
ATOM      3  C   UNL     1      26.625  28.145  25.958  1.00  0.00     0.093 A 
ATOM      4  C   UNL     1      27.672  27.226  26.143  1.00  0.00     0.122 A 
ATOM      5  C   UNL     1      28.917  27.488  25.568  1.00  0.00     0.047 A 
ATOM      6  C   UNL     1      29.125  28.647  24.818  1.00  0.00     0.019 A 
ENDROOT
BRANCH   1   7
ATOM      7  C   UNL     1      28.326  30.817  23.828  1.00  0.00     0.163 C 
ATOM      8  C   UNL     1      29.070  30.784  22.526  1.00  0.00     0.093 C 
ATOM      9  O   UNL     1      27.926  31.933  24.254  1.00  0.00    -0.294 OA
ENDBRANCH   1   7
BRANCH   2  10
ATOM     10  O   UNL     1      25.758  30.197  25.026  1.00  0.00    -0.507 OA
ATOM     11  H   UNL     1      24.870  30.065  25.496  1.00  0.00     0.293 HD
ENDBRANCH   2  10
BRANCH   4  12
ATOM     12  O   UNL     1      27.517  26.047  26.889  1.00  0.00    -0.497 OA
ATOM     13  C   UNL     1      26.261  25.477  27.242  1.00  0.00     0.278 C 
ENDBRANCH   4  12
TORSDOF 3
ENDMDL
MODEL 4
REMARK VINA RESULT:    -4.062     10.979     12.797
REMARK INTER + INTRA:          -4.995
REMARK INTER:                  -4.689
REMARK INTRA:                  -0.305
REMARK UNBOUND:                -0.338
REMARK SMILES COc1ccc(C(C)=O)c(O)c1
REMARK SMILES IDX 6 1 10 2 12 3 3 4 4 5 5 6 7 7 8 8 9 9 11 10 2 12 1 13
REMARK H PARENT 11 11
REMARK Flexibility Score: inf
ROOT
ATOM      1  C   UNL     1      26.497  40.379  20.199  1.00  0.00     0.059 A 
ATOM      2  C   UNL     1      27.065  39.892  18.999  1.00  0.00     0.130 A 
ATOM      3  C   UNL     1      26.883  38.552  18.626  1.00  0.00     0.093 A 
ATOM      4  C   UNL     1      26.143  37.676  19.439  1.00  0.00     0.122 A 
ATOM      5  C   UNL     1      25.586  38.157  20.625  1.00  0.00     0.047 A 
ATOM      6  C   UNL     1      25.759  39.490  21.004  1.00  0.00     0.019 A 
ENDROOT
BRANCH   1   7
ATOM      7  C   UNL     1      26.666  41.803  20.614  1.00  0.00     0.163 C 
ATOM      8  C   UNL     1      26.700  42.204  22.058  1.00  0.00     0.093 C 
ATOM      9  O   UNL     1      26.757  42.709  19.743  1.00  0.00    -0.294 OA
ENDBRANCH   1   7
BRANCH   2  10
ATOM     10  O   UNL     1      27.818  40.732  18.176  1.00  0.00    -0.507 OA
ATOM     11  H   UNL     1      27.388  41.308  17.463  1.00  0.00     0.293 HD
ENDBRANCH   2  10
BRANCH   4  12
ATOM     12  O   UNL     1      25.937  36.329  19.104  1.00  0.00    -0.497 OA
ATOM     13  C   UNL     1      24.703  35.795  18.637  1.00  0.00     0.278 C 
ENDBRANCH   4  12
TORSDOF 3
ENDMDL
MODEL 5
REMARK VINA RESULT:    -4.030      5.204      8.143
REMARK INTER + INTRA:          -4.958
REMARK INTER:                  -4.654
REMARK INTRA:                  -0.303
REMARK UNBOUND:                -0.338
REMARK SMILES COc1ccc(C(C)=O)c(O)c1
REMARK SMILES IDX 6 1 10 2 12 3 3 4 4 5 5 6 7 7 8 8 9 9 11 10 2 12 1 13
REMARK H PARENT 11 11
REMARK Flexibility Score: inf
ROOT
ATOM      1  C   UNL     1      28.270  34.675  21.240  1.00  0.00     0.059 A 
ATOM      2  C   UNL     1      28.730  33.350  21.060  1.00  0.00     0.130 A 
ATOM      3  C   UNL     1      28.804  32.474  22.154  1.00  0.00     0.093 A 
ATOM      4  C   UNL     1      28.430  32.900  23.439  1.00  0.00     0.122 A 
ATOM      5  C   UNL     1      27.979  34.210  23.617  1.00  0.00     0.047 A 
ATOM      6  C   UNL     1      27.899  35.089  22.535  1.00  0.00     0.019 A 
ENDROOT
BRANCH   1   7
ATOM      7  C   UNL     1      28.172  35.624  20.092  1.00  0.00     0.163 C 
ATOM      8  C   UNL     1      29.028  36.852  20.010  1.00  0.00     0.093 C 
ATOM      9  O   UNL     1      27.336  35.420  19.172  1.00  0.00    -0.294 OA
ENDBRANCH   1   7
BRANCH   2  10
ATOM     10  O   UNL     1      29.125  32.899  19.799  1.00  0.00    -0.507 OA
ATOM     11  H   UNL     1      29.804  33.402  19.241  1.00  0.00     0.293 HD
ENDBRANCH   2  10
BRANCH   4  12
ATOM     12  O   UNL     1      28.488  32.058  24.560  1.00  0.00    -0.497 OA
ATOM     13  C   UNL     1      27.652  30.923  24.759  1.00  0.00     0.278 C 
ENDBRANCH   4  12
TORSDOF 3
ENDMDL
MODEL 6
REMARK VINA RESULT:    -3.937     10.717     12.253
REMARK INTER + INTRA:          -4.851
REMARK INTER:                  -4.555
REMARK INTRA:                  -0.296
REMARK UNBOUND:                -0.338
REMARK SMILES COc1ccc(C(C)=O)c(O)c1
REMARK SMILES IDX 6 1 10 2 12 3 3 4 4 5 5 6 7 7 8 8 9 9 11 10 2 12 1 13
REMARK H PARENT 11 11
REMARK Flexibility Score: inf
ROOT
ATOM      1  C   UNL     1      26.014  38.634  20.721  1.00  0.00     0.059 A 
ATOM      2  C   UNL     1      26.641  38.405  19.474  1.00  0.00     0.130 A 
ATOM      3  C   UNL     1      27.192  39.476  18.754  1.00  0.00     0.093 A 
ATOM      4  C   UNL     1      27.124  40.786  19.256  1.00  0.00     0.122 A 
ATOM      5  C   UNL     1      26.502  41.012  20.485  1.00  0.00     0.047 A 
ATOM      6  C   UNL     1      25.953  39.953  21.211  1.00  0.00     0.019 A 
ENDROOT
BRANCH   1   7
ATOM      7  C   UNL     1      25.430  37.511  21.511  1.00  0.00     0.163 C 
ATOM      8  C   UNL     1      23.950  37.370  21.704  1.00  0.00     0.093 C 
ATOM      9  O   UNL     1      26.184  36.665  22.063  1.00  0.00    -0.294 OA
ENDBRANCH   1   7
BRANCH   2  10
ATOM     10  O   UNL     1      26.711  37.117  18.939  1.00  0.00    -0.507 OA
ATOM     11  H   UNL     1      25.879  36.577  18.734  1.00  0.00     0.293 HD
ENDBRANCH   2  10
BRANCH   4  12
ATOM     12  O   UNL     1      27.661  41.886  18.569  1.00  0.00    -0.497 OA
ATOM     13  C   UNL     1      27.189  43.223  18.696  1.00  0.00     0.278 C 
ENDBRANCH   4  12
TORSDOF 3
ENDMDL
MODEL 7
REMARK VINA RESULT:    -3.892      2.326      2.725
REMARK INTER + INTRA:          -4.799
REMARK INTER:                  -4.484
REMARK INTRA:                  -0.315
REMARK UNBOUND:                -0.338
REMARK SMILES COc1ccc(C(C)=O)c(O)c1
REMARK SMILES IDX 6 1 10 2 12 3 3 4 4 5 5 6 7 7 8 8 9 9 11 10 2 12 1 13
REMARK H PARENT 11 11
REMARK Flexibility Score: inf
ROOT
ATOM      1  C   UNL     1      27.184  29.148  26.093  1.00  0.00     0.059 A 
ATOM      2  C   UNL     1      26.608  29.869  25.022  1.00  0.00     0.130 A 
ATOM      3  C   UNL     1      27.245  31.014  24.520  1.00  0.00     0.093 A 
ATOM      4  C   UNL     1      28.455  31.462  25.074  1.00  0.00     0.122 A 
ATOM      5  C   UNL     1      29.022  30.752  26.134  1.00  0.00     0.047 A 
ATOM      6  C   UNL     1      28.398  29.610  26.640  1.00  0.00     0.019 A 
ENDROOT
BRANCH   1   7
ATOM      7  C   UNL     1      26.534  27.921  26.640  1.00  0.00     0.163 C 
ATOM      8  C   UNL     1      27.147  26.563  26.472  1.00  0.00     0.093 C 
ATOM      9  O   UNL     1      25.426  28.003  27.235  1.00  0.00    -0.294 OA
ENDBRANCH   1   7
BRANCH   2  10
ATOM     10  O   UNL     1      25.398  29.459  24.458  1.00  0.00    -0.507 OA
ATOM     11  H   UNL     1      25.026  28.530  24.610  1.00  0.00     0.293 HD
ENDBRANCH   2  10
BRANCH   4  12
ATOM     12  O   UNL     1      29.125  32.602  24.603  1.00  0.00    -0.497 OA
ATOM     13  C   UNL     1      28.495  33.681  23.921  1.00  0.00     0.278 C 
ENDBRANCH   4  12
TORSDOF 3
ENDMDL
MODEL 8
REMARK VINA RESULT:    -3.787     10.417     12.339
REMARK INTER + INTRA:          -4.679
REMARK INTER:                  -4.355
REMARK INTRA:                  -0.323
REMARK UNBOUND:                -0.338
REMARK SMILES COc1ccc(C(C)=O)c(O)c1
REMARK SMILES IDX 6 1 10 2 12 3 3 4 4 5 5 6 7 7 8 8 9 9 11 10 2 12 1 13
REMARK H PARENT 11 11
REMARK Flexibility Score: inf
ROOT
ATOM      1  C   UNL     1      26.384  38.085  19.590  1.00  0.00     0.059 A 
ATOM      2  C   UNL     1      25.764  38.762  20.666  1.00  0.00     0.130 A 
ATOM      3  C   UNL     1      26.010  40.127  20.876  1.00  0.00     0.093 A 
ATOM      4  C   UNL     1      26.877  40.838  20.029  1.00  0.00     0.122 A 
ATOM      5  C   UNL     1      27.492  40.168  18.969  1.00  0.00     0.047 A 
ATOM      6  C   UNL     1      27.251  38.810  18.750  1.00  0.00     0.019 A 
ENDROOT
BRANCH   1   7
ATOM      7  C   UNL     1      26.131  36.636  19.338  1.00  0.00     0.163 C 
ATOM      8  C   UNL     1      27.237  35.625  19.377  1.00  0.00     0.093 C 
ATOM      9  O   UNL     1      24.970  36.236  19.056  1.00  0.00    -0.294 OA
ENDBRANCH   1   7
BRANCH   2  10
ATOM     10  O   UNL     1      24.909  38.082  21.536  1.00  0.00    -0.507 OA
ATOM     11  H   UNL     1      24.543  38.518  22.374  1.00  0.00     0.293 HD
ENDBRANCH   2  10
BRANCH   4  12
ATOM     12  O   UNL     1      27.152  42.203  20.203  1.00  0.00    -0.497 OA
ATOM     13  C   UNL     1      26.908  43.205  19.222  1.00  0.00     0.278 C 
ENDBRANCH   4  12
TORSDOF 3
ENDMDL
