MODEL 1
REMARK VINA RESULT:    -5.080      0.000      0.000
REMARK INTER + INTRA:          -5.474
REMARK INTER:                  -5.377
REMARK INTRA:                  -0.096
REMARK UNBOUND:                -0.096
REMARK SMILES C=C(C)[C@H]1CC=C(C)C(=O)C1
REMARK SMILES IDX 8 1 7 2 6 3 5 4 4 5 11 6 9 7 10 8 2 9 1 10 3 11
REMARK H PARENT
REMARK Flexibility Score: inf
ROOT
ATOM      1  C   UNL     1       6.251  18.131  59.401  1.00  0.00     0.048 C 
ATOM      2  C   UNL     1       7.711  18.443  59.227  1.00  0.00    -0.012 C 
ATOM      3  C   UNL     1       8.496  18.593  60.308  1.00  0.00    -0.019 C 
ATOM      4  C   UNL     1       9.961  18.923  60.191  1.00  0.00     0.036 C 
ATOM      5  C   UNL     1      10.571  18.299  58.921  1.00  0.00     0.025 C 
ATOM      6  C   UNL     1       9.774  18.733  57.676  1.00  0.00     0.089 C 
ATOM      7  C   UNL     1       8.307  18.461  57.867  1.00  0.00     0.158 C 
ATOM      8  O   UNL     1       7.578  18.284  56.854  1.00  0.00    -0.295 OA
ENDROOT
BRANCH   5   9
ATOM      9  C   UNL     1      12.051  18.632  58.785  1.00  0.00    -0.077 C 
ATOM     10  C   UNL     1      12.502  19.420  57.793  1.00  0.00     0.008 C 
ATOM     11  C   UNL     1      13.045  18.078  59.772  1.00  0.00     0.039 C 
ENDBRANCH   5   9
TORSDOF 1
ENDMDL
MODEL 2
REMARK VINA RESULT:    -4.922      1.411      2.094
REMARK INTER + INTRA:          -5.305
REMARK INTER:                  -5.212
REMARK INTRA:                  -0.093
REMARK UNBOUND:                -0.096
REMARK SMILES C=C(C)[C@H]1CC=C(C)C(=O)C1
REMARK SMILES IDX 8 1 7 2 6 3 5 4 4 5 11 6 9 7 10 8 2 9 1 10 3 11
REMARK H PARENT
REMARK Flexibility Score: inf
ROOT
ATOM      1  C   UNL     1       6.769  18.682  57.900  1.00  0.00     0.048 C 
ATOM      2  C   UNL     1       8.252  18.526  58.085  1.00  0.00    -0.012 C 
ATOM      3  C   UNL     1       9.063  18.526  57.013  1.00  0.00    -0.019 C 
ATOM      4  C   UNL     1      10.554  18.356  57.140  1.00  0.00     0.036 C 
ATOM      5  C   UNL     1      11.073  18.973  58.454  1.00  0.00     0.025 C 
ATOM      6  C   UNL     1      10.314  18.383  59.657  1.00  0.00     0.089 C 
ATOM      7  C   UNL     1       8.829  18.499  59.454  1.00  0.00     0.158 C 
ATOM      8  O   UNL     1       8.072  18.536  60.460  1.00  0.00    -0.295 OA
ENDROOT
BRANCH   5   9
ATOM      9  C   UNL     1      12.580  18.800  58.600  1.00  0.00    -0.077 C 
ATOM     10  C   UNL     1      13.430  19.256  57.664  1.00  0.00     0.008 C 
ATOM     11  C   UNL     1      13.147  18.107  59.812  1.00  0.00     0.039 C 
ENDBRANCH   5   9
TORSDOF 1
ENDMDL
MODEL 3
REMARK VINA RESULT:    -4.909      3.123      5.956
REMARK INTER + INTRA:          -5.292
REMARK INTER:                  -5.196
REMARK INTRA:                  -0.096
REMARK UNBOUND:                -0.096
REMARK SMILES C=C(C)[C@H]1CC=C(C)C(=O)C1
REMARK SMILES IDX 8 1 7 2 6 3 5 4 4 5 11 6 9 7 10 8 2 9 1 10 3 11
REMARK H PARENT
REMARK Flexibility Score: inf
ROOT
ATOM      1  C   UNL     1      16.485  19.629  55.605  1.00  0.00     0.048 C 
ATOM      2  C   UNL     1      15.181  19.198  56.215  1.00  0.00    -0.012 C 
ATOM      3  C   UNL     1      14.970  19.370  57.532  1.00  0.00    -0.019 C 
ATOM      4  C   UNL     1      13.689  18.942  58.198  1.00  0.00     0.036 C 
ATOM      5  C   UNL     1      12.491  19.079  57.238  1.00  0.00     0.025 C 
ATOM      6  C   UNL     1      12.759  18.304  55.934  1.00  0.00     0.089 C 
ATOM      7  C   UNL     1      14.084  18.702  55.345  1.00  0.00     0.158 C 
ATOM      8  O   UNL     1      14.268  18.575  54.105  1.00  0.00    -0.295 OA
ENDROOT
BRANCH   5   9
ATOM      9  C   UNL     1      11.189  18.640  57.896  1.00  0.00    -0.077 C 
ATOM     10  C   UNL     1      11.145  18.292  59.194  1.00  0.00     0.008 C 
ATOM     11  C   UNL     1       9.916  18.588  57.092  1.00  0.00     0.039 C 
ENDBRANCH   5   9
TORSDOF 1
ENDMDL
MODEL 4
REMARK VINA RESULT:    -4.905     12.297     12.844
REMARK INTER + INTRA:          -5.288
REMARK INTER:                  -5.192
REMARK INTRA:                  -0.096
REMARK UNBOUND:                -0.096
REMARK SMILES C=C(C)[C@H]1CC=C(C)C(=O)C1
REMARK SMILES IDX 8 1 7 2 6 3 5 4 4 5 11 6 9 7 10 8 2 9 1 10 3 11
REMARK H PARENT
REMARK Flexibility Score: inf
ROOT
ATOM      1  C   UNL     1      15.678   8.799  54.223  1.00  0.00     0.048 C 
ATOM      2  C   UNL     1      16.588   9.774  53.529  1.00  0.00    -0.012 C 
ATOM      3  C   UNL     1      16.072  10.682  52.682  1.00  0.00    -0.019 C 
ATOM      4  C   UNL     1      16.939  11.671  51.948  1.00  0.00     0.036 C 
ATOM      5  C   UNL     1      18.167  12.067  52.791  1.00  0.00     0.025 C 
ATOM      6  C   UNL     1      18.948  10.810  53.219  1.00  0.00     0.089 C 
ATOM      7  C   UNL     1      18.032   9.815  53.874  1.00  0.00     0.158 C 
ATOM      8  O   UNL     1      18.509   8.987  54.695  1.00  0.00    -0.295 OA
ENDROOT
BRANCH   5   9
ATOM      9  C   UNL     1      19.058  13.060  52.056  1.00  0.00    -0.077 C 
ATOM     10  C   UNL     1      20.157  13.573  52.635  1.00  0.00     0.008 C 
ATOM     11  C   UNL     1      18.717  13.487  50.652  1.00  0.00     0.039 C 
ENDBRANCH   5   9
TORSDOF 1
ENDMDL
MODEL 5
REMARK VINA RESULT:    -4.857     12.279     13.611
REMARK INTER + INTRA:          -5.237
REMARK INTER:                  -5.142
REMARK INTRA:                  -0.095
REMARK UNBOUND:                -0.096
REMARK SMILES C=C(C)[C@H]1CC=C(C)C(=O)C1
REMARK SMILES IDX 8 1 7 2 6 3 5 4 4 5 11 6 9 7 10 8 2 9 1 10 3 11
REMARK H PARENT
REMARK Flexibility Score: inf
ROOT
ATOM      1  C   UNL     1      19.849  13.406  52.365  1.00  0.00     0.048 C 
ATOM      2  C   UNL     1      19.125  12.244  52.984  1.00  0.00    -0.012 C 
ATOM      3  C   UNL     1      17.781  12.212  52.975  1.00  0.00    -0.019 C 
ATOM      4  C   UNL     1      17.004  11.080  53.596  1.00  0.00     0.036 C 
ATOM      5  C   UNL     1      17.771   9.749  53.474  1.00  0.00     0.025 C 
ATOM      6  C   UNL     1      19.182   9.889  54.076  1.00  0.00     0.089 C 
ATOM      7  C   UNL     1      19.892  11.077  53.490  1.00  0.00     0.158 C 
ATOM      8  O   UNL     1      21.152  11.090  53.465  1.00  0.00    -0.295 OA
ENDROOT
BRANCH   5   9
ATOM      9  C   UNL     1      17.002   8.596  54.106  1.00  0.00    -0.077 C 
ATOM     10  C   UNL     1      15.659   8.551  54.073  1.00  0.00     0.008 C 
ATOM     11  C   UNL     1      17.743   7.476  54.787  1.00  0.00     0.039 C 
ENDBRANCH   5   9
TORSDOF 1
ENDMDL
MODEL 6
REMARK VINA RESULT:    -4.822      2.158      4.877
REMARK INTER + INTRA:          -5.200
REMARK INTER:                  -5.104
REMARK INTRA:                  -0.096
REMARK UNBOUND:                -0.096
REMARK SMILES C=C(C)[C@H]1CC=C(C)C(=O)C1
REMARK SMILES IDX 8 1 7 2 6 3 5 4 4 5 11 6 9 7 10 8 2 9 1 10 3 11
REMARK H PARENT
REMARK Flexibility Score: inf
ROOT
ATOM      1  C   UNL     1      14.124  19.068  57.607  1.00  0.00     0.048 C 
ATOM      2  C   UNL     1      12.680  19.074  58.022  1.00  0.00    -0.012 C 
ATOM      3  C   UNL     1      11.744  19.543  57.178  1.00  0.00    -0.019 C 
ATOM      4  C   UNL     1      10.285  19.589  57.549  1.00  0.00     0.036 C 
ATOM      5  C   UNL     1       9.913  18.420  58.482  1.00  0.00     0.025 C 
ATOM      6  C   UNL     1      10.830  18.412  59.720  1.00  0.00     0.089 C 
ATOM      7  C   UNL     1      12.275  18.449  59.307  1.00  0.00     0.158 C 
ATOM      8  O   UNL     1      13.148  17.976  60.083  1.00  0.00    -0.295 OA
ENDROOT
BRANCH   5   9
ATOM      9  C   UNL     1       8.441  18.459  58.873  1.00  0.00    -0.077 C 
ATOM     10  C   UNL     1       8.062  18.665  60.146  1.00  0.00     0.008 C 
ATOM     11  C   UNL     1       7.375  18.266  57.826  1.00  0.00     0.039 C 
ENDBRANCH   5   9
TORSDOF 1
ENDMDL
MODEL 7
REMARK VINA RESULT:    -4.801     11.954     13.082
REMARK INTER + INTRA:          -5.177
REMARK INTER:                  -5.083
REMARK INTRA:                  -0.094
REMARK UNBOUND:                -0.096
REMARK SMILES C=C(C)[C@H]1CC=C(C)C(=O)C1
REMARK SMILES IDX 8 1 7 2 6 3 5 4 4 5 11 6 9 7 10 8 2 9 1 10 3 11
REMARK H PARENT
REMARK Flexibility Score: inf
ROOT
ATOM      1  C   UNL     1      17.469   7.836  54.598  1.00  0.00     0.048 C 
ATOM      2  C   UNL     1      17.909   9.188  54.112  1.00  0.00    -0.012 C 
ATOM      3  C   UNL     1      19.211   9.420  53.870  1.00  0.00    -0.019 C 
ATOM      4  C   UNL     1      19.709  10.761  53.398  1.00  0.00     0.036 C 
ATOM      5  C   UNL     1      18.661  11.461  52.511  1.00  0.00     0.025 C 
ATOM      6  C   UNL     1      17.316  11.566  53.254  1.00  0.00     0.089 C 
ATOM      7  C   UNL     1      16.895  10.222  53.779  1.00  0.00     0.158 C 
ATOM      8  O   UNL     1      15.671   9.992  53.971  1.00  0.00    -0.295 OA
ENDROOT
BRANCH   5   9
ATOM      9  C   UNL     1      19.148  12.823  52.033  1.00  0.00    -0.077 C 
ATOM     10  C   UNL     1      19.950  13.585  52.796  1.00  0.00     0.008 C 
ATOM     11  C   UNL     1      18.732  13.343  50.682  1.00  0.00     0.039 C 
ENDBRANCH   5   9
TORSDOF 1
ENDMDL
MODEL 8
REMARK VINA RESULT:    -4.714      2.198      4.916
REMARK INTER + INTRA:          -5.086
REMARK INTER:                  -4.991
REMARK INTRA:                  -0.095
REMARK UNBOUND:                -0.096
REMARK SMILES C=C(C)[C@H]1CC=C(C)C(=O)C1
REMARK SMILES IDX 8 1 7 2 6 3 5 4 4 5 11 6 9 7 10 8 2 9 1 10 3 11
REMARK H PARENT
REMARK Flexibility Score: inf
ROOT
ATOM      1  C   UNL     1      15.156  19.201  56.902  1.00  0.00     0.048 C 
ATOM      2  C   UNL     1      13.754  18.874  57.334  1.00  0.00    -0.012 C 
ATOM      3  C   UNL     1      13.457  18.802  58.643  1.00  0.00    -0.019 C 
ATOM      4  C   UNL     1      12.074  18.461  59.131  1.00  0.00     0.036 C 
ATOM      5  C   UNL     1      10.998  18.988  58.162  1.00  0.00     0.025 C 
ATOM      6  C   UNL     1      11.260  18.466  56.737  1.00  0.00     0.089 C 
ATOM      7  C   UNL     1      12.676  18.755  56.320  1.00  0.00     0.158 C 
ATOM      8  O   UNL     1      12.946  18.858  55.093  1.00  0.00    -0.295 OA
ENDROOT
BRANCH   5   9
ATOM      9  C   UNL     1       9.593  18.642  58.638  1.00  0.00    -0.077 C 
ATOM     10  C   UNL     1       9.330  18.423  59.938  1.00  0.00     0.008 C 
ATOM     11  C   UNL     1       8.463  18.539  57.647  1.00  0.00     0.039 C 
ENDBRANCH   5   9
TORSDOF 1
ENDMDL
MODEL 9
REMARK VINA RESULT:    -4.655      7.589      8.253
REMARK INTER + INTRA:          -5.023
REMARK INTER:                  -4.928
REMARK INTRA:                  -0.095
REMARK UNBOUND:                -0.096
REMARK SMILES C=C(C)[C@H]1CC=C(C)C(=O)C1
REMARK SMILES IDX 8 1 7 2 6 3 5 4 4 5 11 6 9 7 10 8 2 9 1 10 3 11
REMARK H PARENT
REMARK Flexibility Score: inf
ROOT
ATOM      1  C   UNL     1       4.127  27.125  54.893  1.00  0.00     0.048 C 
ATOM      2  C   UNL     1       5.377  26.297  54.793  1.00  0.00    -0.012 C 
ATOM      3  C   UNL     1       6.356  26.451  55.702  1.00  0.00    -0.019 C 
ATOM      4  C   UNL     1       7.635  25.660  55.641  1.00  0.00     0.036 C 
ATOM      5  C   UNL     1       7.392  24.255  55.055  1.00  0.00     0.025 C 
ATOM      6  C   UNL     1       6.704  24.361  53.681  1.00  0.00     0.089 C 
ATOM      7  C   UNL     1       5.476  25.225  53.769  1.00  0.00     0.158 C 
ATOM      8  O   UNL     1       4.544  25.056  52.939  1.00  0.00    -0.295 OA
ENDROOT
BRANCH   5   9
ATOM      9  C   UNL     1       8.681  23.446  54.977  1.00  0.00    -0.077 C 
ATOM     10  C   UNL     1       9.415  23.409  53.852  1.00  0.00     0.008 C 
ATOM     11  C   UNL     1       9.158  22.667  56.175  1.00  0.00     0.039 C 
ENDBRANCH   5   9
TORSDOF 1
ENDMDL
