MODEL 1
REMARK VINA RESULT:    -6.632      0.000      0.000
REMARK INTER + INTRA:          -7.277
REMARK INTER:                  -7.214
REMARK INTRA:                  -0.063
REMARK UNBOUND:                -0.063
REMARK SMILES COc1cc2ccc(=O)oc2cc1O
REMARK SMILES IDX 3 1 13 2 12 3 11 4 5 5 4 6 6 7 7 8 8 9 9 10 10 11 2 12 1 13
REMARK SMILES IDX 14 14
REMARK H PARENT 14 15
REMARK Flexibility Score: inf
ROOT
ATOM      1  C   UNL     1      44.453  59.360  49.072  1.00  0.00     0.161 A 
ATOM      2  C   UNL     1      44.979  58.212  48.458  1.00  0.00     0.161 A 
ATOM      3  C   UNL     1      44.121  57.250  47.904  1.00  0.00     0.098 A 
ATOM      4  C   UNL     1      42.737  57.425  47.960  1.00  0.00     0.142 A 
ATOM      5  C   UNL     1      42.200  58.576  48.576  1.00  0.00     0.022 A 
ATOM      6  C   UNL     1      43.057  59.539  49.129  1.00  0.00     0.062 A 
ATOM      7  C   UNL     1      40.810  58.724  48.615  1.00  0.00     0.019 A 
ATOM      8  C   UNL     1      40.001  57.738  48.052  1.00  0.00     0.094 A 
ATOM      9  C   UNL     1      40.602  56.624  47.458  1.00  0.00     0.336 A 
ATOM     10  O   UNL     1      39.890  55.724  46.942  1.00  0.00    -0.246 OA
ATOM     11  O   UNL     1      41.928  56.509  47.433  1.00  0.00    -0.423 OA
ENDROOT
BRANCH   1  12
ATOM     12  O   UNL     1      45.349  60.296  49.611  1.00  0.00    -0.493 OA
ATOM     13  C   UNL     1      45.550  61.609  49.097  1.00  0.00     0.278 C 
ENDBRANCH   1  12
BRANCH   2  14
ATOM     14  O   UNL     1      46.360  58.035  48.400  1.00  0.00    -0.504 OA
ATOM     15  H   UNL     1      46.806  57.594  47.604  1.00  0.00     0.293 HD
ENDBRANCH   2  14
TORSDOF 2
ENDMDL
MODEL 2
REMARK VINA RESULT:    -6.631      1.678      5.000
REMARK INTER + INTRA:          -7.275
REMARK INTER:                  -7.213
REMARK INTRA:                  -0.063
REMARK UNBOUND:                -0.063
REMARK SMILES COc1cc2ccc(=O)oc2cc1O
REMARK SMILES IDX 3 1 13 2 12 3 11 4 5 5 4 6 6 7 7 8 8 9 9 10 10 11 2 12 1 13
REMARK SMILES IDX 14 14
REMARK H PARENT 14 15
REMARK Flexibility Score: inf
ROOT
ATOM      1  C   UNL     1      41.152  57.353  46.588  1.00  0.00     0.161 A 
ATOM      2  C   UNL     1      42.340  57.390  45.841  1.00  0.00     0.161 A 
ATOM      3  C   UNL     1      43.384  58.250  46.214  1.00  0.00     0.098 A 
ATOM      4  C   UNL     1      43.250  59.077  47.331  1.00  0.00     0.142 A 
ATOM      5  C   UNL     1      42.059  59.046  48.088  1.00  0.00     0.022 A 
ATOM      6  C   UNL     1      41.016  58.186  47.716  1.00  0.00     0.062 A 
ATOM      7  C   UNL     1      41.956  59.885  49.202  1.00  0.00     0.019 A 
ATOM      8  C   UNL     1      43.021  60.722  49.530  1.00  0.00     0.094 A 
ATOM      9  C   UNL     1      44.171  60.700  48.734  1.00  0.00     0.336 A 
ATOM     10  O   UNL     1      45.144  61.446  49.014  1.00  0.00    -0.246 OA
ATOM     11  O   UNL     1      44.244  59.891  47.680  1.00  0.00    -0.423 OA
ENDROOT
BRANCH   1  12
ATOM     12  O   UNL     1      40.135  56.477  46.179  1.00  0.00    -0.493 OA
ATOM     13  C   UNL     1      39.695  55.348  46.927  1.00  0.00     0.278 C 
ENDBRANCH   1  12
BRANCH   2  14
ATOM     14  O   UNL     1      42.477  56.566  44.726  1.00  0.00    -0.504 OA
ATOM     15  H   UNL     1      42.190  56.870  43.802  1.00  0.00     0.293 HD
ENDBRANCH   2  14
TORSDOF 2
ENDMDL
MODEL 3
REMARK VINA RESULT:    -6.589      2.000      2.954
REMARK INTER + INTRA:          -7.230
REMARK INTER:                  -7.166
REMARK INTRA:                  -0.064
REMARK UNBOUND:                -0.063
REMARK SMILES COc1cc2ccc(=O)oc2cc1O
REMARK SMILES IDX 3 1 13 2 12 3 11 4 5 5 4 6 6 7 7 8 8 9 9 10 10 11 2 12 1 13
REMARK SMILES IDX 14 14
REMARK H PARENT 14 15
REMARK Flexibility Score: inf
ROOT
ATOM      1  C   UNL     1      44.501  59.397  49.211  1.00  0.00     0.161 A 
ATOM      2  C   UNL     1      43.335  60.174  49.302  1.00  0.00     0.161 A 
ATOM      3  C   UNL     1      42.300  60.010  48.369  1.00  0.00     0.098 A 
ATOM      4  C   UNL     1      42.422  59.073  47.340  1.00  0.00     0.142 A 
ATOM      5  C   UNL     1      43.591  58.289  47.242  1.00  0.00     0.022 A 
ATOM      6  C   UNL     1      44.624  58.451  48.174  1.00  0.00     0.062 A 
ATOM      7  C   UNL     1      43.682  57.358  46.201  1.00  0.00     0.019 A 
ATOM      8  C   UNL     1      42.627  57.234  45.299  1.00  0.00     0.094 A 
ATOM      9  C   UNL     1      41.498  58.046  45.459  1.00  0.00     0.336 A 
ATOM     10  O   UNL     1      40.535  57.948  44.656  1.00  0.00    -0.246 OA
ATOM     11  O   UNL     1      41.437  58.922  46.458  1.00  0.00    -0.423 OA
ENDROOT
BRANCH   1  12
ATOM     12  O   UNL     1      45.509  59.595  50.167  1.00  0.00    -0.493 OA
ATOM     13  C   UNL     1      45.841  58.664  51.192  1.00  0.00     0.278 C 
ENDBRANCH   1  12
BRANCH   2  14
ATOM     14  O   UNL     1      43.211  61.109  50.328  1.00  0.00    -0.504 OA
ATOM     15  H   UNL     1      42.902  62.058  50.147  1.00  0.00     0.293 HD
ENDBRANCH   2  14
TORSDOF 2
ENDMDL
MODEL 4
REMARK VINA RESULT:    -6.547      1.239      5.476
REMARK INTER + INTRA:          -7.184
REMARK INTER:                  -7.121
REMARK INTRA:                  -0.064
REMARK UNBOUND:                -0.063
REMARK SMILES COc1cc2ccc(=O)oc2cc1O
REMARK SMILES IDX 3 1 13 2 12 3 11 4 5 5 4 6 6 7 7 8 8 9 9 10 10 11 2 12 1 13
REMARK SMILES IDX 14 14
REMARK H PARENT 14 15
REMARK Flexibility Score: inf
ROOT
ATOM      1  C   UNL     1      40.774  56.692  47.420  1.00  0.00     0.161 A 
ATOM      2  C   UNL     1      40.268  57.796  48.125  1.00  0.00     0.161 A 
ATOM      3  C   UNL     1      41.141  58.688  48.765  1.00  0.00     0.098 A 
ATOM      4  C   UNL     1      42.522  58.485  48.708  1.00  0.00     0.142 A 
ATOM      5  C   UNL     1      43.039  57.378  48.002  1.00  0.00     0.022 A 
ATOM      6  C   UNL     1      42.167  56.487  47.361  1.00  0.00     0.062 A 
ATOM      7  C   UNL     1      44.426  57.203  47.961  1.00  0.00     0.019 A 
ATOM      8  C   UNL     1      45.251  58.117  48.615  1.00  0.00     0.094 A 
ATOM      9  C   UNL     1      44.668  59.191  49.295  1.00  0.00     0.336 A 
ATOM     10  O   UNL     1      45.395  60.027  49.890  1.00  0.00    -0.246 OA
ATOM     11  O   UNL     1      43.345  59.335  49.317  1.00  0.00    -0.423 OA
ENDROOT
BRANCH   1  12
ATOM     12  O   UNL     1      39.863  55.827  46.795  1.00  0.00    -0.493 OA
ATOM     13  C   UNL     1      39.607  54.489  47.210  1.00  0.00     0.278 C 
ENDBRANCH   1  12
BRANCH   2  14
ATOM     14  O   UNL     1      38.891  58.001  48.184  1.00  0.00    -0.504 OA
ATOM     15  H   UNL     1      38.491  58.932  48.158  1.00  0.00     0.293 HD
ENDBRANCH   2  14
TORSDOF 2
ENDMDL
MODEL 5
REMARK VINA RESULT:    -6.312      1.739      5.181
REMARK INTER + INTRA:          -6.929
REMARK INTER:                  -6.867
REMARK INTRA:                  -0.062
REMARK UNBOUND:                -0.063
REMARK SMILES COc1cc2ccc(=O)oc2cc1O
REMARK SMILES IDX 3 1 13 2 12 3 11 4 5 5 4 6 6 7 7 8 8 9 9 10 10 11 2 12 1 13
REMARK SMILES IDX 14 14
REMARK H PARENT 14 15
REMARK Flexibility Score: inf
ROOT
ATOM      1  C   UNL     1      41.210  57.521  46.745  1.00  0.00     0.161 A 
ATOM      2  C   UNL     1      40.662  57.910  47.978  1.00  0.00     0.161 A 
ATOM      3  C   UNL     1      41.500  58.223  49.058  1.00  0.00     0.098 A 
ATOM      4  C   UNL     1      42.888  58.148  48.918  1.00  0.00     0.142 A 
ATOM      5  C   UNL     1      43.447  57.757  47.682  1.00  0.00     0.022 A 
ATOM      6  C   UNL     1      42.610  57.446  46.602  1.00  0.00     0.062 A 
ATOM      7  C   UNL     1      44.840  57.693  47.572  1.00  0.00     0.019 A 
ATOM      8  C   UNL     1      45.629  58.012  48.676  1.00  0.00     0.094 A 
ATOM      9  C   UNL     1      45.005  58.392  49.870  1.00  0.00     0.336 A 
ATOM     10  O   UNL     1      45.699  58.685  50.877  1.00  0.00    -0.246 OA
ATOM     11  O   UNL     1      43.678  58.445  49.947  1.00  0.00    -0.423 OA
ENDROOT
BRANCH   1  12
ATOM     12  O   UNL     1      40.333  57.219  45.692  1.00  0.00    -0.493 OA
ATOM     13  C   UNL     1      40.236  57.968  44.485  1.00  0.00     0.278 C 
ENDBRANCH   1  12
BRANCH   2  14
ATOM     14  O   UNL     1      39.278  57.986  48.121  1.00  0.00    -0.504 OA
ATOM     15  H   UNL     1      38.772  57.357  48.734  1.00  0.00     0.293 HD
ENDBRANCH   2  14
TORSDOF 2
ENDMDL
MODEL 6
REMARK VINA RESULT:    -6.278      1.304      1.486
REMARK INTER + INTRA:          -6.892
REMARK INTER:                  -6.828
REMARK INTRA:                  -0.064
REMARK UNBOUND:                -0.063
REMARK SMILES COc1cc2ccc(=O)oc2cc1O
REMARK SMILES IDX 3 1 13 2 12 3 11 4 5 5 4 6 6 7 7 8 8 9 9 10 10 11 2 12 1 13
REMARK SMILES IDX 14 14
REMARK H PARENT 14 15
REMARK Flexibility Score: inf
ROOT
ATOM      1  C   UNL     1      44.885  58.554  49.701  1.00  0.00     0.161 A 
ATOM      2  C   UNL     1      45.376  57.937  48.540  1.00  0.00     0.161 A 
ATOM      3  C   UNL     1      44.492  57.487  47.549  1.00  0.00     0.098 A 
ATOM      4  C   UNL     1      43.113  57.648  47.709  1.00  0.00     0.142 A 
ATOM      5  C   UNL     1      42.611  58.268  48.873  1.00  0.00     0.022 A 
ATOM      6  C   UNL     1      43.495  58.718  49.863  1.00  0.00     0.062 A 
ATOM      7  C   UNL     1      41.227  58.416  49.004  1.00  0.00     0.019 A 
ATOM      8  C   UNL     1      40.389  57.950  47.991  1.00  0.00     0.094 A 
ATOM      9  C   UNL     1      40.958  57.346  46.865  1.00  0.00     0.336 A 
ATOM     10  O   UNL     1      40.220  56.921  45.939  1.00  0.00    -0.246 OA
ATOM     11  O   UNL     1      42.279  57.219  46.765  1.00  0.00    -0.423 OA
ENDROOT
BRANCH   1  12
ATOM     12  O   UNL     1      45.807  58.990  50.665  1.00  0.00    -0.493 OA
ATOM     13  C   UNL     1      45.965  58.402  51.952  1.00  0.00     0.278 C 
ENDBRANCH   1  12
BRANCH   2  14
ATOM     14  O   UNL     1      46.751  57.775  48.377  1.00  0.00    -0.504 OA
ATOM     15  H   UNL     1      47.298  57.208  49.016  1.00  0.00     0.293 HD
ENDBRANCH   2  14
TORSDOF 2
ENDMDL
MODEL 7
REMARK VINA RESULT:    -6.123      2.239      4.894
REMARK INTER + INTRA:          -6.724
REMARK INTER:                  -6.659
REMARK INTRA:                  -0.065
REMARK UNBOUND:                -0.063
REMARK SMILES COc1cc2ccc(=O)oc2cc1O
REMARK SMILES IDX 3 1 13 2 12 3 11 4 5 5 4 6 6 7 7 8 8 9 9 10 10 11 2 12 1 13
REMARK SMILES IDX 14 14
REMARK H PARENT 14 15
REMARK Flexibility Score: inf
ROOT
ATOM      1  C   UNL     1      41.409  58.025  45.524  1.00  0.00     0.161 A 
ATOM      2  C   UNL     1      42.613  57.322  45.359  1.00  0.00     0.161 A 
ATOM      3  C   UNL     1      43.692  57.552  46.227  1.00  0.00     0.098 A 
ATOM      4  C   UNL     1      43.577  58.483  47.261  1.00  0.00     0.142 A 
ATOM      5  C   UNL     1      42.371  59.194  47.434  1.00  0.00     0.022 A 
ATOM      6  C   UNL     1      41.293  58.964  46.569  1.00  0.00     0.062 A 
ATOM      7  C   UNL     1      42.287  60.118  48.480  1.00  0.00     0.019 A 
ATOM      8  C   UNL     1      43.388  60.311  49.314  1.00  0.00     0.094 A 
ATOM      9  C   UNL     1      44.552  59.570  49.083  1.00  0.00     0.336 A 
ATOM     10  O   UNL     1      45.555  59.728  49.824  1.00  0.00    -0.246 OA
ATOM     11  O   UNL     1      44.604  58.696  48.081  1.00  0.00    -0.423 OA
ENDROOT
BRANCH   1  12
ATOM     12  O   UNL     1      40.357  57.762  44.634  1.00  0.00    -0.493 OA
ATOM     13  C   UNL     1      39.917  58.659  43.620  1.00  0.00     0.278 C 
ENDBRANCH   1  12
BRANCH   2  14
ATOM     14  O   UNL     1      42.730  56.392  44.328  1.00  0.00    -0.504 OA
ATOM     15  H   UNL     1      43.206  55.507  44.462  1.00  0.00     0.293 HD
ENDBRANCH   2  14
TORSDOF 2
ENDMDL
MODEL 8
REMARK VINA RESULT:    -5.383      2.071      2.381
REMARK INTER + INTRA:          -5.919
REMARK INTER:                  -5.879
REMARK INTRA:                  -0.040
REMARK UNBOUND:                -0.063
REMARK SMILES COc1cc2ccc(=O)oc2cc1O
REMARK SMILES IDX 3 1 13 2 12 3 11 4 5 5 4 6 6 7 7 8 8 9 9 10 10 11 2 12 1 13
REMARK SMILES IDX 14 14
REMARK H PARENT 14 15
REMARK Flexibility Score: inf
ROOT
ATOM      1  C   UNL     1      43.276  60.140  48.975  1.00  0.00     0.161 A 
ATOM      2  C   UNL     1      44.513  59.544  48.682  1.00  0.00     0.161 A 
ATOM      3  C   UNL     1      44.633  58.656  47.603  1.00  0.00     0.098 A 
ATOM      4  C   UNL     1      43.523  58.356  46.810  1.00  0.00     0.142 A 
ATOM      5  C   UNL     1      42.276  58.950  47.098  1.00  0.00     0.022 A 
ATOM      6  C   UNL     1      42.155  59.838  48.175  1.00  0.00     0.062 A 
ATOM      7  C   UNL     1      41.183  58.631  46.285  1.00  0.00     0.019 A 
ATOM      8  C   UNL     1      41.354  57.742  45.226  1.00  0.00     0.094 A 
ATOM      9  C   UNL     1      42.620  57.191  45.000  1.00  0.00     0.336 A 
ATOM     10  O   UNL     1      42.796  56.388  44.048  1.00  0.00    -0.246 OA
ATOM     11  O   UNL     1      43.643  57.513  45.788  1.00  0.00    -0.423 OA
ENDROOT
BRANCH   1  12
ATOM     12  O   UNL     1      43.203  61.022  50.063  1.00  0.00    -0.493 OA
ATOM     13  C   UNL     1      43.411  62.428  49.976  1.00  0.00     0.278 C 
ENDBRANCH   1  12
BRANCH   2  14
ATOM     14  O   UNL     1      45.623  59.842  49.471  1.00  0.00    -0.504 OA
ATOM     15  H   UNL     1      45.628  60.636  50.101  1.00  0.00     0.293 HD
ENDBRANCH   2  14
TORSDOF 2
ENDMDL
MODEL 9
REMARK VINA RESULT:    -5.342      2.292      5.089
REMARK INTER + INTRA:          -5.873
REMARK INTER:                  -5.826
REMARK INTRA:                  -0.048
REMARK UNBOUND:                -0.063
REMARK SMILES COc1cc2ccc(=O)oc2cc1O
REMARK SMILES IDX 3 1 13 2 12 3 11 4 5 5 4 6 6 7 7 8 8 9 9 10 10 11 2 12 1 13
REMARK SMILES IDX 14 14
REMARK H PARENT 14 15
REMARK Flexibility Score: inf
ROOT
ATOM      1  C   UNL     1      42.467  57.540  45.887  1.00  0.00     0.161 A 
ATOM      2  C   UNL     1      41.188  57.776  46.418  1.00  0.00     0.161 A 
ATOM      3  C   UNL     1      41.014  58.699  47.459  1.00  0.00     0.098 A 
ATOM      4  C   UNL     1      42.110  59.391  47.978  1.00  0.00     0.142 A 
ATOM      5  C   UNL     1      43.398  59.160  47.451  1.00  0.00     0.022 A 
ATOM      6  C   UNL     1      43.574  58.239  46.409  1.00  0.00     0.062 A 
ATOM      7  C   UNL     1      44.476  59.869  47.991  1.00  0.00     0.019 A 
ATOM      8  C   UNL     1      44.250  60.775  49.026  1.00  0.00     0.094 A 
ATOM      9  C   UNL     1      42.945  60.953  49.499  1.00  0.00     0.336 A 
ATOM     10  O   UNL     1      42.719  61.766  50.432  1.00  0.00    -0.246 OA
ATOM     11  O   UNL     1      41.937  60.265  48.967  1.00  0.00    -0.423 OA
ENDROOT
BRANCH   1  12
ATOM     12  O   UNL     1      42.594  56.609  44.845  1.00  0.00    -0.493 OA
ATOM     13  C   UNL     1      42.549  56.938  43.460  1.00  0.00     0.278 C 
ENDBRANCH   1  12
BRANCH   2  14
ATOM     14  O   UNL     1      40.093  57.086  45.901  1.00  0.00    -0.504 OA
ATOM     15  H   UNL     1      39.461  56.568  46.501  1.00  0.00     0.293 HD
ENDBRANCH   2  14
TORSDOF 2
ENDMDL
