MODEL 1
REMARK VINA RESULT:    -4.484      0.000      0.000
REMARK INTER + INTRA:          -9.349
REMARK INTER:                  -7.761
REMARK INTRA:                  -1.588
REMARK UNBOUND:                -1.588
REMARK SMILES OC[C@@H]1O[C@H](O[C@@H]2[C@H](O)[C@@H](O)[C@@H](O[C@H]3[C@H](O)[C@H](O)[C@@H](O)O[C@@H]3CO)O[C@H]2CO)[C@@H](O)[C@@H](O)[C@H]1O
REMARK SMILES IDX 7 1 26 2 25 3 12 4 10 5 8 6 6 7 5 8 3 9 33 10 4 11 31 12
REMARK SMILES IDX 29 13 2 14 1 15 34 17 32 19 30 21 27 23 28 24 9 26 11 28
REMARK SMILES IDX 13 30 14 31 22 32 15 33 21 34 17 35 19 36 23 37 24 38 16 40
REMARK SMILES IDX 18 42 20 44
REMARK H PARENT 1 16 34 18 32 20 30 22 28 25 9 27 11 29 24 39 16 41 18 43
REMARK H PARENT 20 45
REMARK Flexibility Score: inf
ROOT
ATOM      1  C   UNL     1      35.662 137.271 -32.214  1.00  0.00     0.184 C 
ATOM      2  C   UNL     1      34.605 138.294 -32.695  1.00  0.00     0.178 C 
ATOM      3  O   UNL     1      33.387 138.265 -31.946  1.00  0.00    -0.341 OA
ATOM      4  C   UNL     1      33.541 138.360 -30.529  1.00  0.00     0.282 C 
ATOM      5  C   UNL     1      34.515 137.280 -29.987  1.00  0.00     0.202 C 
ATOM      6  C   UNL     1      35.866 137.391 -30.698  1.00  0.00     0.180 C 
ENDROOT
BRANCH   1   7
ATOM      7  O   UNL     1      35.190 135.965 -32.524  1.00  0.00    -0.341 OA
BRANCH   7   8
ATOM      8  C   UNL     1      36.068 135.238 -33.369  1.00  0.00     0.282 C 
ATOM      9  C   UNL     1      34.372 133.875 -34.396  1.00  0.00     0.178 C 
ATOM     10  C   UNL     1      34.481 134.640 -35.735  1.00  0.00     0.177 C 
ATOM     11  O   UNL     1      35.559 133.927 -33.607  1.00  0.00    -0.341 OA
ATOM     12  C   UNL     1      35.035 136.063 -35.512  1.00  0.00     0.179 C 
ATOM     13  C   UNL     1      36.326 136.001 -34.683  1.00  0.00     0.202 C 
BRANCH   9  14
ATOM     14  C   UNL     1      33.094 134.223 -33.598  1.00  0.00     0.191 C 
BRANCH  14  15
ATOM     15  O   UNL     1      32.599 135.480 -33.981  1.00  0.00    -0.394 OA
ATOM     16  H   UNL     1      32.850 136.126 -33.268  1.00  0.00     0.210 HD
ENDBRANCH  14  15
ENDBRANCH   9  14
BRANCH  10  17
ATOM     17  O   UNL     1      35.314 133.916 -36.607  1.00  0.00    -0.387 OA
ATOM     18  H   UNL     1      35.392 132.991 -36.241  1.00  0.00     0.211 HD
ENDBRANCH  10  17
BRANCH  12  19
ATOM     19  O   UNL     1      35.288 136.703 -36.737  1.00  0.00    -0.387 OA
ATOM     20  H   UNL     1      35.738 137.558 -36.526  1.00  0.00     0.211 HD
ENDBRANCH  12  19
BRANCH  13  21
ATOM     21  O   UNL     1      37.349 135.354 -35.400  1.00  0.00    -0.385 OA
ATOM     22  H   UNL     1      38.201 135.819 -35.188  1.00  0.00     0.211 HD
ENDBRANCH  13  21
ENDBRANCH   7   8
ENDBRANCH   1   7
BRANCH   2  23
ATOM     23  C   UNL     1      35.195 139.708 -32.852  1.00  0.00     0.191 C 
BRANCH  23  24
ATOM     24  O   UNL     1      34.175 140.651 -33.032  1.00  0.00    -0.394 OA
ATOM     25  H   UNL     1      33.633 140.626 -32.194  1.00  0.00     0.210 HD
ENDBRANCH  23  24
ENDBRANCH   2  23
BRANCH   6  26
ATOM     26  O   UNL     1      36.727 136.368 -30.263  1.00  0.00    -0.387 OA
ATOM     27  H   UNL     1      37.098 135.943 -31.078  1.00  0.00     0.211 HD
ENDBRANCH   6  26
BRANCH   5  28
ATOM     28  O   UNL     1      34.704 137.414 -28.604  1.00  0.00    -0.385 OA
ATOM     29  H   UNL     1      34.005 138.051 -28.282  1.00  0.00     0.211 HD
ENDBRANCH   5  28
BRANCH   4  30
ATOM     30  O   UNL     1      33.966 139.676 -30.172  1.00  0.00    -0.341 OA
BRANCH  30  31
ATOM     31  C   UNL     1      33.017 140.440 -29.422  1.00  0.00     0.184 C 
ATOM     32  C   UNL     1      33.336 140.289 -27.896  1.00  0.00     0.178 C 
ATOM     33  C   UNL     1      31.608 139.876 -29.743  1.00  0.00     0.180 C 
ATOM     34  O   UNL     1      32.266 140.740 -27.068  1.00  0.00    -0.342 OA
ATOM     35  C   UNL     1      30.559 140.344 -28.719  1.00  0.00     0.201 C 
ATOM     36  C   UNL     1      31.057 140.043 -27.304  1.00  0.00     0.279 C 
BRANCH  32  37
ATOM     37  C   UNL     1      34.567 141.113 -27.481  1.00  0.00     0.191 C 
BRANCH  37  38
ATOM     38  O   UNL     1      34.971 141.974 -28.507  1.00  0.00    -0.394 OA
ATOM     39  H   UNL     1      35.861 142.325 -28.244  1.00  0.00     0.210 HD
ENDBRANCH  37  38
ENDBRANCH  32  37
BRANCH  33  40
ATOM     40  O   UNL     1      31.219 140.283 -31.035  1.00  0.00    -0.387 OA
ATOM     41  H   UNL     1      30.230 140.287 -31.031  1.00  0.00     0.211 HD
ENDBRANCH  33  40
BRANCH  35  42
ATOM     42  O   UNL     1      30.335 141.731 -28.839  1.00  0.00    -0.385 OA
ATOM     43  H   UNL     1      30.287 141.929 -29.813  1.00  0.00     0.211 HD
ENDBRANCH  35  42
BRANCH  36  44
ATOM     44  O   UNL     1      31.216 138.658 -27.089  1.00  0.00    -0.366 OA
ATOM     45  H   UNL     1      31.486 138.265 -27.962  1.00  0.00     0.213 HD
ENDBRANCH  36  44
ENDBRANCH  30  31
ENDBRANCH   4  30
TORSDOF 18
ENDMDL
MODEL 2
REMARK VINA RESULT:    -4.450      1.742      8.083
REMARK INTER + INTRA:          -9.289
REMARK INTER:                  -7.510
REMARK INTRA:                  -1.779
REMARK UNBOUND:                -1.588
REMARK SMILES OC[C@@H]1O[C@H](O[C@@H]2[C@H](O)[C@@H](O)[C@@H](O[C@H]3[C@H](O)[C@H](O)[C@@H](O)O[C@@H]3CO)O[C@H]2CO)[C@@H](O)[C@@H](O)[C@H]1O
REMARK SMILES IDX 7 1 26 2 25 3 12 4 10 5 8 6 6 7 5 8 3 9 33 10 4 11 31 12
REMARK SMILES IDX 29 13 2 14 1 15 34 17 32 19 30 21 27 23 28 24 9 26 11 28
REMARK SMILES IDX 13 30 14 31 22 32 15 33 21 34 17 35 19 36 23 37 24 38 16 40
REMARK SMILES IDX 18 42 20 44
REMARK H PARENT 1 16 34 18 32 20 30 22 28 25 9 27 11 29 24 39 16 41 18 43
REMARK H PARENT 20 45
REMARK Flexibility Score: inf
ROOT
ATOM      1  C   UNL     1      34.109 137.384 -30.129  1.00  0.00     0.184 C 
ATOM      2  C   UNL     1      33.743 136.084 -30.885  1.00  0.00     0.178 C 
ATOM      3  O   UNL     1      33.392 136.291 -32.257  1.00  0.00    -0.341 OA
ATOM      4  C   UNL     1      34.336 137.044 -33.020  1.00  0.00     0.282 C 
ATOM      5  C   UNL     1      34.653 138.408 -32.349  1.00  0.00     0.202 C 
ATOM      6  C   UNL     1      35.153 138.184 -30.920  1.00  0.00     0.180 C 
ENDROOT
BRANCH   1   7
ATOM      7  O   UNL     1      32.927 138.163 -29.986  1.00  0.00    -0.341 OA
BRANCH   7   8
ATOM      8  C   UNL     1      32.663 138.539 -28.644  1.00  0.00     0.282 C 
ATOM      9  C   UNL     1      32.117 140.833 -29.120  1.00  0.00     0.178 C 
ATOM     10  C   UNL     1      30.613 140.596 -28.850  1.00  0.00     0.177 C 
ATOM     11  O   UNL     1      32.973 139.916 -28.442  1.00  0.00    -0.341 OA
ATOM     12  C   UNL     1      30.246 139.111 -29.055  1.00  0.00     0.179 C 
ATOM     13  C   UNL     1      31.206 138.217 -28.258  1.00  0.00     0.202 C 
BRANCH   9  14
ATOM     14  C   UNL     1      32.449 140.982 -30.623  1.00  0.00     0.191 C 
BRANCH  14  15
ATOM     15  O   UNL     1      33.666 141.662 -30.795  1.00  0.00    -0.394 OA
ATOM     16  H   UNL     1      34.373 141.118 -30.356  1.00  0.00     0.210 HD
ENDBRANCH  14  15
ENDBRANCH   9  14
BRANCH  10  17
ATOM     17  O   UNL     1      30.317 141.002 -27.536  1.00  0.00    -0.387 OA
ATOM     18  H   UNL     1      31.000 141.681 -27.275  1.00  0.00     0.211 HD
ENDBRANCH  10  17
BRANCH  12  19
ATOM     19  O   UNL     1      28.922 138.860 -28.655  1.00  0.00    -0.387 OA
ATOM     20  H   UNL     1      28.335 139.250 -29.349  1.00  0.00     0.211 HD
ENDBRANCH  12  19
BRANCH  13  21
ATOM     21  O   UNL     1      31.040 138.413 -26.875  1.00  0.00    -0.385 OA
ATOM     22  H   UNL     1      31.030 137.517 -26.446  1.00  0.00     0.211 HD
ENDBRANCH  13  21
ENDBRANCH   7   8
ENDBRANCH   1   7
BRANCH   2  23
ATOM     23  C   UNL     1      34.795 134.978 -30.681  1.00  0.00     0.191 C 
BRANCH  23  24
ATOM     24  O   UNL     1      34.574 133.917 -31.570  1.00  0.00    -0.394 OA
ATOM     25  H   UNL     1      33.726 134.137 -32.047  1.00  0.00     0.210 HD
ENDBRANCH  23  24
ENDBRANCH   2  23
BRANCH   6  26
ATOM     26  O   UNL     1      35.372 139.418 -30.285  1.00  0.00    -0.387 OA
ATOM     27  H   UNL     1      34.628 139.542 -29.640  1.00  0.00     0.211 HD
ENDBRANCH   6  26
BRANCH   5  28
ATOM     28  O   UNL     1      35.620 139.118 -33.075  1.00  0.00    -0.385 OA
ATOM     29  H   UNL     1      36.405 139.231 -32.468  1.00  0.00     0.211 HD
ENDBRANCH   5  28
BRANCH   4  30
ATOM     30  O   UNL     1      35.520 136.274 -33.229  1.00  0.00    -0.341 OA
BRANCH  30  31
ATOM     31  C   UNL     1      35.491 135.410 -34.368  1.00  0.00     0.184 C 
ATOM     32  C   UNL     1      36.958 134.995 -34.729  1.00  0.00     0.178 C 
ATOM     33  C   UNL     1      34.845 136.200 -35.536  1.00  0.00     0.180 C 
ATOM     34  O   UNL     1      37.055 134.409 -36.026  1.00  0.00    -0.342 OA
ATOM     35  C   UNL     1      35.110 135.530 -36.896  1.00  0.00     0.201 C 
ATOM     36  C   UNL     1      36.609 135.273 -37.054  1.00  0.00     0.279 C 
BRANCH  32  37
ATOM     37  C   UNL     1      37.517 133.948 -33.750  1.00  0.00     0.191 C 
BRANCH  37  38
ATOM     38  O   UNL     1      37.540 134.439 -32.441  1.00  0.00    -0.394 OA
ATOM     39  H   UNL     1      38.244 133.928 -31.962  1.00  0.00     0.210 HD
ENDBRANCH  37  38
ENDBRANCH  32  37
BRANCH  33  40
ATOM     40  O   UNL     1      33.455 136.304 -35.325  1.00  0.00    -0.387 OA
ATOM     41  H   UNL     1      33.343 136.513 -34.365  1.00  0.00     0.211 HD
ENDBRANCH  33  40
BRANCH  35  42
ATOM     42  O   UNL     1      34.424 134.300 -36.983  1.00  0.00    -0.385 OA
ATOM     43  H   UNL     1      35.119 133.587 -36.991  1.00  0.00     0.211 HD
ENDBRANCH  35  42
BRANCH  36  44
ATOM     44  O   UNL     1      37.348 136.475 -37.066  1.00  0.00    -0.366 OA
ATOM     45  H   UNL     1      36.795 137.151 -36.591  1.00  0.00     0.213 HD
ENDBRANCH  36  44
ENDBRANCH  30  31
ENDBRANCH   4  30
TORSDOF 18
ENDMDL
MODEL 3
REMARK VINA RESULT:    -4.329     11.803     14.183
REMARK INTER + INTRA:          -9.080
REMARK INTER:                  -7.362
REMARK INTRA:                  -1.719
REMARK UNBOUND:                -1.588
REMARK SMILES OC[C@@H]1O[C@H](O[C@@H]2[C@H](O)[C@@H](O)[C@@H](O[C@H]3[C@H](O)[C@H](O)[C@@H](O)O[C@@H]3CO)O[C@H]2CO)[C@@H](O)[C@@H](O)[C@H]1O
REMARK SMILES IDX 7 1 26 2 25 3 12 4 10 5 8 6 6 7 5 8 3 9 33 10 4 11 31 12
REMARK SMILES IDX 29 13 2 14 1 15 34 17 32 19 30 21 27 23 28 24 9 26 11 28
REMARK SMILES IDX 13 30 14 31 22 32 15 33 21 34 17 35 19 36 23 37 24 38 16 40
REMARK SMILES IDX 18 42 20 44
REMARK H PARENT 1 16 34 18 32 20 30 22 28 25 9 27 11 29 24 39 16 41 18 43
REMARK H PARENT 20 45
REMARK Flexibility Score: inf
ROOT
ATOM      1  C   UNL     1      36.903 139.756 -45.253  1.00  0.00     0.184 C 
ATOM      2  C   UNL     1      35.718 139.753 -44.258  1.00  0.00     0.178 C 
ATOM      3  O   UNL     1      35.467 141.023 -43.651  1.00  0.00    -0.341 OA
ATOM      4  C   UNL     1      35.329 142.116 -44.561  1.00  0.00     0.282 C 
ATOM      5  C   UNL     1      36.551 142.223 -45.513  1.00  0.00     0.202 C 
ATOM      6  C   UNL     1      36.747 140.902 -46.262  1.00  0.00     0.180 C 
ENDROOT
BRANCH   1   7
ATOM      7  O   UNL     1      38.105 139.940 -44.513  1.00  0.00    -0.341 OA
BRANCH   7   8
ATOM      8  C   UNL     1      38.993 138.837 -44.603  1.00  0.00     0.282 C 
ATOM      9  C   UNL     1      39.849 139.009 -42.362  1.00  0.00     0.178 C 
ATOM     10  C   UNL     1      39.082 137.747 -41.906  1.00  0.00     0.177 C 
ATOM     11  O   UNL     1      40.125 139.039 -43.761  1.00  0.00    -0.341 OA
ATOM     12  C   UNL     1      37.851 137.497 -42.803  1.00  0.00     0.179 C 
ATOM     13  C   UNL     1      38.266 137.517 -44.281  1.00  0.00     0.202 C 
BRANCH   9  14
ATOM     14  C   UNL     1      39.227 140.323 -41.835  1.00  0.00     0.191 C 
BRANCH  14  15
ATOM     15  O   UNL     1      39.986 140.838 -40.771  1.00  0.00    -0.394 OA
ATOM     16  H   UNL     1      40.780 141.288 -41.166  1.00  0.00     0.210 HD
ENDBRANCH  14  15
ENDBRANCH   9  14
BRANCH  10  17
ATOM     17  O   UNL     1      39.955 136.644 -41.946  1.00  0.00    -0.387 OA
ATOM     18  H   UNL     1      40.029 136.360 -42.900  1.00  0.00     0.211 HD
ENDBRANCH  10  17
BRANCH  12  19
ATOM     19  O   UNL     1      37.246 136.267 -42.496  1.00  0.00    -0.387 OA
ATOM     20  H   UNL     1      36.576 136.093 -43.204  1.00  0.00     0.211 HD
ENDBRANCH  12  19
BRANCH  13  21
ATOM     21  O   UNL     1      39.117 136.437 -44.576  1.00  0.00    -0.385 OA
ATOM     22  H   UNL     1      38.547 135.684 -44.886  1.00  0.00     0.211 HD
ENDBRANCH  13  21
ENDBRANCH   7   8
ENDBRANCH   1   7
BRANCH   2  23
ATOM     23  C   UNL     1      34.459 139.099 -44.857  1.00  0.00     0.191 C 
BRANCH  23  24
ATOM     24  O   UNL     1      33.763 138.378 -43.877  1.00  0.00    -0.394 OA
ATOM     25  H   UNL     1      33.769 137.429 -44.184  1.00  0.00     0.210 HD
ENDBRANCH  23  24
ENDBRANCH   2  23
BRANCH   6  26
ATOM     26  O   UNL     1      37.895 140.970 -47.070  1.00  0.00    -0.387 OA
ATOM     27  H   UNL     1      37.907 141.877 -47.470  1.00  0.00     0.211 HD
ENDBRANCH   6  26
BRANCH   5  28
ATOM     28  O   UNL     1      36.385 143.263 -46.438  1.00  0.00    -0.385 OA
ATOM     29  H   UNL     1      36.087 142.839 -47.293  1.00  0.00     0.211 HD
ENDBRANCH   5  28
BRANCH   4  30
ATOM     30  O   UNL     1      34.106 141.994 -45.289  1.00  0.00    -0.341 OA
BRANCH  30  31
ATOM     31  C   UNL     1      33.062 142.881 -44.878  1.00  0.00     0.184 C 
ATOM     32  C   UNL     1      31.779 142.043 -44.559  1.00  0.00     0.178 C 
ATOM     33  C   UNL     1      32.796 143.863 -46.050  1.00  0.00     0.180 C 
ATOM     34  O   UNL     1      30.610 142.853 -44.458  1.00  0.00    -0.342 OA
ATOM     35  C   UNL     1      31.455 144.599 -45.885  1.00  0.00     0.201 C 
ATOM     36  C   UNL     1      30.340 143.579 -45.643  1.00  0.00     0.279 C 
BRANCH  32  37
ATOM     37  C   UNL     1      31.895 141.301 -43.217  1.00  0.00     0.191 C 
BRANCH  37  38
ATOM     38  O   UNL     1      31.532 139.957 -43.346  1.00  0.00    -0.394 OA
ATOM     39  H   UNL     1      32.299 139.425 -43.008  1.00  0.00     0.210 HD
ENDBRANCH  37  38
ENDBRANCH  32  37
BRANCH  33  40
ATOM     40  O   UNL     1      33.843 144.803 -46.127  1.00  0.00    -0.387 OA
ATOM     41  H   UNL     1      34.680 144.277 -46.119  1.00  0.00     0.211 HD
ENDBRANCH  33  40
BRANCH  35  42
ATOM     42  O   UNL     1      31.508 145.485 -44.790  1.00  0.00    -0.385 OA
ATOM     43  H   UNL     1      32.402 145.363 -44.368  1.00  0.00     0.211 HD
ENDBRANCH  35  42
BRANCH  36  44
ATOM     44  O   UNL     1      30.173 142.714 -46.744  1.00  0.00    -0.366 OA
ATOM     45  H   UNL     1      30.893 142.940 -47.393  1.00  0.00     0.213 HD
ENDBRANCH  36  44
ENDBRANCH  30  31
ENDBRANCH   4  30
TORSDOF 18
ENDMDL
MODEL 4
REMARK VINA RESULT:    -4.147     11.376     14.176
REMARK INTER + INTRA:          -8.765
REMARK INTER:                  -6.354
REMARK INTRA:                  -2.411
REMARK UNBOUND:                -1.588
REMARK SMILES OC[C@@H]1O[C@H](O[C@@H]2[C@H](O)[C@@H](O)[C@@H](O[C@H]3[C@H](O)[C@H](O)[C@@H](O)O[C@@H]3CO)O[C@H]2CO)[C@@H](O)[C@@H](O)[C@H]1O
REMARK SMILES IDX 7 1 26 2 25 3 12 4 10 5 8 6 6 7 5 8 3 9 33 10 4 11 31 12
REMARK SMILES IDX 29 13 2 14 1 15 34 17 32 19 30 21 27 23 28 24 9 26 11 28
REMARK SMILES IDX 13 30 14 31 22 32 15 33 21 34 17 35 19 36 23 37 24 38 16 40
REMARK SMILES IDX 18 42 20 44
REMARK H PARENT 1 16 34 18 32 20 30 22 28 25 9 27 11 29 24 39 16 41 18 43
REMARK H PARENT 20 45
REMARK Flexibility Score: inf
ROOT
ATOM      1  C   UNL     1      36.313 139.948 -43.519  1.00  0.00     0.184 C 
ATOM      2  C   UNL     1      36.558 140.959 -44.664  1.00  0.00     0.178 C 
ATOM      3  O   UNL     1      35.589 140.893 -45.714  1.00  0.00    -0.341 OA
ATOM      4  C   UNL     1      34.226 140.967 -45.289  1.00  0.00     0.282 C 
ATOM      5  C   UNL     1      33.906 139.896 -44.212  1.00  0.00     0.202 C 
ATOM      6  C   UNL     1      34.863 140.045 -43.026  1.00  0.00     0.180 C 
ENDROOT
BRANCH   1   7
ATOM      7  O   UNL     1      36.553 138.639 -44.022  1.00  0.00    -0.341 OA
BRANCH   7   8
ATOM      8  C   UNL     1      37.877 138.456 -44.498  1.00  0.00     0.282 C 
ATOM      9  C   UNL     1      38.429 136.628 -43.033  1.00  0.00     0.178 C 
ATOM     10  C   UNL     1      38.378 135.605 -44.191  1.00  0.00     0.177 C 
ATOM     11  O   UNL     1      38.716 137.960 -43.457  1.00  0.00    -0.341 OA
ATOM     12  C   UNL     1      37.480 136.116 -45.338  1.00  0.00     0.179 C 
ATOM     13  C   UNL     1      37.896 137.539 -45.736  1.00  0.00     0.202 C 
BRANCH   9  14
ATOM     14  C   UNL     1      37.209 136.539 -42.088  1.00  0.00     0.191 C 
BRANCH  14  15
ATOM     15  O   UNL     1      37.207 137.611 -41.179  1.00  0.00    -0.394 OA
ATOM     16  H   UNL     1      37.298 138.447 -41.709  1.00  0.00     0.210 HD
ENDBRANCH  14  15
ENDBRANCH   9  14
BRANCH  10  17
ATOM     17  O   UNL     1      39.687 135.373 -44.652  1.00  0.00    -0.387 OA
ATOM     18  H   UNL     1      40.213 135.018 -43.883  1.00  0.00     0.211 HD
ENDBRANCH  10  17
BRANCH  12  19
ATOM     19  O   UNL     1      37.560 135.268 -46.455  1.00  0.00    -0.387 OA
ATOM     20  H   UNL     1      38.003 134.437 -46.153  1.00  0.00     0.211 HD
ENDBRANCH  12  19
BRANCH  13  21
ATOM     21  O   UNL     1      39.186 137.545 -46.295  1.00  0.00    -0.385 OA
ATOM     22  H   UNL     1      39.829 137.344 -45.564  1.00  0.00     0.211 HD
ENDBRANCH  13  21
ENDBRANCH   7   8
ENDBRANCH   1   7
BRANCH   2  23
ATOM     23  C   UNL     1      36.797 142.387 -44.138  1.00  0.00     0.191 C 
BRANCH  23  24
ATOM     24  O   UNL     1      38.040 142.869 -44.568  1.00  0.00    -0.394 OA
ATOM     25  H   UNL     1      37.989 143.862 -44.484  1.00  0.00     0.210 HD
ENDBRANCH  23  24
ENDBRANCH   2  23
BRANCH   6  26
ATOM     26  O   UNL     1      34.624 139.032 -42.081  1.00  0.00    -0.387 OA
ATOM     27  H   UNL     1      34.176 138.292 -42.566  1.00  0.00     0.211 HD
ENDBRANCH   6  26
BRANCH   5  28
ATOM     28  O   UNL     1      32.583 140.010 -43.760  1.00  0.00    -0.385 OA
ATOM     29  H   UNL     1      32.041 139.372 -44.306  1.00  0.00     0.211 HD
ENDBRANCH   5  28
BRANCH   4  30
ATOM     30  O   UNL     1      33.931 142.285 -44.823  1.00  0.00    -0.341 OA
BRANCH  30  31
ATOM     31  C   UNL     1      33.065 143.048 -45.667  1.00  0.00     0.184 C 
ATOM     32  C   UNL     1      33.786 144.380 -46.064  1.00  0.00     0.178 C 
ATOM     33  C   UNL     1      31.773 143.347 -44.860  1.00  0.00     0.180 C 
ATOM     34  O   UNL     1      32.891 145.338 -46.626  1.00  0.00    -0.342 OA
ATOM     35  C   UNL     1      30.945 144.472 -45.504  1.00  0.00     0.201 C 
ATOM     36  C   UNL     1      31.839 145.690 -45.747  1.00  0.00     0.279 C 
BRANCH  32  37
ATOM     37  C   UNL     1      34.877 144.149 -47.124  1.00  0.00     0.191 C 
BRANCH  37  38
ATOM     38  O   UNL     1      36.059 143.681 -46.542  1.00  0.00    -0.394 OA
ATOM     39  H   UNL     1      36.754 143.716 -47.251  1.00  0.00     0.210 HD
ENDBRANCH  37  38
ENDBRANCH  32  37
BRANCH  33  40
ATOM     40  O   UNL     1      30.990 142.178 -44.771  1.00  0.00    -0.387 OA
ATOM     41  H   UNL     1      31.353 141.668 -44.005  1.00  0.00     0.211 HD
ENDBRANCH  33  40
BRANCH  35  42
ATOM     42  O   UNL     1      30.408 144.048 -46.737  1.00  0.00    -0.385 OA
ATOM     43  H   UNL     1      29.418 144.122 -46.658  1.00  0.00     0.211 HD
ENDBRANCH  35  42
BRANCH  36  44
ATOM     44  O   UNL     1      32.339 146.220 -44.539  1.00  0.00    -0.366 OA
ATOM     45  H   UNL     1      33.243 145.825 -44.409  1.00  0.00     0.213 HD
ENDBRANCH  36  44
ENDBRANCH  30  31
ENDBRANCH   4  30
TORSDOF 18
ENDMDL
MODEL 5
REMARK VINA RESULT:    -3.941      1.547      8.125
REMARK INTER + INTRA:          -8.409
REMARK INTER:                  -7.427
REMARK INTRA:                  -0.981
REMARK UNBOUND:                -1.588
REMARK SMILES OC[C@@H]1O[C@H](O[C@@H]2[C@H](O)[C@@H](O)[C@@H](O[C@H]3[C@H](O)[C@H](O)[C@@H](O)O[C@@H]3CO)O[C@H]2CO)[C@@H](O)[C@@H](O)[C@H]1O
REMARK SMILES IDX 7 1 26 2 25 3 12 4 10 5 8 6 6 7 5 8 3 9 33 10 4 11 31 12
REMARK SMILES IDX 29 13 2 14 1 15 34 17 32 19 30 21 27 23 28 24 9 26 11 28
REMARK SMILES IDX 13 30 14 31 22 32 15 33 21 34 17 35 19 36 23 37 24 38 16 40
REMARK SMILES IDX 18 42 20 44
REMARK H PARENT 1 16 34 18 32 20 30 22 28 25 9 27 11 29 24 39 16 41 18 43
REMARK H PARENT 20 45
REMARK Flexibility Score: inf
ROOT
ATOM      1  C   UNL     1      34.994 138.997 -31.275  1.00  0.00     0.184 C 
ATOM      2  C   UNL     1      34.870 137.468 -31.076  1.00  0.00     0.178 C 
ATOM      3  O   UNL     1      34.095 136.813 -32.085  1.00  0.00    -0.341 OA
ATOM      4  C   UNL     1      34.485 137.095 -33.430  1.00  0.00     0.282 C 
ATOM      5  C   UNL     1      34.521 138.622 -33.706  1.00  0.00     0.202 C 
ATOM      6  C   UNL     1      35.452 139.312 -32.706  1.00  0.00     0.180 C 
ENDROOT
BRANCH   1   7
ATOM      7  O   UNL     1      33.716 139.581 -31.050  1.00  0.00    -0.341 OA
BRANCH   7   8
ATOM      8  C   UNL     1      33.773 140.777 -30.288  1.00  0.00     0.282 C 
ATOM      9  C   UNL     1      31.783 140.359 -29.002  1.00  0.00     0.178 C 
ATOM     10  C   UNL     1      32.599 140.065 -27.721  1.00  0.00     0.177 C 
ATOM     11  O   UNL     1      32.460 141.203 -29.931  1.00  0.00    -0.341 OA
ATOM     12  C   UNL     1      34.029 139.606 -28.074  1.00  0.00     0.179 C 
ATOM     13  C   UNL     1      34.675 140.599 -29.051  1.00  0.00     0.202 C 
BRANCH   9  14
ATOM     14  C   UNL     1      31.191 139.087 -29.651  1.00  0.00     0.191 C 
BRANCH  14  15
ATOM     15  O   UNL     1      30.664 139.380 -30.920  1.00  0.00    -0.394 OA
ATOM     16  H   UNL     1      30.410 138.515 -31.341  1.00  0.00     0.210 HD
ENDBRANCH  14  15
ENDBRANCH   9  14
BRANCH  10  17
ATOM     17  O   UNL     1      32.634 141.225 -26.926  1.00  0.00    -0.387 OA
ATOM     18  H   UNL     1      32.097 141.038 -26.106  1.00  0.00     0.211 HD
ENDBRANCH  10  17
BRANCH  12  19
ATOM     19  O   UNL     1      34.821 139.494 -26.918  1.00  0.00    -0.387 OA
ATOM     20  H   UNL     1      35.756 139.383 -27.222  1.00  0.00     0.211 HD
ENDBRANCH  12  19
BRANCH  13  21
ATOM     21  O   UNL     1      34.868 141.849 -28.437  1.00  0.00    -0.385 OA
ATOM     22  H   UNL     1      35.829 142.082 -28.532  1.00  0.00     0.211 HD
ENDBRANCH  13  21
ENDBRANCH   7   8
ENDBRANCH   1   7
BRANCH   2  23
ATOM     23  C   UNL     1      36.235 136.802 -30.823  1.00  0.00     0.191 C 
BRANCH  23  24
ATOM     24  O   UNL     1      36.111 135.760 -29.894  1.00  0.00    -0.394 OA
ATOM     25  H   UNL     1      35.146 135.736 -29.643  1.00  0.00     0.210 HD
ENDBRANCH  23  24
ENDBRANCH   2  23
BRANCH   6  26
ATOM     26  O   UNL     1      35.431 140.703 -32.906  1.00  0.00    -0.387 OA
ATOM     27  H   UNL     1      34.487 140.990 -32.802  1.00  0.00     0.211 HD
ENDBRANCH   6  26
BRANCH   5  28
ATOM     28  O   UNL     1      34.956 138.892 -35.011  1.00  0.00    -0.385 OA
ATOM     29  H   UNL     1      34.326 139.570 -35.386  1.00  0.00     0.211 HD
ENDBRANCH   5  28
BRANCH   4  30
ATOM     30  O   UNL     1      35.744 136.481 -33.712  1.00  0.00    -0.341 OA
BRANCH  30  31
ATOM     31  C   UNL     1      35.697 135.397 -34.645  1.00  0.00     0.184 C 
ATOM     32  C   UNL     1      37.117 134.743 -34.735  1.00  0.00     0.178 C 
ATOM     33  C   UNL     1      35.279 135.984 -36.020  1.00  0.00     0.180 C 
ATOM     34  O   UNL     1      37.248 133.879 -35.862  1.00  0.00    -0.342 OA
ATOM     35  C   UNL     1      35.569 135.005 -37.171  1.00  0.00     0.201 C 
ATOM     36  C   UNL     1      37.026 134.543 -37.092  1.00  0.00     0.279 C 
BRANCH  32  37
ATOM     37  C   UNL     1      37.430 133.877 -33.502  1.00  0.00     0.191 C 
BRANCH  37  38
ATOM     38  O   UNL     1      36.513 134.110 -32.472  1.00  0.00    -0.394 OA
ATOM     39  H   UNL     1      37.027 134.069 -31.624  1.00  0.00     0.210 HD
ENDBRANCH  37  38
ENDBRANCH  32  37
BRANCH  33  40
ATOM     40  O   UNL     1      33.904 136.296 -36.002  1.00  0.00    -0.387 OA
ATOM     41  H   UNL     1      33.450 135.495 -35.639  1.00  0.00     0.211 HD
ENDBRANCH  33  40
BRANCH  35  42
ATOM     42  O   UNL     1      34.728 133.876 -37.085  1.00  0.00    -0.385 OA
ATOM     43  H   UNL     1      33.915 134.164 -36.588  1.00  0.00     0.211 HD
ENDBRANCH  35  42
BRANCH  36  44
ATOM     44  O   UNL     1      37.925 135.617 -37.262  1.00  0.00    -0.366 OA
ATOM     45  H   UNL     1      38.813 135.294 -36.952  1.00  0.00     0.213 HD
ENDBRANCH  36  44
ENDBRANCH  30  31
ENDBRANCH   4  30
TORSDOF 18
ENDMDL
MODEL 6
REMARK VINA RESULT:    -3.559      2.044      8.121
REMARK INTER + INTRA:          -7.748
REMARK INTER:                  -5.687
REMARK INTRA:                  -2.061
REMARK UNBOUND:                -1.588
REMARK SMILES OC[C@@H]1O[C@H](O[C@@H]2[C@H](O)[C@@H](O)[C@@H](O[C@H]3[C@H](O)[C@H](O)[C@@H](O)O[C@@H]3CO)O[C@H]2CO)[C@@H](O)[C@@H](O)[C@H]1O
REMARK SMILES IDX 7 1 26 2 25 3 12 4 10 5 8 6 6 7 5 8 3 9 33 10 4 11 31 12
REMARK SMILES IDX 29 13 2 14 1 15 34 17 32 19 30 21 27 23 28 24 9 26 11 28
REMARK SMILES IDX 13 30 14 31 22 32 15 33 21 34 17 35 19 36 23 37 24 38 16 40
REMARK SMILES IDX 18 42 20 44
REMARK H PARENT 1 16 34 18 32 20 30 22 28 25 9 27 11 29 24 39 16 41 18 43
REMARK H PARENT 20 45
REMARK Flexibility Score: inf
ROOT
ATOM      1  C   UNL     1      34.361 135.720 -31.788  1.00  0.00     0.184 C 
ATOM      2  C   UNL     1      34.133 135.959 -33.300  1.00  0.00     0.178 C 
ATOM      3  O   UNL     1      35.312 136.353 -34.008  1.00  0.00    -0.341 OA
ATOM      4  C   UNL     1      36.447 135.506 -33.819  1.00  0.00     0.282 C 
ATOM      5  C   UNL     1      36.777 135.322 -32.314  1.00  0.00     0.202 C 
ATOM      6  C   UNL     1      35.553 134.778 -31.572  1.00  0.00     0.180 C 
ENDROOT
BRANCH   1   7
ATOM      7  O   UNL     1      34.633 136.974 -31.175  1.00  0.00    -0.341 OA
BRANCH   7   8
ATOM      8  C   UNL     1      33.555 137.892 -31.272  1.00  0.00     0.282 C 
ATOM      9  C   UNL     1      33.297 138.240 -28.906  1.00  0.00     0.178 C 
ATOM     10  C   UNL     1      33.894 139.664 -28.988  1.00  0.00     0.177 C 
ATOM     11  O   UNL     1      32.712 137.792 -30.127  1.00  0.00    -0.341 OA
ATOM     12  C   UNL     1      34.809 139.806 -30.223  1.00  0.00     0.179 C 
ATOM     13  C   UNL     1      34.071 139.328 -31.482  1.00  0.00     0.202 C 
BRANCH   9  14
ATOM     14  C   UNL     1      34.264 137.210 -28.279  1.00  0.00     0.191 C 
BRANCH  14  15
ATOM     15  O   UNL     1      33.748 135.910 -28.400  1.00  0.00    -0.394 OA
ATOM     16  H   UNL     1      32.894 135.883 -27.892  1.00  0.00     0.210 HD
ENDBRANCH  14  15
ENDBRANCH   9  14
BRANCH  10  17
ATOM     17  O   UNL     1      32.842 140.597 -29.043  1.00  0.00    -0.387 OA
ATOM     18  H   UNL     1      32.479 140.580 -29.972  1.00  0.00     0.211 HD
ENDBRANCH  10  17
BRANCH  12  19
ATOM     19  O   UNL     1      35.223 141.138 -30.392  1.00  0.00    -0.387 OA
ATOM     20  H   UNL     1      34.404 141.692 -30.417  1.00  0.00     0.211 HD
ENDBRANCH  12  19
BRANCH  13  21
ATOM     21  O   UNL     1      32.984 140.172 -31.774  1.00  0.00    -0.385 OA
ATOM     22  H   UNL     1      33.013 140.368 -32.748  1.00  0.00     0.211 HD
ENDBRANCH  13  21
ENDBRANCH   7   8
ENDBRANCH   1   7
BRANCH   2  23
ATOM     23  C   UNL     1      33.377 134.794 -33.965  1.00  0.00     0.191 C 
BRANCH  23  24
ATOM     24  O   UNL     1      32.617 134.095 -33.018  1.00  0.00    -0.394 OA
ATOM     25  H   UNL     1      32.898 134.451 -32.130  1.00  0.00     0.210 HD
ENDBRANCH  23  24
ENDBRANCH   2  23
BRANCH   6  26
ATOM     26  O   UNL     1      35.825 134.679 -30.197  1.00  0.00    -0.387 OA
ATOM     27  H   UNL     1      35.829 135.605 -29.841  1.00  0.00     0.211 HD
ENDBRANCH   6  26
BRANCH   5  28
ATOM     28  O   UNL     1      37.858 134.447 -32.134  1.00  0.00    -0.385 OA
ATOM     29  H   UNL     1      38.294 134.347 -33.027  1.00  0.00     0.211 HD
ENDBRANCH   5  28
BRANCH   4  30
ATOM     30  O   UNL     1      36.232 134.250 -34.466  1.00  0.00    -0.341 OA
BRANCH  30  31
ATOM     31  C   UNL     1      36.728 134.163 -35.805  1.00  0.00     0.184 C 
ATOM     32  C   UNL     1      38.159 134.798 -35.859  1.00  0.00     0.178 C 
ATOM     33  C   UNL     1      35.749 134.948 -36.717  1.00  0.00     0.180 C 
ATOM     34  O   UNL     1      38.594 135.048 -37.194  1.00  0.00    -0.342 OA
ATOM     35  C   UNL     1      36.370 135.255 -38.091  1.00  0.00     0.201 C 
ATOM     36  C   UNL     1      37.732 135.922 -37.898  1.00  0.00     0.279 C 
BRANCH  32  37
ATOM     37  C   UNL     1      39.221 133.875 -35.235  1.00  0.00     0.191 C 
BRANCH  37  38
ATOM     38  O   UNL     1      39.804 134.462 -34.108  1.00  0.00    -0.394 OA
ATOM     39  H   UNL     1      40.784 134.457 -34.264  1.00  0.00     0.210 HD
ENDBRANCH  37  38
ENDBRANCH  32  37
BRANCH  33  40
ATOM     40  O   UNL     1      34.565 134.203 -36.891  1.00  0.00    -0.387 OA
ATOM     41  H   UNL     1      33.850 134.867 -37.052  1.00  0.00     0.211 HD
ENDBRANCH  33  40
BRANCH  35  42
ATOM     42  O   UNL     1      36.544 134.067 -38.832  1.00  0.00    -0.385 OA
ATOM     43  H   UNL     1      35.760 133.488 -38.631  1.00  0.00     0.211 HD
ENDBRANCH  35  42
BRANCH  36  44
ATOM     44  O   UNL     1      37.617 137.165 -37.239  1.00  0.00    -0.366 OA
ATOM     45  H   UNL     1      36.876 137.070 -36.584  1.00  0.00     0.213 HD
ENDBRANCH  36  44
ENDBRANCH  30  31
ENDBRANCH   4  30
TORSDOF 18
ENDMDL
MODEL 7
REMARK VINA RESULT:    -3.522      2.002      4.130
REMARK INTER + INTRA:          -7.683
REMARK INTER:                  -6.246
REMARK INTRA:                  -1.437
REMARK UNBOUND:                -1.588
REMARK SMILES OC[C@@H]1O[C@H](O[C@@H]2[C@H](O)[C@@H](O)[C@@H](O[C@H]3[C@H](O)[C@H](O)[C@@H](O)O[C@@H]3CO)O[C@H]2CO)[C@@H](O)[C@@H](O)[C@H]1O
REMARK SMILES IDX 7 1 26 2 25 3 12 4 10 5 8 6 6 7 5 8 3 9 33 10 4 11 31 12
REMARK SMILES IDX 29 13 2 14 1 15 34 17 32 19 30 21 27 23 28 24 9 26 11 28
REMARK SMILES IDX 13 30 14 31 22 32 15 33 21 34 17 35 19 36 23 37 24 38 16 40
REMARK SMILES IDX 18 42 20 44
REMARK H PARENT 1 16 34 18 32 20 30 22 28 25 9 27 11 29 24 39 16 41 18 43
REMARK H PARENT 20 45
REMARK Flexibility Score: inf
ROOT
ATOM      1  C   UNL     1      35.188 135.539 -34.128  1.00  0.00     0.184 C 
ATOM      2  C   UNL     1      35.706 135.241 -32.701  1.00  0.00     0.178 C 
ATOM      3  O   UNL     1      36.223 136.389 -32.021  1.00  0.00    -0.341 OA
ATOM      4  C   UNL     1      35.353 137.522 -31.992  1.00  0.00     0.282 C 
ATOM      5  C   UNL     1      34.890 137.923 -33.418  1.00  0.00     0.202 C 
ATOM      6  C   UNL     1      34.220 136.730 -34.105  1.00  0.00     0.180 C 
ENDROOT
BRANCH   1   7
ATOM      7  O   UNL     1      36.305 135.855 -34.951  1.00  0.00    -0.341 OA
BRANCH   7   8
ATOM      8  C   UNL     1      37.114 134.729 -35.254  1.00  0.00     0.282 C 
ATOM      9  C   UNL     1      36.342 134.457 -37.516  1.00  0.00     0.178 C 
ATOM     10  C   UNL     1      37.677 134.977 -38.099  1.00  0.00     0.177 C 
ATOM     11  O   UNL     1      36.467 133.895 -36.212  1.00  0.00    -0.341 OA
ATOM     12  C   UNL     1      38.406 135.881 -37.082  1.00  0.00     0.179 C 
ATOM     13  C   UNL     1      38.513 135.167 -35.727  1.00  0.00     0.202 C 
BRANCH   9  14
ATOM     14  C   UNL     1      35.188 135.480 -37.632  1.00  0.00     0.191 C 
BRANCH  14  15
ATOM     15  O   UNL     1      33.951 134.857 -37.398  1.00  0.00    -0.394 OA
ATOM     16  H   UNL     1      34.112 133.876 -37.386  1.00  0.00     0.210 HD
ENDBRANCH  14  15
ENDBRANCH   9  14
BRANCH  10  17
ATOM     17  O   UNL     1      38.481 133.877 -38.448  1.00  0.00    -0.387 OA
ATOM     18  H   UNL     1      37.997 133.370 -39.159  1.00  0.00     0.211 HD
ENDBRANCH  10  17
BRANCH  12  19
ATOM     19  O   UNL     1      39.689 136.223 -37.542  1.00  0.00    -0.387 OA
ATOM     20  H   UNL     1      39.567 136.716 -38.391  1.00  0.00     0.211 HD
ENDBRANCH  12  19
BRANCH  13  21
ATOM     21  O   UNL     1      39.344 134.037 -35.822  1.00  0.00    -0.385 OA
ATOM     22  H   UNL     1      39.088 133.548 -36.649  1.00  0.00     0.211 HD
ENDBRANCH  13  21
ENDBRANCH   7   8
ENDBRANCH   1   7
BRANCH   2  23
ATOM     23  C   UNL     1      34.687 134.441 -31.868  1.00  0.00     0.191 C 
BRANCH  23  24
ATOM     24  O   UNL     1      35.055 134.430 -30.516  1.00  0.00    -0.394 OA
ATOM     25  H   UNL     1      35.512 133.556 -30.367  1.00  0.00     0.210 HD
ENDBRANCH  23  24
ENDBRANCH   2  23
BRANCH   6  26
ATOM     26  O   UNL     1      33.866 137.067 -35.423  1.00  0.00    -0.387 OA
ATOM     27  H   UNL     1      34.607 137.616 -35.785  1.00  0.00     0.211 HD
ENDBRANCH   6  26
BRANCH   5  28
ATOM     28  O   UNL     1      33.995 139.001 -33.378  1.00  0.00    -0.385 OA
ATOM     29  H   UNL     1      34.414 139.697 -32.796  1.00  0.00     0.211 HD
ENDBRANCH   5  28
BRANCH   4  30
ATOM     30  O   UNL     1      34.241 137.262 -31.134  1.00  0.00    -0.341 OA
BRANCH  30  31
ATOM     31  C   UNL     1      34.110 138.151 -30.021  1.00  0.00     0.184 C 
ATOM     32  C   UNL     1      33.197 139.354 -30.437  1.00  0.00     0.178 C 
ATOM     33  C   UNL     1      35.533 138.647 -29.651  1.00  0.00     0.180 C 
ATOM     34  O   UNL     1      33.274 140.440 -29.515  1.00  0.00    -0.342 OA
ATOM     35  C   UNL     1      35.487 139.888 -28.742  1.00  0.00     0.201 C 
ATOM     36  C   UNL     1      34.586 140.951 -29.375  1.00  0.00     0.279 C 
BRANCH  32  37
ATOM     37  C   UNL     1      31.713 138.956 -30.497  1.00  0.00     0.191 C 
BRANCH  37  38
ATOM     38  O   UNL     1      30.966 139.889 -31.224  1.00  0.00    -0.394 OA
ATOM     39  H   UNL     1      30.045 139.523 -31.286  1.00  0.00     0.210 HD
ENDBRANCH  37  38
ENDBRANCH  32  37
BRANCH  33  40
ATOM     40  O   UNL     1      36.240 137.615 -29.004  1.00  0.00    -0.387 OA
ATOM     41  H   UNL     1      37.169 137.672 -29.339  1.00  0.00     0.211 HD
ENDBRANCH  33  40
BRANCH  35  42
ATOM     42  O   UNL     1      34.973 139.552 -27.472  1.00  0.00    -0.385 OA
ATOM     43  H   UNL     1      34.857 138.563 -27.464  1.00  0.00     0.211 HD
ENDBRANCH  35  42
BRANCH  36  44
ATOM     44  O   UNL     1      35.094 141.397 -30.613  1.00  0.00    -0.366 OA
ATOM     45  H   UNL     1      34.377 141.244 -31.285  1.00  0.00     0.213 HD
ENDBRANCH  36  44
ENDBRANCH  30  31
ENDBRANCH   4  30
TORSDOF 18
ENDMDL
MODEL 8
REMARK VINA RESULT:    -3.423      1.465      7.882
REMARK INTER + INTRA:          -7.512
REMARK INTER:                  -6.667
REMARK INTRA:                  -0.845
REMARK UNBOUND:                -1.588
REMARK SMILES OC[C@@H]1O[C@H](O[C@@H]2[C@H](O)[C@@H](O)[C@@H](O[C@H]3[C@H](O)[C@H](O)[C@@H](O)O[C@@H]3CO)O[C@H]2CO)[C@@H](O)[C@@H](O)[C@H]1O
REMARK SMILES IDX 7 1 26 2 25 3 12 4 10 5 8 6 6 7 5 8 3 9 33 10 4 11 31 12
REMARK SMILES IDX 29 13 2 14 1 15 34 17 32 19 30 21 27 23 28 24 9 26 11 28
REMARK SMILES IDX 13 30 14 31 22 32 15 33 21 34 17 35 19 36 23 37 24 38 16 40
REMARK SMILES IDX 18 42 20 44
REMARK H PARENT 1 16 34 18 32 20 30 22 28 25 9 27 11 29 24 39 16 41 18 43
REMARK H PARENT 20 45
REMARK Flexibility Score: inf
ROOT
ATOM      1  C   UNL     1      34.801 139.248 -30.209  1.00  0.00     0.184 C 
ATOM      2  C   UNL     1      34.546 137.723 -30.241  1.00  0.00     0.178 C 
ATOM      3  O   UNL     1      33.647 137.307 -31.273  1.00  0.00    -0.341 OA
ATOM      4  C   UNL     1      33.971 137.770 -32.585  1.00  0.00     0.282 C 
ATOM      5  C   UNL     1      34.132 139.313 -32.622  1.00  0.00     0.202 C 
ATOM      6  C   UNL     1      35.189 139.753 -31.605  1.00  0.00     0.180 C 
ENDROOT
BRANCH   1   7
ATOM      7  O   UNL     1      33.601 139.891 -29.792  1.00  0.00    -0.341 OA
BRANCH   7   8
ATOM      8  C   UNL     1      32.520 138.991 -29.603  1.00  0.00     0.282 C 
ATOM      9  C   UNL     1      32.588 139.005 -27.198  1.00  0.00     0.178 C 
ATOM     10  C   UNL     1      31.290 139.839 -27.105  1.00  0.00     0.177 C 
ATOM     11  O   UNL     1      32.697 138.245 -28.401  1.00  0.00    -0.341 OA
ATOM     12  C   UNL     1      31.067 140.655 -28.396  1.00  0.00     0.179 C 
ATOM     13  C   UNL     1      31.173 139.737 -29.623  1.00  0.00     0.202 C 
BRANCH   9  14
ATOM     14  C   UNL     1      33.861 139.821 -26.875  1.00  0.00     0.191 C 
BRANCH  14  15
ATOM     15  O   UNL     1      35.009 139.026 -27.021  1.00  0.00    -0.394 OA
ATOM     16  H   UNL     1      34.736 138.197 -27.499  1.00  0.00     0.210 HD
ENDBRANCH  14  15
ENDBRANCH   9  14
BRANCH  10  17
ATOM     17  O   UNL     1      30.206 138.971 -26.875  1.00  0.00    -0.387 OA
ATOM     18  H   UNL     1      29.749 139.283 -26.044  1.00  0.00     0.211 HD
ENDBRANCH  10  17
BRANCH  12  19
ATOM     19  O   UNL     1      29.811 141.286 -28.382  1.00  0.00    -0.387 OA
ATOM     20  H   UNL     1      29.707 141.735 -29.257  1.00  0.00     0.211 HD
ENDBRANCH  12  19
BRANCH  13  21
ATOM     21  O   UNL     1      30.125 138.799 -29.637  1.00  0.00    -0.385 OA
ATOM     22  H   UNL     1      30.304 138.164 -30.380  1.00  0.00     0.211 HD
ENDBRANCH  13  21
ENDBRANCH   7   8
ENDBRANCH   1   7
BRANCH   2  23
ATOM     23  C   UNL     1      35.857 136.914 -30.206  1.00  0.00     0.191 C 
BRANCH  23  24
ATOM     24  O   UNL     1      36.573 137.187 -29.032  1.00  0.00    -0.394 OA
ATOM     25  H   UNL     1      37.496 136.843 -29.193  1.00  0.00     0.210 HD
ENDBRANCH  23  24
ENDBRANCH   2  23
BRANCH   6  26
ATOM     26  O   UNL     1      35.285 141.155 -31.583  1.00  0.00    -0.387 OA
ATOM     27  H   UNL     1      36.253 141.373 -31.597  1.00  0.00     0.211 HD
ENDBRANCH   6  26
BRANCH   5  28
ATOM     28  O   UNL     1      34.503 139.756 -33.899  1.00  0.00    -0.385 OA
ATOM     29  H   UNL     1      35.187 140.471 -33.766  1.00  0.00     0.211 HD
ENDBRANCH   5  28
BRANCH   4  30
ATOM     30  O   UNL     1      35.145 137.109 -33.061  1.00  0.00    -0.341 OA
BRANCH  30  31
ATOM     31  C   UNL     1      34.916 136.098 -34.046  1.00  0.00     0.184 C 
ATOM     32  C   UNL     1      35.715 134.811 -33.649  1.00  0.00     0.178 C 
ATOM     33  C   UNL     1      35.415 136.652 -35.407  1.00  0.00     0.180 C 
ATOM     34  O   UNL     1      35.811 133.875 -34.721  1.00  0.00    -0.342 OA
ATOM     35  C   UNL     1      35.584 135.534 -36.452  1.00  0.00     0.201 C 
ATOM     36  C   UNL     1      36.445 134.414 -35.866  1.00  0.00     0.279 C 
BRANCH  32  37
ATOM     37  C   UNL     1      35.048 134.055 -32.487  1.00  0.00     0.191 C 
BRANCH  37  38
ATOM     38  O   UNL     1      33.738 134.500 -32.278  1.00  0.00    -0.394 OA
ATOM     39  H   UNL     1      33.773 135.114 -31.497  1.00  0.00     0.210 HD
ENDBRANCH  37  38
ENDBRANCH  32  37
BRANCH  33  40
ATOM     40  O   UNL     1      34.505 137.613 -35.889  1.00  0.00    -0.387 OA
ATOM     41  H   UNL     1      34.169 138.091 -35.091  1.00  0.00     0.211 HD
ENDBRANCH  33  40
BRANCH  35  42
ATOM     42  O   UNL     1      34.329 135.002 -36.814  1.00  0.00    -0.385 OA
ATOM     43  H   UNL     1      33.673 135.748 -36.746  1.00  0.00     0.211 HD
ENDBRANCH  35  42
BRANCH  36  44
ATOM     44  O   UNL     1      37.749 134.860 -35.563  1.00  0.00    -0.366 OA
ATOM     45  H   UNL     1      37.684 135.365 -34.709  1.00  0.00     0.213 HD
ENDBRANCH  36  44
ENDBRANCH  30  31
ENDBRANCH   4  30
TORSDOF 18
ENDMDL
MODEL 9
REMARK VINA RESULT:    -3.180      8.884     12.772
REMARK INTER + INTRA:          -7.091
REMARK INTER:                  -4.831
REMARK INTRA:                  -2.259
REMARK UNBOUND:                -1.588
REMARK SMILES OC[C@@H]1O[C@H](O[C@@H]2[C@H](O)[C@@H](O)[C@@H](O[C@H]3[C@H](O)[C@H](O)[C@@H](O)O[C@@H]3CO)O[C@H]2CO)[C@@H](O)[C@@H](O)[C@H]1O
REMARK SMILES IDX 7 1 26 2 25 3 12 4 10 5 8 6 6 7 5 8 3 9 33 10 4 11 31 12
REMARK SMILES IDX 29 13 2 14 1 15 34 17 32 19 30 21 27 23 28 24 9 26 11 28
REMARK SMILES IDX 13 30 14 31 22 32 15 33 21 34 17 35 19 36 23 37 24 38 16 40
REMARK SMILES IDX 18 42 20 44
REMARK H PARENT 1 16 34 18 32 20 30 22 28 25 9 27 11 29 24 39 16 41 18 43
REMARK H PARENT 20 45
REMARK Flexibility Score: inf
ROOT
ATOM      1  C   UNL     1      37.654 138.480 -44.277  1.00  0.00     0.184 C 
ATOM      2  C   UNL     1      38.124 139.110 -42.944  1.00  0.00     0.178 C 
ATOM      3  O   UNL     1      37.622 138.447 -41.780  1.00  0.00    -0.341 OA
ATOM      4  C   UNL     1      37.833 137.034 -41.747  1.00  0.00     0.282 C 
ATOM      5  C   UNL     1      37.280 136.344 -43.023  1.00  0.00     0.202 C 
ATOM      6  C   UNL     1      37.912 136.968 -44.270  1.00  0.00     0.180 C 
ENDROOT
BRANCH   1   7
ATOM      7  O   UNL     1      36.258 138.720 -44.415  1.00  0.00    -0.341 OA
BRANCH   7   8
ATOM      8  C   UNL     1      35.943 139.597 -45.485  1.00  0.00     0.282 C 
ATOM      9  C   UNL     1      34.054 140.638 -44.420  1.00  0.00     0.178 C 
ATOM     10  C   UNL     1      34.829 141.956 -44.194  1.00  0.00     0.177 C 
ATOM     11  O   UNL     1      34.543 139.865 -45.514  1.00  0.00    -0.341 OA
ATOM     12  C   UNL     1      36.351 141.701 -44.163  1.00  0.00     0.179 C 
ATOM     13  C   UNL     1      36.774 140.892 -45.398  1.00  0.00     0.202 C 
BRANCH   9  14
ATOM     14  C   UNL     1      33.866 139.813 -43.126  1.00  0.00     0.191 C 
BRANCH  14  15
ATOM     15  O   UNL     1      33.315 138.554 -43.417  1.00  0.00    -0.394 OA
ATOM     16  H   UNL     1      33.363 138.011 -42.586  1.00  0.00     0.210 HD
ENDBRANCH  14  15
ENDBRANCH   9  14
BRANCH  10  17
ATOM     17  O   UNL     1      34.500 142.860 -45.221  1.00  0.00    -0.387 OA
ATOM     18  H   UNL     1      34.555 143.779 -44.835  1.00  0.00     0.211 HD
ENDBRANCH  10  17
BRANCH  12  19
ATOM     19  O   UNL     1      37.064 142.910 -44.121  1.00  0.00    -0.387 OA
ATOM     20  H   UNL     1      37.543 142.991 -44.983  1.00  0.00     0.211 HD
ENDBRANCH  12  19
BRANCH  13  21
ATOM     21  O   UNL     1      36.586 141.641 -46.574  1.00  0.00    -0.385 OA
ATOM     22  H   UNL     1      37.199 142.422 -46.531  1.00  0.00     0.211 HD
ENDBRANCH  13  21
ENDBRANCH   7   8
ENDBRANCH   1   7
BRANCH   2  23
ATOM     23  C   UNL     1      39.647 139.336 -42.913  1.00  0.00     0.191 C 
BRANCH  23  24
ATOM     24  O   UNL     1      40.062 139.725 -41.633  1.00  0.00    -0.394 OA
ATOM     25  H   UNL     1      41.018 139.449 -41.563  1.00  0.00     0.210 HD
ENDBRANCH  23  24
ENDBRANCH   2  23
BRANCH   6  26
ATOM     26  O   UNL     1      37.360 136.396 -45.430  1.00  0.00    -0.387 OA
ATOM     27  H   UNL     1      36.552 135.897 -45.143  1.00  0.00     0.211 HD
ENDBRANCH   6  26
BRANCH   5  28
ATOM     28  O   UNL     1      37.538 134.966 -43.009  1.00  0.00    -0.385 OA
ATOM     29  H   UNL     1      36.655 134.510 -43.108  1.00  0.00     0.211 HD
ENDBRANCH   5  28
BRANCH   4  30
ATOM     30  O   UNL     1      39.221 136.752 -41.559  1.00  0.00    -0.341 OA
BRANCH  30  31
ATOM     31  C   UNL     1      39.583 136.333 -40.240  1.00  0.00     0.184 C 
ATOM     32  C   UNL     1      39.163 134.836 -40.049  1.00  0.00     0.178 C 
ATOM     33  C   UNL     1      38.825 137.244 -39.237  1.00  0.00     0.180 C 
ATOM     34  O   UNL     1      39.186 134.434 -38.681  1.00  0.00    -0.342 OA
ATOM     35  C   UNL     1      38.824 136.652 -37.817  1.00  0.00     0.201 C 
ATOM     36  C   UNL     1      38.324 135.207 -37.866  1.00  0.00     0.279 C 
BRANCH  32  37
ATOM     37  C   UNL     1      40.111 133.875 -40.786  1.00  0.00     0.191 C 
BRANCH  37  38
ATOM     38  O   UNL     1      39.895 133.909 -42.168  1.00  0.00    -0.394 OA
ATOM     39  H   UNL     1      39.843 134.868 -42.420  1.00  0.00     0.210 HD
ENDBRANCH  37  38
ENDBRANCH  32  37
BRANCH  33  40
ATOM     40  O   UNL     1      39.421 138.521 -39.215  1.00  0.00    -0.387 OA
ATOM     41  H   UNL     1      38.857 139.092 -39.792  1.00  0.00     0.211 HD
ENDBRANCH  33  40
BRANCH  35  42
ATOM     42  O   UNL     1      40.125 136.667 -37.273  1.00  0.00    -0.385 OA
ATOM     43  H   UNL     1      40.570 135.829 -37.578  1.00  0.00     0.211 HD
ENDBRANCH  35  42
BRANCH  36  44
ATOM     44  O   UNL     1      36.990 135.130 -38.319  1.00  0.00    -0.366 OA
ATOM     45  H   UNL     1      36.924 134.301 -38.865  1.00  0.00     0.213 HD
ENDBRANCH  36  44
ENDBRANCH  30  31
ENDBRANCH   4  30
TORSDOF 18
ENDMDL
