MODEL 1
REMARK VINA RESULT:    -6.527      0.000      0.000
REMARK INTER + INTRA:          -8.787
REMARK INTER:                  -8.244
REMARK INTRA:                  -0.543
REMARK UNBOUND:                -0.543
REMARK SMILES Oc1ccc(CCc2cc(O)cc(O)c2)cc1
REMARK SMILES IDX 6 1 5 2 4 3 3 4 2 5 16 6 17 7 1 8 7 10 8 11 15 12 9 13 13 14
REMARK SMILES IDX 10 15 12 16 14 17 11 19
REMARK H PARENT 1 9 14 18 11 20
REMARK Flexibility Score: inf
ROOT
ATOM      1  C   UNL     1     371.359 244.347 276.635  1.00  0.00     0.040 C 
ENDROOT
BRANCH   1   2
ATOM      2  C   UNL     1     372.285 243.173 276.476  1.00  0.00    -0.047 A 
ATOM      3  C   UNL     1     371.778 241.911 276.124  1.00  0.00     0.007 A 
ATOM      4  C   UNL     1     372.636 240.813 276.009  1.00  0.00     0.046 A 
ATOM      5  C   UNL     1     374.007 240.963 276.255  1.00  0.00     0.115 A 
ATOM      6  C   UNL     1     373.659 243.314 276.734  1.00  0.00     0.007 A 
ATOM      7  C   UNL     1     374.515 242.214 276.618  1.00  0.00     0.046 A 
BRANCH   5   8
ATOM      8  O   UNL     1     374.871 239.875 276.143  1.00  0.00    -0.508 OA
ATOM      9  H   UNL     1     374.728 239.155 275.445  1.00  0.00     0.293 HD
ENDBRANCH   5   8
ENDBRANCH   1   2
BRANCH   1  10
ATOM     10  C   UNL     1     370.495 244.186 277.889  1.00  0.00     0.040 C 
BRANCH  10  11
ATOM     11  C   UNL     1     369.065 243.904 277.514  1.00  0.00    -0.040 A 
ATOM     12  C   UNL     1     368.249 244.930 277.010  1.00  0.00     0.050 A 
ATOM     13  C   UNL     1     368.552 242.600 277.612  1.00  0.00     0.050 A 
ATOM     14  C   UNL     1     366.927 244.661 276.630  1.00  0.00     0.119 A 
ATOM     15  C   UNL     1     367.232 242.329 277.234  1.00  0.00     0.119 A 
ATOM     16  C   UNL     1     366.421 243.363 276.745  1.00  0.00     0.092 A 
BRANCH  14  17
ATOM     17  O   UNL     1     366.110 245.675 276.135  1.00  0.00    -0.508 OA
ATOM     18  H   UNL     1     366.403 246.262 275.362  1.00  0.00     0.293 HD
ENDBRANCH  14  17
BRANCH  15  19
ATOM     19  O   UNL     1     366.739 241.032 277.344  1.00  0.00    -0.508 OA
ATOM     20  H   UNL     1     366.247 240.584 276.579  1.00  0.00     0.293 HD
ENDBRANCH  15  19
ENDBRANCH  10  11
ENDBRANCH   1  10
TORSDOF 6
ENDMDL
MODEL 2
REMARK VINA RESULT:    -6.442      0.095      2.036
REMARK INTER + INTRA:          -8.679
REMARK INTER:                  -8.153
REMARK INTRA:                  -0.526
REMARK UNBOUND:                -0.543
REMARK SMILES Oc1ccc(CCc2cc(O)cc(O)c2)cc1
REMARK SMILES IDX 6 1 5 2 4 3 3 4 2 5 16 6 17 7 1 8 7 10 8 11 15 12 9 13 13 14
REMARK SMILES IDX 10 15 12 16 14 17 11 19
REMARK H PARENT 1 9 14 18 11 20
REMARK Flexibility Score: inf
ROOT
ATOM      1  C   UNL     1     371.371 244.346 276.623  1.00  0.00     0.040 C 
ENDROOT
BRANCH   1   2
ATOM      2  C   UNL     1     372.301 243.173 276.478  1.00  0.00    -0.047 A 
ATOM      3  C   UNL     1     371.799 241.908 276.134  1.00  0.00     0.007 A 
ATOM      4  C   UNL     1     372.660 240.811 276.031  1.00  0.00     0.046 A 
ATOM      5  C   UNL     1     374.030 240.967 276.282  1.00  0.00     0.115 A 
ATOM      6  C   UNL     1     373.673 243.320 276.742  1.00  0.00     0.007 A 
ATOM      7  C   UNL     1     374.532 242.222 276.638  1.00  0.00     0.046 A 
BRANCH   5   8
ATOM      8  O   UNL     1     374.897 239.881 276.183  1.00  0.00    -0.508 OA
ATOM      9  H   UNL     1     374.798 239.189 275.449  1.00  0.00     0.293 HD
ENDBRANCH   5   8
ENDBRANCH   1   2
BRANCH   1  10
ATOM     10  C   UNL     1     370.465 244.168 277.845  1.00  0.00     0.040 C 
BRANCH  10  11
ATOM     11  C   UNL     1     369.043 243.919 277.417  1.00  0.00    -0.040 A 
ATOM     12  C   UNL     1     368.493 242.629 277.504  1.00  0.00     0.050 A 
ATOM     13  C   UNL     1     368.238 244.984 276.982  1.00  0.00     0.050 A 
ATOM     14  C   UNL     1     367.159 242.403 277.138  1.00  0.00     0.119 A 
ATOM     15  C   UNL     1     366.907 244.761 276.614  1.00  0.00     0.119 A 
ATOM     16  C   UNL     1     366.370 243.468 276.691  1.00  0.00     0.092 A 
BRANCH  14  17
ATOM     17  O   UNL     1     366.609 241.126 277.216  1.00  0.00    -0.508 OA
ATOM     18  H   UNL     1     365.731 240.899 276.763  1.00  0.00     0.293 HD
ENDBRANCH  14  17
BRANCH  15  19
ATOM     19  O   UNL     1     366.127 245.828 276.178  1.00  0.00    -0.508 OA
ATOM     20  H   UNL     1     365.198 245.685 275.799  1.00  0.00     0.293 HD
ENDBRANCH  15  19
ENDBRANCH  10  11
ENDBRANCH   1  10
TORSDOF 6
ENDMDL
MODEL 3
REMARK VINA RESULT:    -6.316      3.314      5.619
REMARK INTER + INTRA:          -8.520
REMARK INTER:                  -7.959
REMARK INTRA:                  -0.561
REMARK UNBOUND:                -0.543
REMARK SMILES Oc1ccc(CCc2cc(O)cc(O)c2)cc1
REMARK SMILES IDX 6 1 5 2 4 3 3 4 2 5 16 6 17 7 1 8 7 10 8 11 15 12 9 13 13 14
REMARK SMILES IDX 10 15 12 16 14 17 11 19
REMARK H PARENT 1 9 14 18 11 20
REMARK Flexibility Score: inf
ROOT
ATOM      1  C   UNL     1     367.131 245.840 276.569  1.00  0.00     0.040 C 
ENDROOT
BRANCH   1   2
ATOM      2  C   UNL     1     367.885 244.626 277.038  1.00  0.00    -0.047 A 
ATOM      3  C   UNL     1     367.298 243.353 276.961  1.00  0.00     0.007 A 
ATOM      4  C   UNL     1     367.987 242.229 277.427  1.00  0.00     0.046 A 
ATOM      5  C   UNL     1     369.264 242.369 277.986  1.00  0.00     0.115 A 
ATOM      6  C   UNL     1     369.161 244.762 277.612  1.00  0.00     0.007 A 
ATOM      7  C   UNL     1     369.847 243.636 278.077  1.00  0.00     0.046 A 
BRANCH   5   8
ATOM      8  O   UNL     1     369.960 241.256 278.455  1.00  0.00    -0.508 OA
ATOM      9  H   UNL     1     370.838 240.968 278.040  1.00  0.00     0.293 HD
ENDBRANCH   5   8
ENDBRANCH   1   2
BRANCH   1  10
ATOM     10  C   UNL     1     365.943 245.432 275.694  1.00  0.00     0.040 C 
BRANCH  10  11
ATOM     11  C   UNL     1     366.138 245.910 274.280  1.00  0.00    -0.040 A 
ATOM     12  C   UNL     1     366.819 245.108 273.349  1.00  0.00     0.050 A 
ATOM     13  C   UNL     1     365.591 247.136 273.866  1.00  0.00     0.050 A 
ATOM     14  C   UNL     1     366.972 245.538 272.024  1.00  0.00     0.119 A 
ATOM     15  C   UNL     1     365.744 247.568 272.544  1.00  0.00     0.119 A 
ATOM     16  C   UNL     1     366.437 246.767 271.625  1.00  0.00     0.092 A 
BRANCH  14  17
ATOM     17  O   UNL     1     367.652 244.752 271.096  1.00  0.00    -0.508 OA
ATOM     18  H   UNL     1     368.395 244.124 271.378  1.00  0.00     0.293 HD
ENDBRANCH  14  17
BRANCH  15  19
ATOM     19  O   UNL     1     365.202 248.789 272.154  1.00  0.00    -0.508 OA
ATOM     20  H   UNL     1     365.256 249.608 272.749  1.00  0.00     0.293 HD
ENDBRANCH  15  19
ENDBRANCH  10  11
ENDBRANCH   1  10
TORSDOF 6
ENDMDL
MODEL 4
REMARK VINA RESULT:    -6.294      3.302      5.301
REMARK INTER + INTRA:          -8.493
REMARK INTER:                  -7.923
REMARK INTRA:                  -0.569
REMARK UNBOUND:                -0.543
REMARK SMILES Oc1ccc(CCc2cc(O)cc(O)c2)cc1
REMARK SMILES IDX 6 1 5 2 4 3 3 4 2 5 16 6 17 7 1 8 7 10 8 11 15 12 9 13 13 14
REMARK SMILES IDX 10 15 12 16 14 17 11 19
REMARK H PARENT 1 9 14 18 11 20
REMARK Flexibility Score: inf
ROOT
ATOM      1  C   UNL     1     367.118 245.858 276.594  1.00  0.00     0.040 C 
ENDROOT
BRANCH   1   2
ATOM      2  C   UNL     1     367.870 244.641 277.059  1.00  0.00    -0.047 A 
ATOM      3  C   UNL     1     367.262 243.375 277.024  1.00  0.00     0.007 A 
ATOM      4  C   UNL     1     367.950 242.249 277.487  1.00  0.00     0.046 A 
ATOM      5  C   UNL     1     369.247 242.379 278.000  1.00  0.00     0.115 A 
ATOM      6  C   UNL     1     369.166 244.767 277.588  1.00  0.00     0.007 A 
ATOM      7  C   UNL     1     369.851 243.639 278.050  1.00  0.00     0.046 A 
BRANCH   5   8
ATOM      8  O   UNL     1     369.942 241.264 278.464  1.00  0.00    -0.508 OA
ATOM      9  H   UNL     1     369.981 240.404 277.930  1.00  0.00     0.293 HD
ENDBRANCH   5   8
ENDBRANCH   1   2
BRANCH   1  10
ATOM     10  C   UNL     1     365.897 245.452 275.765  1.00  0.00     0.040 C 
BRANCH  10  11
ATOM     11  C   UNL     1     366.055 245.899 274.336  1.00  0.00    -0.040 A 
ATOM     12  C   UNL     1     365.517 247.126 273.914  1.00  0.00     0.050 A 
ATOM     13  C   UNL     1     366.791 245.120 273.428  1.00  0.00     0.050 A 
ATOM     14  C   UNL     1     365.694 247.559 272.593  1.00  0.00     0.119 A 
ATOM     15  C   UNL     1     366.967 245.549 272.108  1.00  0.00     0.119 A 
ATOM     16  C   UNL     1     366.414 246.768 271.692  1.00  0.00     0.092 A 
BRANCH  14  17
ATOM     17  O   UNL     1     365.158 248.772 272.166  1.00  0.00    -0.508 OA
ATOM     18  H   UNL     1     364.602 249.352 272.783  1.00  0.00     0.293 HD
ENDBRANCH  14  17
BRANCH  15  19
ATOM     19  O   UNL     1     367.693 244.759 271.221  1.00  0.00    -0.508 OA
ATOM     20  H   UNL     1     368.703 244.692 271.275  1.00  0.00     0.293 HD
ENDBRANCH  15  19
ENDBRANCH  10  11
ENDBRANCH   1  10
TORSDOF 6
ENDMDL
MODEL 5
REMARK VINA RESULT:    -6.284      2.032      6.452
REMARK INTER + INTRA:          -8.480
REMARK INTER:                  -7.898
REMARK INTRA:                  -0.582
REMARK UNBOUND:                -0.543
REMARK SMILES Oc1ccc(CCc2cc(O)cc(O)c2)cc1
REMARK SMILES IDX 6 1 5 2 4 3 3 4 2 5 16 6 17 7 1 8 7 10 8 11 15 12 9 13 13 14
REMARK SMILES IDX 10 15 12 16 14 17 11 19
REMARK H PARENT 1 9 14 18 11 20
REMARK Flexibility Score: inf
ROOT
ATOM      1  C   UNL     1     368.494 243.551 277.385  1.00  0.00     0.040 C 
ENDROOT
BRANCH   1   2
ATOM      2  C   UNL     1     367.655 244.255 276.353  1.00  0.00    -0.047 A 
ATOM      3  C   UNL     1     367.445 243.674 275.092  1.00  0.00     0.007 A 
ATOM      4  C   UNL     1     366.693 244.344 274.123  1.00  0.00     0.046 A 
ATOM      5  C   UNL     1     366.153 245.607 274.401  1.00  0.00     0.115 A 
ATOM      6  C   UNL     1     367.123 245.528 276.621  1.00  0.00     0.007 A 
ATOM      7  C   UNL     1     366.371 246.196 275.650  1.00  0.00     0.046 A 
BRANCH   5   8
ATOM      8  O   UNL     1     365.403 246.284 273.442  1.00  0.00    -0.508 OA
ATOM      9  H   UNL     1     365.827 246.643 272.594  1.00  0.00     0.293 HD
ENDBRANCH   5   8
ENDBRANCH   1   2
BRANCH   1  10
ATOM     10  C   UNL     1     369.766 244.349 277.682  1.00  0.00     0.040 C 
BRANCH  10  11
ATOM     11  C   UNL     1     370.955 243.723 277.004  1.00  0.00    -0.040 A 
ATOM     12  C   UNL     1     372.221 244.325 277.096  1.00  0.00     0.050 A 
ATOM     13  C   UNL     1     370.819 242.502 276.323  1.00  0.00     0.050 A 
ATOM     14  C   UNL     1     373.335 243.725 276.494  1.00  0.00     0.119 A 
ATOM     15  C   UNL     1     371.930 241.902 275.719  1.00  0.00     0.119 A 
ATOM     16  C   UNL     1     373.187 242.517 275.804  1.00  0.00     0.092 A 
BRANCH  14  17
ATOM     17  O   UNL     1     374.592 244.319 276.575  1.00  0.00    -0.508 OA
ATOM     18  H   UNL     1     375.435 243.765 276.667  1.00  0.00     0.293 HD
ENDBRANCH  14  17
BRANCH  15  19
ATOM     19  O   UNL     1     371.774 240.696 275.041  1.00  0.00    -0.508 OA
ATOM     20  H   UNL     1     370.870 240.244 274.965  1.00  0.00     0.293 HD
ENDBRANCH  15  19
ENDBRANCH  10  11
ENDBRANCH   1  10
TORSDOF 6
ENDMDL
MODEL 6
REMARK VINA RESULT:    -6.282      2.076      6.632
REMARK INTER + INTRA:          -8.477
REMARK INTER:                  -7.915
REMARK INTRA:                  -0.562
REMARK UNBOUND:                -0.543
REMARK SMILES Oc1ccc(CCc2cc(O)cc(O)c2)cc1
REMARK SMILES IDX 6 1 5 2 4 3 3 4 2 5 16 6 17 7 1 8 7 10 8 11 15 12 9 13 13 14
REMARK SMILES IDX 10 15 12 16 14 17 11 19
REMARK H PARENT 1 9 14 18 11 20
REMARK Flexibility Score: inf
ROOT
ATOM      1  C   UNL     1     368.465 243.552 277.374  1.00  0.00     0.040 C 
ENDROOT
BRANCH   1   2
ATOM      2  C   UNL     1     367.621 244.259 276.350  1.00  0.00    -0.047 A 
ATOM      3  C   UNL     1     367.388 243.672 275.095  1.00  0.00     0.007 A 
ATOM      4  C   UNL     1     366.631 244.345 274.132  1.00  0.00     0.046 A 
ATOM      5  C   UNL     1     366.107 245.614 274.409  1.00  0.00     0.115 A 
ATOM      6  C   UNL     1     367.105 245.538 276.617  1.00  0.00     0.007 A 
ATOM      7  C   UNL     1     366.347 246.208 275.652  1.00  0.00     0.046 A 
BRANCH   5   8
ATOM      8  O   UNL     1     365.351 246.294 273.456  1.00  0.00    -0.508 OA
ATOM      9  H   UNL     1     365.600 247.228 273.151  1.00  0.00     0.293 HD
ENDBRANCH   5   8
ENDBRANCH   1   2
BRANCH   1  10
ATOM     10  C   UNL     1     369.734 244.354 277.674  1.00  0.00     0.040 C 
BRANCH  10  11
ATOM     11  C   UNL     1     370.929 243.724 277.009  1.00  0.00    -0.040 A 
ATOM     12  C   UNL     1     370.774 242.569 276.224  1.00  0.00     0.050 A 
ATOM     13  C   UNL     1     372.196 244.318 277.120  1.00  0.00     0.050 A 
ATOM     14  C   UNL     1     371.880 242.001 275.577  1.00  0.00     0.119 A 
ATOM     15  C   UNL     1     373.302 243.752 276.476  1.00  0.00     0.119 A 
ATOM     16  C   UNL     1     373.141 242.591 275.707  1.00  0.00     0.092 A 
BRANCH  14  17
ATOM     17  O   UNL     1     371.736 240.852 274.803  1.00  0.00    -0.508 OA
ATOM     18  H   UNL     1     372.079 239.953 275.120  1.00  0.00     0.293 HD
ENDBRANCH  14  17
BRANCH  15  19
ATOM     19  O   UNL     1     374.552 244.351 276.604  1.00  0.00    -0.508 OA
ATOM     20  H   UNL     1     374.669 245.355 276.528  1.00  0.00     0.293 HD
ENDBRANCH  15  19
ENDBRANCH  10  11
ENDBRANCH   1  10
TORSDOF 6
ENDMDL
MODEL 7
REMARK VINA RESULT:    -6.028      1.680      6.336
REMARK INTER + INTRA:          -8.157
REMARK INTER:                  -7.694
REMARK INTRA:                  -0.463
REMARK UNBOUND:                -0.543
REMARK SMILES Oc1ccc(CCc2cc(O)cc(O)c2)cc1
REMARK SMILES IDX 6 1 5 2 4 3 3 4 2 5 16 6 17 7 1 8 7 10 8 11 15 12 9 13 13 14
REMARK SMILES IDX 10 15 12 16 14 17 11 19
REMARK H PARENT 1 9 14 18 11 20
REMARK Flexibility Score: inf
ROOT
ATOM      1  C   UNL     1     369.802 241.289 276.659  1.00  0.00     0.040 C 
ENDROOT
BRANCH   1   2
ATOM      2  C   UNL     1     369.147 242.640 276.752  1.00  0.00    -0.047 A 
ATOM      3  C   UNL     1     368.053 242.956 275.930  1.00  0.00     0.007 A 
ATOM      4  C   UNL     1     367.465 244.223 275.994  1.00  0.00     0.046 A 
ATOM      5  C   UNL     1     367.971 245.189 276.873  1.00  0.00     0.115 A 
ATOM      6  C   UNL     1     369.658 243.617 277.622  1.00  0.00     0.007 A 
ATOM      7  C   UNL     1     369.068 244.883 277.684  1.00  0.00     0.046 A 
BRANCH   5   8
ATOM      8  O   UNL     1     367.394 246.455 276.945  1.00  0.00    -0.508 OA
ATOM      9  H   UNL     1     367.384 246.984 277.809  1.00  0.00     0.293 HD
ENDBRANCH   5   8
ENDBRANCH   1   2
BRANCH   1  10
ATOM     10  C   UNL     1     370.726 241.221 275.440  1.00  0.00     0.040 C 
BRANCH  10  11
ATOM     11  C   UNL     1     372.138 241.574 275.825  1.00  0.00    -0.040 A 
ATOM     12  C   UNL     1     372.535 242.919 275.902  1.00  0.00     0.050 A 
ATOM     13  C   UNL     1     373.052 240.564 276.165  1.00  0.00     0.050 A 
ATOM     14  C   UNL     1     373.839 243.250 276.293  1.00  0.00     0.119 A 
ATOM     15  C   UNL     1     374.355 240.892 276.555  1.00  0.00     0.119 A 
ATOM     16  C   UNL     1     374.748 242.236 276.615  1.00  0.00     0.092 A 
BRANCH  14  17
ATOM     17  O   UNL     1     374.243 244.581 276.366  1.00  0.00    -0.508 OA
ATOM     18  H   UNL     1     374.745 245.025 275.606  1.00  0.00     0.293 HD
ENDBRANCH  14  17
BRANCH  15  19
ATOM     19  O   UNL     1     375.250 239.876 276.881  1.00  0.00    -0.508 OA
ATOM     20  H   UNL     1     374.939 239.018 277.323  1.00  0.00     0.293 HD
ENDBRANCH  15  19
ENDBRANCH  10  11
ENDBRANCH   1  10
TORSDOF 6
ENDMDL
MODEL 8
REMARK VINA RESULT:    -5.985      3.264      6.914
REMARK INTER + INTRA:          -8.103
REMARK INTER:                  -7.424
REMARK INTRA:                  -0.679
REMARK UNBOUND:                -0.543
REMARK SMILES Oc1ccc(CCc2cc(O)cc(O)c2)cc1
REMARK SMILES IDX 6 1 5 2 4 3 3 4 2 5 16 6 17 7 1 8 7 10 8 11 15 12 9 13 13 14
REMARK SMILES IDX 10 15 12 16 14 17 11 19
REMARK H PARENT 1 9 14 18 11 20
REMARK Flexibility Score: inf
ROOT
ATOM      1  C   UNL     1     366.068 243.653 274.743  1.00  0.00     0.040 C 
ENDROOT
BRANCH   1   2
ATOM      2  C   UNL     1     366.127 245.015 274.107  1.00  0.00    -0.047 A 
ATOM      3  C   UNL     1     366.604 245.164 272.795  1.00  0.00     0.007 A 
ATOM      4  C   UNL     1     366.691 246.434 272.216  1.00  0.00     0.046 A 
ATOM      5  C   UNL     1     366.311 247.567 272.947  1.00  0.00     0.115 A 
ATOM      6  C   UNL     1     365.762 246.156 274.840  1.00  0.00     0.007 A 
ATOM      7  C   UNL     1     365.848 247.425 274.259  1.00  0.00     0.046 A 
BRANCH   5   8
ATOM      8  O   UNL     1     366.393 248.838 272.381  1.00  0.00    -0.508 OA
ATOM      9  H   UNL     1     366.871 248.995 271.501  1.00  0.00     0.293 HD
ENDBRANCH   5   8
ENDBRANCH   1   2
BRANCH   1  10
ATOM     10  C   UNL     1     366.431 243.735 276.228  1.00  0.00     0.040 C 
BRANCH  10  11
ATOM     11  C   UNL     1     367.915 243.576 276.420  1.00  0.00    -0.040 A 
ATOM     12  C   UNL     1     368.680 242.874 275.474  1.00  0.00     0.050 A 
ATOM     13  C   UNL     1     368.556 244.177 277.516  1.00  0.00     0.050 A 
ATOM     14  C   UNL     1     370.067 242.754 275.634  1.00  0.00     0.119 A 
ATOM     15  C   UNL     1     369.940 244.058 277.678  1.00  0.00     0.119 A 
ATOM     16  C   UNL     1     370.694 243.343 276.737  1.00  0.00     0.092 A 
BRANCH  14  17
ATOM     17  O   UNL     1     370.831 242.054 274.703  1.00  0.00    -0.508 OA
ATOM     18  H   UNL     1     370.725 242.208 273.707  1.00  0.00     0.293 HD
ENDBRANCH  14  17
BRANCH  15  19
ATOM     19  O   UNL     1     370.556 244.655 278.775  1.00  0.00    -0.508 OA
ATOM     20  H   UNL     1     370.058 244.808 279.645  1.00  0.00     0.293 HD
ENDBRANCH  15  19
ENDBRANCH  10  11
ENDBRANCH   1  10
TORSDOF 6
ENDMDL
MODEL 9
REMARK VINA RESULT:    -5.906      1.440      2.182
REMARK INTER + INTRA:          -8.002
REMARK INTER:                  -7.430
REMARK INTRA:                  -0.572
REMARK UNBOUND:                -0.543
REMARK SMILES Oc1ccc(CCc2cc(O)cc(O)c2)cc1
REMARK SMILES IDX 6 1 5 2 4 3 3 4 2 5 16 6 17 7 1 8 7 10 8 11 15 12 9 13 13 14
REMARK SMILES IDX 10 15 12 16 14 17 11 19
REMARK H PARENT 1 9 14 18 11 20
REMARK Flexibility Score: inf
ROOT
ATOM      1  C   UNL     1     369.949 244.611 277.260  1.00  0.00     0.040 C 
ENDROOT
BRANCH   1   2
ATOM      2  C   UNL     1     370.938 243.554 276.849  1.00  0.00    -0.047 A 
ATOM      3  C   UNL     1     372.232 243.914 276.441  1.00  0.00     0.007 A 
ATOM      4  C   UNL     1     373.140 242.934 276.028  1.00  0.00     0.046 A 
ATOM      5  C   UNL     1     372.759 241.586 276.009  1.00  0.00     0.115 A 
ATOM      6  C   UNL     1     370.557 242.202 276.815  1.00  0.00     0.007 A 
ATOM      7  C   UNL     1     371.466 241.224 276.402  1.00  0.00     0.046 A 
BRANCH   5   8
ATOM      8  O   UNL     1     373.655 240.601 275.599  1.00  0.00    -0.508 OA
ATOM      9  H   UNL     1     374.644 240.664 275.809  1.00  0.00     0.293 HD
ENDBRANCH   5   8
ENDBRANCH   1   2
BRANCH   1  10
ATOM     10  C   UNL     1     368.650 243.971 277.757  1.00  0.00     0.040 C 
BRANCH  10  11
ATOM     11  C   UNL     1     367.550 244.153 276.746  1.00  0.00    -0.040 A 
ATOM     12  C   UNL     1     367.242 245.434 276.258  1.00  0.00     0.050 A 
ATOM     13  C   UNL     1     366.861 243.038 276.241  1.00  0.00     0.050 A 
ATOM     14  C   UNL     1     366.241 245.601 275.292  1.00  0.00     0.119 A 
ATOM     15  C   UNL     1     365.859 243.203 275.278  1.00  0.00     0.119 A 
ATOM     16  C   UNL     1     365.550 244.486 274.806  1.00  0.00     0.092 A 
BRANCH  14  17
ATOM     17  O   UNL     1     365.926 246.868 274.807  1.00  0.00    -0.508 OA
ATOM     18  H   UNL     1     366.292 247.707 275.242  1.00  0.00     0.293 HD
ENDBRANCH  14  17
BRANCH  15  19
ATOM     19  O   UNL     1     365.182 242.086 274.794  1.00  0.00    -0.508 OA
ATOM     20  H   UNL     1     365.622 241.174 274.760  1.00  0.00     0.293 HD
ENDBRANCH  15  19
ENDBRANCH  10  11
ENDBRANCH   1  10
TORSDOF 6
ENDMDL
