MODEL 1
REMARK VINA RESULT:    -6.232      0.000      0.000
REMARK INTER + INTRA:         -10.450
REMARK INTER:                  -9.693
REMARK INTRA:                  -0.757
REMARK UNBOUND:                -0.757
REMARK SMILES COc1cc(CNC(=O)CCCCC=CC(C)C)ccc1O
REMARK SMILES IDX 11 1 12 2 13 3 14 4 15 5 16 6 17 7 18 8 10 9 8 10 9 11 7 12
REMARK SMILES IDX 6 14 5 15 4 16 19 17 3 18 20 19 21 20 2 21 1 22 22 23
REMARK H PARENT 7 13 22 24
REMARK Flexibility Score: inf
ROOT
ATOM      1  C   UNL     1      10.399   9.543 -15.826  1.00  0.00     0.010 C 
ENDROOT
BRANCH   1   2
ATOM      2  C   UNL     1      10.378   8.165 -15.148  1.00  0.00     0.005 C 
BRANCH   2   3
ATOM      3  C   UNL     1       9.024   7.451 -15.294  1.00  0.00     0.027 C 
BRANCH   3   4
ATOM      4  C   UNL     1       7.985   8.078 -14.407  1.00  0.00    -0.031 C 
ATOM      5  C   UNL     1       8.004   7.905 -13.074  1.00  0.00    -0.028 C 
BRANCH   5   6
ATOM      6  C   UNL     1       6.964   8.510 -12.157  1.00  0.00     0.005 C 
ATOM      7  C   UNL     1       7.004  10.042 -12.199  1.00  0.00     0.012 C 
ATOM      8  C   UNL     1       7.114   7.989 -10.723  1.00  0.00     0.012 C 
ENDBRANCH   5   6
ENDBRANCH   3   4
ENDBRANCH   2   3
ENDBRANCH   1   2
BRANCH   1   9
ATOM      9  C   UNL     1      10.576   9.453 -17.348  1.00  0.00     0.100 C 
BRANCH   9  10
ATOM     10  C   UNL     1       9.538  10.285 -18.039  1.00  0.00     0.220 C 
ATOM     11  O   UNL     1       8.322   9.965 -17.942  1.00  0.00    -0.275 OA
ATOM     12  N   UNL     1       9.932  11.407 -18.840  1.00  0.00    -0.352 N 
ATOM     13  H   UNL     1      10.945  11.650 -18.903  1.00  0.00     0.163 HD
BRANCH  12  14
ATOM     14  C   UNL     1       9.005  12.090 -19.739  1.00  0.00     0.151 C 
BRANCH  14  15
ATOM     15  C   UNL     1       9.161  13.578 -19.590  1.00  0.00    -0.025 A 
ATOM     16  C   UNL     1       8.796  14.439 -20.638  1.00  0.00     0.056 A 
ATOM     17  C   UNL     1       9.742  14.111 -18.432  1.00  0.00     0.009 A 
ATOM     18  C   UNL     1       8.991  15.830 -20.524  1.00  0.00     0.160 A 
ATOM     19  C   UNL     1       9.934  15.487 -18.309  1.00  0.00     0.050 A 
ATOM     20  C   UNL     1       9.562  16.349 -19.346  1.00  0.00     0.157 A 
BRANCH  18  21
ATOM     21  O   UNL     1       8.635  16.717 -21.552  1.00  0.00    -0.493 OA
ATOM     22  C   UNL     1       9.013  16.566 -22.916  1.00  0.00     0.278 C 
ENDBRANCH  18  21
BRANCH  20  23
ATOM     23  O   UNL     1       9.769  17.718 -19.190  1.00  0.00    -0.504 OA
ATOM     24  H   UNL     1       9.799  18.354 -19.979  1.00  0.00     0.293 HD
ENDBRANCH  20  23
ENDBRANCH  14  15
ENDBRANCH  12  14
ENDBRANCH   9  10
ENDBRANCH   1   9
TORSDOF 10
ENDMDL
MODEL 2
REMARK VINA RESULT:    -6.154      1.286      2.080
REMARK INTER + INTRA:         -10.329
REMARK INTER:                  -9.752
REMARK INTRA:                  -0.577
REMARK UNBOUND:                -0.757
REMARK SMILES COc1cc(CNC(=O)CCCCC=CC(C)C)ccc1O
REMARK SMILES IDX 11 1 12 2 13 3 14 4 15 5 16 6 17 7 18 8 10 9 8 10 9 11 7 12
REMARK SMILES IDX 6 14 5 15 4 16 19 17 3 18 20 19 21 20 2 21 1 22 22 23
REMARK H PARENT 7 13 22 24
REMARK Flexibility Score: inf
ROOT
ATOM      1  C   UNL     1      10.479   8.263 -15.731  1.00  0.00     0.010 C 
ENDROOT
BRANCH   1   2
ATOM      2  C   UNL     1       9.112   7.623 -16.017  1.00  0.00     0.005 C 
BRANCH   2   3
ATOM      3  C   UNL     1       8.633   6.708 -14.878  1.00  0.00     0.027 C 
BRANCH   3   4
ATOM      4  C   UNL     1       7.599   7.395 -14.031  1.00  0.00    -0.031 C 
ATOM      5  C   UNL     1       7.896   7.869 -12.808  1.00  0.00    -0.028 C 
BRANCH   5   6
ATOM      6  C   UNL     1       6.875   8.551 -11.926  1.00  0.00     0.005 C 
ATOM      7  C   UNL     1       6.973  10.078 -12.033  1.00  0.00     0.012 C 
ATOM      8  C   UNL     1       6.997   8.087 -10.469  1.00  0.00     0.012 C 
ENDBRANCH   5   6
ENDBRANCH   3   4
ENDBRANCH   2   3
ENDBRANCH   1   2
BRANCH   1   9
ATOM      9  C   UNL     1      10.906   9.260 -16.816  1.00  0.00     0.100 C 
BRANCH   9  10
ATOM     10  C   UNL     1      10.458  10.644 -16.452  1.00  0.00     0.220 C 
ATOM     11  O   UNL     1       9.819  10.826 -15.381  1.00  0.00    -0.275 OA
ATOM     12  N   UNL     1      10.718  11.740 -17.339  1.00  0.00    -0.352 N 
ATOM     13  H   UNL     1      11.250  11.561 -18.219  1.00  0.00     0.163 HD
BRANCH  12  14
ATOM     14  C   UNL     1      10.088  13.047 -17.172  1.00  0.00     0.151 C 
BRANCH  14  15
ATOM     15  C   UNL     1       9.638  13.566 -18.510  1.00  0.00    -0.025 A 
ATOM     16  C   UNL     1       9.555  14.948 -18.744  1.00  0.00     0.056 A 
ATOM     17  C   UNL     1       9.228  12.672 -19.508  1.00  0.00     0.009 A 
ATOM     18  C   UNL     1       9.082  15.438 -19.978  1.00  0.00     0.160 A 
ATOM     19  C   UNL     1       8.762  13.150 -20.733  1.00  0.00     0.050 A 
ATOM     20  C   UNL     1       8.688  14.525 -20.974  1.00  0.00     0.157 A 
BRANCH  18  21
ATOM     21  O   UNL     1       8.988  16.814 -20.244  1.00  0.00    -0.493 OA
ATOM     22  C   UNL     1       8.181  17.726 -19.508  1.00  0.00     0.278 C 
ENDBRANCH  18  21
BRANCH  20  23
ATOM     23  O   UNL     1       8.217  14.967 -22.210  1.00  0.00    -0.504 OA
ATOM     24  H   UNL     1       8.491  15.859 -22.606  1.00  0.00     0.293 HD
ENDBRANCH  20  23
ENDBRANCH  14  15
ENDBRANCH  12  14
ENDBRANCH   9  10
ENDBRANCH   1   9
TORSDOF 10
ENDMDL
MODEL 3
REMARK VINA RESULT:    -6.141      3.975      8.736
REMARK INTER + INTRA:         -10.308
REMARK INTER:                  -8.607
REMARK INTRA:                  -1.701
REMARK UNBOUND:                -0.757
REMARK SMILES COc1cc(CNC(=O)CCCCC=CC(C)C)ccc1O
REMARK SMILES IDX 11 1 12 2 13 3 14 4 15 5 16 6 17 7 18 8 10 9 8 10 9 11 7 12
REMARK SMILES IDX 6 14 5 15 4 16 19 17 3 18 20 19 21 20 2 21 1 22 22 23
REMARK H PARENT 7 13 22 24
REMARK Flexibility Score: inf
ROOT
ATOM      1  C   UNL     1       7.479  18.417 -19.007  1.00  0.00     0.010 C 
ENDROOT
BRANCH   1   2
ATOM      2  C   UNL     1       8.960  18.100 -18.750  1.00  0.00     0.005 C 
BRANCH   2   3
ATOM      3  C   UNL     1       9.400  16.768 -19.379  1.00  0.00     0.027 C 
BRANCH   3   4
ATOM      4  C   UNL     1       8.842  16.615 -20.767  1.00  0.00    -0.031 C 
ATOM      5  C   UNL     1       9.615  16.221 -21.794  1.00  0.00    -0.028 C 
BRANCH   5   6
ATOM      6  C   UNL     1       9.086  16.072 -23.203  1.00  0.00     0.005 C 
ATOM      7  C   UNL     1      10.227  15.920 -24.216  1.00  0.00     0.012 C 
ATOM      8  C   UNL     1       8.161  17.235 -23.578  1.00  0.00     0.012 C 
ENDBRANCH   5   6
ENDBRANCH   3   4
ENDBRANCH   2   3
ENDBRANCH   1   2
BRANCH   1   9
ATOM      9  C   UNL     1       6.649  18.459 -17.716  1.00  0.00     0.100 C 
BRANCH   9  10
ATOM     10  C   UNL     1       6.300  17.067 -17.281  1.00  0.00     0.220 C 
ATOM     11  O   UNL     1       6.158  16.820 -16.053  1.00  0.00    -0.275 OA
ATOM     12  N   UNL     1       6.176  16.020 -18.253  1.00  0.00    -0.352 N 
ATOM     13  H   UNL     1       6.300  16.253 -19.263  1.00  0.00     0.163 HD
BRANCH  12  14
ATOM     14  C   UNL     1       6.099  14.611 -17.878  1.00  0.00     0.151 C 
BRANCH  14  15
ATOM     15  C   UNL     1       7.012  13.802 -18.759  1.00  0.00    -0.025 A 
ATOM     16  C   UNL     1       8.075  13.074 -18.202  1.00  0.00     0.056 A 
ATOM     17  C   UNL     1       6.850  13.830 -20.150  1.00  0.00     0.009 A 
ATOM     18  C   UNL     1       8.965  12.360 -19.029  1.00  0.00     0.160 A 
ATOM     19  C   UNL     1       7.724  13.122 -20.975  1.00  0.00     0.050 A 
ATOM     20  C   UNL     1       8.778  12.387 -20.423  1.00  0.00     0.157 A 
BRANCH  18  21
ATOM     21  O   UNL     1      10.037  11.620 -18.503  1.00  0.00    -0.493 OA
ATOM     22  C   UNL     1      10.221  11.337 -17.120  1.00  0.00     0.278 C 
ENDBRANCH  18  21
BRANCH  20  23
ATOM     23  O   UNL     1       9.633  11.692 -21.278  1.00  0.00    -0.504 OA
ATOM     24  H   UNL     1       9.323  11.323 -22.170  1.00  0.00     0.293 HD
ENDBRANCH  20  23
ENDBRANCH  14  15
ENDBRANCH  12  14
ENDBRANCH   9  10
ENDBRANCH   1   9
TORSDOF 10
ENDMDL
MODEL 4
REMARK VINA RESULT:    -6.076      2.416      9.540
REMARK INTER + INTRA:         -10.208
REMARK INTER:                  -9.371
REMARK INTRA:                  -0.837
REMARK UNBOUND:                -0.757
REMARK SMILES COc1cc(CNC(=O)CCCCC=CC(C)C)ccc1O
REMARK SMILES IDX 11 1 12 2 13 3 14 4 15 5 16 6 17 7 18 8 10 9 8 10 9 11 7 12
REMARK SMILES IDX 6 14 5 15 4 16 19 17 3 18 20 19 21 20 2 21 1 22 22 23
REMARK H PARENT 7 13 22 24
REMARK Flexibility Score: inf
ROOT
ATOM      1  C   UNL     1       9.238  14.573 -19.840  1.00  0.00     0.010 C 
ENDROOT
BRANCH   1   2
ATOM      2  C   UNL     1       8.575  14.909 -21.185  1.00  0.00     0.005 C 
BRANCH   2   3
ATOM      3  C   UNL     1       8.499  16.422 -21.448  1.00  0.00     0.027 C 
BRANCH   3   4
ATOM      4  C   UNL     1       8.896  16.746 -22.861  1.00  0.00    -0.031 C 
ATOM      5  C   UNL     1       9.408  15.809 -23.678  1.00  0.00    -0.028 C 
BRANCH   5   6
ATOM      6  C   UNL     1       9.830  16.108 -25.100  1.00  0.00     0.005 C 
ATOM      7  C   UNL     1       8.709  15.784 -26.096  1.00  0.00     0.012 C 
ATOM      8  C   UNL     1      11.126  15.374 -25.463  1.00  0.00     0.012 C 
ENDBRANCH   5   6
ENDBRANCH   3   4
ENDBRANCH   2   3
ENDBRANCH   1   2
BRANCH   1   9
ATOM      9  C   UNL     1       9.999  15.762 -19.240  1.00  0.00     0.100 C 
BRANCH   9  10
ATOM     10  C   UNL     1      10.508  15.415 -17.874  1.00  0.00     0.220 C 
ATOM     11  O   UNL     1      11.734  15.557 -17.614  1.00  0.00    -0.275 OA
ATOM     12  N   UNL     1       9.614  14.882 -16.887  1.00  0.00    -0.352 N 
ATOM     13  H   UNL     1       8.604  14.775 -17.129  1.00  0.00     0.163 HD
BRANCH  12  14
ATOM     14  C   UNL     1      10.089  14.285 -15.642  1.00  0.00     0.151 C 
BRANCH  14  15
ATOM     15  C   UNL     1       9.961  12.789 -15.718  1.00  0.00    -0.025 A 
ATOM     16  C   UNL     1       9.140  12.099 -14.811  1.00  0.00     0.056 A 
ATOM     17  C   UNL     1      10.720  12.066 -16.648  1.00  0.00     0.009 A 
ATOM     18  C   UNL     1       9.060  10.693 -14.844  1.00  0.00     0.160 A 
ATOM     19  C   UNL     1      10.643  10.673 -16.689  1.00  0.00     0.050 A 
ATOM     20  C   UNL     1       9.818   9.984 -15.795  1.00  0.00     0.157 A 
BRANCH  18  21
ATOM     21  O   UNL     1       8.247   9.974 -13.953  1.00  0.00    -0.493 OA
ATOM     22  C   UNL     1       6.849   9.767 -14.122  1.00  0.00     0.278 C 
ENDBRANCH  18  21
BRANCH  20  23
ATOM     23  O   UNL     1       9.766   8.592 -15.864  1.00  0.00    -0.504 OA
ATOM     24  H   UNL     1       9.583   8.016 -15.050  1.00  0.00     0.293 HD
ENDBRANCH  20  23
ENDBRANCH  14  15
ENDBRANCH  12  14
ENDBRANCH   9  10
ENDBRANCH   1   9
TORSDOF 10
ENDMDL
MODEL 5
REMARK VINA RESULT:    -6.075      2.686      9.661
REMARK INTER + INTRA:         -10.206
REMARK INTER:                  -9.571
REMARK INTRA:                  -0.635
REMARK UNBOUND:                -0.757
REMARK SMILES COc1cc(CNC(=O)CCCCC=CC(C)C)ccc1O
REMARK SMILES IDX 11 1 12 2 13 3 14 4 15 5 16 6 17 7 18 8 10 9 8 10 9 11 7 12
REMARK SMILES IDX 6 14 5 15 4 16 19 17 3 18 20 19 21 20 2 21 1 22 22 23
REMARK H PARENT 7 13 22 24
REMARK Flexibility Score: inf
ROOT
ATOM      1  C   UNL     1       8.724  12.425 -18.638  1.00  0.00     0.010 C 
ENDROOT
BRANCH   1   2
ATOM      2  C   UNL     1       8.954  12.887 -20.085  1.00  0.00     0.005 C 
BRANCH   2   3
ATOM      3  C   UNL     1       7.858  13.840 -20.587  1.00  0.00     0.027 C 
BRANCH   3   4
ATOM      4  C   UNL     1       8.454  15.051 -21.249  1.00  0.00    -0.031 C 
ATOM      5  C   UNL     1       8.845  15.026 -22.535  1.00  0.00    -0.028 C 
BRANCH   5   6
ATOM      6  C   UNL     1       9.461  16.223 -23.225  1.00  0.00     0.005 C 
ATOM      7  C   UNL     1       8.416  17.309 -23.503  1.00  0.00     0.012 C 
ATOM      8  C   UNL     1      10.191  15.812 -24.509  1.00  0.00     0.012 C 
ENDBRANCH   5   6
ENDBRANCH   3   4
ENDBRANCH   2   3
ENDBRANCH   1   2
BRANCH   1   9
ATOM      9  C   UNL     1       9.861  12.840 -17.695  1.00  0.00     0.100 C 
BRANCH   9  10
ATOM     10  C   UNL     1      10.069  11.792 -16.644  1.00  0.00     0.220 C 
ATOM     11  O   UNL     1      10.027  12.118 -15.427  1.00  0.00    -0.275 OA
ATOM     12  N   UNL     1      10.360  10.440 -17.024  1.00  0.00    -0.352 N 
ATOM     13  H   UNL     1      10.389  10.198 -18.039  1.00  0.00     0.163 HD
BRANCH  12  14
ATOM     14  C   UNL     1      10.827   9.442 -16.066  1.00  0.00     0.151 C 
BRANCH  14  15
ATOM     15  C   UNL     1       9.664   8.612 -15.594  1.00  0.00    -0.025 A 
ATOM     16  C   UNL     1       9.309   8.594 -14.236  1.00  0.00     0.056 A 
ATOM     17  C   UNL     1       8.974   7.793 -16.498  1.00  0.00     0.009 A 
ATOM     18  C   UNL     1       8.255   7.776 -13.782  1.00  0.00     0.160 A 
ATOM     19  C   UNL     1       7.926   6.984 -16.057  1.00  0.00     0.050 A 
ATOM     20  C   UNL     1       7.563   6.972 -14.706  1.00  0.00     0.157 A 
BRANCH  18  21
ATOM     21  O   UNL     1       7.875   7.737 -12.431  1.00  0.00    -0.493 OA
ATOM     22  C   UNL     1       6.997   8.671 -11.811  1.00  0.00     0.278 C 
ENDBRANCH  18  21
BRANCH  20  23
ATOM     23  O   UNL     1       6.512   6.150 -14.300  1.00  0.00    -0.504 OA
ATOM     24  H   UNL     1       5.949   6.356 -13.483  1.00  0.00     0.293 HD
ENDBRANCH  20  23
ENDBRANCH  14  15
ENDBRANCH  12  14
ENDBRANCH   9  10
ENDBRANCH   1   9
TORSDOF 10
ENDMDL
MODEL 6
REMARK VINA RESULT:    -6.065      2.231      9.969
REMARK INTER + INTRA:         -10.190
REMARK INTER:                  -9.620
REMARK INTRA:                  -0.570
REMARK UNBOUND:                -0.757
REMARK SMILES COc1cc(CNC(=O)CCCCC=CC(C)C)ccc1O
REMARK SMILES IDX 11 1 12 2 13 3 14 4 15 5 16 6 17 7 18 8 10 9 8 10 9 11 7 12
REMARK SMILES IDX 6 14 5 15 4 16 19 17 3 18 20 19 21 20 2 21 1 22 22 23
REMARK H PARENT 7 13 22 24
REMARK Flexibility Score: inf
ROOT
ATOM      1  C   UNL     1       9.154  14.937 -19.644  1.00  0.00     0.010 C 
ENDROOT
BRANCH   1   2
ATOM      2  C   UNL     1       8.194  15.347 -20.771  1.00  0.00     0.005 C 
BRANCH   2   3
ATOM      3  C   UNL     1       8.736  16.506 -21.623  1.00  0.00     0.027 C 
BRANCH   3   4
ATOM      4  C   UNL     1       8.877  16.100 -23.063  1.00  0.00    -0.031 C 
ATOM      5  C   UNL     1       9.758  16.704 -23.880  1.00  0.00    -0.028 C 
BRANCH   5   6
ATOM      6  C   UNL     1       9.912  16.327 -25.336  1.00  0.00     0.005 C 
ATOM      7  C   UNL     1       8.619  15.725 -25.899  1.00  0.00     0.012 C 
ATOM      8  C   UNL     1      11.102  15.384 -25.546  1.00  0.00     0.012 C 
ENDBRANCH   5   6
ENDBRANCH   3   4
ENDBRANCH   2   3
ENDBRANCH   1   2
BRANCH   1   9
ATOM      9  C   UNL     1       9.269  13.415 -19.487  1.00  0.00     0.100 C 
BRANCH   9  10
ATOM     10  C   UNL     1       9.199  13.038 -18.038  1.00  0.00     0.220 C 
ATOM     11  O   UNL     1       8.248  13.469 -17.331  1.00  0.00    -0.275 OA
ATOM     12  N   UNL     1      10.230  12.230 -17.455  1.00  0.00    -0.352 N 
ATOM     13  H   UNL     1      11.005  11.886 -18.063  1.00  0.00     0.163 HD
BRANCH  12  14
ATOM     14  C   UNL     1      10.358  12.048 -16.011  1.00  0.00     0.151 C 
BRANCH  14  15
ATOM     15  C   UNL     1       9.962  10.645 -15.642  1.00  0.00    -0.025 A 
ATOM     16  C   UNL     1       8.812  10.411 -14.872  1.00  0.00     0.056 A 
ATOM     17  C   UNL     1      10.781   9.567 -16.002  1.00  0.00     0.009 A 
ATOM     18  C   UNL     1       8.467   9.103 -14.477  1.00  0.00     0.160 A 
ATOM     19  C   UNL     1      10.445   8.268 -15.619  1.00  0.00     0.050 A 
ATOM     20  C   UNL     1       9.294   8.030 -14.861  1.00  0.00     0.157 A 
BRANCH  18  21
ATOM     21  O   UNL     1       7.323   8.835 -13.709  1.00  0.00    -0.493 OA
ATOM     22  C   UNL     1       7.266   8.918 -12.289  1.00  0.00     0.278 C 
ENDBRANCH  18  21
BRANCH  20  23
ATOM     23  O   UNL     1       8.989   6.720 -14.495  1.00  0.00    -0.504 OA
ATOM     24  H   UNL     1       8.562   6.492 -13.605  1.00  0.00     0.293 HD
ENDBRANCH  20  23
ENDBRANCH  14  15
ENDBRANCH  12  14
ENDBRANCH   9  10
ENDBRANCH   1   9
TORSDOF 10
ENDMDL
MODEL 7
REMARK VINA RESULT:    -6.024      2.860      9.848
REMARK INTER + INTRA:         -10.127
REMARK INTER:                  -9.536
REMARK INTRA:                  -0.591
REMARK UNBOUND:                -0.757
REMARK SMILES COc1cc(CNC(=O)CCCCC=CC(C)C)ccc1O
REMARK SMILES IDX 11 1 12 2 13 3 14 4 15 5 16 6 17 7 18 8 10 9 8 10 9 11 7 12
REMARK SMILES IDX 6 14 5 15 4 16 19 17 3 18 20 19 21 20 2 21 1 22 22 23
REMARK H PARENT 7 13 22 24
REMARK Flexibility Score: inf
ROOT
ATOM      1  C   UNL     1       9.378  15.144 -17.682  1.00  0.00     0.010 C 
ENDROOT
BRANCH   1   2
ATOM      2  C   UNL     1      10.078  16.046 -18.711  1.00  0.00     0.005 C 
BRANCH   2   3
ATOM      3  C   UNL     1       9.221  17.253 -19.123  1.00  0.00     0.027 C 
BRANCH   3   4
ATOM      4  C   UNL     1       8.770  17.135 -20.552  1.00  0.00    -0.031 C 
ATOM      5  C   UNL     1       9.305  16.223 -21.383  1.00  0.00    -0.028 C 
BRANCH   5   6
ATOM      6  C   UNL     1       8.883  16.090 -22.829  1.00  0.00     0.005 C 
ATOM      7  C   UNL     1      10.083  15.791 -23.737  1.00  0.00     0.012 C 
ATOM      8  C   UNL     1       8.121  17.332 -23.305  1.00  0.00     0.012 C 
ENDBRANCH   5   6
ENDBRANCH   3   4
ENDBRANCH   2   3
ENDBRANCH   1   2
BRANCH   1   9
ATOM      9  C   UNL     1      10.358  14.237 -16.926  1.00  0.00     0.100 C 
BRANCH   9  10
ATOM     10  C   UNL     1       9.802  13.884 -15.579  1.00  0.00     0.220 C 
ATOM     11  O   UNL     1      10.185  14.525 -14.564  1.00  0.00    -0.275 OA
ATOM     12  N   UNL     1       8.878  12.796 -15.446  1.00  0.00    -0.352 N 
ATOM     13  H   UNL     1       8.578  12.282 -16.303  1.00  0.00     0.163 HD
BRANCH  12  14
ATOM     14  C   UNL     1       8.507  12.240 -14.147  1.00  0.00     0.151 C 
BRANCH  14  15
ATOM     15  C   UNL     1       8.562  10.738 -14.206  1.00  0.00    -0.025 A 
ATOM     16  C   UNL     1       7.778   9.965 -13.335  1.00  0.00     0.056 A 
ATOM     17  C   UNL     1       9.452  10.102 -15.081  1.00  0.00     0.009 A 
ATOM     18  C   UNL     1       7.867   8.558 -13.349  1.00  0.00     0.160 A 
ATOM     19  C   UNL     1       9.543   8.710 -15.104  1.00  0.00     0.050 A 
ATOM     20  C   UNL     1       8.755   7.936 -14.245  1.00  0.00     0.157 A 
BRANCH  18  21
ATOM     21  O   UNL     1       7.095   7.756 -12.493  1.00  0.00    -0.493 OA
ATOM     22  C   UNL     1       6.921   7.996 -11.100  1.00  0.00     0.278 C 
ENDBRANCH  18  21
BRANCH  20  23
ATOM     23  O   UNL     1       8.872   6.547 -14.295  1.00  0.00    -0.504 OA
ATOM     24  H   UNL     1       8.762   5.965 -13.473  1.00  0.00     0.293 HD
ENDBRANCH  20  23
ENDBRANCH  14  15
ENDBRANCH  12  14
ENDBRANCH   9  10
ENDBRANCH   1   9
TORSDOF 10
ENDMDL
MODEL 8
REMARK VINA RESULT:    -5.934      1.658      2.401
REMARK INTER + INTRA:          -9.987
REMARK INTER:                  -9.308
REMARK INTRA:                  -0.679
REMARK UNBOUND:                -0.757
REMARK SMILES COc1cc(CNC(=O)CCCCC=CC(C)C)ccc1O
REMARK SMILES IDX 11 1 12 2 13 3 14 4 15 5 16 6 17 7 18 8 10 9 8 10 9 11 7 12
REMARK SMILES IDX 6 14 5 15 4 16 19 17 3 18 20 19 21 20 2 21 1 22 22 23
REMARK H PARENT 7 13 22 24
REMARK Flexibility Score: inf
ROOT
ATOM      1  C   UNL     1       9.931   9.947 -15.555  1.00  0.00     0.010 C 
ENDROOT
BRANCH   1   2
ATOM      2  C   UNL     1      10.365   8.477 -15.664  1.00  0.00     0.005 C 
BRANCH   2   3
ATOM      3  C   UNL     1       9.261   7.498 -15.233  1.00  0.00     0.027 C 
BRANCH   3   4
ATOM      4  C   UNL     1       8.221   8.190 -14.396  1.00  0.00    -0.031 C 
ATOM      5  C   UNL     1       8.013   7.849 -13.112  1.00  0.00    -0.028 C 
BRANCH   5   6
ATOM      6  C   UNL     1       6.966   8.516 -12.249  1.00  0.00     0.005 C 
ATOM      7  C   UNL     1       7.112  10.042 -12.270  1.00  0.00     0.012 C 
ATOM      8  C   UNL     1       6.996   7.974 -10.816  1.00  0.00     0.012 C 
ENDBRANCH   5   6
ENDBRANCH   3   4
ENDBRANCH   2   3
ENDBRANCH   1   2
BRANCH   1   9
ATOM      9  C   UNL     1      10.831  10.893 -16.361  1.00  0.00     0.100 C 
BRANCH   9  10
ATOM     10  C   UNL     1      10.460  12.319 -16.087  1.00  0.00     0.220 C 
ATOM     11  O   UNL     1       9.529  12.572 -15.275  1.00  0.00    -0.275 OA
ATOM     12  N   UNL     1      11.130  13.382 -16.779  1.00  0.00    -0.352 N 
ATOM     13  H   UNL     1      11.897  13.143 -17.446  1.00  0.00     0.163 HD
BRANCH  12  14
ATOM     14  C   UNL     1      10.645  14.759 -16.754  1.00  0.00     0.151 C 
BRANCH  14  15
ATOM     15  C   UNL     1       9.951  15.074 -18.051  1.00  0.00    -0.025 A 
ATOM     16  C   UNL     1       9.409  14.043 -18.835  1.00  0.00     0.056 A 
ATOM     17  C   UNL     1       9.905  16.393 -18.520  1.00  0.00     0.009 A 
ATOM     18  C   UNL     1       8.806  14.328 -20.076  1.00  0.00     0.160 A 
ATOM     19  C   UNL     1       9.306  16.684 -19.746  1.00  0.00     0.050 A 
ATOM     20  C   UNL     1       8.756  15.661 -20.525  1.00  0.00     0.157 A 
BRANCH  18  21
ATOM     21  O   UNL     1       8.254  13.320 -20.883  1.00  0.00    -0.493 OA
ATOM     22  C   UNL     1       6.919  12.837 -20.772  1.00  0.00     0.278 C 
ENDBRANCH  18  21
BRANCH  20  23
ATOM     23  O   UNL     1       8.166  15.988 -21.745  1.00  0.00    -0.504 OA
ATOM     24  H   UNL     1       8.391  16.841 -22.243  1.00  0.00     0.293 HD
ENDBRANCH  20  23
ENDBRANCH  14  15
ENDBRANCH  12  14
ENDBRANCH   9  10
ENDBRANCH   1   9
TORSDOF 10
ENDMDL
MODEL 9
REMARK VINA RESULT:    -5.911      2.359      3.295
REMARK INTER + INTRA:          -9.951
REMARK INTER:                  -9.335
REMARK INTRA:                  -0.616
REMARK UNBOUND:                -0.757
REMARK SMILES COc1cc(CNC(=O)CCCCC=CC(C)C)ccc1O
REMARK SMILES IDX 11 1 12 2 13 3 14 4 15 5 16 6 17 7 18 8 10 9 8 10 9 11 7 12
REMARK SMILES IDX 6 14 5 15 4 16 19 17 3 18 20 19 21 20 2 21 1 22 22 23
REMARK H PARENT 7 13 22 24
REMARK Flexibility Score: inf
ROOT
ATOM      1  C   UNL     1       8.085  11.083 -14.369  1.00  0.00     0.010 C 
ENDROOT
BRANCH   1   2
ATOM      2  C   UNL     1       7.705  10.403 -13.045  1.00  0.00     0.005 C 
BRANCH   2   3
ATOM      3  C   UNL     1       7.291   8.934 -13.228  1.00  0.00     0.027 C 
BRANCH   3   4
ATOM      4  C   UNL     1       7.017   8.280 -11.902  1.00  0.00    -0.031 C 
ATOM      5  C   UNL     1       6.889   9.004 -10.776  1.00  0.00    -0.028 C 
BRANCH   5   6
ATOM      6  C   UNL     1       6.628   8.375  -9.426  1.00  0.00     0.005 C 
ATOM      7  C   UNL     1       7.731   8.728  -8.420  1.00  0.00     0.012 C 
ATOM      8  C   UNL     1       6.449   6.857  -9.543  1.00  0.00     0.012 C 
ENDBRANCH   5   6
ENDBRANCH   3   4
ENDBRANCH   2   3
ENDBRANCH   1   2
BRANCH   1   9
ATOM      9  C   UNL     1       8.745  12.453 -14.165  1.00  0.00     0.100 C 
BRANCH   9  10
ATOM     10  C   UNL     1       9.600  12.796 -15.347  1.00  0.00     0.220 C 
ATOM     11  O   UNL     1      10.352  11.914 -15.845  1.00  0.00    -0.275 OA
ATOM     12  N   UNL     1       9.595  14.129 -15.875  1.00  0.00    -0.352 N 
ATOM     13  H   UNL     1       8.963  14.839 -15.444  1.00  0.00     0.163 HD
BRANCH  12  14
ATOM     14  C   UNL     1      10.586  14.590 -16.844  1.00  0.00     0.151 C 
BRANCH  14  15
ATOM     15  C   UNL     1       9.908  14.905 -18.149  1.00  0.00    -0.025 A 
ATOM     16  C   UNL     1       9.111  13.940 -18.786  1.00  0.00     0.056 A 
ATOM     17  C   UNL     1      10.127  16.139 -18.775  1.00  0.00     0.009 A 
ATOM     18  C   UNL     1       8.518  14.212 -20.035  1.00  0.00     0.160 A 
ATOM     19  C   UNL     1       9.540  16.417 -20.010  1.00  0.00     0.050 A 
ATOM     20  C   UNL     1       8.737  15.463 -20.642  1.00  0.00     0.157 A 
BRANCH  18  21
ATOM     21  O   UNL     1       7.714  13.269 -20.697  1.00  0.00    -0.493 OA
ATOM     22  C   UNL     1       7.833  11.859 -20.547  1.00  0.00     0.278 C 
ENDBRANCH  18  21
BRANCH  20  23
ATOM     23  O   UNL     1       8.167  15.774 -21.876  1.00  0.00    -0.504 OA
ATOM     24  H   UNL     1       8.577  15.474 -22.753  1.00  0.00     0.293 HD
ENDBRANCH  20  23
ENDBRANCH  14  15
ENDBRANCH  12  14
ENDBRANCH   9  10
ENDBRANCH   1   9
TORSDOF 10
ENDMDL
