MODEL 1
REMARK VINA RESULT:     1.129      0.000      0.000
REMARK INTER + INTRA:           7.754
REMARK INTER:                   2.449
REMARK INTRA:                   5.305
REMARK UNBOUND:                 5.305
REMARK SMILES CCCCCCCCCCCCCCCCCCCCCC(=O)[O-]
REMARK SMILES IDX 12 1 11 2 10 3 9 4 8 5 7 6 6 7 5 8 4 9 3 10 2 11 1 12 13 13
REMARK SMILES IDX 14 14 15 15 16 16 17 17 18 18 19 19 20 20 21 21 22 22 23 23
REMARK SMILES IDX 24 24
REMARK H PARENT
REMARK Flexibility Score: inf
ROOT
ATOM      1  C   UNL     1      33.262  38.321  -2.230  1.00  0.00     0.000 C 
ENDROOT
BRANCH   1   2
ATOM      2  C   UNL     1      34.126  38.937  -3.342  1.00  0.00     0.000 C 
BRANCH   2   3
ATOM      3  C   UNL     1      33.398  39.004  -4.693  1.00  0.00     0.000 C 
BRANCH   3   4
ATOM      4  C   UNL     1      32.704  37.680  -5.059  1.00  0.00    -0.000 C 
BRANCH   4   5
ATOM      5  C   UNL     1      31.755  37.189  -3.954  1.00  0.00    -0.000 C 
BRANCH   5   6
ATOM      6  C   UNL     1      32.493  36.826  -2.655  1.00  0.00    -0.000 C 
BRANCH   6   7
ATOM      7  C   UNL     1      31.972  35.503  -2.082  1.00  0.00    -0.000 C 
BRANCH   7   8
ATOM      8  C   UNL     1      32.936  34.943  -1.026  1.00  0.00    -0.000 C 
BRANCH   8   9
ATOM      9  C   UNL     1      32.366  35.027   0.399  1.00  0.00    -0.000 C 
BRANCH   9  10
ATOM     10  C   UNL     1      32.655  33.761   1.226  1.00  0.00    -0.000 C 
BRANCH  10  11
ATOM     11  C   UNL     1      33.655  34.017   2.363  1.00  0.00    -0.003 C 
ATOM     12  C   UNL     1      34.117  32.730   3.044  1.00  0.00     0.004 C 
ENDBRANCH  10  11
ENDBRANCH   9  10
ENDBRANCH   8   9
ENDBRANCH   7   8
ENDBRANCH   6   7
ENDBRANCH   5   6
ENDBRANCH   4   5
ENDBRANCH   3   4
ENDBRANCH   2   3
ENDBRANCH   1   2
BRANCH   1  13
ATOM     13  C   UNL     1      33.451  39.079  -0.908  1.00  0.00     0.000 C 
BRANCH  13  14
ATOM     14  C   UNL     1      34.337  38.319   0.094  1.00  0.00     0.000 C 
BRANCH  14  15
ATOM     15  C   UNL     1      33.569  37.570   1.200  1.00  0.00     0.000 C 
BRANCH  15  16
ATOM     16  C   UNL     1      33.722  38.199   2.601  1.00  0.00     0.000 C 
BRANCH  16  17
ATOM     17  C   UNL     1      34.568  37.324   3.543  1.00  0.00     0.000 C 
BRANCH  17  18
ATOM     18  C   UNL     1      35.013  38.070   4.810  1.00  0.00     0.000 C 
BRANCH  18  19
ATOM     19  C   UNL     1      33.837  38.411   5.741  1.00  0.00     0.000 C 
BRANCH  19  20
ATOM     20  C   UNL     1      34.294  39.098   7.039  1.00  0.00     0.006 C 
BRANCH  20  21
ATOM     21  C   UNL     1      33.194  39.125   8.110  1.00  0.00     0.053 C 
BRANCH  21  22
ATOM     22  C   UNL     1      33.742  38.689   9.432  1.00  0.00     0.041 C 
ATOM     23  O   UNL     1      34.811  38.025   9.487  1.00  0.00    -0.550 OA
ATOM     24  O   UNL     1      33.051  38.979  10.601  1.00  0.00    -0.550 OA
ENDBRANCH  21  22
ENDBRANCH  20  21
ENDBRANCH  19  20
ENDBRANCH  18  19
ENDBRANCH  17  18
ENDBRANCH  16  17
ENDBRANCH  15  16
ENDBRANCH  14  15
ENDBRANCH  13  14
ENDBRANCH   1  13
TORSDOF 20
ENDMDL
MODEL 2
REMARK VINA RESULT:     2.973     17.582     19.833
REMARK INTER + INTRA:          11.754
REMARK INTER:                  12.895
REMARK INTRA:                  -1.141
REMARK UNBOUND:                 5.305
REMARK SMILES CCCCCCCCCCCCCCCCCCCCCC(=O)[O-]
REMARK SMILES IDX 12 1 11 2 10 3 9 4 8 5 7 6 6 7 5 8 4 9 3 10 2 11 1 12 13 13
REMARK SMILES IDX 14 14 15 15 16 16 17 17 18 18 19 19 20 20 21 21 22 22 23 23
REMARK SMILES IDX 24 24
REMARK H PARENT
REMARK Flexibility Score: inf
ROOT
ATOM      1  C   UNL     1      15.511  27.307   9.500  1.00  0.00     0.000 C 
ENDROOT
BRANCH   1   2
ATOM      2  C   UNL     1      14.875  25.910   9.565  1.00  0.00     0.000 C 
BRANCH   2   3
ATOM      3  C   UNL     1      14.904  25.180   8.214  1.00  0.00     0.000 C 
BRANCH   3   4
ATOM      4  C   UNL     1      15.012  26.145   7.020  1.00  0.00    -0.000 C 
BRANCH   4   5
ATOM      5  C   UNL     1      15.571  25.463   5.761  1.00  0.00    -0.000 C 
BRANCH   5   6
ATOM      6  C   UNL     1      16.524  26.369   4.967  1.00  0.00    -0.000 C 
BRANCH   6   7
ATOM      7  C   UNL     1      17.315  25.559   3.933  1.00  0.00    -0.000 C 
BRANCH   7   8
ATOM      8  C   UNL     1      18.741  26.109   3.777  1.00  0.00    -0.000 C 
BRANCH   8   9
ATOM      9  C   UNL     1      19.766  25.347   4.633  1.00  0.00    -0.000 C 
BRANCH   9  10
ATOM     10  C   UNL     1      21.201  25.482   4.093  1.00  0.00    -0.000 C 
BRANCH  10  11
ATOM     11  C   UNL     1      22.233  24.777   4.986  1.00  0.00    -0.003 C 
ATOM     12  C   UNL     1      21.884  24.860   6.471  1.00  0.00     0.004 C 
ENDBRANCH  10  11
ENDBRANCH   9  10
ENDBRANCH   8   9
ENDBRANCH   7   8
ENDBRANCH   6   7
ENDBRANCH   5   6
ENDBRANCH   4   5
ENDBRANCH   3   4
ENDBRANCH   2   3
ENDBRANCH   1   2
BRANCH   1  13
ATOM     13  C   UNL     1      15.454  27.998  10.871  1.00  0.00     0.000 C 
BRANCH  13  14
ATOM     14  C   UNL     1      15.147  27.022  12.019  1.00  0.00     0.000 C 
BRANCH  14  15
ATOM     15  C   UNL     1      16.385  26.372  12.666  1.00  0.00     0.000 C 
BRANCH  15  16
ATOM     16  C   UNL     1      17.646  27.262  12.630  1.00  0.00     0.000 C 
BRANCH  16  17
ATOM     17  C   UNL     1      18.738  26.684  11.712  1.00  0.00     0.000 C 
BRANCH  17  18
ATOM     18  C   UNL     1      19.766  27.738  11.272  1.00  0.00     0.000 C 
BRANCH  18  19
ATOM     19  C   UNL     1      21.144  27.532  11.925  1.00  0.00     0.000 C 
BRANCH  19  20
ATOM     20  C   UNL     1      22.259  28.308  11.205  1.00  0.00     0.006 C 
BRANCH  20  21
ATOM     21  C   UNL     1      23.525  28.450  12.061  1.00  0.00     0.053 C 
BRANCH  21  22
ATOM     22  C   UNL     1      24.400  29.538  11.523  1.00  0.00     0.041 C 
ATOM     23  O   UNL     1      25.073  29.349  10.475  1.00  0.00    -0.550 OA
ATOM     24  O   UNL     1      24.505  30.745  12.200  1.00  0.00    -0.550 OA
ENDBRANCH  21  22
ENDBRANCH  20  21
ENDBRANCH  19  20
ENDBRANCH  18  19
ENDBRANCH  17  18
ENDBRANCH  16  17
ENDBRANCH  15  16
ENDBRANCH  14  15
ENDBRANCH  13  14
ENDBRANCH   1  13
TORSDOF 20
ENDMDL
MODEL 3
REMARK VINA RESULT:     3.292     18.594     20.791
REMARK INTER + INTRA:          12.446
REMARK INTER:                  11.534
REMARK INTRA:                   0.912
REMARK UNBOUND:                 5.305
REMARK SMILES CCCCCCCCCCCCCCCCCCCCCC(=O)[O-]
REMARK SMILES IDX 12 1 11 2 10 3 9 4 8 5 7 6 6 7 5 8 4 9 3 10 2 11 1 12 13 13
REMARK SMILES IDX 14 14 15 15 16 16 17 17 18 18 19 19 20 20 21 21 22 22 23 23
REMARK SMILES IDX 24 24
REMARK H PARENT
REMARK Flexibility Score: inf
ROOT
ATOM      1  C   UNL     1      14.890  27.411   9.772  1.00  0.00     0.000 C 
ENDROOT
BRANCH   1   2
ATOM      2  C   UNL     1      14.876  26.165   8.872  1.00  0.00     0.000 C 
BRANCH   2   3
ATOM      3  C   UNL     1      14.875  26.513   7.375  1.00  0.00     0.000 C 
BRANCH   3   4
ATOM      4  C   UNL     1      15.322  25.334   6.492  1.00  0.00    -0.000 C 
BRANCH   4   5
ATOM      5  C   UNL     1      15.604  25.760   5.043  1.00  0.00    -0.000 C 
BRANCH   5   6
ATOM      6  C   UNL     1      17.005  26.366   4.863  1.00  0.00    -0.000 C 
BRANCH   6   7
ATOM      7  C   UNL     1      17.759  25.673   3.722  1.00  0.00    -0.000 C 
BRANCH   7   8
ATOM      8  C   UNL     1      19.250  26.042   3.743  1.00  0.00    -0.000 C 
BRANCH   8   9
ATOM      9  C   UNL     1      20.123  24.940   4.365  1.00  0.00    -0.000 C 
BRANCH   9  10
ATOM     10  C   UNL     1      21.590  25.375   4.532  1.00  0.00    -0.000 C 
BRANCH  10  11
ATOM     11  C   UNL     1      22.040  25.374   6.001  1.00  0.00    -0.003 C 
ATOM     12  C   UNL     1      22.273  23.966   6.546  1.00  0.00     0.004 C 
ENDBRANCH  10  11
ENDBRANCH   9  10
ENDBRANCH   8   9
ENDBRANCH   7   8
ENDBRANCH   6   7
ENDBRANCH   5   6
ENDBRANCH   4   5
ENDBRANCH   3   4
ENDBRANCH   2   3
ENDBRANCH   1   2
BRANCH   1  13
ATOM     13  C   UNL     1      16.002  27.310  10.827  1.00  0.00     0.000 C 
BRANCH  13  14
ATOM     14  C   UNL     1      15.993  25.967  11.577  1.00  0.00     0.000 C 
BRANCH  14  15
ATOM     15  C   UNL     1      15.070  25.919  12.809  1.00  0.00     0.000 C 
BRANCH  15  16
ATOM     16  C   UNL     1      15.762  25.398  14.087  1.00  0.00     0.000 C 
BRANCH  16  17
ATOM     17  C   UNL     1      17.151  26.028  14.293  1.00  0.00     0.000 C 
BRANCH  17  18
ATOM     18  C   UNL     1      17.239  27.467  13.761  1.00  0.00     0.000 C 
BRANCH  18  19
ATOM     19  C   UNL     1      18.606  27.783  13.129  1.00  0.00     0.000 C 
BRANCH  19  20
ATOM     20  C   UNL     1      18.828  27.035  11.804  1.00  0.00     0.006 C 
BRANCH  20  21
ATOM     21  C   UNL     1      19.984  27.623  10.983  1.00  0.00     0.053 C 
BRANCH  21  22
ATOM     22  C   UNL     1      21.242  27.647  11.793  1.00  0.00     0.041 C 
ATOM     23  O   UNL     1      21.366  26.889  12.792  1.00  0.00    -0.550 OA
ATOM     24  O   UNL     1      22.260  28.534  11.472  1.00  0.00    -0.550 OA
ENDBRANCH  21  22
ENDBRANCH  20  21
ENDBRANCH  19  20
ENDBRANCH  18  19
ENDBRANCH  17  18
ENDBRANCH  16  17
ENDBRANCH  15  16
ENDBRANCH  14  15
ENDBRANCH  13  14
ENDBRANCH   1  13
TORSDOF 20
ENDMDL
MODEL 4
REMARK VINA RESULT:     3.403     18.527     21.506
REMARK INTER + INTRA:          12.687
REMARK INTER:                  13.837
REMARK INTRA:                  -1.150
REMARK UNBOUND:                 5.305
REMARK SMILES CCCCCCCCCCCCCCCCCCCCCC(=O)[O-]
REMARK SMILES IDX 12 1 11 2 10 3 9 4 8 5 7 6 6 7 5 8 4 9 3 10 2 11 1 12 13 13
REMARK SMILES IDX 14 14 15 15 16 16 17 17 18 18 19 19 20 20 21 21 22 22 23 23
REMARK SMILES IDX 24 24
REMARK H PARENT
REMARK Flexibility Score: inf
ROOT
ATOM      1  C   UNL     1      15.900  26.309   8.106  1.00  0.00     0.000 C 
ENDROOT
BRANCH   1   2
ATOM      2  C   UNL     1      15.077  26.449   9.396  1.00  0.00     0.000 C 
BRANCH   2   3
ATOM      3  C   UNL     1      15.824  27.216  10.498  1.00  0.00     0.000 C 
BRANCH   3   4
ATOM      4  C   UNL     1      14.875  28.000  11.422  1.00  0.00    -0.000 C 
BRANCH   4   5
ATOM      5  C   UNL     1      14.876  27.459  12.860  1.00  0.00    -0.000 C 
BRANCH   5   6
ATOM      6  C   UNL     1      15.441  26.033  12.959  1.00  0.00    -0.000 C 
BRANCH   6   7
ATOM      7  C   UNL     1      16.722  26.010  13.802  1.00  0.00    -0.000 C 
BRANCH   7   8
ATOM      8  C   UNL     1      17.523  27.308  13.623  1.00  0.00    -0.000 C 
BRANCH   8   9
ATOM      9  C   UNL     1      18.905  27.069  12.994  1.00  0.00    -0.000 C 
BRANCH   9  10
ATOM     10  C   UNL     1      18.880  27.169  11.459  1.00  0.00    -0.000 C 
BRANCH  10  11
ATOM     11  C   UNL     1      20.236  27.590  10.875  1.00  0.00    -0.003 C 
ATOM     12  C   UNL     1      21.318  27.740  11.943  1.00  0.00     0.004 C 
ENDBRANCH  10  11
ENDBRANCH   9  10
ENDBRANCH   8   9
ENDBRANCH   7   8
ENDBRANCH   6   7
ENDBRANCH   5   6
ENDBRANCH   4   5
ENDBRANCH   3   4
ENDBRANCH   2   3
ENDBRANCH   1   2
BRANCH   1  13
ATOM     13  C   UNL     1      14.983  26.093   6.893  1.00  0.00     0.000 C 
BRANCH  13  14
ATOM     14  C   UNL     1      15.640  25.242   5.793  1.00  0.00     0.000 C 
BRANCH  14  15
ATOM     15  C   UNL     1      15.958  26.001   4.489  1.00  0.00     0.000 C 
BRANCH  15  16
ATOM     16  C   UNL     1      17.253  25.529   3.794  1.00  0.00     0.000 C 
BRANCH  16  17
ATOM     17  C   UNL     1      18.500  26.247   4.338  1.00  0.00     0.000 C 
BRANCH  17  18
ATOM     18  C   UNL     1      19.757  25.981   3.496  1.00  0.00     0.000 C 
BRANCH  18  19
ATOM     19  C   UNL     1      20.617  24.836   4.059  1.00  0.00     0.000 C 
BRANCH  19  20
ATOM     20  C   UNL     1      21.508  25.289   5.227  1.00  0.00     0.006 C 
BRANCH  20  21
ATOM     21  C   UNL     1      21.704  24.189   6.279  1.00  0.00     0.053 C 
BRANCH  21  22
ATOM     22  C   UNL     1      22.786  24.571   7.239  1.00  0.00     0.041 C 
ATOM     23  O   UNL     1      22.691  25.632   7.911  1.00  0.00    -0.550 OA
ATOM     24  O   UNL     1      23.919  23.778   7.363  1.00  0.00    -0.550 OA
ENDBRANCH  21  22
ENDBRANCH  20  21
ENDBRANCH  19  20
ENDBRANCH  18  19
ENDBRANCH  17  18
ENDBRANCH  16  17
ENDBRANCH  15  16
ENDBRANCH  14  15
ENDBRANCH  13  14
ENDBRANCH   1  13
TORSDOF 20
ENDMDL
MODEL 5
REMARK VINA RESULT:     3.567     17.048     19.770
REMARK INTER + INTRA:          13.044
REMARK INTER:                  13.012
REMARK INTRA:                   0.032
REMARK UNBOUND:                 5.305
REMARK SMILES CCCCCCCCCCCCCCCCCCCCCC(=O)[O-]
REMARK SMILES IDX 12 1 11 2 10 3 9 4 8 5 7 6 6 7 5 8 4 9 3 10 2 11 1 12 13 13
REMARK SMILES IDX 14 14 15 15 16 16 17 17 18 18 19 19 20 20 21 21 22 22 23 23
REMARK SMILES IDX 24 24
REMARK H PARENT
REMARK Flexibility Score: inf
ROOT
ATOM      1  C   UNL     1      19.655  27.730  10.612  1.00  0.00     0.000 C 
ENDROOT
BRANCH   1   2
ATOM      2  C   UNL     1      19.089  26.762  11.663  1.00  0.00     0.000 C 
BRANCH   2   3
ATOM      3  C   UNL     1      18.006  27.406  12.542  1.00  0.00     0.000 C 
BRANCH   3   4
ATOM      4  C   UNL     1      18.206  27.114  14.039  1.00  0.00    -0.000 C 
BRANCH   4   5
ATOM      5  C   UNL     1      16.995  26.405  14.667  1.00  0.00    -0.000 C 
BRANCH   5   6
ATOM      6  C   UNL     1      16.215  25.552  13.654  1.00  0.00    -0.000 C 
BRANCH   6   7
ATOM      7  C   UNL     1      14.983  26.305  13.138  1.00  0.00    -0.000 C 
BRANCH   7   8
ATOM      8  C   UNL     1      15.383  27.649  12.512  1.00  0.00    -0.000 C 
BRANCH   8   9
ATOM      9  C   UNL     1      14.876  27.803  11.069  1.00  0.00    -0.000 C 
BRANCH   9  10
ATOM     10  C   UNL     1      15.096  26.533  10.228  1.00  0.00    -0.000 C 
BRANCH  10  11
ATOM     11  C   UNL     1      14.920  26.787   8.723  1.00  0.00    -0.003 C 
ATOM     12  C   UNL     1      14.880  25.496   7.907  1.00  0.00     0.004 C 
ENDBRANCH  10  11
ENDBRANCH   9  10
ENDBRANCH   8   9
ENDBRANCH   7   8
ENDBRANCH   6   7
ENDBRANCH   5   6
ENDBRANCH   4   5
ENDBRANCH   3   4
ENDBRANCH   2   3
ENDBRANCH   1   2
BRANCH   1  13
ATOM     13  C   UNL     1      21.155  27.970  10.841  1.00  0.00     0.000 C 
BRANCH  13  14
ATOM     14  C   UNL     1      21.626  27.512  12.232  1.00  0.00     0.000 C 
BRANCH  14  15
ATOM     15  C   UNL     1      23.073  27.905  12.588  1.00  0.00     0.000 C 
BRANCH  15  16
ATOM     16  C   UNL     1      23.808  28.663  11.462  1.00  0.00     0.000 C 
BRANCH  16  17
ATOM     17  C   UNL     1      24.311  30.043  11.923  1.00  0.00     0.000 C 
BRANCH  17  18
ATOM     18  C   UNL     1      25.845  30.147  11.929  1.00  0.00     0.000 C 
BRANCH  18  19
ATOM     19  C   UNL     1      26.481  29.596  10.641  1.00  0.00     0.000 C 
BRANCH  19  20
ATOM     20  C   UNL     1      27.795  30.310  10.282  1.00  0.00     0.006 C 
BRANCH  20  21
ATOM     21  C   UNL     1      28.420  29.778   8.986  1.00  0.00     0.053 C 
BRANCH  21  22
ATOM     22  C   UNL     1      28.948  28.393   9.190  1.00  0.00     0.041 C 
ATOM     23  O   UNL     1      28.383  27.412   8.638  1.00  0.00    -0.550 OA
ATOM     24  O   UNL     1      30.038  28.180  10.022  1.00  0.00    -0.550 OA
ENDBRANCH  21  22
ENDBRANCH  20  21
ENDBRANCH  19  20
ENDBRANCH  18  19
ENDBRANCH  17  18
ENDBRANCH  16  17
ENDBRANCH  15  16
ENDBRANCH  14  15
ENDBRANCH  13  14
ENDBRANCH   1  13
TORSDOF 20
ENDMDL
MODEL 6
REMARK VINA RESULT:     3.798     18.251     21.421
REMARK INTER + INTRA:          13.543
REMARK INTER:                  14.404
REMARK INTRA:                  -0.860
REMARK UNBOUND:                 5.305
REMARK SMILES CCCCCCCCCCCCCCCCCCCCCC(=O)[O-]
REMARK SMILES IDX 12 1 11 2 10 3 9 4 8 5 7 6 6 7 5 8 4 9 3 10 2 11 1 12 13 13
REMARK SMILES IDX 14 14 15 15 16 16 17 17 18 18 19 19 20 20 21 21 22 22 23 23
REMARK SMILES IDX 24 24
REMARK H PARENT
REMARK Flexibility Score: inf
ROOT
ATOM      1  C   UNL     1      15.798  26.886   9.969  1.00  0.00     0.000 C 
ENDROOT
BRANCH   1   2
ATOM      2  C   UNL     1      15.170  26.120  11.144  1.00  0.00     0.000 C 
BRANCH   2   3
ATOM      3  C   UNL     1      15.102  26.957  12.431  1.00  0.00     0.000 C 
BRANCH   3   4
ATOM      4  C   UNL     1      15.839  26.294  13.608  1.00  0.00    -0.000 C 
BRANCH   4   5
ATOM      5  C   UNL     1      17.367  26.353  13.454  1.00  0.00    -0.000 C 
BRANCH   5   6
ATOM      6  C   UNL     1      17.827  27.490  12.529  1.00  0.00    -0.000 C 
BRANCH   6   7
ATOM      7  C   UNL     1      19.005  27.042  11.656  1.00  0.00    -0.000 C 
BRANCH   7   8
ATOM      8  C   UNL     1      20.145  28.071  11.698  1.00  0.00    -0.000 C 
BRANCH   8   9
ATOM      9  C   UNL     1      21.478  27.499  11.190  1.00  0.00    -0.000 C 
BRANCH   9  10
ATOM     10  C   UNL     1      22.679  27.962  12.033  1.00  0.00    -0.000 C 
BRANCH  10  11
ATOM     11  C   UNL     1      23.740  28.691  11.196  1.00  0.00    -0.003 C 
ATOM     12  C   UNL     1      24.279  29.943  11.885  1.00  0.00     0.004 C 
ENDBRANCH  10  11
ENDBRANCH   9  10
ENDBRANCH   8   9
ENDBRANCH   7   8
ENDBRANCH   6   7
ENDBRANCH   5   6
ENDBRANCH   4   5
ENDBRANCH   3   4
ENDBRANCH   2   3
ENDBRANCH   1   2
BRANCH   1  13
ATOM     13  C   UNL     1      14.875  26.857   8.741  1.00  0.00     0.000 C 
BRANCH  13  14
ATOM     14  C   UNL     1      14.915  25.511   7.998  1.00  0.00     0.000 C 
BRANCH  14  15
ATOM     15  C   UNL     1      14.875  25.618   6.461  1.00  0.00     0.000 C 
BRANCH  15  16
ATOM     16  C   UNL     1      16.209  26.077   5.834  1.00  0.00     0.000 C 
BRANCH  16  17
ATOM     17  C   UNL     1      16.286  25.755   4.331  1.00  0.00     0.000 C 
BRANCH  17  18
ATOM     18  C   UNL     1      17.706  25.388   3.872  1.00  0.00     0.000 C 
BRANCH  18  19
ATOM     19  C   UNL     1      18.615  26.620   3.716  1.00  0.00     0.000 C 
BRANCH  19  20
ATOM     20  C   UNL     1      20.094  26.297   3.983  1.00  0.00     0.006 C 
BRANCH  20  21
ATOM     21  C   UNL     1      20.277  25.041   4.846  1.00  0.00     0.053 C 
BRANCH  21  22
ATOM     22  C   UNL     1      21.687  24.944   5.335  1.00  0.00     0.041 C 
ATOM     23  O   UNL     1      22.617  25.510   4.703  1.00  0.00    -0.550 OA
ATOM     24  O   UNL     1      21.982  24.193   6.465  1.00  0.00    -0.550 OA
ENDBRANCH  21  22
ENDBRANCH  20  21
ENDBRANCH  19  20
ENDBRANCH  18  19
ENDBRANCH  17  18
ENDBRANCH  16  17
ENDBRANCH  15  16
ENDBRANCH  14  15
ENDBRANCH  13  14
ENDBRANCH   1  13
TORSDOF 20
ENDMDL
