MODEL 1
REMARK VINA RESULT:    -3.003      0.000      0.000
REMARK INTER + INTRA:          -3.636
REMARK INTER:                  -3.530
REMARK INTRA:                  -0.107
REMARK UNBOUND:                -0.107
REMARK SMILES O=C([O-])CCC(=O)[O-]
REMARK SMILES IDX 4 1 2 2 1 3 3 4 5 5 6 6 7 7 8 8
REMARK H PARENT
REMARK Flexibility Score: inf
ROOT
ATOM      1  C   UNL     1      37.016  15.940 137.980  1.00  0.00     0.059 C 
ENDROOT
BRANCH   1   2
ATOM      2  C   UNL     1      37.078  15.213 136.671  1.00  0.00     0.042 C 
ATOM      3  O   UNL     1      37.125  13.955 136.645  1.00  0.00    -0.550 OA
ATOM      4  O   UNL     1      37.124  15.929 135.481  1.00  0.00    -0.550 OA
ENDBRANCH   1   2
BRANCH   1   5
ATOM      5  C   UNL     1      35.609  16.477 138.259  1.00  0.00     0.059 C 
BRANCH   5   6
ATOM      6  C   UNL     1      34.916  15.682 139.324  1.00  0.00     0.042 C 
ATOM      7  O   UNL     1      35.395  14.582 139.707  1.00  0.00    -0.550 OA
ATOM      8  O   UNL     1      33.720  16.137 139.864  1.00  0.00    -0.550 OA
ENDBRANCH   5   6
ENDBRANCH   1   5
TORSDOF 3
ENDMDL
MODEL 2
REMARK VINA RESULT:    -2.955      0.751      1.716
REMARK INTER + INTRA:          -3.580
REMARK INTER:                  -3.475
REMARK INTRA:                  -0.104
REMARK UNBOUND:                -0.107
REMARK SMILES O=C([O-])CCC(=O)[O-]
REMARK SMILES IDX 4 1 2 2 1 3 3 4 5 5 6 6 7 7 8 8
REMARK H PARENT
REMARK Flexibility Score: inf
ROOT
ATOM      1  C   UNL     1      36.399  16.513 137.716  1.00  0.00     0.059 C 
ENDROOT
BRANCH   1   2
ATOM      2  C   UNL     1      36.856  15.631 136.594  1.00  0.00     0.042 C 
ATOM      3  O   UNL     1      36.968  16.093 135.428  1.00  0.00    -0.550 OA
ATOM      4  O   UNL     1      37.119  14.288 136.831  1.00  0.00    -0.550 OA
ENDBRANCH   1   2
BRANCH   1   5
ATOM      5  C   UNL     1      36.324  15.747 139.040  1.00  0.00     0.059 C 
BRANCH   5   6
ATOM      6  C   UNL     1      34.931  15.274 139.326  1.00  0.00     0.042 C 
ATOM      7  O   UNL     1      34.067  16.077 139.766  1.00  0.00    -0.550 OA
ATOM      8  O   UNL     1      34.599  13.937 139.146  1.00  0.00    -0.550 OA
ENDBRANCH   5   6
ENDBRANCH   1   5
TORSDOF 3
ENDMDL
MODEL 3
REMARK VINA RESULT:    -2.952      0.319      3.838
REMARK INTER + INTRA:          -3.577
REMARK INTER:                  -3.476
REMARK INTRA:                  -0.101
REMARK UNBOUND:                -0.107
REMARK SMILES O=C([O-])CCC(=O)[O-]
REMARK SMILES IDX 4 1 2 2 1 3 3 4 5 5 6 6 7 7 8 8
REMARK H PARENT
REMARK Flexibility Score: inf
ROOT
ATOM      1  C   UNL     1      35.820  16.496 138.672  1.00  0.00     0.059 C 
ENDROOT
BRANCH   1   2
ATOM      2  C   UNL     1      34.872  15.628 139.442  1.00  0.00     0.042 C 
ATOM      3  O   UNL     1      33.756  16.078 139.811  1.00  0.00    -0.550 OA
ATOM      4  O   UNL     1      35.241  14.333 139.785  1.00  0.00    -0.550 OA
ENDBRANCH   1   2
BRANCH   1   5
ATOM      5  C   UNL     1      37.125  15.759 138.351  1.00  0.00     0.059 C 
BRANCH   5   6
ATOM      6  C   UNL     1      37.091  15.145 136.985  1.00  0.00     0.042 C 
ATOM      7  O   UNL     1      37.068  13.893 136.853  1.00  0.00    -0.550 OA
ATOM      8  O   UNL     1      37.125  15.956 135.857  1.00  0.00    -0.550 OA
ENDBRANCH   5   6
ENDBRANCH   1   5
TORSDOF 3
ENDMDL
MODEL 4
REMARK VINA RESULT:    -2.943      9.428     10.299
REMARK INTER + INTRA:          -3.566
REMARK INTER:                  -3.441
REMARK INTRA:                  -0.125
REMARK UNBOUND:                -0.107
REMARK SMILES O=C([O-])CCC(=O)[O-]
REMARK SMILES IDX 4 1 2 2 1 3 3 4 5 5 6 6 7 7 8 8
REMARK H PARENT
REMARK Flexibility Score: inf
ROOT
ATOM      1  C   UNL     1      26.536  18.862 133.813  1.00  0.00     0.059 C 
ENDROOT
BRANCH   1   2
ATOM      2  C   UNL     1      28.033  18.827 133.748  1.00  0.00     0.042 C 
ATOM      3  O   UNL     1      28.618  18.689 132.641  1.00  0.00    -0.550 OA
ATOM      4  O   UNL     1      28.780  18.909 134.916  1.00  0.00    -0.550 OA
ENDBRANCH   1   2
BRANCH   1   5
ATOM      5  C   UNL     1      25.957  17.490 134.175  1.00  0.00     0.059 C 
BRANCH   5   6
ATOM      6  C   UNL     1      25.613  17.402 135.631  1.00  0.00     0.042 C 
ATOM      7  O   UNL     1      24.490  17.795 136.042  1.00  0.00    -0.550 OA
ATOM      8  O   UNL     1      26.551  16.924 136.539  1.00  0.00    -0.550 OA
ENDBRANCH   5   6
ENDBRANCH   1   5
TORSDOF 3
ENDMDL
MODEL 5
REMARK VINA RESULT:    -2.905     21.929     22.289
REMARK INTER + INTRA:          -3.522
REMARK INTER:                  -3.485
REMARK INTRA:                  -0.037
REMARK UNBOUND:                -0.107
REMARK SMILES O=C([O-])CCC(=O)[O-]
REMARK SMILES IDX 4 1 2 2 1 3 3 4 5 5 6 6 7 7 8 8
REMARK H PARENT
REMARK Flexibility Score: inf
ROOT
ATOM      1  C   UNL     1      22.771   2.300 126.862  1.00  0.00     0.059 C 
ENDROOT
BRANCH   1   2
ATOM      2  C   UNL     1      22.934   1.110 125.966  1.00  0.00     0.042 C 
ATOM      3  O   UNL     1      23.906   0.326 126.121  1.00  0.00    -0.550 OA
ATOM      4  O   UNL     1      22.030   0.892 124.933  1.00  0.00    -0.550 OA
ENDBRANCH   1   2
BRANCH   1   5
ATOM      5  C   UNL     1      21.448   3.026 126.599  1.00  0.00     0.059 C 
BRANCH   5   6
ATOM      6  C   UNL     1      20.846   3.553 127.867  1.00  0.00     0.042 C 
ATOM      7  O   UNL     1      19.849   2.982 128.381  1.00  0.00    -0.550 OA
ATOM      8  O   UNL     1      21.363   4.700 128.457  1.00  0.00    -0.550 OA
ENDBRANCH   5   6
ENDBRANCH   1   5
TORSDOF 3
ENDMDL
MODEL 6
REMARK VINA RESULT:    -2.896      1.685      2.369
REMARK INTER + INTRA:          -3.510
REMARK INTER:                  -3.426
REMARK INTRA:                  -0.084
REMARK UNBOUND:                -0.107
REMARK SMILES O=C([O-])CCC(=O)[O-]
REMARK SMILES IDX 4 1 2 2 1 3 3 4 5 5 6 6 7 7 8 8
REMARK H PARENT
REMARK Flexibility Score: inf
ROOT
ATOM      1  C   UNL     1      35.158  14.383 138.959  1.00  0.00     0.059 C 
ENDROOT
BRANCH   1   2
ATOM      2  C   UNL     1      36.482  14.835 138.424  1.00  0.00     0.042 C 
ATOM      3  O   UNL     1      37.124  15.750 139.005  1.00  0.00    -0.550 OA
ATOM      4  O   UNL     1      36.988  14.273 137.258  1.00  0.00    -0.550 OA
ENDBRANCH   1   2
BRANCH   1   5
ATOM      5  C   UNL     1      34.521  15.448 139.858  1.00  0.00     0.059 C 
BRANCH   5   6
ATOM      6  C   UNL     1      33.346  16.100 139.194  1.00  0.00     0.042 C 
ATOM      7  O   UNL     1      33.295  16.187 137.939  1.00  0.00    -0.550 OA
ATOM      8  O   UNL     1      32.327  16.647 139.964  1.00  0.00    -0.550 OA
ENDBRANCH   5   6
ENDBRANCH   1   5
TORSDOF 3
ENDMDL
MODEL 7
REMARK VINA RESULT:    -2.895     21.929     22.554
REMARK INTER + INTRA:          -3.510
REMARK INTER:                  -3.474
REMARK INTRA:                  -0.035
REMARK UNBOUND:                -0.107
REMARK SMILES O=C([O-])CCC(=O)[O-]
REMARK SMILES IDX 4 1 2 2 1 3 3 4 5 5 6 6 7 7 8 8
REMARK H PARENT
REMARK Flexibility Score: inf
ROOT
ATOM      1  C   UNL     1      21.409   2.991 126.612  1.00  0.00     0.059 C 
ENDROOT
BRANCH   1   2
ATOM      2  C   UNL     1      20.850   3.520 127.898  1.00  0.00     0.042 C 
ATOM      3  O   UNL     1      19.875   2.946 128.451  1.00  0.00    -0.550 OA
ATOM      4  O   UNL     1      21.382   4.672 128.463  1.00  0.00    -0.550 OA
ENDBRANCH   1   2
BRANCH   1   5
ATOM      5  C   UNL     1      22.772   2.324 126.824  1.00  0.00     0.059 C 
BRANCH   5   6
ATOM      6  C   UNL     1      22.941   1.122 125.944  1.00  0.00     0.042 C 
ATOM      7  O   UNL     1      23.915   0.344 126.114  1.00  0.00    -0.550 OA
ATOM      8  O   UNL     1      22.043   0.886 124.910  1.00  0.00    -0.550 OA
ENDBRANCH   5   6
ENDBRANCH   1   5
TORSDOF 3
ENDMDL
MODEL 8
REMARK VINA RESULT:    -2.850      1.238      3.796
REMARK INTER + INTRA:          -3.457
REMARK INTER:                  -3.302
REMARK INTRA:                  -0.155
REMARK UNBOUND:                -0.107
REMARK SMILES O=C([O-])CCC(=O)[O-]
REMARK SMILES IDX 4 1 2 2 1 3 3 4 5 5 6 6 7 7 8 8
REMARK H PARENT
REMARK Flexibility Score: inf
ROOT
ATOM      1  C   UNL     1      35.590  14.379 139.422  1.00  0.00     0.059 C 
ENDROOT
BRANCH   1   2
ATOM      2  C   UNL     1      34.242  14.983 139.167  1.00  0.00     0.042 C 
ATOM      3  O   UNL     1      33.438  14.428 138.373  1.00  0.00    -0.550 OA
ATOM      4  O   UNL     1      33.891  16.180 139.778  1.00  0.00    -0.550 OA
ENDBRANCH   1   2
BRANCH   1   5
ATOM      5  C   UNL     1      36.717  15.286 138.916  1.00  0.00     0.059 C 
BRANCH   5   6
ATOM      6  C   UNL     1      36.851  15.220 137.424  1.00  0.00     0.042 C 
ATOM      7  O   UNL     1      36.904  16.279 136.745  1.00  0.00    -0.550 OA
ATOM      8  O   UNL     1      36.875  13.988 136.782  1.00  0.00    -0.550 OA
ENDBRANCH   5   6
ENDBRANCH   1   5
TORSDOF 3
ENDMDL
