MODEL 1
REMARK VINA RESULT:    -3.594      0.000      0.000
REMARK INTER + INTRA:          -5.856
REMARK INTER:                  -5.485
REMARK INTRA:                  -0.371
REMARK UNBOUND:                -0.371
REMARK SMILES CC1=CCC[C@H](C)C(=O)C[C@@H](C(C)C)C(=O)C1
REMARK SMILES IDX 8 1 9 2 6 3 7 4 5 5 4 6 3 7 2 8 1 9 10 11 11 12 15 13 16 14
REMARK SMILES IDX 17 15 12 17 13 18 14 19
REMARK H PARENT
REMARK Flexibility Score: 70.00
ROOT
ATOM      1  C   UNL     1      18.605 124.082  15.213  1.00  0.00     0.136 C 
ATOM      2  O   UNL     1      18.638 124.196  13.995  1.00  0.00    -0.299 OA
ENDROOT
BRANCH   1   3
ATOM      3  C   UNL     1      19.453 124.984  16.082  1.00  0.00     0.053 C 
ATOM      4  C   UNL     1      20.942 124.698  15.846  1.00  0.00     0.016 C 
BRANCH   3   5
ATOM      5  C   UNL     1      19.110 126.481  15.833  1.00  0.00     0.015 C 
BRANCH   5   6
ATOM      6  C   UNL     1      17.860 126.967  16.600  1.00  0.00     0.028 C 
BRANCH   6   7
ATOM      7  C   UNL     1      17.873 126.546  18.054  1.00  0.00    -0.028 C 
ATOM      8  C   UNL     1      16.932 125.810  18.693  1.00  0.00    -0.070 CG0
ATOM      9  C   UNL     1      17.154 125.488  20.147  1.00  0.00     0.039 C 
ATOM     10  G   UNL     1      15.676 125.280  18.029  1.00  0.00     0.000 G0
ENDBRANCH   6   7
ENDBRANCH   5   6
ENDBRANCH   3   5
ENDBRANCH   1   3
BRANCH   1  11
ATOM     11  C   UNL     1      17.654 123.097  15.839  1.00  0.00     0.087 C 
BRANCH  11  12
ATOM     12  C   UNL     1      16.222 123.701  15.952  1.00  0.00     0.066 C 
BRANCH  12  13
ATOM     13  C   UNL     1      15.882 123.877  17.426  1.00  0.00     0.140 C 
ATOM     14  O   UNL     1      15.901 122.901  18.161  1.00  0.00    -0.299 OA
BRANCH  13  15
ATOM     15  C   UNL     1      15.668 125.240  18.046  1.00  0.00     0.106 CG0
ATOM     16  G   UNL     1      16.921 125.803  18.687  1.00  0.00     0.000 G0
ENDBRANCH  13  15
ENDBRANCH  12  13
BRANCH  12  17
ATOM     17  C   UNL     1      15.156 122.847  15.194  1.00  0.00    -0.006 C 
ATOM     18  C   UNL     1      15.761 121.531  14.669  1.00  0.00     0.008 C 
ATOM     19  C   UNL     1      14.547 123.608  14.001  1.00  0.00     0.008 C 
ENDBRANCH  12  17
ENDBRANCH  11  12
ENDBRANCH   1  11
TORSDOF 1
ENDMDL
MODEL 2
REMARK VINA RESULT:    -3.545     10.191     12.061
REMARK INTER + INTRA:          -5.781
REMARK INTER:                  -5.431
REMARK INTRA:                  -0.351
REMARK UNBOUND:                -0.371
REMARK SMILES CC1=CCC[C@H](C)C(=O)C[C@@H](C(C)C)C(=O)C1
REMARK SMILES IDX 8 1 9 2 6 3 7 4 5 5 4 6 3 7 2 8 1 9 10 11 11 12 15 13 16 14
REMARK SMILES IDX 17 15 12 17 13 18 14 19
REMARK H PARENT
REMARK Flexibility Score: 70.00
ROOT
ATOM      1  C   UNL     1       7.771 118.336  20.408  1.00  0.00     0.136 C 
ATOM      2  O   UNL     1       7.202 119.418  20.440  1.00  0.00    -0.299 OA
ENDROOT
BRANCH   1   3
ATOM      3  C   UNL     1       8.226 117.756  19.087  1.00  0.00     0.053 C 
ATOM      4  C   UNL     1       7.032 117.609  18.135  1.00  0.00     0.016 C 
BRANCH   3   5
ATOM      5  C   UNL     1       9.357 118.621  18.460  1.00  0.00     0.015 C 
BRANCH   5   6
ATOM      6  C   UNL     1      10.780 118.116  18.789  1.00  0.00     0.028 C 
BRANCH   6   7
ATOM      7  C   UNL     1      10.873 116.605  18.785  1.00  0.00    -0.028 C 
ATOM      8  C   UNL     1      11.184 115.810  19.838  1.00  0.00    -0.070 CG0
ATOM      9  C   UNL     1      11.202 114.320  19.617  1.00  0.00     0.039 C 
ATOM     10  G   UNL     1      11.501 116.328  21.227  1.00  0.00     0.000 G0
ENDBRANCH   6   7
ENDBRANCH   5   6
ENDBRANCH   3   5
ENDBRANCH   1   3
BRANCH   1  11
ATOM     11  C   UNL     1       8.088 117.628  21.699  1.00  0.00     0.087 C 
BRANCH  11  12
ATOM     12  C   UNL     1       9.565 117.884  22.126  1.00  0.00     0.066 C 
BRANCH  12  13
ATOM     13  C   UNL     1      10.311 116.557  22.121  1.00  0.00     0.140 C 
ATOM     14  O   UNL     1       9.855 115.615  22.753  1.00  0.00    -0.299 OA
BRANCH  13  15
ATOM     15  C   UNL     1      11.518 116.315  21.240  1.00  0.00     0.106 CG0
ATOM     16  G   UNL     1      11.151 115.814  19.857  1.00  0.00     0.000 G0
ENDBRANCH  13  15
ENDBRANCH  12  13
BRANCH  12  17
ATOM     17  C   UNL     1       9.666 118.617  23.502  1.00  0.00    -0.006 C 
ATOM     18  C   UNL     1       9.022 120.016  23.441  1.00  0.00     0.008 C 
ATOM     19  C   UNL     1      11.125 118.778  23.967  1.00  0.00     0.008 C 
ENDBRANCH  12  17
ENDBRANCH  11  12
ENDBRANCH   1  11
TORSDOF 1
ENDMDL
MODEL 3
REMARK VINA RESULT:    -3.538      9.388     11.694
REMARK INTER + INTRA:          -5.771
REMARK INTER:                  -5.437
REMARK INTRA:                  -0.334
REMARK UNBOUND:                -0.371
REMARK SMILES CC1=CCC[C@H](C)C(=O)C[C@@H](C(C)C)C(=O)C1
REMARK SMILES IDX 8 1 9 2 6 3 7 4 5 5 4 6 3 7 2 8 1 9 10 11 11 12 15 13 16 14
REMARK SMILES IDX 17 15 12 17 13 18 14 19
REMARK H PARENT
REMARK Flexibility Score: 70.00
ROOT
ATOM      1  C   UNL     1      12.056 114.188  17.856  1.00  0.00     0.136 C 
ATOM      2  O   UNL     1      13.161 114.413  17.381  1.00  0.00    -0.299 OA
ENDROOT
BRANCH   1   3
ATOM      3  C   UNL     1      11.590 112.763  18.051  1.00  0.00     0.053 C 
ATOM      4  C   UNL     1      11.623 112.008  16.715  1.00  0.00     0.016 C 
BRANCH   3   5
ATOM      5  C   UNL     1      12.440 112.043  19.137  1.00  0.00     0.015 C 
BRANCH   5   6
ATOM      6  C   UNL     1      12.029 112.401  20.584  1.00  0.00     0.028 C 
BRANCH   6   7
ATOM      7  C   UNL     1      13.035 113.307  21.263  1.00  0.00    -0.028 C 
ATOM      8  C   UNL     1      12.878 114.623  21.544  1.00  0.00    -0.070 CG0
ATOM      9  C   UNL     1      14.005 115.335  22.246  1.00  0.00     0.039 C 
ATOM     10  G   UNL     1      11.633 115.420  21.207  1.00  0.00     0.000 G0
ENDBRANCH   6   7
ENDBRANCH   5   6
ENDBRANCH   3   5
ENDBRANCH   1   3
BRANCH   1  11
ATOM     11  C   UNL     1      11.202 115.338  18.320  1.00  0.00     0.087 C 
BRANCH  11  12
ATOM     12  C   UNL     1      12.084 116.514  18.838  1.00  0.00     0.066 C 
BRANCH  12  13
ATOM     13  C   UNL     1      11.901 116.635  20.344  1.00  0.00     0.140 C 
ATOM     14  O   UNL     1      11.853 117.747  20.850  1.00  0.00    -0.299 OA
BRANCH  13  15
ATOM     15  C   UNL     1      11.623 115.433  21.221  1.00  0.00     0.106 CG0
ATOM     16  G   UNL     1      12.868 114.629  21.537  1.00  0.00     0.000 G0
ENDBRANCH  13  15
ENDBRANCH  12  13
BRANCH  12  17
ATOM     17  C   UNL     1      11.783 117.854  18.092  1.00  0.00    -0.006 C 
ATOM     18  C   UNL     1      10.286 117.982  17.750  1.00  0.00     0.008 C 
ATOM     19  C   UNL     1      12.589 117.984  16.786  1.00  0.00     0.008 C 
ENDBRANCH  12  17
ENDBRANCH  11  12
ENDBRANCH   1  11
TORSDOF 1
ENDMDL
MODEL 4
REMARK VINA RESULT:    -3.519      9.655     11.230
REMARK INTER + INTRA:          -5.741
REMARK INTER:                  -5.453
REMARK INTRA:                  -0.288
REMARK UNBOUND:                -0.371
REMARK SMILES CC1=CCC[C@H](C)C(=O)C[C@@H](C(C)C)C(=O)C1
REMARK SMILES IDX 8 1 9 2 6 3 7 4 5 5 4 6 3 7 2 8 1 9 10 11 11 12 15 13 16 14
REMARK SMILES IDX 17 15 12 17 13 18 14 19
REMARK H PARENT
REMARK Flexibility Score: 70.00
ROOT
ATOM      1  C   UNL     1      10.790 116.866  18.951  1.00  0.00     0.136 C 
ATOM      2  O   UNL     1      10.820 115.712  18.549  1.00  0.00    -0.299 OA
ENDROOT
BRANCH   1   3
ATOM      3  C   UNL     1      10.065 117.928  18.154  1.00  0.00     0.053 C 
ATOM      4  C   UNL     1      10.691 118.062  16.760  1.00  0.00     0.016 C 
BRANCH   3   5
ATOM      5  C   UNL     1       8.542 117.619  18.072  1.00  0.00     0.015 C 
BRANCH   5   6
ATOM      6  C   UNL     1       7.748 118.078  19.316  1.00  0.00     0.028 C 
BRANCH   6   7
ATOM      7  C   UNL     1       8.150 119.462  19.781  1.00  0.00    -0.028 C 
ATOM      8  C   UNL     1       8.603 119.802  21.012  1.00  0.00    -0.070 CG0
ATOM      9  C   UNL     1       8.966 121.243  21.258  1.00  0.00     0.039 C 
ATOM     10  G   UNL     1       8.779 118.819  22.153  1.00  0.00     0.000 G0
ENDBRANCH   6   7
ENDBRANCH   5   6
ENDBRANCH   3   5
ENDBRANCH   1   3
BRANCH   1  11
ATOM     11  C   UNL     1      11.407 117.204  20.282  1.00  0.00     0.087 C 
BRANCH  11  12
ATOM     12  C   UNL     1      10.427 116.877  21.449  1.00  0.00     0.066 C 
BRANCH  12  13
ATOM     13  C   UNL     1      10.134 118.160  22.214  1.00  0.00     0.140 C 
ATOM     14  O   UNL     1      11.051 118.738  22.778  1.00  0.00    -0.299 OA
BRANCH  13  15
ATOM     15  C   UNL     1       8.777 118.828  22.177  1.00  0.00     0.106 CG0
ATOM     16  G   UNL     1       8.615 119.777  21.006  1.00  0.00     0.000 G0
ENDBRANCH  13  15
ENDBRANCH  12  13
BRANCH  12  17
ATOM     17  C   UNL     1      10.966 115.741  22.377  1.00  0.00    -0.006 C 
ATOM     18  C   UNL     1      11.229 114.446  21.584  1.00  0.00     0.008 C 
ATOM     19  C   UNL     1       9.989 115.415  23.522  1.00  0.00     0.008 C 
ENDBRANCH  12  17
ENDBRANCH  11  12
ENDBRANCH   1  11
TORSDOF 1
ENDMDL
MODEL 5
REMARK VINA RESULT:    -3.467     10.147     11.510
REMARK INTER + INTRA:          -5.662
REMARK INTER:                  -5.482
REMARK INTRA:                  -0.181
REMARK UNBOUND:                -0.371
REMARK SMILES CC1=CCC[C@H](C)C(=O)C[C@@H](C(C)C)C(=O)C1
REMARK SMILES IDX 8 1 9 2 6 3 7 4 5 5 4 6 3 7 2 8 1 9 10 11 11 12 15 13 16 14
REMARK SMILES IDX 17 15 12 17 13 18 14 19
REMARK H PARENT
REMARK Flexibility Score: 70.00
ROOT
ATOM      1  C   UNL     1       9.134 120.794  20.423  1.00  0.00     0.136 C 
ATOM      2  O   UNL     1       8.953 121.451  19.408  1.00  0.00    -0.299 OA
ENDROOT
BRANCH   1   3
ATOM      3  C   UNL     1       8.551 121.256  21.740  1.00  0.00     0.053 C 
ATOM      4  C   UNL     1       8.575 122.789  21.820  1.00  0.00     0.016 C 
BRANCH   3   5
ATOM      5  C   UNL     1       7.115 120.693  21.941  1.00  0.00     0.015 C 
BRANCH   5   6
ATOM      6  C   UNL     1       6.945 119.876  23.242  1.00  0.00     0.028 C 
BRANCH   6   7
ATOM      7  C   UNL     1       8.258 119.655  23.962  1.00  0.00    -0.028 C 
ATOM      8  C   UNL     1       9.053 118.561  23.879  1.00  0.00    -0.070 CG0
ATOM      9  C   UNL     1      10.334 118.556  24.671  1.00  0.00     0.039 C 
ATOM     10  G   UNL     1       8.739 117.347  23.027  1.00  0.00     0.000 G0
ENDBRANCH   6   7
ENDBRANCH   5   6
ENDBRANCH   3   5
ENDBRANCH   1   3
BRANCH   1  11
ATOM     11  C   UNL     1       9.868 119.482  20.336  1.00  0.00     0.087 C 
BRANCH  11  12
ATOM     12  C   UNL     1       8.891 118.283  20.526  1.00  0.00     0.066 C 
BRANCH  12  13
ATOM     13  C   UNL     1       9.415 117.401  21.651  1.00  0.00     0.140 C 
ATOM     14  O   UNL     1      10.476 116.814  21.501  1.00  0.00    -0.299 OA
BRANCH  13  15
ATOM     15  C   UNL     1       8.746 117.343  23.006  1.00  0.00     0.106 CG0
ATOM     16  G   UNL     1       9.059 118.545  23.874  1.00  0.00     0.000 G0
ENDBRANCH  13  15
ENDBRANCH  12  13
BRANCH  12  17
ATOM     17  C   UNL     1       8.665 117.486  19.201  1.00  0.00    -0.006 C 
ATOM     18  C   UNL     1       9.864 117.635  18.245  1.00  0.00     0.008 C 
ATOM     19  C   UNL     1       7.396 117.945  18.458  1.00  0.00     0.008 C 
ENDBRANCH  12  17
ENDBRANCH  11  12
ENDBRANCH   1  11
TORSDOF 1
ENDMDL
MODEL 6
REMARK VINA RESULT:    -3.463      9.456     11.321
REMARK INTER + INTRA:          -5.656
REMARK INTER:                  -5.410
REMARK INTRA:                  -0.247
REMARK UNBOUND:                -0.371
REMARK SMILES CC1=CCC[C@H](C)C(=O)C[C@@H](C(C)C)C(=O)C1
REMARK SMILES IDX 8 1 9 2 6 3 7 4 5 5 4 6 3 7 2 8 1 9 10 11 11 12 15 13 16 14
REMARK SMILES IDX 17 15 12 17 13 18 14 19
REMARK H PARENT
REMARK Flexibility Score: 70.00
ROOT
ATOM      1  C   UNL     1      10.180 117.431  18.029  1.00  0.00     0.136 C 
ATOM      2  O   UNL     1      10.175 118.356  17.229  1.00  0.00    -0.299 OA
ENDROOT
BRANCH   1   3
ATOM      3  C   UNL     1      11.354 116.479  18.082  1.00  0.00     0.053 C 
ATOM      4  C   UNL     1      12.663 117.264  18.241  1.00  0.00     0.016 C 
BRANCH   3   5
ATOM      5  C   UNL     1      11.171 115.432  19.218  1.00  0.00     0.015 C 
BRANCH   5   6
ATOM      6  C   UNL     1      12.006 115.736  20.483  1.00  0.00     0.028 C 
BRANCH   6   7
ATOM      7  C   UNL     1      11.326 115.267  21.751  1.00  0.00    -0.028 C 
ATOM      8  C   UNL     1      10.547 116.010  22.574  1.00  0.00    -0.070 CG0
ATOM      9  C   UNL     1       9.950 115.336  23.782  1.00  0.00     0.039 C 
ATOM     10  G   UNL     1      10.230 117.475  22.348  1.00  0.00     0.000 G0
ENDBRANCH   6   7
ENDBRANCH   5   6
ENDBRANCH   3   5
ENDBRANCH   1   3
BRANCH   1  11
ATOM     11  C   UNL     1       9.048 117.298  19.013  1.00  0.00     0.087 C 
BRANCH  11  12
ATOM     12  C   UNL     1       9.143 118.390  20.120  1.00  0.00     0.066 C 
BRANCH  12  13
ATOM     13  C   UNL     1       9.016 117.718  21.481  1.00  0.00     0.140 C 
ATOM     14  O   UNL     1       7.940 117.242  21.811  1.00  0.00    -0.299 OA
BRANCH  13  15
ATOM     15  C   UNL     1      10.212 117.482  22.377  1.00  0.00     0.106 CG0
ATOM     16  G   UNL     1      10.539 116.013  22.556  1.00  0.00     0.000 G0
ENDBRANCH  13  15
ENDBRANCH  12  13
BRANCH  12  17
ATOM     17  C   UNL     1       8.093 119.530  19.921  1.00  0.00    -0.006 C 
ATOM     18  C   UNL     1       6.971 119.098  18.957  1.00  0.00     0.008 C 
ATOM     19  C   UNL     1       8.734 120.817  19.368  1.00  0.00     0.008 C 
ENDBRANCH  12  17
ENDBRANCH  11  12
ENDBRANCH   1  11
TORSDOF 1
ENDMDL
MODEL 7
REMARK VINA RESULT:    -3.384     12.910     14.789
REMARK INTER + INTRA:          -5.535
REMARK INTER:                  -5.294
REMARK INTRA:                  -0.242
REMARK UNBOUND:                -0.371
REMARK SMILES CC1=CCC[C@H](C)C(=O)C[C@@H](C(C)C)C(=O)C1
REMARK SMILES IDX 8 1 9 2 6 3 7 4 5 5 4 6 3 7 2 8 1 9 10 11 11 12 15 13 16 14
REMARK SMILES IDX 17 15 12 17 13 18 14 19
REMARK H PARENT
REMARK Flexibility Score: 70.00
ROOT
ATOM      1  C   UNL     1      11.958 112.394  19.387  1.00  0.00     0.136 C 
ATOM      2  O   UNL     1      11.314 113.429  19.485  1.00  0.00    -0.299 OA
ENDROOT
BRANCH   1   3
ATOM      3  C   UNL     1      12.622 112.035  18.076  1.00  0.00     0.053 C 
ATOM      4  C   UNL     1      11.621 112.175  16.921  1.00  0.00     0.016 C 
BRANCH   3   5
ATOM      5  C   UNL     1      13.894 112.899  17.842  1.00  0.00     0.015 C 
BRANCH   5   6
ATOM      6  C   UNL     1      15.210 112.088  17.873  1.00  0.00     0.028 C 
BRANCH   6   7
ATOM      7  C   UNL     1      14.975 110.599  17.738  1.00  0.00    -0.028 C 
ATOM      8  C   UNL     1      15.069 109.672  18.722  1.00  0.00    -0.070 CG0
ATOM      9  C   UNL     1      14.773 108.237  18.372  1.00  0.00     0.039 C 
ATOM     10  G   UNL     1      15.441 109.993  20.156  1.00  0.00     0.000 G0
ENDBRANCH   6   7
ENDBRANCH   5   6
ENDBRANCH   3   5
ENDBRANCH   1   3
BRANCH   1  11
ATOM     11  C   UNL     1      12.152 111.525  20.601  1.00  0.00     0.087 C 
BRANCH  11  12
ATOM     12  C   UNL     1      13.613 111.630  21.133  1.00  0.00     0.066 C 
BRANCH  12  13
ATOM     13  C   UNL     1      14.261 110.255  21.056  1.00  0.00     0.140 C 
ATOM     14  O   UNL     1      13.735 109.316  21.634  1.00  0.00    -0.299 OA
BRANCH  13  15
ATOM     15  C   UNL     1      15.451 109.975  20.164  1.00  0.00     0.106 CG0
ATOM     16  G   UNL     1      15.061 109.685  18.729  1.00  0.00     0.000 G0
ENDBRANCH  13  15
ENDBRANCH  12  13
BRANCH  12  17
ATOM     17  C   UNL     1      13.678 112.238  22.571  1.00  0.00    -0.006 C 
ATOM     18  C   UNL     1      12.708 113.426  22.723  1.00  0.00     0.008 C 
ATOM     19  C   UNL     1      15.094 112.724  22.932  1.00  0.00     0.008 C 
ENDBRANCH  12  17
ENDBRANCH  11  12
ENDBRANCH   1  11
TORSDOF 1
ENDMDL
MODEL 8
REMARK VINA RESULT:    -3.359     10.094     11.478
REMARK INTER + INTRA:          -5.498
REMARK INTER:                  -5.568
REMARK INTRA:                   0.070
REMARK UNBOUND:                -0.371
REMARK SMILES CC1=CCC[C@H](C)C(=O)C[C@@H](C(C)C)C(=O)C1
REMARK SMILES IDX 8 1 9 2 6 3 7 4 5 5 4 6 3 7 2 8 1 9 10 11 11 12 15 13 16 14
REMARK SMILES IDX 17 15 12 17 13 18 14 19
REMARK H PARENT
REMARK Flexibility Score: 70.00
ROOT
ATOM      1  C   UNL     1       9.489 118.031  18.666  1.00  0.00     0.136 C 
ATOM      2  O   UNL     1       8.651 117.736  17.826  1.00  0.00    -0.299 OA
ENDROOT
BRANCH   1   3
ATOM      3  C   UNL     1       9.185 119.091  19.702  1.00  0.00     0.053 C 
ATOM      4  C   UNL     1       9.004 120.455  19.023  1.00  0.00     0.016 C 
BRANCH   3   5
ATOM      5  C   UNL     1       7.940 118.701  20.549  1.00  0.00     0.015 C 
BRANCH   5   6
ATOM      6  C   UNL     1       8.161 117.460  21.443  1.00  0.00     0.028 C 
BRANCH   6   7
ATOM      7  C   UNL     1       9.061 117.751  22.625  1.00  0.00    -0.028 C 
ATOM      8  C   UNL     1      10.174 117.066  22.984  1.00  0.00    -0.070 CG0
ATOM      9  C   UNL     1      10.936 117.541  24.193  1.00  0.00     0.039 C 
ATOM     10  G   UNL     1      10.704 115.859  22.237  1.00  0.00     0.000 G0
ENDBRANCH   6   7
ENDBRANCH   5   6
ENDBRANCH   3   5
ENDBRANCH   1   3
BRANCH   1  11
ATOM     11  C   UNL     1      10.789 117.273  18.713  1.00  0.00     0.087 C 
BRANCH  11  12
ATOM     12  C   UNL     1      10.651 115.984  19.578  1.00  0.00     0.066 C 
BRANCH  12  13
ATOM     13  C   UNL     1      11.358 116.210  20.907  1.00  0.00     0.140 C 
ATOM     14  O   UNL     1      12.425 116.806  20.920  1.00  0.00    -0.299 OA
BRANCH  13  15
ATOM     15  C   UNL     1      10.714 115.859  22.231  1.00  0.00     0.106 CG0
ATOM     16  G   UNL     1      10.184 117.070  22.972  1.00  0.00     0.000 G0
ENDBRANCH  13  15
ENDBRANCH  12  13
BRANCH  12  17
ATOM     17  C   UNL     1      11.174 114.712  18.836  1.00  0.00    -0.006 C 
ATOM     18  C   UNL     1      11.445 113.559  19.821  1.00  0.00     0.008 C 
ATOM     19  C   UNL     1      12.471 114.991  18.052  1.00  0.00     0.008 C 
ENDBRANCH  12  17
ENDBRANCH  11  12
ENDBRANCH   1  11
TORSDOF 1
ENDMDL
MODEL 9
REMARK VINA RESULT:    -3.304      9.992     11.391
REMARK INTER + INTRA:          -5.414
REMARK INTER:                  -5.223
REMARK INTRA:                  -0.191
REMARK UNBOUND:                -0.371
REMARK SMILES CC1=CCC[C@H](C)C(=O)C[C@@H](C(C)C)C(=O)C1
REMARK SMILES IDX 8 1 9 2 6 3 7 4 5 5 4 6 3 7 2 8 1 9 10 11 11 12 15 13 16 14
REMARK SMILES IDX 17 15 12 17 13 18 14 19
REMARK H PARENT
REMARK Flexibility Score: 70.00
ROOT
ATOM      1  C   UNL     1       9.632 118.354  18.473  1.00  0.00     0.136 C 
ATOM      2  O   UNL     1       9.795 117.906  17.347  1.00  0.00    -0.299 OA
ENDROOT
BRANCH   1   3
ATOM      3  C   UNL     1       8.338 119.048  18.834  1.00  0.00     0.053 C 
ATOM      4  C   UNL     1       7.183 118.038  18.851  1.00  0.00     0.016 C 
BRANCH   3   5
ATOM      5  C   UNL     1       8.467 119.795  20.193  1.00  0.00     0.015 C 
BRANCH   5   6
ATOM      6  C   UNL     1       7.539 119.240  21.297  1.00  0.00     0.028 C 
BRANCH   6   7
ATOM      7  C   UNL     1       8.221 119.175  22.647  1.00  0.00    -0.028 C 
ATOM      8  C   UNL     1       8.953 118.144  23.136  1.00  0.00    -0.070 CG0
ATOM      9  C   UNL     1       9.562 118.297  24.505  1.00  0.00     0.039 C 
ATOM     10  G   UNL     1       9.206 116.852  22.384  1.00  0.00     0.000 G0
ENDBRANCH   6   7
ENDBRANCH   5   6
ENDBRANCH   3   5
ENDBRANCH   1   3
BRANCH   1  11
ATOM     11  C   UNL     1      10.694 118.135  19.518  1.00  0.00     0.087 C 
BRANCH  11  12
ATOM     12  C   UNL     1      10.589 116.705  20.127  1.00  0.00     0.066 C 
BRANCH  12  13
ATOM     13  C   UNL     1      10.522 116.825  21.644  1.00  0.00     0.140 C 
ATOM     14  O   UNL     1      11.549 117.043  22.269  1.00  0.00    -0.299 OA
BRANCH  13  15
ATOM     15  C   UNL     1       9.208 116.834  22.393  1.00  0.00     0.106 CG0
ATOM     16  G   UNL     1       8.949 118.140  23.119  1.00  0.00     0.000 G0
ENDBRANCH  13  15
ENDBRANCH  12  13
BRANCH  12  17
ATOM     17  C   UNL     1      11.751 115.772  19.656  1.00  0.00    -0.006 C 
ATOM     18  C   UNL     1      12.934 116.587  19.097  1.00  0.00     0.008 C 
ATOM     19  C   UNL     1      11.293 114.781  18.569  1.00  0.00     0.008 C 
ENDBRANCH  12  17
ENDBRANCH  11  12
ENDBRANCH   1  11
TORSDOF 1
ENDMDL
