MODEL 1
REMARK VINA RESULT:    -6.170      0.000      0.000
REMARK INTER + INTRA:          -7.770
REMARK INTER:                  -7.432
REMARK INTRA:                  -0.338
REMARK UNBOUND:                -0.338
REMARK SMILES O=c1c(O)c(-c2ccc(O)cc2O)oc2cc(O)cc(O)c12
REMARK SMILES IDX 5 1 3 2 2 3 1 4 22 5 20 6 19 7 17 8 16 9 15 10 14 11 6 12
REMARK SMILES IDX 8 13 7 14 9 15 11 16 12 17 10 18 13 20 4 22 21 24 18 26
REMARK H PARENT 10 19 13 21 4 23 21 25 18 27
REMARK Flexibility Score: inf
ROOT
ATOM      1  C   UNL     1     -14.026  -9.795  -3.886  1.00  0.00     0.184 A 
ATOM      2  C   UNL     1     -13.626  -9.560  -5.209  1.00  0.00     0.208 A 
ATOM      3  C   UNL     1     -14.032 -10.454  -6.212  1.00  0.00     0.238 A 
ATOM      4  O   UNL     1     -13.620 -10.271  -7.388  1.00  0.00    -0.285 OA
ATOM      5  C   UNL     1     -14.858 -11.556  -5.881  1.00  0.00     0.111 A 
ATOM      6  C   UNL     1     -15.362 -12.503  -6.823  1.00  0.00     0.134 A 
ATOM      7  C   UNL     1     -16.069 -13.623  -6.365  1.00  0.00     0.093 A 
ATOM      8  C   UNL     1     -16.344 -13.795  -5.006  1.00  0.00     0.123 A 
ATOM      9  C   UNL     1     -15.906 -12.845  -4.085  1.00  0.00     0.094 A 
ATOM     10  C   UNL     1     -15.167 -11.737  -4.507  1.00  0.00     0.146 A 
ATOM     11  O   UNL     1     -14.758 -10.865  -3.595  1.00  0.00    -0.451 OA
ENDROOT
BRANCH   1  12
ATOM     12  C   UNL     1     -13.648  -8.875  -2.792  1.00  0.00     0.063 A 
ATOM     13  C   UNL     1     -11.901  -7.848  -1.444  1.00  0.00     0.047 A 
ATOM     14  C   UNL     1     -12.293  -8.750  -2.436  1.00  0.00     0.020 A 
ATOM     15  C   UNL     1     -12.855  -7.053  -0.800  1.00  0.00     0.119 A 
ATOM     16  C   UNL     1     -14.204  -7.169  -1.147  1.00  0.00     0.093 A 
ATOM     17  C   UNL     1     -14.611  -8.077  -2.132  1.00  0.00     0.130 A 
BRANCH  15  18
ATOM     18  O   UNL     1     -12.475  -6.146   0.187  1.00  0.00    -0.508 OA
ATOM     19  H   UNL     1     -11.525  -5.798   0.249  1.00  0.00     0.293 HD
ENDBRANCH  15  18
BRANCH  17  20
ATOM     20  O   UNL     1     -15.975  -8.176  -2.414  1.00  0.00    -0.507 OA
ATOM     21  H   UNL     1     -16.678  -8.325  -1.702  1.00  0.00     0.293 HD
ENDBRANCH  17  20
ENDBRANCH   1  12
BRANCH   2  22
ATOM     22  O   UNL     1     -12.815  -8.462  -5.508  1.00  0.00    -0.502 OA
ATOM     23  H   UNL     1     -12.308  -8.383  -6.381  1.00  0.00     0.293 HD
ENDBRANCH   2  22
BRANCH   6  24
ATOM     24  O   UNL     1     -15.222 -12.379  -8.208  1.00  0.00    -0.507 OA
ATOM     25  H   UNL     1     -14.662 -11.679  -8.669  1.00  0.00     0.293 HD
ENDBRANCH   6  24
BRANCH   8  26
ATOM     26  O   UNL     1     -17.062 -14.903  -4.561  1.00  0.00    -0.508 OA
ATOM     27  H   UNL     1     -16.604 -15.682  -4.102  1.00  0.00     0.293 HD
ENDBRANCH   8  26
TORSDOF 6
ENDMDL
MODEL 2
REMARK VINA RESULT:    -6.122      0.702      1.469
REMARK INTER + INTRA:          -7.712
REMARK INTER:                  -7.372
REMARK INTRA:                  -0.340
REMARK UNBOUND:                -0.338
REMARK SMILES O=c1c(O)c(-c2ccc(O)cc2O)oc2cc(O)cc(O)c12
REMARK SMILES IDX 5 1 3 2 2 3 1 4 22 5 20 6 19 7 17 8 16 9 15 10 14 11 6 12
REMARK SMILES IDX 8 13 7 14 9 15 11 16 12 17 10 18 13 20 4 22 21 24 18 26
REMARK H PARENT 10 19 13 21 4 23 21 25 18 27
REMARK Flexibility Score: inf
ROOT
ATOM      1  C   UNL     1     -14.102  -9.834  -3.921  1.00  0.00     0.184 A 
ATOM      2  C   UNL     1     -13.711  -9.633  -5.253  1.00  0.00     0.208 A 
ATOM      3  C   UNL     1     -14.107 -10.565  -6.226  1.00  0.00     0.238 A 
ATOM      4  O   UNL     1     -13.702 -10.412  -7.409  1.00  0.00    -0.285 OA
ATOM      5  C   UNL     1     -14.912 -11.669  -5.857  1.00  0.00     0.111 A 
ATOM      6  C   UNL     1     -15.404 -12.653  -6.766  1.00  0.00     0.134 A 
ATOM      7  C   UNL     1     -16.090 -13.770  -6.270  1.00  0.00     0.093 A 
ATOM      8  C   UNL     1     -16.358 -13.904  -4.906  1.00  0.00     0.123 A 
ATOM      9  C   UNL     1     -15.932 -12.919  -4.017  1.00  0.00     0.094 A 
ATOM     10  C   UNL     1     -15.213 -11.813  -4.476  1.00  0.00     0.146 A 
ATOM     11  O   UNL     1     -14.814 -10.905  -3.594  1.00  0.00    -0.451 OA
ENDROOT
BRANCH   1  12
ATOM     12  C   UNL     1     -13.734  -8.874  -2.858  1.00  0.00     0.063 A 
ATOM     13  C   UNL     1     -14.427  -7.222  -1.212  1.00  0.00     0.047 A 
ATOM     14  C   UNL     1     -14.738  -8.095  -2.256  1.00  0.00     0.020 A 
ATOM     15  C   UNL     1     -13.112  -7.119  -0.748  1.00  0.00     0.119 A 
ATOM     16  C   UNL     1     -12.106  -7.890  -1.338  1.00  0.00     0.093 A 
ATOM     17  C   UNL     1     -12.402  -8.762  -2.393  1.00  0.00     0.130 A 
BRANCH  15  18
ATOM     18  O   UNL     1     -12.792  -6.255   0.296  1.00  0.00    -0.508 OA
ATOM     19  H   UNL     1     -12.009  -5.615   0.233  1.00  0.00     0.293 HD
ENDBRANCH  15  18
BRANCH  17  20
ATOM     20  O   UNL     1     -11.353  -9.481  -2.969  1.00  0.00    -0.507 OA
ATOM     21  H   UNL     1     -11.376 -10.484  -3.101  1.00  0.00     0.293 HD
ENDBRANCH  17  20
ENDBRANCH   1  12
BRANCH   2  22
ATOM     22  O   UNL     1     -12.919  -8.532  -5.590  1.00  0.00    -0.502 OA
ATOM     23  H   UNL     1     -12.333  -8.058  -4.913  1.00  0.00     0.293 HD
ENDBRANCH   2  22
BRANCH   6  24
ATOM     24  O   UNL     1     -15.272 -12.570  -8.155  1.00  0.00    -0.507 OA
ATOM     25  H   UNL     1     -15.909 -12.984  -8.819  1.00  0.00     0.293 HD
ENDBRANCH   6  24
BRANCH   8  26
ATOM     26  O   UNL     1     -17.055 -15.009  -4.423  1.00  0.00    -0.508 OA
ATOM     27  H   UNL     1     -17.741 -14.922  -3.683  1.00  0.00     0.293 HD
ENDBRANCH   8  26
TORSDOF 6
ENDMDL
MODEL 3
REMARK VINA RESULT:    -5.519      1.822      6.669
REMARK INTER + INTRA:          -6.986
REMARK INTER:                  -6.633
REMARK INTRA:                  -0.353
REMARK UNBOUND:                -0.338
REMARK SMILES O=c1c(O)c(-c2ccc(O)cc2O)oc2cc(O)cc(O)c12
REMARK SMILES IDX 5 1 3 2 2 3 1 4 22 5 20 6 19 7 17 8 16 9 15 10 14 11 6 12
REMARK SMILES IDX 8 13 7 14 9 15 11 16 12 17 10 18 13 20 4 22 21 24 18 26
REMARK H PARENT 10 19 13 21 4 23 21 25 18 27
REMARK Flexibility Score: inf
ROOT
ATOM      1  C   UNL     1     -14.172 -11.455  -4.568  1.00  0.00     0.184 A 
ATOM      2  C   UNL     1     -12.789 -11.470  -4.336  1.00  0.00     0.208 A 
ATOM      3  C   UNL     1     -12.219 -10.453  -3.554  1.00  0.00     0.238 A 
ATOM      4  O   UNL     1     -10.969 -10.438  -3.400  1.00  0.00    -0.285 OA
ATOM      5  C   UNL     1     -13.046  -9.451  -2.992  1.00  0.00     0.111 A 
ATOM      6  C   UNL     1     -12.581  -8.395  -2.151  1.00  0.00     0.134 A 
ATOM      7  C   UNL     1     -13.471  -7.388  -1.751  1.00  0.00     0.093 A 
ATOM      8  C   UNL     1     -14.821  -7.436  -2.109  1.00  0.00     0.123 A 
ATOM      9  C   UNL     1     -15.295  -8.494  -2.881  1.00  0.00     0.094 A 
ATOM     10  C   UNL     1     -14.426  -9.493  -3.326  1.00  0.00     0.146 A 
ATOM     11  O   UNL     1     -14.917 -10.475  -4.071  1.00  0.00    -0.451 OA
ENDROOT
BRANCH   1  12
ATOM     12  C   UNL     1     -14.831 -12.513  -5.364  1.00  0.00     0.063 A 
ATOM     13  C   UNL     1     -15.131 -13.625  -7.508  1.00  0.00     0.047 A 
ATOM     14  C   UNL     1     -14.566 -12.603  -6.742  1.00  0.00     0.020 A 
ATOM     15  C   UNL     1     -15.962 -14.577  -6.907  1.00  0.00     0.119 A 
ATOM     16  C   UNL     1     -16.230 -14.498  -5.538  1.00  0.00     0.093 A 
ATOM     17  C   UNL     1     -15.679 -13.472  -4.761  1.00  0.00     0.130 A 
BRANCH  15  18
ATOM     18  O   UNL     1     -16.526 -15.604  -7.660  1.00  0.00    -0.508 OA
ATOM     19  H   UNL     1     -17.225 -15.418  -8.370  1.00  0.00     0.293 HD
ENDBRANCH  15  18
BRANCH  17  20
ATOM     20  O   UNL     1     -16.009 -13.420  -3.405  1.00  0.00    -0.507 OA
ATOM     21  H   UNL     1     -15.547 -13.981  -2.701  1.00  0.00     0.293 HD
ENDBRANCH  17  20
ENDBRANCH   1  12
BRANCH   2  22
ATOM     22  O   UNL     1     -11.998 -12.475  -4.901  1.00  0.00    -0.502 OA
ATOM     23  H   UNL     1     -11.184 -12.270  -5.467  1.00  0.00     0.293 HD
ENDBRANCH   2  22
BRANCH   6  24
ATOM     24  O   UNL     1     -11.276  -8.302  -1.661  1.00  0.00    -0.507 OA
ATOM     25  H   UNL     1     -11.033  -8.146  -0.695  1.00  0.00     0.293 HD
ENDBRANCH   6  24
BRANCH   8  26
ATOM     26  O   UNL     1     -15.701  -6.440  -1.693  1.00  0.00    -0.508 OA
ATOM     27  H   UNL     1     -16.114  -5.789  -2.351  1.00  0.00     0.293 HD
ENDBRANCH   8  26
TORSDOF 6
ENDMDL
MODEL 4
REMARK VINA RESULT:    -5.473      1.737      6.443
REMARK INTER + INTRA:          -6.930
REMARK INTER:                  -6.647
REMARK INTRA:                  -0.283
REMARK UNBOUND:                -0.338
REMARK SMILES O=c1c(O)c(-c2ccc(O)cc2O)oc2cc(O)cc(O)c12
REMARK SMILES IDX 5 1 3 2 2 3 1 4 22 5 20 6 19 7 17 8 16 9 15 10 14 11 6 12
REMARK SMILES IDX 8 13 7 14 9 15 11 16 12 17 10 18 13 20 4 22 21 24 18 26
REMARK H PARENT 10 19 13 21 4 23 21 25 18 27
REMARK Flexibility Score: inf
ROOT
ATOM      1  C   UNL     1     -14.305  -9.424  -4.242  1.00  0.00     0.184 A 
ATOM      2  C   UNL     1     -13.154  -8.682  -3.944  1.00  0.00     0.208 A 
ATOM      3  C   UNL     1     -13.147  -7.867  -2.801  1.00  0.00     0.238 A 
ATOM      4  O   UNL     1     -12.133  -7.156  -2.572  1.00  0.00    -0.285 OA
ATOM      5  C   UNL     1     -14.283  -7.829  -1.956  1.00  0.00     0.111 A 
ATOM      6  C   UNL     1     -14.371  -7.069  -0.751  1.00  0.00     0.134 A 
ATOM      7  C   UNL     1     -15.589  -7.011  -0.060  1.00  0.00     0.093 A 
ATOM      8  C   UNL     1     -16.700  -7.737  -0.495  1.00  0.00     0.123 A 
ATOM      9  C   UNL     1     -16.606  -8.527  -1.639  1.00  0.00     0.094 A 
ATOM     10  C   UNL     1     -15.417  -8.576  -2.371  1.00  0.00     0.146 A 
ATOM     11  O   UNL     1     -15.375  -9.331  -3.461  1.00  0.00    -0.451 OA
ENDROOT
BRANCH   1  12
ATOM     12  C   UNL     1     -14.363 -10.317  -5.420  1.00  0.00     0.063 A 
ATOM     13  C   UNL     1     -14.640 -12.560  -6.323  1.00  0.00     0.047 A 
ATOM     14  C   UNL     1     -14.527 -11.701  -5.228  1.00  0.00     0.020 A 
ATOM     15  C   UNL     1     -14.598 -12.050  -7.624  1.00  0.00     0.119 A 
ATOM     16  C   UNL     1     -14.437 -10.676  -7.826  1.00  0.00     0.093 A 
ATOM     17  C   UNL     1     -14.312  -9.805  -6.738  1.00  0.00     0.130 A 
BRANCH  15  18
ATOM     18  O   UNL     1     -14.715 -12.897  -8.724  1.00  0.00    -0.508 OA
ATOM     19  H   UNL     1     -13.933 -13.451  -9.051  1.00  0.00     0.293 HD
ENDBRANCH  15  18
BRANCH  17  20
ATOM     20  O   UNL     1     -14.117  -8.447  -6.998  1.00  0.00    -0.507 OA
ATOM     21  H   UNL     1     -14.750  -7.895  -7.563  1.00  0.00     0.293 HD
ENDBRANCH  17  20
ENDBRANCH   1  12
BRANCH   2  22
ATOM     22  O   UNL     1     -12.045  -8.742  -4.794  1.00  0.00    -0.502 OA
ATOM     23  H   UNL     1     -11.288  -8.071  -4.745  1.00  0.00     0.293 HD
ENDBRANCH   2  22
BRANCH   6  24
ATOM     24  O   UNL     1     -13.297  -6.382  -0.179  1.00  0.00    -0.507 OA
ATOM     25  H   UNL     1     -12.504  -6.820   0.265  1.00  0.00     0.293 HD
ENDBRANCH   6  24
BRANCH   8  26
ATOM     26  O   UNL     1     -17.902  -7.686   0.208  1.00  0.00    -0.508 OA
ATOM     27  H   UNL     1     -18.796  -7.678  -0.270  1.00  0.00     0.293 HD
ENDBRANCH   8  26
TORSDOF 6
ENDMDL
MODEL 5
REMARK VINA RESULT:    -5.295      2.262      6.714
REMARK INTER + INTRA:          -6.716
REMARK INTER:                  -6.512
REMARK INTRA:                  -0.204
REMARK UNBOUND:                -0.338
REMARK SMILES O=c1c(O)c(-c2ccc(O)cc2O)oc2cc(O)cc(O)c12
REMARK SMILES IDX 5 1 3 2 2 3 1 4 22 5 20 6 19 7 17 8 16 9 15 10 14 11 6 12
REMARK SMILES IDX 8 13 7 14 9 15 11 16 12 17 10 18 13 20 4 22 21 24 18 26
REMARK H PARENT 10 19 13 21 4 23 21 25 18 27
REMARK Flexibility Score: inf
ROOT
ATOM      1  C   UNL     1     -14.178 -10.366  -4.995  1.00  0.00     0.184 A 
ATOM      2  C   UNL     1     -13.096 -10.278  -4.107  1.00  0.00     0.208 A 
ATOM      3  C   UNL     1     -12.499  -9.027  -3.883  1.00  0.00     0.238 A 
ATOM      4  O   UNL     1     -11.491  -8.965  -3.131  1.00  0.00    -0.285 OA
ATOM      5  C   UNL     1     -13.013  -7.877  -4.529  1.00  0.00     0.111 A 
ATOM      6  C   UNL     1     -12.511  -6.553  -4.346  1.00  0.00     0.134 A 
ATOM      7  C   UNL     1     -13.016  -5.508  -5.131  1.00  0.00     0.093 A 
ATOM      8  C   UNL     1     -14.049  -5.728  -6.045  1.00  0.00     0.123 A 
ATOM      9  C   UNL     1     -14.585  -7.006  -6.190  1.00  0.00     0.094 A 
ATOM     10  C   UNL     1     -14.076  -8.076  -5.448  1.00  0.00     0.146 A 
ATOM     11  O   UNL     1     -14.606  -9.279  -5.627  1.00  0.00    -0.451 OA
ENDROOT
BRANCH   1  12
ATOM     12  C   UNL     1     -14.861 -11.652  -5.252  1.00  0.00     0.063 A 
ATOM     13  C   UNL     1     -15.990 -13.623  -4.379  1.00  0.00     0.047 A 
ATOM     14  C   UNL     1     -15.294 -12.431  -4.165  1.00  0.00     0.020 A 
ATOM     15  C   UNL     1     -16.271 -14.049  -5.682  1.00  0.00     0.119 A 
ATOM     16  C   UNL     1     -15.846 -13.281  -6.769  1.00  0.00     0.093 A 
ATOM     17  C   UNL     1     -15.138 -12.090  -6.569  1.00  0.00     0.130 A 
BRANCH  15  18
ATOM     18  O   UNL     1     -16.969 -15.233  -5.907  1.00  0.00    -0.508 OA
ATOM     19  H   UNL     1     -17.948 -15.230  -6.166  1.00  0.00     0.293 HD
ENDBRANCH  15  18
BRANCH  17  20
ATOM     20  O   UNL     1     -14.707 -11.381  -7.692  1.00  0.00    -0.507 OA
ATOM     21  H   UNL     1     -14.562 -11.811  -8.596  1.00  0.00     0.293 HD
ENDBRANCH  17  20
ENDBRANCH   1  12
BRANCH   2  22
ATOM     22  O   UNL     1     -12.614 -11.430  -3.479  1.00  0.00    -0.502 OA
ATOM     23  H   UNL     1     -13.229 -12.138  -3.098  1.00  0.00     0.293 HD
ENDBRANCH   2  22
BRANCH   6  24
ATOM     24  O   UNL     1     -11.545  -6.207  -3.396  1.00  0.00    -0.507 OA
ATOM     25  H   UNL     1     -10.722  -5.656  -3.587  1.00  0.00     0.293 HD
ENDBRANCH   6  24
BRANCH   8  26
ATOM     26  O   UNL     1     -14.557  -4.680  -6.810  1.00  0.00    -0.508 OA
ATOM     27  H   UNL     1     -15.333  -4.115  -6.487  1.00  0.00     0.293 HD
ENDBRANCH   8  26
TORSDOF 6
ENDMDL
MODEL 6
REMARK VINA RESULT:    -5.141      2.373      3.157
REMARK INTER + INTRA:          -6.531
REMARK INTER:                  -6.133
REMARK INTRA:                  -0.398
REMARK UNBOUND:                -0.338
REMARK SMILES O=c1c(O)c(-c2ccc(O)cc2O)oc2cc(O)cc(O)c12
REMARK SMILES IDX 5 1 3 2 2 3 1 4 22 5 20 6 19 7 17 8 16 9 15 10 14 11 6 12
REMARK SMILES IDX 8 13 7 14 9 15 11 16 12 17 10 18 13 20 4 22 21 24 18 26
REMARK H PARENT 10 19 13 21 4 23 21 25 18 27
REMARK Flexibility Score: inf
ROOT
ATOM      1  C   UNL     1     -14.204 -11.009  -4.745  1.00  0.00     0.184 A 
ATOM      2  C   UNL     1     -12.898 -11.477  -4.541  1.00  0.00     0.208 A 
ATOM      3  C   UNL     1     -12.534 -12.729  -5.061  1.00  0.00     0.238 A 
ATOM      4  O   UNL     1     -11.379 -13.169  -4.822  1.00  0.00    -0.285 OA
ATOM      5  C   UNL     1     -13.475 -13.483  -5.803  1.00  0.00     0.111 A 
ATOM      6  C   UNL     1     -13.204 -14.747  -6.409  1.00  0.00     0.134 A 
ATOM      7  C   UNL     1     -14.246 -15.460  -7.015  1.00  0.00     0.093 A 
ATOM      8  C   UNL     1     -15.535 -14.926  -7.093  1.00  0.00     0.123 A 
ATOM      9  C   UNL     1     -15.796 -13.667  -6.555  1.00  0.00     0.094 A 
ATOM     10  C   UNL     1     -14.786 -12.948  -5.911  1.00  0.00     0.146 A 
ATOM     11  O   UNL     1     -15.081 -11.760  -5.400  1.00  0.00    -0.451 OA
ENDROOT
BRANCH   1  12
ATOM     12  C   UNL     1     -14.637  -9.688  -4.241  1.00  0.00     0.063 A 
ATOM     13  C   UNL     1     -15.626  -8.361  -2.457  1.00  0.00     0.047 A 
ATOM     14  C   UNL     1     -15.257  -9.601  -2.982  1.00  0.00     0.020 A 
ATOM     15  C   UNL     1     -15.373  -7.189  -3.177  1.00  0.00     0.119 A 
ATOM     16  C   UNL     1     -14.756  -7.264  -4.429  1.00  0.00     0.093 A 
ATOM     17  C   UNL     1     -14.390  -8.502  -4.972  1.00  0.00     0.130 A 
BRANCH  15  18
ATOM     18  O   UNL     1     -15.732  -5.946  -2.661  1.00  0.00    -0.508 OA
ATOM     19  H   UNL     1     -15.045  -5.324  -2.251  1.00  0.00     0.293 HD
ENDBRANCH  15  18
BRANCH  17  20
ATOM     20  O   UNL     1     -13.809  -8.520  -6.241  1.00  0.00    -0.507 OA
ATOM     21  H   UNL     1     -14.322  -8.310  -7.088  1.00  0.00     0.293 HD
ENDBRANCH  17  20
ENDBRANCH   1  12
BRANCH   2  22
ATOM     22  O   UNL     1     -11.988 -10.708  -3.808  1.00  0.00    -0.502 OA
ATOM     23  H   UNL     1     -11.736 -10.931  -2.853  1.00  0.00     0.293 HD
ENDBRANCH   2  22
BRANCH   6  24
ATOM     24  O   UNL     1     -11.934 -15.329  -6.468  1.00  0.00    -0.507 OA
ATOM     25  H   UNL     1     -11.642 -16.002  -7.160  1.00  0.00     0.293 HD
ENDBRANCH   6  24
BRANCH   8  26
ATOM     26  O   UNL     1     -16.562 -15.635  -7.711  1.00  0.00    -0.508 OA
ATOM     27  H   UNL     1     -16.405 -16.162  -8.562  1.00  0.00     0.293 HD
ENDBRANCH   8  26
TORSDOF 6
ENDMDL
MODEL 7
REMARK VINA RESULT:    -5.120      1.796      3.636
REMARK INTER + INTRA:          -6.505
REMARK INTER:                  -6.135
REMARK INTRA:                  -0.371
REMARK UNBOUND:                -0.338
REMARK SMILES O=c1c(O)c(-c2ccc(O)cc2O)oc2cc(O)cc(O)c12
REMARK SMILES IDX 5 1 3 2 2 3 1 4 22 5 20 6 19 7 17 8 16 9 15 10 14 11 6 12
REMARK SMILES IDX 8 13 7 14 9 15 11 16 12 17 10 18 13 20 4 22 21 24 18 26
REMARK H PARENT 10 19 13 21 4 23 21 25 18 27
REMARK Flexibility Score: inf
ROOT
ATOM      1  C   UNL     1     -14.470  -9.832  -4.788  1.00  0.00     0.184 A 
ATOM      2  C   UNL     1     -14.803 -11.188  -4.662  1.00  0.00     0.208 A 
ATOM      3  C   UNL     1     -14.864 -11.984  -5.816  1.00  0.00     0.238 A 
ATOM      4  O   UNL     1     -15.222 -13.186  -5.703  1.00  0.00    -0.285 OA
ATOM      5  C   UNL     1     -14.562 -11.418  -7.078  1.00  0.00     0.111 A 
ATOM      6  C   UNL     1     -14.554 -12.140  -8.310  1.00  0.00     0.134 A 
ATOM      7  C   UNL     1     -14.362 -11.450  -9.514  1.00  0.00     0.093 A 
ATOM      8  C   UNL     1     -14.113 -10.076  -9.525  1.00  0.00     0.123 A 
ATOM      9  C   UNL     1     -14.062  -9.372  -8.324  1.00  0.00     0.094 A 
ATOM     10  C   UNL     1     -14.287 -10.025  -7.109  1.00  0.00     0.146 A 
ATOM     11  O   UNL     1     -14.243  -9.314  -5.990  1.00  0.00    -0.451 OA
ENDROOT
BRANCH   1  12
ATOM     12  C   UNL     1     -14.368  -8.950  -3.605  1.00  0.00     0.063 A 
ATOM     13  C   UNL     1     -15.476  -7.727  -1.817  1.00  0.00     0.047 A 
ATOM     14  C   UNL     1     -15.544  -8.514  -2.968  1.00  0.00     0.020 A 
ATOM     15  C   UNL     1     -14.235  -7.370  -1.281  1.00  0.00     0.119 A 
ATOM     16  C   UNL     1     -13.060  -7.799  -1.905  1.00  0.00     0.093 A 
ATOM     17  C   UNL     1     -13.114  -8.580  -3.066  1.00  0.00     0.130 A 
BRANCH  15  18
ATOM     18  O   UNL     1     -14.156  -6.589  -0.130  1.00  0.00    -0.508 OA
ATOM     19  H   UNL     1     -13.837  -6.975   0.751  1.00  0.00     0.293 HD
ENDBRANCH  15  18
BRANCH  17  20
ATOM     20  O   UNL     1     -11.910  -8.951  -3.668  1.00  0.00    -0.507 OA
ATOM     21  H   UNL     1     -11.828  -9.174  -4.652  1.00  0.00     0.293 HD
ENDBRANCH  17  20
ENDBRANCH   1  12
BRANCH   2  22
ATOM     22  O   UNL     1     -15.091 -11.721  -3.402  1.00  0.00    -0.502 OA
ATOM     23  H   UNL     1     -15.899 -12.307  -3.233  1.00  0.00     0.293 HD
ENDBRANCH   2  22
BRANCH   6  24
ATOM     24  O   UNL     1     -14.701 -13.527  -8.404  1.00  0.00    -0.507 OA
ATOM     25  H   UNL     1     -15.184 -14.006  -9.149  1.00  0.00     0.293 HD
ENDBRANCH   6  24
BRANCH   8  26
ATOM     26  O   UNL     1     -13.907  -9.400 -10.726  1.00  0.00    -0.508 OA
ATOM     27  H   UNL     1     -13.749  -8.400 -10.752  1.00  0.00     0.293 HD
ENDBRANCH   8  26
TORSDOF 6
ENDMDL
MODEL 8
REMARK VINA RESULT:    -5.112      2.460      3.681
REMARK INTER + INTRA:          -6.496
REMARK INTER:                  -6.165
REMARK INTRA:                  -0.330
REMARK UNBOUND:                -0.338
REMARK SMILES O=c1c(O)c(-c2ccc(O)cc2O)oc2cc(O)cc(O)c12
REMARK SMILES IDX 5 1 3 2 2 3 1 4 22 5 20 6 19 7 17 8 16 9 15 10 14 11 6 12
REMARK SMILES IDX 8 13 7 14 9 15 11 16 12 17 10 18 13 20 4 22 21 24 18 26
REMARK H PARENT 10 19 13 21 4 23 21 25 18 27
REMARK Flexibility Score: inf
ROOT
ATOM      1  C   UNL     1     -13.895  -9.602  -4.645  1.00  0.00     0.184 A 
ATOM      2  C   UNL     1     -12.824  -9.970  -3.819  1.00  0.00     0.208 A 
ATOM      3  C   UNL     1     -12.726 -11.300  -3.383  1.00  0.00     0.238 A 
ATOM      4  O   UNL     1     -11.796 -11.610  -2.592  1.00  0.00    -0.285 OA
ATOM      5  C   UNL     1     -13.686 -12.251  -3.805  1.00  0.00     0.111 A 
ATOM      6  C   UNL     1     -13.663 -13.636  -3.457  1.00  0.00     0.134 A 
ATOM      7  C   UNL     1     -14.732 -14.460  -3.831  1.00  0.00     0.093 A 
ATOM      8  C   UNL     1     -15.792 -13.964  -4.594  1.00  0.00     0.123 A 
ATOM      9  C   UNL     1     -15.795 -12.627  -4.988  1.00  0.00     0.094 A 
ATOM     10  C   UNL     1     -14.761 -11.772  -4.599  1.00  0.00     0.146 A 
ATOM     11  O   UNL     1     -14.810 -10.503  -4.984  1.00  0.00    -0.451 OA
ENDROOT
BRANCH   1  12
ATOM     12  C   UNL     1     -14.037  -8.221  -5.153  1.00  0.00     0.063 A 
ATOM     13  C   UNL     1     -14.075  -6.690  -7.045  1.00  0.00     0.047 A 
ATOM     14  C   UNL     1     -13.892  -7.975  -6.531  1.00  0.00     0.020 A 
ATOM     15  C   UNL     1     -14.415  -5.633  -6.194  1.00  0.00     0.119 A 
ATOM     16  C   UNL     1     -14.564  -5.867  -4.824  1.00  0.00     0.093 A 
ATOM     17  C   UNL     1     -14.372  -7.148  -4.293  1.00  0.00     0.130 A 
BRANCH  15  18
ATOM     18  O   UNL     1     -14.606  -4.349  -6.697  1.00  0.00    -0.508 OA
ATOM     19  H   UNL     1     -13.959  -3.597  -6.489  1.00  0.00     0.293 HD
ENDBRANCH  15  18
BRANCH  17  20
ATOM     20  O   UNL     1     -14.499  -7.317  -2.913  1.00  0.00    -0.507 OA
ATOM     21  H   UNL     1     -13.786  -7.750  -2.341  1.00  0.00     0.293 HD
ENDBRANCH  17  20
ENDBRANCH   1  12
BRANCH   2  22
ATOM     22  O   UNL     1     -11.888  -9.010  -3.421  1.00  0.00    -0.502 OA
ATOM     23  H   UNL     1     -11.623  -8.880  -2.453  1.00  0.00     0.293 HD
ENDBRANCH   2  22
BRANCH   6  24
ATOM     24  O   UNL     1     -12.610 -14.253  -2.775  1.00  0.00    -0.507 OA
ATOM     25  H   UNL     1     -12.528 -14.309  -1.772  1.00  0.00     0.293 HD
ENDBRANCH   6  24
BRANCH   8  26
ATOM     26  O   UNL     1     -16.843 -14.794  -4.975  1.00  0.00    -0.508 OA
ATOM     27  H   UNL     1     -16.700 -15.780  -5.161  1.00  0.00     0.293 HD
ENDBRANCH   8  26
TORSDOF 6
ENDMDL
MODEL 9
REMARK VINA RESULT:    -4.999      1.824      1.957
REMARK INTER + INTRA:          -6.359
REMARK INTER:                  -5.959
REMARK INTRA:                  -0.400
REMARK UNBOUND:                -0.338
REMARK SMILES O=c1c(O)c(-c2ccc(O)cc2O)oc2cc(O)cc(O)c12
REMARK SMILES IDX 5 1 3 2 2 3 1 4 22 5 20 6 19 7 17 8 16 9 15 10 14 11 6 12
REMARK SMILES IDX 8 13 7 14 9 15 11 16 12 17 10 18 13 20 4 22 21 24 18 26
REMARK H PARENT 10 19 13 21 4 23 21 25 18 27
REMARK Flexibility Score: inf
ROOT
ATOM      1  C   UNL     1     -13.395 -10.418  -5.226  1.00  0.00     0.184 A 
ATOM      2  C   UNL     1     -12.969 -10.726  -6.526  1.00  0.00     0.208 A 
ATOM      3  C   UNL     1     -13.523 -11.839  -7.178  1.00  0.00     0.238 A 
ATOM      4  O   UNL     1     -13.093 -12.146  -8.320  1.00  0.00    -0.285 OA
ATOM      5  C   UNL     1     -14.518 -12.611  -6.530  1.00  0.00     0.111 A 
ATOM      6  C   UNL     1     -15.177 -13.736  -7.111  1.00  0.00     0.134 A 
ATOM      7  C   UNL     1     -16.057 -14.499  -6.332  1.00  0.00     0.093 A 
ATOM      8  C   UNL     1     -16.350 -14.139  -5.014  1.00  0.00     0.123 A 
ATOM      9  C   UNL     1     -15.756 -13.009  -4.457  1.00  0.00     0.094 A 
ATOM     10  C   UNL     1     -14.846 -12.249  -5.196  1.00  0.00     0.146 A 
ATOM     11  O   UNL     1     -14.292 -11.188  -4.622  1.00  0.00    -0.451 OA
ENDROOT
BRANCH   1  12
ATOM     12  C   UNL     1     -12.864  -9.245  -4.499  1.00  0.00     0.063 A 
ATOM     13  C   UNL     1     -11.196  -8.305  -2.996  1.00  0.00     0.047 A 
ATOM     14  C   UNL     1     -11.753  -9.405  -3.651  1.00  0.00     0.020 A 
ATOM     15  C   UNL     1     -11.734  -7.028  -3.183  1.00  0.00     0.119 A 
ATOM     16  C   UNL     1     -12.837  -6.857  -4.025  1.00  0.00     0.093 A 
ATOM     17  C   UNL     1     -13.412  -7.953  -4.680  1.00  0.00     0.130 A 
BRANCH  15  18
ATOM     18  O   UNL     1     -11.184  -5.923  -2.539  1.00  0.00    -0.508 OA
ATOM     19  H   UNL     1     -10.536  -6.028  -1.767  1.00  0.00     0.293 HD
ENDBRANCH  15  18
BRANCH  17  20
ATOM     20  O   UNL     1     -14.534  -7.730  -5.480  1.00  0.00    -0.507 OA
ATOM     21  H   UNL     1     -14.630  -6.925  -6.087  1.00  0.00     0.293 HD
ENDBRANCH  17  20
ENDBRANCH   1  12
BRANCH   2  22
ATOM     22  O   UNL     1     -11.988  -9.944  -7.142  1.00  0.00    -0.502 OA
ATOM     23  H   UNL     1     -11.176 -10.348  -7.593  1.00  0.00     0.293 HD
ENDBRANCH   2  22
BRANCH   6  24
ATOM     24  O   UNL     1     -15.026 -14.128  -8.444  1.00  0.00    -0.507 OA
ATOM     25  H   UNL     1     -15.645 -14.758  -8.932  1.00  0.00     0.293 HD
ENDBRANCH   6  24
BRANCH   8  26
ATOM     26  O   UNL     1     -17.239 -14.894  -4.252  1.00  0.00    -0.508 OA
ATOM     27  H   UNL     1     -17.288 -15.902  -4.340  1.00  0.00     0.293 HD
ENDBRANCH   8  26
TORSDOF 6
ENDMDL
