MODEL 1
REMARK VINA RESULT:    -5.372      0.000      0.000
REMARK INTER + INTRA:         -22.006
REMARK INTER:                 -12.753
REMARK INTRA:                  -9.253
REMARK UNBOUND:                -9.253
REMARK SMILES O=C(OC[C@@H]1O[C@@H](OC(=O)c2cc(O)c(O)c(O)c2)[C@@H](OC(=O)c2cc(O)c(O)c(O)c2)[C@H](OC(=O)c2cc(O)c(O)c(O)c2)[C@@H]1OC(=O)c1cc(O)c(O)c(O)c1)c1cc(O)c(O)c(O)c1
REMARK SMILES IDX 5 1 46 2 33 3 20 4 7 5 6 6 4 7 3 8 2 9 1 10 59 11 60 12
REMARK SMILES IDX 61 13 67 14 63 15 65 16 62 17 64 19 66 21 47 23 48 24 49 25
REMARK SMILES IDX 50 26 58 27 51 28 56 29 52 30 54 31 57 32 53 34 55 36 34 38
REMARK SMILES IDX 35 39 36 40 37 41 45 42 38 43 43 44 39 45 41 46 44 47 40 49
REMARK SMILES IDX 42 51 8 53 9 54 10 55 11 56 19 57 12 58 17 59 13 60 15 61
REMARK SMILES IDX 18 62 14 64 16 66 21 68 22 69 23 70 24 71 32 72 25 73 30 74
REMARK SMILES IDX 26 75 28 76 31 77 27 79 29 81
REMARK H PARENT 62 18 64 20 66 22 57 33 53 35 55 37 44 48 40 50 42 52 18 63
REMARK H PARENT 14 65 16 67 31 78 27 80 29 82
REMARK Flexibility Score: inf
ROOT
ATOM      1  C   UNL     1      -4.417 -10.357  34.984  1.00  0.00     0.205 C 
ATOM      2  C   UNL     1      -5.333  -9.235  35.520  1.00  0.00     0.254 C 
ATOM      3  C   UNL     1      -5.826  -9.616  36.931  1.00  0.00     0.267 C 
ATOM      4  C   UNL     1      -6.452 -11.022  36.910  1.00  0.00     0.290 C 
ATOM      5  C   UNL     1      -5.490 -12.021  36.242  1.00  0.00     0.357 C 
ATOM      6  O   UNL     1      -5.117 -11.592  34.943  1.00  0.00    -0.329 OA
ENDROOT
BRANCH   1   7
ATOM      7  C   UNL     1      -3.899 -10.023  33.575  1.00  0.00     0.269 C 
BRANCH   7   8
ATOM      8  O   UNL     1      -2.507  -9.711  33.610  1.00  0.00    -0.459 OA
BRANCH   8   9
ATOM      9  C   UNL     1      -1.990  -8.475  34.015  1.00  0.00     0.338 C 
ATOM     10  O   UNL     1      -1.635  -7.624  33.156  1.00  0.00    -0.246 OA
BRANCH   9  11
ATOM     11  C   UNL     1      -1.893  -8.161  35.457  1.00  0.00     0.067 A 
ATOM     12  C   UNL     1      -1.046  -8.907  36.287  1.00  0.00     0.066 A 
ATOM     13  C   UNL     1      -0.958  -8.631  37.652  1.00  0.00     0.162 A 
ATOM     14  C   UNL     1      -2.650  -7.119  36.015  1.00  0.00     0.066 A 
ATOM     15  C   UNL     1      -1.725  -7.595  38.215  1.00  0.00     0.200 A 
ATOM     16  C   UNL     1      -2.574  -6.825  37.381  1.00  0.00     0.162 A 
BRANCH  13  17
ATOM     17  O   UNL     1      -0.113  -9.412  38.444  1.00  0.00    -0.504 OA
ATOM     18  H   UNL     1       0.896  -9.373  38.363  1.00  0.00     0.293 HD
ENDBRANCH  13  17
BRANCH  15  19
ATOM     19  O   UNL     1      -1.624  -7.364  39.590  1.00  0.00    -0.502 OA
ATOM     20  H   UNL     1      -0.761  -7.152  40.066  1.00  0.00     0.293 HD
ENDBRANCH  15  19
BRANCH  16  21
ATOM     21  O   UNL     1      -3.348  -5.765  37.862  1.00  0.00    -0.504 OA
ATOM     22  H   UNL     1      -4.348  -5.702  37.765  1.00  0.00     0.293 HD
ENDBRANCH  16  21
ENDBRANCH   9  11
ENDBRANCH   8   9
ENDBRANCH   7   8
ENDBRANCH   1   7
BRANCH   2  23
ATOM     23  O   UNL     1      -6.449  -9.073  34.645  1.00  0.00    -0.452 OA
BRANCH  23  24
ATOM     24  C   UNL     1      -6.934  -7.830  34.215  1.00  0.00     0.338 C 
ATOM     25  O   UNL     1      -8.122  -7.716  33.808  1.00  0.00    -0.246 OA
BRANCH  24  26
ATOM     26  C   UNL     1      -6.044  -6.651  34.247  1.00  0.00     0.067 A 
ATOM     27  C   UNL     1      -5.101  -6.438  33.226  1.00  0.00     0.066 A 
ATOM     28  C   UNL     1      -6.140  -5.725  35.295  1.00  0.00     0.066 A 
ATOM     29  C   UNL     1      -4.266  -5.317  33.252  1.00  0.00     0.162 A 
ATOM     30  C   UNL     1      -5.305  -4.605  35.333  1.00  0.00     0.162 A 
ATOM     31  C   UNL     1      -4.362  -4.397  34.311  1.00  0.00     0.200 A 
BRANCH  29  32
ATOM     32  O   UNL     1      -3.361  -5.122  32.208  1.00  0.00    -0.504 OA
ATOM     33  H   UNL     1      -2.371  -5.304  32.317  1.00  0.00     0.293 HD
ENDBRANCH  29  32
BRANCH  30  34
ATOM     34  O   UNL     1      -5.402  -3.695  36.388  1.00  0.00    -0.504 OA
ATOM     35  H   UNL     1      -5.264  -2.701  36.239  1.00  0.00     0.293 HD
ENDBRANCH  30  34
BRANCH  31  36
ATOM     36  O   UNL     1      -3.525  -3.280  34.331  1.00  0.00    -0.502 OA
ATOM     37  H   UNL     1      -3.759  -2.438  34.848  1.00  0.00     0.293 HD
ENDBRANCH  31  36
ENDBRANCH  24  26
ENDBRANCH  23  24
ENDBRANCH   2  23
BRANCH   3  38
ATOM     38  O   UNL     1      -6.798  -8.681  37.397  1.00  0.00    -0.450 OA
BRANCH  38  39
ATOM     39  C   UNL     1      -6.649  -7.885  38.538  1.00  0.00     0.338 C 
ATOM     40  O   UNL     1      -6.936  -6.658  38.495  1.00  0.00    -0.246 OA
BRANCH  39  41
ATOM     41  C   UNL     1      -6.143  -8.492  39.792  1.00  0.00     0.067 A 
ATOM     42  C   UNL     1      -7.015  -8.828  40.842  1.00  0.00     0.066 A 
ATOM     43  C   UNL     1      -4.769  -8.733  39.947  1.00  0.00     0.066 A 
ATOM     44  C   UNL     1      -6.522  -9.364  42.040  1.00  0.00     0.162 A 
ATOM     45  C   UNL     1      -4.267  -9.265  41.138  1.00  0.00     0.162 A 
ATOM     46  C   UNL     1      -5.141  -9.578  42.192  1.00  0.00     0.200 A 
BRANCH  44  47
ATOM     47  O   UNL     1      -7.397  -9.684  43.082  1.00  0.00    -0.504 OA
ATOM     48  H   UNL     1      -8.263 -10.186  42.918  1.00  0.00     0.293 HD
ENDBRANCH  44  47
BRANCH  45  49
ATOM     49  O   UNL     1      -2.894  -9.483  41.257  1.00  0.00    -0.504 OA
ATOM     50  H   UNL     1      -2.214  -8.868  40.829  1.00  0.00     0.293 HD
ENDBRANCH  45  49
BRANCH  46  51
ATOM     51  O   UNL     1      -4.627 -10.102  43.377  1.00  0.00    -0.502 OA
ATOM     52  H   UNL     1      -4.733 -11.077  43.634  1.00  0.00     0.293 HD
ENDBRANCH  46  51
ENDBRANCH  39  41
ENDBRANCH  38  39
ENDBRANCH   3  38
BRANCH   5  53
ATOM     53  O   UNL     1      -4.334 -12.235  37.055  1.00  0.00    -0.428 OA
BRANCH  53  54
ATOM     54  C   UNL     1      -3.854 -13.507  37.394  1.00  0.00     0.340 C 
ATOM     55  O   UNL     1      -3.548 -14.330  36.489  1.00  0.00    -0.246 OA
BRANCH  54  56
ATOM     56  C   UNL     1      -3.737 -13.885  38.820  1.00  0.00     0.067 A 
ATOM     57  C   UNL     1      -3.871 -15.229  39.206  1.00  0.00     0.066 A 
ATOM     58  C   UNL     1      -3.479 -12.911  39.798  1.00  0.00     0.066 A 
ATOM     59  C   UNL     1      -3.759 -15.596  40.555  1.00  0.00     0.162 A 
ATOM     60  C   UNL     1      -3.358 -13.273  41.147  1.00  0.00     0.162 A 
ATOM     61  C   UNL     1      -3.506 -14.616  41.530  1.00  0.00     0.200 A 
BRANCH  59  62
ATOM     62  O   UNL     1      -3.898 -16.929  40.931  1.00  0.00    -0.504 OA
ATOM     63  H   UNL     1      -3.947 -17.205  41.905  1.00  0.00     0.293 HD
ENDBRANCH  59  62
BRANCH  60  64
ATOM     64  O   UNL     1      -3.106 -12.287  42.101  1.00  0.00    -0.504 OA
ATOM     65  H   UNL     1      -3.168 -11.300  41.880  1.00  0.00     0.293 HD
ENDBRANCH  60  64
BRANCH  61  66
ATOM     66  O   UNL     1      -3.395 -14.959  42.879  1.00  0.00    -0.502 OA
ATOM     67  H   UNL     1      -2.496 -15.185  43.305  1.00  0.00     0.293 HD
ENDBRANCH  61  66
ENDBRANCH  54  56
ENDBRANCH  53  54
ENDBRANCH   5  53
BRANCH   4  68
ATOM     68  O   UNL     1      -6.738 -11.457  38.243  1.00  0.00    -0.448 OA
BRANCH  68  69
ATOM     69  C   UNL     1      -7.548 -12.564  38.540  1.00  0.00     0.339 C 
ATOM     70  O   UNL     1      -8.422 -12.946  37.717  1.00  0.00    -0.246 OA
BRANCH  69  71
ATOM     71  C   UNL     1      -7.349 -13.309  39.802  1.00  0.00     0.067 A 
ATOM     72  C   UNL     1      -7.496 -14.707  39.837  1.00  0.00     0.066 A 
ATOM     73  C   UNL     1      -7.007 -12.629  40.981  1.00  0.00     0.066 A 
ATOM     74  C   UNL     1      -7.271 -15.417  41.025  1.00  0.00     0.162 A 
ATOM     75  C   UNL     1      -6.795 -13.324  42.179  1.00  0.00     0.162 A 
ATOM     76  C   UNL     1      -6.909 -14.737  42.197  1.00  0.00     0.200 A 
BRANCH  74  77
ATOM     77  O   UNL     1      -7.392 -16.807  41.049  1.00  0.00    -0.504 OA
ATOM     78  H   UNL     1      -7.525 -17.309  41.913  1.00  0.00     0.293 HD
ENDBRANCH  74  77
BRANCH  75  79
ATOM     79  O   UNL     1      -6.486 -12.573  43.317  1.00  0.00    -0.504 OA
ATOM     80  H   UNL     1      -7.160 -12.036  43.840  1.00  0.00     0.293 HD
ENDBRANCH  75  79
BRANCH  76  81
ATOM     81  O   UNL     1      -6.662 -15.490  43.346  1.00  0.00    -0.502 OA
ATOM     82  H   UNL     1      -7.361 -16.049  43.804  1.00  0.00     0.293 HD
ENDBRANCH  76  81
ENDBRANCH  69  71
ENDBRANCH  68  69
ENDBRANCH   4  68
TORSDOF 31
ENDMDL
MODEL 2
REMARK VINA RESULT:    -4.981      1.988      7.765
REMARK INTER + INTRA:         -21.078
REMARK INTER:                 -13.044
REMARK INTRA:                  -8.033
REMARK UNBOUND:                -9.253
REMARK SMILES O=C(OC[C@@H]1O[C@@H](OC(=O)c2cc(O)c(O)c(O)c2)[C@@H](OC(=O)c2cc(O)c(O)c(O)c2)[C@H](OC(=O)c2cc(O)c(O)c(O)c2)[C@@H]1OC(=O)c1cc(O)c(O)c(O)c1)c1cc(O)c(O)c(O)c1
REMARK SMILES IDX 5 1 46 2 33 3 20 4 7 5 6 6 4 7 3 8 2 9 1 10 59 11 60 12
REMARK SMILES IDX 61 13 67 14 63 15 65 16 62 17 64 19 66 21 47 23 48 24 49 25
REMARK SMILES IDX 50 26 58 27 51 28 56 29 52 30 54 31 57 32 53 34 55 36 34 38
REMARK SMILES IDX 35 39 36 40 37 41 45 42 38 43 43 44 39 45 41 46 44 47 40 49
REMARK SMILES IDX 42 51 8 53 9 54 10 55 11 56 19 57 12 58 17 59 13 60 15 61
REMARK SMILES IDX 18 62 14 64 16 66 21 68 22 69 23 70 24 71 32 72 25 73 30 74
REMARK SMILES IDX 26 75 28 76 31 77 27 79 29 81
REMARK H PARENT 62 18 64 20 66 22 57 33 53 35 55 37 44 48 40 50 42 52 18 63
REMARK H PARENT 14 65 16 67 31 78 27 80 29 82
REMARK Flexibility Score: inf
ROOT
ATOM      1  C   UNL     1      -2.513  -7.488  36.992  1.00  0.00     0.205 C 
ATOM      2  C   UNL     1      -3.249  -8.545  37.844  1.00  0.00     0.254 C 
ATOM      3  C   UNL     1      -4.762  -8.459  37.560  1.00  0.00     0.267 C 
ATOM      4  C   UNL     1      -5.253  -7.011  37.741  1.00  0.00     0.290 C 
ATOM      5  C   UNL     1      -4.363  -6.046  36.939  1.00  0.00     0.357 C 
ATOM      6  O   UNL     1      -2.995  -6.187  37.291  1.00  0.00    -0.329 OA
ENDROOT
BRANCH   1   7
ATOM      7  C   UNL     1      -0.996  -7.534  37.243  1.00  0.00     0.269 C 
BRANCH   7   8
ATOM      8  O   UNL     1      -0.477  -8.831  36.953  1.00  0.00    -0.459 OA
BRANCH   8   9
ATOM      9  C   UNL     1      -0.564  -9.450  35.700  1.00  0.00     0.338 C 
ATOM     10  O   UNL     1       0.125  -9.026  34.734  1.00  0.00    -0.246 OA
BRANCH   9  11
ATOM     11  C   UNL     1      -1.444 -10.626  35.527  1.00  0.00     0.067 A 
ATOM     12  C   UNL     1      -1.064 -11.873  36.042  1.00  0.00     0.066 A 
ATOM     13  C   UNL     1      -1.877 -12.995  35.871  1.00  0.00     0.162 A 
ATOM     14  C   UNL     1      -2.662 -10.515  34.841  1.00  0.00     0.066 A 
ATOM     15  C   UNL     1      -3.093 -12.886  35.173  1.00  0.00     0.200 A 
ATOM     16  C   UNL     1      -3.492 -11.626  34.660  1.00  0.00     0.162 A 
BRANCH  13  17
ATOM     17  O   UNL     1      -1.450 -14.220  36.387  1.00  0.00    -0.504 OA
ATOM     18  H   UNL     1      -1.885 -14.649  37.196  1.00  0.00     0.293 HD
ENDBRANCH  13  17
BRANCH  15  19
ATOM     19  O   UNL     1      -3.868 -14.037  35.005  1.00  0.00    -0.502 OA
ATOM     20  H   UNL     1      -3.879 -14.811  35.651  1.00  0.00     0.293 HD
ENDBRANCH  15  19
BRANCH  16  21
ATOM     21  O   UNL     1      -4.697 -11.435  33.978  1.00  0.00    -0.504 OA
ATOM     22  H   UNL     1      -5.586 -11.796  34.282  1.00  0.00     0.293 HD
ENDBRANCH  16  21
ENDBRANCH   9  11
ENDBRANCH   8   9
ENDBRANCH   7   8
ENDBRANCH   1   7
BRANCH   2  23
ATOM     23  O   UNL     1      -3.002  -8.297  39.228  1.00  0.00    -0.452 OA
BRANCH  23  24
ATOM     24  C   UNL     1      -2.393  -9.218  40.093  1.00  0.00     0.338 C 
ATOM     25  O   UNL     1      -1.145  -9.400  40.054  1.00  0.00    -0.246 OA
BRANCH  24  26
ATOM     26  C   UNL     1      -3.223  -9.972  41.054  1.00  0.00     0.067 A 
ATOM     27  C   UNL     1      -4.365  -9.387  41.630  1.00  0.00     0.066 A 
ATOM     28  C   UNL     1      -2.883 -11.290  41.394  1.00  0.00     0.066 A 
ATOM     29  C   UNL     1      -5.155 -10.106  42.531  1.00  0.00     0.162 A 
ATOM     30  C   UNL     1      -3.663 -12.014  42.300  1.00  0.00     0.162 A 
ATOM     31  C   UNL     1      -4.803 -11.423  42.875  1.00  0.00     0.200 A 
BRANCH  29  32
ATOM     32  O   UNL     1      -6.296  -9.503  43.061  1.00  0.00    -0.504 OA
ATOM     33  H   UNL     1      -7.090  -9.259  42.482  1.00  0.00     0.293 HD
ENDBRANCH  29  32
BRANCH  30  34
ATOM     34  O   UNL     1      -3.308 -13.320  42.641  1.00  0.00    -0.504 OA
ATOM     35  H   UNL     1      -3.206 -13.601  43.611  1.00  0.00     0.293 HD
ENDBRANCH  30  34
BRANCH  31  36
ATOM     36  O   UNL     1      -5.595 -12.134  43.777  1.00  0.00    -0.502 OA
ATOM     37  H   UNL     1      -6.144 -12.942  43.496  1.00  0.00     0.293 HD
ENDBRANCH  31  36
ENDBRANCH  24  26
ENDBRANCH  23  24
ENDBRANCH   2  23
BRANCH   3  38
ATOM     38  O   UNL     1      -5.493  -9.312  38.442  1.00  0.00    -0.450 OA
BRANCH  38  39
ATOM     39  C   UNL     1      -6.164 -10.473  38.045  1.00  0.00     0.338 C 
ATOM     40  O   UNL     1      -7.003 -10.429  37.104  1.00  0.00    -0.246 OA
BRANCH  39  41
ATOM     41  C   UNL     1      -5.890 -11.750  38.744  1.00  0.00     0.067 A 
ATOM     42  C   UNL     1      -6.699 -12.188  39.806  1.00  0.00     0.066 A 
ATOM     43  C   UNL     1      -4.799 -12.542  38.352  1.00  0.00     0.066 A 
ATOM     44  C   UNL     1      -6.407 -13.378  40.488  1.00  0.00     0.162 A 
ATOM     45  C   UNL     1      -4.497 -13.728  39.026  1.00  0.00     0.162 A 
ATOM     46  C   UNL     1      -5.297 -14.149  40.101  1.00  0.00     0.200 A 
BRANCH  44  47
ATOM     47  O   UNL     1      -7.212 -13.798  41.550  1.00  0.00    -0.504 OA
ATOM     48  H   UNL     1      -8.005 -13.252  41.870  1.00  0.00     0.293 HD
ENDBRANCH  44  47
BRANCH  45  49
ATOM     49  O   UNL     1      -3.399 -14.483  38.611  1.00  0.00    -0.504 OA
ATOM     50  H   UNL     1      -2.910 -15.107  39.239  1.00  0.00     0.293 HD
ENDBRANCH  45  49
BRANCH  46  51
ATOM     51  O   UNL     1      -4.981 -15.331  40.770  1.00  0.00    -0.502 OA
ATOM     52  H   UNL     1      -4.447 -15.344  41.632  1.00  0.00     0.293 HD
ENDBRANCH  46  51
ENDBRANCH  39  41
ENDBRANCH  38  39
ENDBRANCH   3  38
BRANCH   5  53
ATOM     53  O   UNL     1      -4.544  -6.235  35.534  1.00  0.00    -0.428 OA
BRANCH  53  54
ATOM     54  C   UNL     1      -4.100  -5.322  34.569  1.00  0.00     0.340 C 
ATOM     55  O   UNL     1      -4.337  -4.091  34.705  1.00  0.00    -0.246 OA
BRANCH  54  56
ATOM     56  C   UNL     1      -3.377  -5.817  33.376  1.00  0.00     0.067 A 
ATOM     57  C   UNL     1      -2.083  -6.350  33.507  1.00  0.00     0.066 A 
ATOM     58  C   UNL     1      -3.977  -5.773  32.107  1.00  0.00     0.066 A 
ATOM     59  C   UNL     1      -1.392  -6.823  32.382  1.00  0.00     0.162 A 
ATOM     60  C   UNL     1      -3.294  -6.252  30.981  1.00  0.00     0.162 A 
ATOM     61  C   UNL     1      -1.997  -6.772  31.114  1.00  0.00     0.200 A 
BRANCH  59  62
ATOM     62  O   UNL     1      -0.109  -7.346  32.518  1.00  0.00    -0.504 OA
ATOM     63  H   UNL     1       0.424  -7.234  33.373  1.00  0.00     0.293 HD
ENDBRANCH  59  62
BRANCH  60  64
ATOM     64  O   UNL     1      -3.910  -6.194  29.731  1.00  0.00    -0.504 OA
ATOM     65  H   UNL     1      -4.864  -5.873  29.618  1.00  0.00     0.293 HD
ENDBRANCH  60  64
BRANCH  61  66
ATOM     66  O   UNL     1      -1.324  -7.235  29.981  1.00  0.00    -0.502 OA
ATOM     67  H   UNL     1      -0.307  -7.273  29.937  1.00  0.00     0.293 HD
ENDBRANCH  61  66
ENDBRANCH  54  56
ENDBRANCH  53  54
ENDBRANCH   5  53
BRANCH   4  68
ATOM     68  O   UNL     1      -6.608  -6.888  37.297  1.00  0.00    -0.448 OA
BRANCH  68  69
ATOM     69  C   UNL     1      -7.611  -6.248  38.040  1.00  0.00     0.339 C 
ATOM     70  O   UNL     1      -8.150  -5.197  37.600  1.00  0.00    -0.246 OA
BRANCH  69  71
ATOM     71  C   UNL     1      -8.066  -6.827  39.322  1.00  0.00     0.067 A 
ATOM     72  C   UNL     1      -8.553  -8.145  39.379  1.00  0.00     0.066 A 
ATOM     73  C   UNL     1      -8.014  -6.068  40.502  1.00  0.00     0.066 A 
ATOM     74  C   UNL     1      -8.950  -8.706  40.601  1.00  0.00     0.162 A 
ATOM     75  C   UNL     1      -8.422  -6.610  41.728  1.00  0.00     0.162 A 
ATOM     76  C   UNL     1      -8.877  -7.951  41.781  1.00  0.00     0.200 A 
BRANCH  74  77
ATOM     77  O   UNL     1      -9.407 -10.023  40.657  1.00  0.00    -0.504 OA
ATOM     78  H   UNL     1     -10.323 -10.277  40.321  1.00  0.00     0.293 HD
ENDBRANCH  74  77
BRANCH  75  79
ATOM     79  O   UNL     1      -8.367  -5.781  42.853  1.00  0.00    -0.504 OA
ATOM     80  H   UNL     1      -9.177  -5.380  43.298  1.00  0.00     0.293 HD
ENDBRANCH  75  79
BRANCH  76  81
ATOM     81  O   UNL     1      -9.250  -8.565  42.979  1.00  0.00    -0.502 OA
ATOM     82  H   UNL     1     -10.203  -8.764  43.227  1.00  0.00     0.293 HD
ENDBRANCH  76  81
ENDBRANCH  69  71
ENDBRANCH  68  69
ENDBRANCH   4  68
TORSDOF 31
ENDMDL
MODEL 3
REMARK VINA RESULT:    -4.981      1.986      7.897
REMARK INTER + INTRA:         -21.077
REMARK INTER:                 -13.041
REMARK INTRA:                  -8.035
REMARK UNBOUND:                -9.253
REMARK SMILES O=C(OC[C@@H]1O[C@@H](OC(=O)c2cc(O)c(O)c(O)c2)[C@@H](OC(=O)c2cc(O)c(O)c(O)c2)[C@H](OC(=O)c2cc(O)c(O)c(O)c2)[C@@H]1OC(=O)c1cc(O)c(O)c(O)c1)c1cc(O)c(O)c(O)c1
REMARK SMILES IDX 5 1 46 2 33 3 20 4 7 5 6 6 4 7 3 8 2 9 1 10 59 11 60 12
REMARK SMILES IDX 61 13 67 14 63 15 65 16 62 17 64 19 66 21 47 23 48 24 49 25
REMARK SMILES IDX 50 26 58 27 51 28 56 29 52 30 54 31 57 32 53 34 55 36 34 38
REMARK SMILES IDX 35 39 36 40 37 41 45 42 38 43 43 44 39 45 41 46 44 47 40 49
REMARK SMILES IDX 42 51 8 53 9 54 10 55 11 56 19 57 12 58 17 59 13 60 15 61
REMARK SMILES IDX 18 62 14 64 16 66 21 68 22 69 23 70 24 71 32 72 25 73 30 74
REMARK SMILES IDX 26 75 28 76 31 77 27 79 29 81
REMARK H PARENT 62 18 64 20 66 22 57 33 53 35 55 37 44 48 40 50 42 52 18 63
REMARK H PARENT 14 65 16 67 31 78 27 80 29 82
REMARK Flexibility Score: inf
ROOT
ATOM      1  C   UNL     1      -2.529  -7.489  37.022  1.00  0.00     0.205 C 
ATOM      2  C   UNL     1      -3.272  -8.551  37.862  1.00  0.00     0.254 C 
ATOM      3  C   UNL     1      -4.783  -8.463  37.566  1.00  0.00     0.267 C 
ATOM      4  C   UNL     1      -5.275  -7.016  37.752  1.00  0.00     0.290 C 
ATOM      5  C   UNL     1      -4.378  -6.045  36.963  1.00  0.00     0.357 C 
ATOM      6  O   UNL     1      -3.014  -6.189  37.325  1.00  0.00    -0.329 OA
ENDROOT
BRANCH   1   7
ATOM      7  C   UNL     1      -1.014  -7.536  37.284  1.00  0.00     0.269 C 
BRANCH   7   8
ATOM      8  O   UNL     1      -0.487  -8.821  36.958  1.00  0.00    -0.459 OA
BRANCH   8   9
ATOM      9  C   UNL     1      -0.564  -9.403  35.687  1.00  0.00     0.338 C 
ATOM     10  O   UNL     1       0.114  -8.935  34.733  1.00  0.00    -0.246 OA
BRANCH   9  11
ATOM     11  C   UNL     1      -1.421 -10.590  35.478  1.00  0.00     0.067 A 
ATOM     12  C   UNL     1      -2.615 -10.480  34.753  1.00  0.00     0.066 A 
ATOM     13  C   UNL     1      -3.441 -11.590  34.563  1.00  0.00     0.162 A 
ATOM     14  C   UNL     1      -1.056 -11.838  36.005  1.00  0.00     0.066 A 
ATOM     15  C   UNL     1      -3.081 -12.838  35.100  1.00  0.00     0.200 A 
ATOM     16  C   UNL     1      -1.868 -12.963  35.823  1.00  0.00     0.162 A 
BRANCH  13  17
ATOM     17  O   UNL     1      -4.630 -11.429  33.848  1.00  0.00    -0.504 OA
ATOM     18  H   UNL     1      -4.936 -12.093  33.147  1.00  0.00     0.293 HD
ENDBRANCH  13  17
BRANCH  15  19
ATOM     19  O   UNL     1      -3.945 -13.920  34.905  1.00  0.00    -0.502 OA
ATOM     20  H   UNL     1      -3.679 -14.782  34.454  1.00  0.00     0.293 HD
ENDBRANCH  15  19
BRANCH  16  21
ATOM     21  O   UNL     1      -1.432 -14.175  36.366  1.00  0.00    -0.504 OA
ATOM     22  H   UNL     1      -1.581 -14.456  37.321  1.00  0.00     0.293 HD
ENDBRANCH  16  21
ENDBRANCH   9  11
ENDBRANCH   8   9
ENDBRANCH   7   8
ENDBRANCH   1   7
BRANCH   2  23
ATOM     23  O   UNL     1      -3.036  -8.311  39.249  1.00  0.00    -0.452 OA
BRANCH  23  24
ATOM     24  C   UNL     1      -2.405  -9.223  40.106  1.00  0.00     0.338 C 
ATOM     25  O   UNL     1      -1.153  -9.379  40.061  1.00  0.00    -0.246 OA
BRANCH  24  26
ATOM     26  C   UNL     1      -3.215 -10.001  41.065  1.00  0.00     0.067 A 
ATOM     27  C   UNL     1      -4.358  -9.439  41.660  1.00  0.00     0.066 A 
ATOM     28  C   UNL     1      -2.854 -11.318  41.386  1.00  0.00     0.066 A 
ATOM     29  C   UNL     1      -5.129 -10.179  42.560  1.00  0.00     0.162 A 
ATOM     30  C   UNL     1      -3.615 -12.064  42.291  1.00  0.00     0.162 A 
ATOM     31  C   UNL     1      -4.757 -11.496  42.883  1.00  0.00     0.200 A 
BRANCH  29  32
ATOM     32  O   UNL     1      -6.274  -9.599  43.109  1.00  0.00    -0.504 OA
ATOM     33  H   UNL     1      -7.038 -10.159  43.467  1.00  0.00     0.293 HD
ENDBRANCH  29  32
BRANCH  30  34
ATOM     34  O   UNL     1      -3.239 -13.370  42.611  1.00  0.00    -0.504 OA
ATOM     35  H   UNL     1      -3.934 -14.094  42.760  1.00  0.00     0.293 HD
ENDBRANCH  30  34
BRANCH  31  36
ATOM     36  O   UNL     1      -5.531 -12.229  43.784  1.00  0.00    -0.502 OA
ATOM     37  H   UNL     1      -5.947 -13.122  43.538  1.00  0.00     0.293 HD
ENDBRANCH  31  36
ENDBRANCH  24  26
ENDBRANCH  23  24
ENDBRANCH   2  23
BRANCH   3  38
ATOM     38  O   UNL     1      -5.521  -9.320  38.437  1.00  0.00    -0.450 OA
BRANCH  38  39
ATOM     39  C   UNL     1      -6.136 -10.512  38.041  1.00  0.00     0.338 C 
ATOM     40  O   UNL     1      -6.974 -10.510  37.099  1.00  0.00    -0.246 OA
BRANCH  39  41
ATOM     41  C   UNL     1      -5.802 -11.775  38.742  1.00  0.00     0.067 A 
ATOM     42  C   UNL     1      -4.705 -12.559  38.347  1.00  0.00     0.066 A 
ATOM     43  C   UNL     1      -6.594 -12.208  39.816  1.00  0.00     0.066 A 
ATOM     44  C   UNL     1      -4.422 -13.772  38.990  1.00  0.00     0.162 A 
ATOM     45  C   UNL     1      -6.322 -13.417  40.463  1.00  0.00     0.162 A 
ATOM     46  C   UNL     1      -5.238 -14.207  40.049  1.00  0.00     0.200 A 
BRANCH  44  47
ATOM     47  O   UNL     1      -3.334 -14.550  38.582  1.00  0.00    -0.504 OA
ATOM     48  H   UNL     1      -2.821 -14.347  37.730  1.00  0.00     0.293 HD
ENDBRANCH  44  47
BRANCH  45  49
ATOM     49  O   UNL     1      -7.138 -13.818  41.522  1.00  0.00    -0.504 OA
ATOM     50  H   UNL     1      -7.357 -14.791  41.691  1.00  0.00     0.293 HD
ENDBRANCH  45  49
BRANCH  46  51
ATOM     51  O   UNL     1      -4.981 -15.415  40.698  1.00  0.00    -0.502 OA
ATOM     52  H   UNL     1      -4.340 -15.487  41.481  1.00  0.00     0.293 HD
ENDBRANCH  46  51
ENDBRANCH  39  41
ENDBRANCH  38  39
ENDBRANCH   3  38
BRANCH   5  53
ATOM     53  O   UNL     1      -4.548  -6.227  35.555  1.00  0.00    -0.428 OA
BRANCH  53  54
ATOM     54  C   UNL     1      -4.085  -5.314  34.598  1.00  0.00     0.340 C 
ATOM     55  O   UNL     1      -4.285  -4.079  34.752  1.00  0.00    -0.246 OA
BRANCH  54  56
ATOM     56  C   UNL     1      -3.386  -5.815  33.393  1.00  0.00     0.067 A 
ATOM     57  C   UNL     1      -2.091  -6.348  33.500  1.00  0.00     0.066 A 
ATOM     58  C   UNL     1      -4.012  -5.775  32.136  1.00  0.00     0.066 A 
ATOM     59  C   UNL     1      -1.423  -6.827  32.364  1.00  0.00     0.162 A 
ATOM     60  C   UNL     1      -3.352  -6.259  30.999  1.00  0.00     0.162 A 
ATOM     61  C   UNL     1      -2.052  -6.779  31.108  1.00  0.00     0.200 A 
BRANCH  59  62
ATOM     62  O   UNL     1      -0.137  -7.349  32.476  1.00  0.00    -0.504 OA
ATOM     63  H   UNL     1       0.097  -8.269  32.120  1.00  0.00     0.293 HD
ENDBRANCH  59  62
BRANCH  60  64
ATOM     64  O   UNL     1      -3.992  -6.205  29.761  1.00  0.00    -0.504 OA
ATOM     65  H   UNL     1      -3.532  -6.500  28.907  1.00  0.00     0.293 HD
ENDBRANCH  60  64
BRANCH  61  66
ATOM     66  O   UNL     1      -1.403  -7.247  29.963  1.00  0.00    -0.502 OA
ATOM     67  H   UNL     1      -1.846  -7.222  29.045  1.00  0.00     0.293 HD
ENDBRANCH  61  66
ENDBRANCH  54  56
ENDBRANCH  53  54
ENDBRANCH   5  53
BRANCH   4  68
ATOM     68  O   UNL     1      -6.626  -6.889  37.298  1.00  0.00    -0.448 OA
BRANCH  68  69
ATOM     69  C   UNL     1      -7.639  -6.267  38.044  1.00  0.00     0.339 C 
ATOM     70  O   UNL     1      -8.197  -5.226  37.604  1.00  0.00    -0.246 OA
BRANCH  69  71
ATOM     71  C   UNL     1      -8.081  -6.854  39.327  1.00  0.00     0.067 A 
ATOM     72  C   UNL     1      -8.534  -8.184  39.387  1.00  0.00     0.066 A 
ATOM     73  C   UNL     1      -8.049  -6.090  40.504  1.00  0.00     0.066 A 
ATOM     74  C   UNL     1      -8.917  -8.751  40.610  1.00  0.00     0.162 A 
ATOM     75  C   UNL     1      -8.445  -6.639  41.731  1.00  0.00     0.162 A 
ATOM     76  C   UNL     1      -8.865  -7.992  41.788  1.00  0.00     0.200 A 
BRANCH  74  77
ATOM     77  O   UNL     1      -9.341 -10.079  40.669  1.00  0.00    -0.504 OA
ATOM     78  H   UNL     1     -10.051 -10.433  40.047  1.00  0.00     0.293 HD
ENDBRANCH  74  77
BRANCH  75  79
ATOM     79  O   UNL     1      -8.413  -5.806  42.854  1.00  0.00    -0.504 OA
ATOM     80  H   UNL     1      -9.215  -5.318  43.218  1.00  0.00     0.293 HD
ENDBRANCH  75  79
BRANCH  76  81
ATOM     81  O   UNL     1      -9.224  -8.611  42.987  1.00  0.00    -0.502 OA
ATOM     82  H   UNL     1      -8.833  -9.482  43.300  1.00  0.00     0.293 HD
ENDBRANCH  76  81
ENDBRANCH  69  71
ENDBRANCH  68  69
ENDBRANCH   4  68
TORSDOF 31
ENDMDL
MODEL 4
REMARK VINA RESULT:    -4.937      2.081      7.802
REMARK INTER + INTRA:         -20.973
REMARK INTER:                 -12.851
REMARK INTRA:                  -8.122
REMARK UNBOUND:                -9.253
REMARK SMILES O=C(OC[C@@H]1O[C@@H](OC(=O)c2cc(O)c(O)c(O)c2)[C@@H](OC(=O)c2cc(O)c(O)c(O)c2)[C@H](OC(=O)c2cc(O)c(O)c(O)c2)[C@@H]1OC(=O)c1cc(O)c(O)c(O)c1)c1cc(O)c(O)c(O)c1
REMARK SMILES IDX 5 1 46 2 33 3 20 4 7 5 6 6 4 7 3 8 2 9 1 10 59 11 60 12
REMARK SMILES IDX 61 13 67 14 63 15 65 16 62 17 64 19 66 21 47 23 48 24 49 25
REMARK SMILES IDX 50 26 58 27 51 28 56 29 52 30 54 31 57 32 53 34 55 36 34 38
REMARK SMILES IDX 35 39 36 40 37 41 45 42 38 43 43 44 39 45 41 46 44 47 40 49
REMARK SMILES IDX 42 51 8 53 9 54 10 55 11 56 19 57 12 58 17 59 13 60 15 61
REMARK SMILES IDX 18 62 14 64 16 66 21 68 22 69 23 70 24 71 32 72 25 73 30 74
REMARK SMILES IDX 26 75 28 76 31 77 27 79 29 81
REMARK H PARENT 62 18 64 20 66 22 57 33 53 35 55 37 44 48 40 50 42 52 18 63
REMARK H PARENT 14 65 16 67 31 78 27 80 29 82
REMARK Flexibility Score: inf
ROOT
ATOM      1  C   UNL     1      -2.847  -7.303  36.758  1.00  0.00     0.205 C 
ATOM      2  C   UNL     1      -3.558  -8.210  37.786  1.00  0.00     0.254 C 
ATOM      3  C   UNL     1      -5.083  -8.094  37.592  1.00  0.00     0.267 C 
ATOM      4  C   UNL     1      -5.508  -6.615  37.616  1.00  0.00     0.290 C 
ATOM      5  C   UNL     1      -4.643  -5.799  36.639  1.00  0.00     0.357 C 
ATOM      6  O   UNL     1      -3.261  -5.954  36.916  1.00  0.00    -0.329 OA
ENDROOT
BRANCH   1   7
ATOM      7  C   UNL     1      -1.318  -7.384  36.913  1.00  0.00     0.269 C 
BRANCH   7   8
ATOM      8  O   UNL     1      -0.876  -8.738  36.842  1.00  0.00    -0.459 OA
BRANCH   8   9
ATOM      9  C   UNL     1      -0.932  -9.523  35.684  1.00  0.00     0.338 C 
ATOM     10  O   UNL     1      -0.115  -9.326  34.744  1.00  0.00    -0.246 OA
BRANCH   9  11
ATOM     11  C   UNL     1      -1.933 -10.607  35.584  1.00  0.00     0.067 A 
ATOM     12  C   UNL     1      -3.059 -10.453  34.764  1.00  0.00     0.066 A 
ATOM     13  C   UNL     1      -4.021 -11.462  34.674  1.00  0.00     0.162 A 
ATOM     14  C   UNL     1      -1.775 -11.798  36.308  1.00  0.00     0.066 A 
ATOM     15  C   UNL     1      -3.868 -12.651  35.409  1.00  0.00     0.200 A 
ATOM     16  C   UNL     1      -2.725 -12.821  36.230  1.00  0.00     0.162 A 
BRANCH  13  17
ATOM     17  O   UNL     1      -5.136 -11.258  33.858  1.00  0.00    -0.504 OA
ATOM     18  H   UNL     1      -6.084 -11.303  34.214  1.00  0.00     0.293 HD
ENDBRANCH  13  17
BRANCH  15  19
ATOM     19  O   UNL     1      -4.863 -13.628  35.307  1.00  0.00    -0.502 OA
ATOM     20  H   UNL     1      -4.961 -14.256  34.524  1.00  0.00     0.293 HD
ENDBRANCH  15  19
BRANCH  16  21
ATOM     21  O   UNL     1      -2.492 -13.983  36.970  1.00  0.00    -0.504 OA
ATOM     22  H   UNL     1      -3.217 -14.572  37.347  1.00  0.00     0.293 HD
ENDBRANCH  16  21
ENDBRANCH   9  11
ENDBRANCH   8   9
ENDBRANCH   7   8
ENDBRANCH   1   7
BRANCH   2  23
ATOM     23  O   UNL     1      -3.205  -7.799  39.107  1.00  0.00    -0.452 OA
BRANCH  23  24
ATOM     24  C   UNL     1      -2.395  -8.550  39.971  1.00  0.00     0.338 C 
ATOM     25  O   UNL     1      -1.226  -8.162  40.246  1.00  0.00    -0.246 OA
BRANCH  24  26
ATOM     26  C   UNL     1      -2.921  -9.798  40.561  1.00  0.00     0.067 A 
ATOM     27  C   UNL     1      -2.843 -11.012  39.857  1.00  0.00     0.066 A 
ATOM     28  C   UNL     1      -3.497  -9.783  41.840  1.00  0.00     0.066 A 
ATOM     29  C   UNL     1      -3.332 -12.194  40.421  1.00  0.00     0.162 A 
ATOM     30  C   UNL     1      -3.995 -10.959  42.409  1.00  0.00     0.162 A 
ATOM     31  C   UNL     1      -3.916 -12.170  41.699  1.00  0.00     0.200 A 
BRANCH  29  32
ATOM     32  O   UNL     1      -3.212 -13.386  39.705  1.00  0.00    -0.504 OA
ATOM     33  H   UNL     1      -3.850 -13.628  38.957  1.00  0.00     0.293 HD
ENDBRANCH  29  32
BRANCH  30  34
ATOM     34  O   UNL     1      -4.577 -10.930  43.677  1.00  0.00    -0.504 OA
ATOM     35  H   UNL     1      -4.047 -11.185  44.504  1.00  0.00     0.293 HD
ENDBRANCH  30  34
BRANCH  31  36
ATOM     36  O   UNL     1      -4.403 -13.354  42.256  1.00  0.00    -0.502 OA
ATOM     37  H   UNL     1      -4.751 -13.401  43.209  1.00  0.00     0.293 HD
ENDBRANCH  31  36
ENDBRANCH  24  26
ENDBRANCH  23  24
ENDBRANCH   2  23
BRANCH   3  38
ATOM     38  O   UNL     1      -5.780  -8.795  38.623  1.00  0.00    -0.450 OA
BRANCH  38  39
ATOM     39  C   UNL     1      -6.204 -10.124  38.530  1.00  0.00     0.338 C 
ATOM     40  O   UNL     1      -6.118 -10.741  37.433  1.00  0.00    -0.246 OA
BRANCH  39  41
ATOM     41  C   UNL     1      -6.763 -10.798  39.726  1.00  0.00     0.067 A 
ATOM     42  C   UNL     1      -6.976 -10.096  40.925  1.00  0.00     0.066 A 
ATOM     43  C   UNL     1      -7.082 -12.164  39.673  1.00  0.00     0.066 A 
ATOM     44  C   UNL     1      -7.467 -10.753  42.062  1.00  0.00     0.162 A 
ATOM     45  C   UNL     1      -7.569 -12.828  40.802  1.00  0.00     0.162 A 
ATOM     46  C   UNL     1      -7.759 -12.126  42.003  1.00  0.00     0.200 A 
BRANCH  44  47
ATOM     47  O   UNL     1      -7.665 -10.047  43.253  1.00  0.00    -0.504 OA
ATOM     48  H   UNL     1      -8.057  -9.111  43.262  1.00  0.00     0.293 HD
ENDBRANCH  44  47
BRANCH  45  49
ATOM     49  O   UNL     1      -7.867 -14.189  40.712  1.00  0.00    -0.504 OA
ATOM     50  H   UNL     1      -7.723 -14.714  39.860  1.00  0.00     0.293 HD
ENDBRANCH  45  49
BRANCH  46  51
ATOM     51  O   UNL     1      -8.240 -12.802  43.124  1.00  0.00    -0.502 OA
ATOM     52  H   UNL     1      -9.081 -12.516  43.615  1.00  0.00     0.293 HD
ENDBRANCH  46  51
ENDBRANCH  39  41
ENDBRANCH  38  39
ENDBRANCH   3  38
BRANCH   5  53
ATOM     53  O   UNL     1      -4.930  -6.157  35.285  1.00  0.00    -0.428 OA
BRANCH  53  54
ATOM     54  C   UNL     1      -4.618  -5.342  34.190  1.00  0.00     0.340 C 
ATOM     55  O   UNL     1      -5.125  -4.190  34.092  1.00  0.00    -0.246 OA
BRANCH  54  56
ATOM     56  C   UNL     1      -3.715  -5.854  33.135  1.00  0.00     0.067 A 
ATOM     57  C   UNL     1      -4.127  -5.848  31.791  1.00  0.00     0.066 A 
ATOM     58  C   UNL     1      -2.438  -6.337  33.460  1.00  0.00     0.066 A 
ATOM     59  C   UNL     1      -3.276  -6.328  30.785  1.00  0.00     0.162 A 
ATOM     60  C   UNL     1      -1.581  -6.812  32.458  1.00  0.00     0.162 A 
ATOM     61  C   UNL     1      -2.001  -6.816  31.119  1.00  0.00     0.200 A 
BRANCH  59  62
ATOM     62  O   UNL     1      -3.692  -6.324  29.456  1.00  0.00    -0.504 OA
ATOM     63  H   UNL     1      -3.160  -5.853  28.734  1.00  0.00     0.293 HD
ENDBRANCH  59  62
BRANCH  60  64
ATOM     64  O   UNL     1      -0.318  -7.291  32.807  1.00  0.00    -0.504 OA
ATOM     65  H   UNL     1      -0.171  -7.863  33.631  1.00  0.00     0.293 HD
ENDBRANCH  60  64
BRANCH  61  66
ATOM     66  O   UNL     1      -1.140  -7.303  30.132  1.00  0.00    -0.502 OA
ATOM     67  H   UNL     1      -0.420  -6.718  29.710  1.00  0.00     0.293 HD
ENDBRANCH  61  66
ENDBRANCH  54  56
ENDBRANCH  53  54
ENDBRANCH   5  53
BRANCH   4  68
ATOM     68  O   UNL     1      -6.886  -6.489  37.250  1.00  0.00    -0.448 OA
BRANCH  68  69
ATOM     69  C   UNL     1      -7.829  -5.784  38.012  1.00  0.00     0.339 C 
ATOM     70  O   UNL     1      -8.310  -4.702  37.579  1.00  0.00    -0.246 OA
BRANCH  69  71
ATOM     71  C   UNL     1      -8.292  -6.328  39.306  1.00  0.00     0.067 A 
ATOM     72  C   UNL     1      -7.927  -5.708  40.515  1.00  0.00     0.066 A 
ATOM     73  C   UNL     1      -9.106  -7.471  39.345  1.00  0.00     0.066 A 
ATOM     74  C   UNL     1      -8.396  -6.203  41.740  1.00  0.00     0.162 A 
ATOM     75  C   UNL     1      -9.569  -7.987  40.563  1.00  0.00     0.162 A 
ATOM     76  C   UNL     1      -9.226  -7.333  41.773  1.00  0.00     0.200 A 
BRANCH  74  77
ATOM     77  O   UNL     1      -8.054  -5.569  42.934  1.00  0.00    -0.504 OA
ATOM     78  H   UNL     1      -8.495  -4.708  43.218  1.00  0.00     0.293 HD
ENDBRANCH  74  77
BRANCH  75  79
ATOM     79  O   UNL     1     -10.351  -9.145  40.520  1.00  0.00    -0.504 OA
ATOM     80  H   UNL     1     -10.387  -9.773  39.734  1.00  0.00     0.293 HD
ENDBRANCH  75  79
BRANCH  76  81
ATOM     81  O   UNL     1      -9.697  -7.768  43.014  1.00  0.00    -0.502 OA
ATOM     82  H   UNL     1      -9.122  -8.239  43.691  1.00  0.00     0.293 HD
ENDBRANCH  76  81
ENDBRANCH  69  71
ENDBRANCH  68  69
ENDBRANCH   4  68
TORSDOF 31
ENDMDL
MODEL 5
REMARK VINA RESULT:    -4.875      2.210      7.852
REMARK INTER + INTRA:         -20.826
REMARK INTER:                 -12.841
REMARK INTRA:                  -7.985
REMARK UNBOUND:                -9.253
REMARK SMILES O=C(OC[C@@H]1O[C@@H](OC(=O)c2cc(O)c(O)c(O)c2)[C@@H](OC(=O)c2cc(O)c(O)c(O)c2)[C@H](OC(=O)c2cc(O)c(O)c(O)c2)[C@@H]1OC(=O)c1cc(O)c(O)c(O)c1)c1cc(O)c(O)c(O)c1
REMARK SMILES IDX 5 1 46 2 33 3 20 4 7 5 6 6 4 7 3 8 2 9 1 10 59 11 60 12
REMARK SMILES IDX 61 13 67 14 63 15 65 16 62 17 64 19 66 21 47 23 48 24 49 25
REMARK SMILES IDX 50 26 58 27 51 28 56 29 52 30 54 31 57 32 53 34 55 36 34 38
REMARK SMILES IDX 35 39 36 40 37 41 45 42 38 43 43 44 39 45 41 46 44 47 40 49
REMARK SMILES IDX 42 51 8 53 9 54 10 55 11 56 19 57 12 58 17 59 13 60 15 61
REMARK SMILES IDX 18 62 14 64 16 66 21 68 22 69 23 70 24 71 32 72 25 73 30 74
REMARK SMILES IDX 26 75 28 76 31 77 27 79 29 81
REMARK H PARENT 62 18 64 20 66 22 57 33 53 35 55 37 44 48 40 50 42 52 18 63
REMARK H PARENT 14 65 16 67 31 78 27 80 29 82
REMARK Flexibility Score: inf
ROOT
ATOM      1  C   UNL     1      -2.867  -7.376  36.731  1.00  0.00     0.205 C 
ATOM      2  C   UNL     1      -3.544  -8.276  37.788  1.00  0.00     0.254 C 
ATOM      3  C   UNL     1      -5.075  -8.173  37.634  1.00  0.00     0.267 C 
ATOM      4  C   UNL     1      -5.509  -6.696  37.652  1.00  0.00     0.290 C 
ATOM      5  C   UNL     1      -4.677  -5.885  36.643  1.00  0.00     0.357 C 
ATOM      6  O   UNL     1      -3.286  -6.028  36.885  1.00  0.00    -0.329 OA
ENDROOT
BRANCH   1   7
ATOM      7  C   UNL     1      -1.334  -7.444  36.846  1.00  0.00     0.269 C 
BRANCH   7   8
ATOM      8  O   UNL     1      -0.887  -8.798  36.812  1.00  0.00    -0.459 OA
BRANCH   8   9
ATOM      9  C   UNL     1      -0.788  -9.564  35.644  1.00  0.00     0.338 C 
ATOM     10  O   UNL     1      -0.268  -9.073  34.605  1.00  0.00    -0.246 OA
BRANCH   9  11
ATOM     11  C   UNL     1      -1.266 -10.964  35.645  1.00  0.00     0.067 A 
ATOM     12  C   UNL     1      -2.436 -11.309  36.334  1.00  0.00     0.066 A 
ATOM     13  C   UNL     1      -2.889 -12.629  36.358  1.00  0.00     0.162 A 
ATOM     14  C   UNL     1      -0.555 -11.964  34.966  1.00  0.00     0.066 A 
ATOM     15  C   UNL     1      -2.170 -13.634  35.686  1.00  0.00     0.200 A 
ATOM     16  C   UNL     1      -0.993 -13.292  34.975  1.00  0.00     0.162 A 
BRANCH  13  17
ATOM     17  O   UNL     1      -4.051 -12.930  37.072  1.00  0.00    -0.504 OA
ATOM     18  H   UNL     1      -4.364 -12.373  37.858  1.00  0.00     0.293 HD
ENDBRANCH  13  17
BRANCH  15  19
ATOM     19  O   UNL     1      -2.645 -14.948  35.751  1.00  0.00    -0.502 OA
ATOM     20  H   UNL     1      -2.086 -15.738  36.033  1.00  0.00     0.293 HD
ENDBRANCH  15  19
BRANCH  16  21
ATOM     21  O   UNL     1      -0.239 -14.231  34.263  1.00  0.00    -0.504 OA
ATOM     22  H   UNL     1      -0.059 -15.170  34.578  1.00  0.00     0.293 HD
ENDBRANCH  16  21
ENDBRANCH   9  11
ENDBRANCH   8   9
ENDBRANCH   7   8
ENDBRANCH   1   7
BRANCH   2  23
ATOM     23  O   UNL     1      -3.159  -7.848  39.094  1.00  0.00    -0.452 OA
BRANCH  23  24
ATOM     24  C   UNL     1      -2.344  -8.596  39.956  1.00  0.00     0.338 C 
ATOM     25  O   UNL     1      -1.162  -8.225  40.197  1.00  0.00    -0.246 OA
BRANCH  24  26
ATOM     26  C   UNL     1      -2.880  -9.821  40.583  1.00  0.00     0.067 A 
ATOM     27  C   UNL     1      -3.483  -9.772  41.853  1.00  0.00     0.066 A 
ATOM     28  C   UNL     1      -2.801 -11.049  39.910  1.00  0.00     0.066 A 
ATOM     29  C   UNL     1      -3.998 -10.930  42.441  1.00  0.00     0.162 A 
ATOM     30  C   UNL     1      -3.307 -12.214  40.494  1.00  0.00     0.162 A 
ATOM     31  C   UNL     1      -3.907 -12.159  41.765  1.00  0.00     0.200 A 
BRANCH  29  32
ATOM     32  O   UNL     1      -4.615 -10.838  43.689  1.00  0.00    -0.504 OA
ATOM     33  H   UNL     1      -4.713  -9.954  44.174  1.00  0.00     0.293 HD
ENDBRANCH  29  32
BRANCH  30  34
ATOM     34  O   UNL     1      -3.212 -13.432  39.820  1.00  0.00    -0.504 OA
ATOM     35  H   UNL     1      -2.723 -13.505  38.933  1.00  0.00     0.293 HD
ENDBRANCH  30  34
BRANCH  31  36
ATOM     36  O   UNL     1      -4.423 -13.312  42.359  1.00  0.00    -0.502 OA
ATOM     37  H   UNL     1      -3.855 -14.139  42.517  1.00  0.00     0.293 HD
ENDBRANCH  31  36
ENDBRANCH  24  26
ENDBRANCH  23  24
ENDBRANCH   2  23
BRANCH   3  38
ATOM     38  O   UNL     1      -5.738  -8.866  38.690  1.00  0.00    -0.450 OA
BRANCH  38  39
ATOM     39  C   UNL     1      -6.161 -10.198  38.622  1.00  0.00     0.338 C 
ATOM     40  O   UNL     1      -6.043 -10.844  37.545  1.00  0.00    -0.246 OA
BRANCH  39  41
ATOM     41  C   UNL     1      -6.755 -10.839  39.818  1.00  0.00     0.067 A 
ATOM     42  C   UNL     1      -6.973 -10.112  41.001  1.00  0.00     0.066 A 
ATOM     43  C   UNL     1      -7.103 -12.198  39.783  1.00  0.00     0.066 A 
ATOM     44  C   UNL     1      -7.497 -10.738  42.141  1.00  0.00     0.162 A 
ATOM     45  C   UNL     1      -7.624 -12.832  40.914  1.00  0.00     0.162 A 
ATOM     46  C   UNL     1      -7.819 -12.106  42.100  1.00  0.00     0.200 A 
BRANCH  44  47
ATOM     47  O   UNL     1      -7.699 -10.008  43.316  1.00  0.00    -0.504 OA
ATOM     48  H   UNL     1      -8.192  -9.121  43.317  1.00  0.00     0.293 HD
ENDBRANCH  44  47
BRANCH  45  49
ATOM     49  O   UNL     1      -7.950 -14.187  40.842  1.00  0.00    -0.504 OA
ATOM     50  H   UNL     1      -8.478 -14.571  40.070  1.00  0.00     0.293 HD
ENDBRANCH  45  49
BRANCH  46  51
ATOM     51  O   UNL     1      -8.333 -12.751  43.224  1.00  0.00    -0.502 OA
ATOM     52  H   UNL     1      -8.133 -12.444  44.169  1.00  0.00     0.293 HD
ENDBRANCH  46  51
ENDBRANCH  39  41
ENDBRANCH  38  39
ENDBRANCH   3  38
BRANCH   5  53
ATOM     53  O   UNL     1      -4.996  -6.261  35.301  1.00  0.00    -0.428 OA
BRANCH  53  54
ATOM     54  C   UNL     1      -4.796  -5.422  34.197  1.00  0.00     0.340 C 
ATOM     55  O   UNL     1      -5.414  -4.326  34.115  1.00  0.00    -0.246 OA
BRANCH  54  56
ATOM     56  C   UNL     1      -3.879  -5.847  33.117  1.00  0.00     0.067 A 
ATOM     57  C   UNL     1      -4.319  -5.860  31.783  1.00  0.00     0.066 A 
ATOM     58  C   UNL     1      -2.559  -6.230  33.409  1.00  0.00     0.066 A 
ATOM     59  C   UNL     1      -3.455  -6.259  30.753  1.00  0.00     0.162 A 
ATOM     60  C   UNL     1      -1.689  -6.622  32.383  1.00  0.00     0.162 A 
ATOM     61  C   UNL     1      -2.137  -6.645  31.053  1.00  0.00     0.200 A 
BRANCH  59  62
ATOM     62  O   UNL     1      -3.899  -6.274  29.433  1.00  0.00    -0.504 OA
ATOM     63  H   UNL     1      -3.258  -6.395  28.657  1.00  0.00     0.293 HD
ENDBRANCH  59  62
BRANCH  60  64
ATOM     64  O   UNL     1      -0.385  -7.001  32.699  1.00  0.00    -0.504 OA
ATOM     65  H   UNL     1      -0.136  -7.967  32.876  1.00  0.00     0.293 HD
ENDBRANCH  60  64
BRANCH  61  66
ATOM     66  O   UNL     1      -1.262  -7.050  30.042  1.00  0.00    -0.502 OA
ATOM     67  H   UNL     1      -0.250  -6.995  30.153  1.00  0.00     0.293 HD
ENDBRANCH  61  66
ENDBRANCH  54  56
ENDBRANCH  53  54
ENDBRANCH   5  53
BRANCH   4  68
ATOM     68  O   UNL     1      -6.897  -6.584  37.321  1.00  0.00    -0.448 OA
BRANCH  68  69
ATOM     69  C   UNL     1      -7.813  -5.825  38.066  1.00  0.00     0.339 C 
ATOM     70  O   UNL     1      -8.226  -4.720  37.622  1.00  0.00    -0.246 OA
BRANCH  69  71
ATOM     71  C   UNL     1      -8.325  -6.339  39.354  1.00  0.00     0.067 A 
ATOM     72  C   UNL     1      -9.177  -7.457  39.390  1.00  0.00     0.066 A 
ATOM     73  C   UNL     1      -7.963  -5.718  40.560  1.00  0.00     0.066 A 
ATOM     74  C   UNL     1      -9.633  -7.967  40.614  1.00  0.00     0.162 A 
ATOM     75  C   UNL     1      -8.424  -6.207  41.790  1.00  0.00     0.162 A 
ATOM     76  C   UNL     1      -9.252  -7.356  41.819  1.00  0.00     0.200 A 
BRANCH  74  77
ATOM     77  O   UNL     1     -10.456  -9.092  40.646  1.00  0.00    -0.504 OA
ATOM     78  H   UNL     1     -11.331  -9.091  41.149  1.00  0.00     0.293 HD
ENDBRANCH  74  77
BRANCH  75  79
ATOM     79  O   UNL     1      -8.043  -5.516  42.945  1.00  0.00    -0.504 OA
ATOM     80  H   UNL     1      -8.356  -5.752  43.873  1.00  0.00     0.293 HD
ENDBRANCH  75  79
BRANCH  76  81
ATOM     81  O   UNL     1      -9.703  -7.921  43.014  1.00  0.00    -0.502 OA
ATOM     82  H   UNL     1     -10.650  -7.844  43.341  1.00  0.00     0.293 HD
ENDBRANCH  76  81
ENDBRANCH  69  71
ENDBRANCH  68  69
ENDBRANCH   4  68
TORSDOF 31
ENDMDL
MODEL 6
REMARK VINA RESULT:    -4.839      1.703      3.328
REMARK INTER + INTRA:         -20.740
REMARK INTER:                 -12.601
REMARK INTRA:                  -8.139
REMARK UNBOUND:                -9.253
REMARK SMILES O=C(OC[C@@H]1O[C@@H](OC(=O)c2cc(O)c(O)c(O)c2)[C@@H](OC(=O)c2cc(O)c(O)c(O)c2)[C@H](OC(=O)c2cc(O)c(O)c(O)c2)[C@@H]1OC(=O)c1cc(O)c(O)c(O)c1)c1cc(O)c(O)c(O)c1
REMARK SMILES IDX 5 1 46 2 33 3 20 4 7 5 6 6 4 7 3 8 2 9 1 10 59 11 60 12
REMARK SMILES IDX 61 13 67 14 63 15 65 16 62 17 64 19 66 21 47 23 48 24 49 25
REMARK SMILES IDX 50 26 58 27 51 28 56 29 52 30 54 31 57 32 53 34 55 36 34 38
REMARK SMILES IDX 35 39 36 40 37 41 45 42 38 43 43 44 39 45 41 46 44 47 40 49
REMARK SMILES IDX 42 51 8 53 9 54 10 55 11 56 19 57 12 58 17 59 13 60 15 61
REMARK SMILES IDX 18 62 14 64 16 66 21 68 22 69 23 70 24 71 32 72 25 73 30 74
REMARK SMILES IDX 26 75 28 76 31 77 27 79 29 81
REMARK H PARENT 62 18 64 20 66 22 57 33 53 35 55 37 44 48 40 50 42 52 18 63
REMARK H PARENT 14 65 16 67 31 78 27 80 29 82
REMARK Flexibility Score: inf
ROOT
ATOM      1  C   UNL     1      -4.233 -10.490  35.020  1.00  0.00     0.205 C 
ATOM      2  C   UNL     1      -5.148  -9.392  35.605  1.00  0.00     0.254 C 
ATOM      3  C   UNL     1      -5.577  -9.796  37.030  1.00  0.00     0.267 C 
ATOM      4  C   UNL     1      -6.176 -11.214  37.019  1.00  0.00     0.290 C 
ATOM      5  C   UNL     1      -5.223 -12.187  36.302  1.00  0.00     0.357 C 
ATOM      6  O   UNL     1      -4.910 -11.738  34.994  1.00  0.00    -0.329 OA
ENDROOT
BRANCH   1   7
ATOM      7  C   UNL     1      -3.779 -10.132  33.595  1.00  0.00     0.269 C 
BRANCH   7   8
ATOM      8  O   UNL     1      -2.903  -9.006  33.614  1.00  0.00    -0.459 OA
BRANCH   8   9
ATOM      9  C   UNL     1      -1.700  -8.958  34.329  1.00  0.00     0.338 C 
ATOM     10  O   UNL     1      -0.615  -9.264  33.766  1.00  0.00    -0.246 OA
BRANCH   9  11
ATOM     11  C   UNL     1      -1.706  -8.512  35.739  1.00  0.00     0.067 A 
ATOM     12  C   UNL     1      -0.994  -9.231  36.709  1.00  0.00     0.066 A 
ATOM     13  C   UNL     1      -1.005  -8.831  38.046  1.00  0.00     0.162 A 
ATOM     14  C   UNL     1      -2.426  -7.372  36.128  1.00  0.00     0.066 A 
ATOM     15  C   UNL     1      -1.736  -7.695  38.438  1.00  0.00     0.200 A 
ATOM     16  C   UNL     1      -2.448  -6.953  37.462  1.00  0.00     0.162 A 
BRANCH  13  17
ATOM     17  O   UNL     1      -0.295  -9.587  38.981  1.00  0.00    -0.504 OA
ATOM     18  H   UNL     1       0.688  -9.807  38.867  1.00  0.00     0.293 HD
ENDBRANCH  13  17
BRANCH  15  19
ATOM     19  O   UNL     1      -1.738  -7.339  39.791  1.00  0.00    -0.502 OA
ATOM     20  H   UNL     1      -2.427  -7.654  40.456  1.00  0.00     0.293 HD
ENDBRANCH  15  19
BRANCH  16  21
ATOM     21  O   UNL     1      -3.176  -5.801  37.771  1.00  0.00    -0.504 OA
ATOM     22  H   UNL     1      -4.151  -5.671  37.556  1.00  0.00     0.293 HD
ENDBRANCH  16  21
ENDBRANCH   9  11
ENDBRANCH   8   9
ENDBRANCH   7   8
ENDBRANCH   1   7
BRANCH   2  23
ATOM     23  O   UNL     1      -6.301  -9.243  34.776  1.00  0.00    -0.452 OA
BRANCH  23  24
ATOM     24  C   UNL     1      -6.909  -8.011  34.494  1.00  0.00     0.338 C 
ATOM     25  O   UNL     1      -8.136  -7.958  34.204  1.00  0.00    -0.246 OA
BRANCH  24  26
ATOM     26  C   UNL     1      -6.104  -6.774  34.542  1.00  0.00     0.067 A 
ATOM     27  C   UNL     1      -6.187  -5.907  35.646  1.00  0.00     0.066 A 
ATOM     28  C   UNL     1      -5.239  -6.455  33.485  1.00  0.00     0.066 A 
ATOM     29  C   UNL     1      -5.418  -4.741  35.695  1.00  0.00     0.162 A 
ATOM     30  C   UNL     1      -4.471  -5.288  33.521  1.00  0.00     0.162 A 
ATOM     31  C   UNL     1      -4.559  -4.424  34.627  1.00  0.00     0.200 A 
BRANCH  29  32
ATOM     32  O   UNL     1      -5.503  -3.919  36.819  1.00  0.00    -0.504 OA
ATOM     33  H   UNL     1      -5.459  -2.909  36.748  1.00  0.00     0.293 HD
ENDBRANCH  29  32
BRANCH  30  34
ATOM     34  O   UNL     1      -3.622  -4.976  32.458  1.00  0.00    -0.504 OA
ATOM     35  H   UNL     1      -3.955  -4.988  31.499  1.00  0.00     0.293 HD
ENDBRANCH  30  34
BRANCH  31  36
ATOM     36  O   UNL     1      -3.795  -3.258  34.682  1.00  0.00    -0.502 OA
ATOM     37  H   UNL     1      -3.039  -3.075  34.028  1.00  0.00     0.293 HD
ENDBRANCH  31  36
ENDBRANCH  24  26
ENDBRANCH  23  24
ENDBRANCH   2  23
BRANCH   3  38
ATOM     38  O   UNL     1      -6.547  -8.885  37.545  1.00  0.00    -0.450 OA
BRANCH  38  39
ATOM     39  C   UNL     1      -6.341  -8.045  38.644  1.00  0.00     0.338 C 
ATOM     40  O   UNL     1      -5.178  -7.880  39.105  1.00  0.00    -0.246 OA
BRANCH  39  41
ATOM     41  C   UNL     1      -7.497  -7.359  39.268  1.00  0.00     0.067 A 
ATOM     42  C   UNL     1      -8.662  -7.082  38.533  1.00  0.00     0.066 A 
ATOM     43  C   UNL     1      -7.434  -6.968  40.614  1.00  0.00     0.066 A 
ATOM     44  C   UNL     1      -9.735  -6.396  39.121  1.00  0.00     0.162 A 
ATOM     45  C   UNL     1      -8.497  -6.282  41.209  1.00  0.00     0.162 A 
ATOM     46  C   UNL     1      -9.650  -5.989  40.463  1.00  0.00     0.200 A 
BRANCH  44  47
ATOM     47  O   UNL     1     -10.885  -6.116  38.377  1.00  0.00    -0.504 OA
ATOM     48  H   UNL     1     -11.385  -5.239  38.475  1.00  0.00     0.293 HD
ENDBRANCH  44  47
BRANCH  45  49
ATOM     49  O   UNL     1      -8.394  -5.903  42.548  1.00  0.00    -0.504 OA
ATOM     50  H   UNL     1      -9.209  -5.733  43.121  1.00  0.00     0.293 HD
ENDBRANCH  45  49
BRANCH  46  51
ATOM     51  O   UNL     1     -10.700  -5.298  41.066  1.00  0.00    -0.502 OA
ATOM     52  H   UNL     1     -11.280  -4.637  40.561  1.00  0.00     0.293 HD
ENDBRANCH  46  51
ENDBRANCH  39  41
ENDBRANCH  38  39
ENDBRANCH   3  38
BRANCH   5  53
ATOM     53  O   UNL     1      -4.031 -12.387  37.066  1.00  0.00    -0.428 OA
BRANCH  53  54
ATOM     54  C   UNL     1      -3.969 -13.209  38.198  1.00  0.00     0.340 C 
ATOM     55  O   UNL     1      -3.990 -14.464  38.072  1.00  0.00    -0.246 OA
BRANCH  54  56
ATOM     56  C   UNL     1      -3.910 -12.593  39.543  1.00  0.00     0.067 A 
ATOM     57  C   UNL     1      -3.315 -11.333  39.715  1.00  0.00     0.066 A 
ATOM     58  C   UNL     1      -4.457 -13.252  40.656  1.00  0.00     0.066 A 
ATOM     59  C   UNL     1      -3.257 -10.740  40.985  1.00  0.00     0.162 A 
ATOM     60  C   UNL     1      -4.410 -12.662  41.926  1.00  0.00     0.162 A 
ATOM     61  C   UNL     1      -3.802 -11.408  42.095  1.00  0.00     0.200 A 
BRANCH  59  62
ATOM     62  O   UNL     1      -2.660  -9.493  41.149  1.00  0.00    -0.504 OA
ATOM     63  H   UNL     1      -2.791  -8.948  41.993  1.00  0.00     0.293 HD
ENDBRANCH  59  62
BRANCH  60  64
ATOM     64  O   UNL     1      -4.956 -13.338  43.016  1.00  0.00    -0.504 OA
ATOM     65  H   UNL     1      -5.144 -14.334  42.990  1.00  0.00     0.293 HD
ENDBRANCH  60  64
BRANCH  61  66
ATOM     66  O   UNL     1      -3.751 -10.838  43.370  1.00  0.00    -0.502 OA
ATOM     67  H   UNL     1      -2.906 -10.394  43.727  1.00  0.00     0.293 HD
ENDBRANCH  61  66
ENDBRANCH  54  56
ENDBRANCH  53  54
ENDBRANCH   5  53
BRANCH   4  68
ATOM     68  O   UNL     1      -6.400 -11.668  38.357  1.00  0.00    -0.448 OA
BRANCH  68  69
ATOM     69  C   UNL     1      -7.677 -11.868  38.904  1.00  0.00     0.339 C 
ATOM     70  O   UNL     1      -8.432 -12.761  38.435  1.00  0.00    -0.246 OA
BRANCH  69  71
ATOM     71  C   UNL     1      -8.123 -11.058  40.058  1.00  0.00     0.067 A 
ATOM     72  C   UNL     1      -9.392 -10.451  40.058  1.00  0.00     0.066 A 
ATOM     73  C   UNL     1      -7.286 -10.889  41.173  1.00  0.00     0.066 A 
ATOM     74  C   UNL     1      -9.829  -9.715  41.168  1.00  0.00     0.162 A 
ATOM     75  C   UNL     1      -7.704 -10.143  42.282  1.00  0.00     0.162 A 
ATOM     76  C   UNL     1      -8.998  -9.565  42.288  1.00  0.00     0.200 A 
BRANCH  74  77
ATOM     77  O   UNL     1     -11.099  -9.137  41.174  1.00  0.00    -0.504 OA
ATOM     78  H   UNL     1     -11.222  -8.137  41.138  1.00  0.00     0.293 HD
ENDBRANCH  74  77
BRANCH  75  79
ATOM     79  O   UNL     1      -6.802  -9.995  43.340  1.00  0.00    -0.504 OA
ATOM     80  H   UNL     1      -6.319  -9.138  43.556  1.00  0.00     0.293 HD
ENDBRANCH  75  79
BRANCH  76  81
ATOM     81  O   UNL     1      -9.492  -8.852  43.383  1.00  0.00    -0.502 OA
ATOM     82  H   UNL     1     -10.468  -8.659  43.525  1.00  0.00     0.293 HD
ENDBRANCH  76  81
ENDBRANCH  69  71
ENDBRANCH  68  69
ENDBRANCH   4  68
TORSDOF 31
ENDMDL
MODEL 7
REMARK VINA RESULT:    -4.797      2.096      7.879
REMARK INTER + INTRA:         -20.641
REMARK INTER:                 -12.677
REMARK INTRA:                  -7.965
REMARK UNBOUND:                -9.253
REMARK SMILES O=C(OC[C@@H]1O[C@@H](OC(=O)c2cc(O)c(O)c(O)c2)[C@@H](OC(=O)c2cc(O)c(O)c(O)c2)[C@H](OC(=O)c2cc(O)c(O)c(O)c2)[C@@H]1OC(=O)c1cc(O)c(O)c(O)c1)c1cc(O)c(O)c(O)c1
REMARK SMILES IDX 5 1 46 2 33 3 20 4 7 5 6 6 4 7 3 8 2 9 1 10 59 11 60 12
REMARK SMILES IDX 61 13 67 14 63 15 65 16 62 17 64 19 66 21 47 23 48 24 49 25
REMARK SMILES IDX 50 26 58 27 51 28 56 29 52 30 54 31 57 32 53 34 55 36 34 38
REMARK SMILES IDX 35 39 36 40 37 41 45 42 38 43 43 44 39 45 41 46 44 47 40 49
REMARK SMILES IDX 42 51 8 53 9 54 10 55 11 56 19 57 12 58 17 59 13 60 15 61
REMARK SMILES IDX 18 62 14 64 16 66 21 68 22 69 23 70 24 71 32 72 25 73 30 74
REMARK SMILES IDX 26 75 28 76 31 77 27 79 29 81
REMARK H PARENT 62 18 64 20 66 22 57 33 53 35 55 37 44 48 40 50 42 52 18 63
REMARK H PARENT 14 65 16 67 31 78 27 80 29 82
REMARK Flexibility Score: inf
ROOT
ATOM      1  C   UNL     1      -2.837  -7.253  36.898  1.00  0.00     0.205 C 
ATOM      2  C   UNL     1      -3.621  -8.274  37.751  1.00  0.00     0.254 C 
ATOM      3  C   UNL     1      -5.131  -8.085  37.507  1.00  0.00     0.267 C 
ATOM      4  C   UNL     1      -5.521  -6.611  37.723  1.00  0.00     0.290 C 
ATOM      5  C   UNL     1      -4.589  -5.692  36.914  1.00  0.00     0.357 C 
ATOM      6  O   UNL     1      -3.226  -5.928  37.229  1.00  0.00    -0.329 OA
ENDROOT
BRANCH   1   7
ATOM      7  C   UNL     1      -1.321  -7.402  37.109  1.00  0.00     0.269 C 
BRANCH   7   8
ATOM      8  O   UNL     1      -0.748  -8.217  36.088  1.00  0.00    -0.459 OA
BRANCH   8   9
ATOM      9  C   UNL     1      -1.203  -9.499  35.758  1.00  0.00     0.338 C 
ATOM     10  O   UNL     1      -1.126 -10.435  36.600  1.00  0.00    -0.246 OA
BRANCH   9  11
ATOM     11  C   UNL     1      -1.805  -9.742  34.429  1.00  0.00     0.067 A 
ATOM     12  C   UNL     1      -3.163  -9.472  34.211  1.00  0.00     0.066 A 
ATOM     13  C   UNL     1      -3.748  -9.712  32.966  1.00  0.00     0.162 A 
ATOM     14  C   UNL     1      -1.033 -10.249  33.374  1.00  0.00     0.066 A 
ATOM     15  C   UNL     1      -2.976 -10.232  31.911  1.00  0.00     0.200 A 
ATOM     16  C   UNL     1      -1.599 -10.495  32.119  1.00  0.00     0.162 A 
BRANCH  13  17
ATOM     17  O   UNL     1      -5.108  -9.444  32.798  1.00  0.00    -0.504 OA
ATOM     18  H   UNL     1      -5.693  -9.112  33.556  1.00  0.00     0.293 HD
ENDBRANCH  13  17
BRANCH  15  19
ATOM     19  O   UNL     1      -3.604 -10.478  30.687  1.00  0.00    -0.502 OA
ATOM     20  H   UNL     1      -3.285 -11.157  30.014  1.00  0.00     0.293 HD
ENDBRANCH  15  19
BRANCH  16  21
ATOM     21  O   UNL     1      -0.763 -10.988  31.114  1.00  0.00    -0.504 OA
ATOM     22  H   UNL     1       0.102 -10.557  30.831  1.00  0.00     0.293 HD
ENDBRANCH  16  21
ENDBRANCH   9  11
ENDBRANCH   8   9
ENDBRANCH   7   8
ENDBRANCH   1   7
BRANCH   2  23
ATOM     23  O   UNL     1      -3.324  -8.067  39.133  1.00  0.00    -0.452 OA
BRANCH  23  24
ATOM     24  C   UNL     1      -2.659  -9.000  39.940  1.00  0.00     0.338 C 
ATOM     25  O   UNL     1      -1.413  -9.166  39.826  1.00  0.00    -0.246 OA
BRANCH  24  26
ATOM     26  C   UNL     1      -3.425  -9.785  40.928  1.00  0.00     0.067 A 
ATOM     27  C   UNL     1      -3.009 -11.077  41.296  1.00  0.00     0.066 A 
ATOM     28  C   UNL     1      -4.576  -9.243  41.519  1.00  0.00     0.066 A 
ATOM     29  C   UNL     1      -3.729 -11.815  42.239  1.00  0.00     0.162 A 
ATOM     30  C   UNL     1      -5.307  -9.977  42.457  1.00  0.00     0.162 A 
ATOM     31  C   UNL     1      -4.887 -11.269  42.820  1.00  0.00     0.200 A 
BRANCH  29  32
ATOM     32  O   UNL     1      -3.270 -13.083  42.601  1.00  0.00    -0.504 OA
ATOM     33  H   UNL     1      -3.907 -13.842  42.810  1.00  0.00     0.293 HD
ENDBRANCH  29  32
BRANCH  30  34
ATOM     34  O   UNL     1      -6.457  -9.431  43.030  1.00  0.00    -0.504 OA
ATOM     35  H   UNL     1      -6.990  -8.710  42.553  1.00  0.00     0.293 HD
ENDBRANCH  30  34
BRANCH  31  36
ATOM     36  O   UNL     1      -5.602 -12.012  43.760  1.00  0.00    -0.502 OA
ATOM     37  H   UNL     1      -5.174 -12.364  44.611  1.00  0.00     0.293 HD
ENDBRANCH  31  36
ENDBRANCH  24  26
ENDBRANCH  23  24
ENDBRANCH   2  23
BRANCH   3  38
ATOM     38  O   UNL     1      -5.895  -8.903  38.393  1.00  0.00    -0.450 OA
BRANCH  38  39
ATOM     39  C   UNL     1      -6.425 -10.153  38.059  1.00  0.00     0.338 C 
ATOM     40  O   UNL     1      -7.559 -10.234  37.511  1.00  0.00    -0.246 OA
BRANCH  39  41
ATOM     41  C   UNL     1      -5.651 -11.380  38.361  1.00  0.00     0.067 A 
ATOM     42  C   UNL     1      -6.057 -12.267  39.373  1.00  0.00     0.066 A 
ATOM     43  C   UNL     1      -4.484 -11.666  37.635  1.00  0.00     0.066 A 
ATOM     44  C   UNL     1      -5.294 -13.403  39.678  1.00  0.00     0.162 A 
ATOM     45  C   UNL     1      -3.716 -12.795  37.933  1.00  0.00     0.162 A 
ATOM     46  C   UNL     1      -4.115 -13.666  38.960  1.00  0.00     0.200 A 
BRANCH  44  47
ATOM     47  O   UNL     1      -5.702 -14.273  40.694  1.00  0.00    -0.504 OA
ATOM     48  H   UNL     1      -5.034 -14.744  41.295  1.00  0.00     0.293 HD
ENDBRANCH  44  47
BRANCH  45  49
ATOM     49  O   UNL     1      -2.558 -13.041  37.195  1.00  0.00    -0.504 OA
ATOM     50  H   UNL     1      -2.580 -13.533  36.311  1.00  0.00     0.293 HD
ENDBRANCH  45  49
BRANCH  46  51
ATOM     51  O   UNL     1      -3.336 -14.785  39.252  1.00  0.00    -0.502 OA
ATOM     52  H   UNL     1      -2.492 -14.731  39.811  1.00  0.00     0.293 HD
ENDBRANCH  46  51
ENDBRANCH  39  41
ENDBRANCH  38  39
ENDBRANCH   3  38
BRANCH   5  53
ATOM     53  O   UNL     1      -4.816  -5.845  35.511  1.00  0.00    -0.428 OA
BRANCH  53  54
ATOM     54  C   UNL     1      -4.224  -5.028  34.540  1.00  0.00     0.340 C 
ATOM     55  O   UNL     1      -4.313  -3.772  34.628  1.00  0.00    -0.246 OA
BRANCH  54  56
ATOM     56  C   UNL     1      -3.519  -5.649  33.397  1.00  0.00     0.067 A 
ATOM     57  C   UNL     1      -4.186  -5.833  32.174  1.00  0.00     0.066 A 
ATOM     58  C   UNL     1      -2.178  -6.049  33.516  1.00  0.00     0.066 A 
ATOM     59  C   UNL     1      -3.525  -6.419  31.084  1.00  0.00     0.162 A 
ATOM     60  C   UNL     1      -1.510  -6.628  32.428  1.00  0.00     0.162 A 
ATOM     61  C   UNL     1      -2.184  -6.821  31.212  1.00  0.00     0.200 A 
BRANCH  59  62
ATOM     62  O   UNL     1      -4.193  -6.602  29.877  1.00  0.00    -0.504 OA
ATOM     63  H   UNL     1      -3.870  -6.170  29.019  1.00  0.00     0.293 HD
ENDBRANCH  59  62
BRANCH  60  64
ATOM     64  O   UNL     1      -0.180  -7.021  32.572  1.00  0.00    -0.504 OA
ATOM     65  H   UNL     1       0.274  -7.631  31.901  1.00  0.00     0.293 HD
ENDBRANCH  60  64
BRANCH  61  66
ATOM     66  O   UNL     1      -1.508  -7.410  30.140  1.00  0.00    -0.502 OA
ATOM     67  H   UNL     1      -1.164  -6.861  29.353  1.00  0.00     0.293 HD
ENDBRANCH  61  66
ENDBRANCH  54  56
ENDBRANCH  53  54
ENDBRANCH   5  53
BRANCH   4  68
ATOM     68  O   UNL     1      -6.875  -6.392  37.316  1.00  0.00    -0.448 OA
BRANCH  68  69
ATOM     69  C   UNL     1      -7.834  -5.758  38.121  1.00  0.00     0.339 C 
ATOM     70  O   UNL     1      -8.358  -4.675  37.745  1.00  0.00    -0.246 OA
BRANCH  69  71
ATOM     71  C   UNL     1      -8.261  -6.380  39.392  1.00  0.00     0.067 A 
ATOM     72  C   UNL     1      -8.877  -7.644  39.399  1.00  0.00     0.066 A 
ATOM     73  C   UNL     1      -8.051  -5.716  40.612  1.00  0.00     0.066 A 
ATOM     74  C   UNL     1      -9.248  -8.249  40.608  1.00  0.00     0.162 A 
ATOM     75  C   UNL     1      -8.431  -6.302  41.827  1.00  0.00     0.162 A 
ATOM     76  C   UNL     1      -9.019  -7.593  41.826  1.00  0.00     0.200 A 
BRANCH  74  77
ATOM     77  O   UNL     1      -9.834  -9.515  40.612  1.00  0.00    -0.504 OA
ATOM     78  H   UNL     1     -10.535  -9.772  39.934  1.00  0.00     0.293 HD
ENDBRANCH  74  77
BRANCH  75  79
ATOM     79  O   UNL     1      -8.217  -5.566  42.996  1.00  0.00    -0.504 OA
ATOM     80  H   UNL     1      -7.396  -5.009  43.170  1.00  0.00     0.293 HD
ENDBRANCH  75  79
BRANCH  76  81
ATOM     81  O   UNL     1      -9.373  -8.250  43.006  1.00  0.00    -0.502 OA
ATOM     82  H   UNL     1      -9.729  -9.190  43.032  1.00  0.00     0.293 HD
ENDBRANCH  76  81
ENDBRANCH  69  71
ENDBRANCH  68  69
ENDBRANCH   4  68
TORSDOF 31
ENDMDL
MODEL 8
REMARK VINA RESULT:    -4.746      2.121      6.141
REMARK INTER + INTRA:         -20.520
REMARK INTER:                 -12.285
REMARK INTRA:                  -8.235
REMARK UNBOUND:                -9.253
REMARK SMILES O=C(OC[C@@H]1O[C@@H](OC(=O)c2cc(O)c(O)c(O)c2)[C@@H](OC(=O)c2cc(O)c(O)c(O)c2)[C@H](OC(=O)c2cc(O)c(O)c(O)c2)[C@@H]1OC(=O)c1cc(O)c(O)c(O)c1)c1cc(O)c(O)c(O)c1
REMARK SMILES IDX 5 1 46 2 33 3 20 4 7 5 6 6 4 7 3 8 2 9 1 10 59 11 60 12
REMARK SMILES IDX 61 13 67 14 63 15 65 16 62 17 64 19 66 21 47 23 48 24 49 25
REMARK SMILES IDX 50 26 58 27 51 28 56 29 52 30 54 31 57 32 53 34 55 36 34 38
REMARK SMILES IDX 35 39 36 40 37 41 45 42 38 43 43 44 39 45 41 46 44 47 40 49
REMARK SMILES IDX 42 51 8 53 9 54 10 55 11 56 19 57 12 58 17 59 13 60 15 61
REMARK SMILES IDX 18 62 14 64 16 66 21 68 22 69 23 70 24 71 32 72 25 73 30 74
REMARK SMILES IDX 26 75 28 76 31 77 27 79 29 81
REMARK H PARENT 62 18 64 20 66 22 57 33 53 35 55 37 44 48 40 50 42 52 18 63
REMARK H PARENT 14 65 16 67 31 78 27 80 29 82
REMARK Flexibility Score: inf
ROOT
ATOM      1  C   UNL     1      -6.308  -6.627  35.940  1.00  0.00     0.205 C 
ATOM      2  C   UNL     1      -4.894  -6.885  35.374  1.00  0.00     0.254 C 
ATOM      3  C   UNL     1      -4.232  -8.029  36.169  1.00  0.00     0.267 C 
ATOM      4  C   UNL     1      -4.292  -7.729  37.678  1.00  0.00     0.290 C 
ATOM      5  C   UNL     1      -5.731  -7.369  38.090  1.00  0.00     0.357 C 
ATOM      6  O   UNL     1      -6.238  -6.292  37.318  1.00  0.00    -0.329 OA
ENDROOT
BRANCH   1   7
ATOM      7  C   UNL     1      -7.010  -5.490  35.178  1.00  0.00     0.269 C 
BRANCH   7   8
ATOM      8  O   UNL     1      -8.237  -5.946  34.611  1.00  0.00    -0.459 OA
BRANCH   8   9
ATOM      9  C   UNL     1      -8.410  -7.203  34.021  1.00  0.00     0.338 C 
ATOM     10  O   UNL     1      -9.249  -8.017  34.493  1.00  0.00    -0.246 OA
BRANCH   9  11
ATOM     11  C   UNL     1      -7.627  -7.559  32.817  1.00  0.00     0.067 A 
ATOM     12  C   UNL     1      -7.443  -6.621  31.793  1.00  0.00     0.066 A 
ATOM     13  C   UNL     1      -6.720  -6.949  30.644  1.00  0.00     0.162 A 
ATOM     14  C   UNL     1      -7.063  -8.836  32.680  1.00  0.00     0.066 A 
ATOM     15  C   UNL     1      -6.165  -8.233  30.501  1.00  0.00     0.200 A 
ATOM     16  C   UNL     1      -6.334  -9.184  31.538  1.00  0.00     0.162 A 
BRANCH  13  17
ATOM     17  O   UNL     1      -6.578  -5.987  29.641  1.00  0.00    -0.504 OA
ATOM     18  H   UNL     1      -6.451  -5.004  29.846  1.00  0.00     0.293 HD
ENDBRANCH  13  17
BRANCH  15  19
ATOM     19  O   UNL     1      -5.466  -8.529  29.327  1.00  0.00    -0.502 OA
ATOM     20  H   UNL     1      -4.469  -8.427  29.222  1.00  0.00     0.293 HD
ENDBRANCH  15  19
BRANCH  16  21
ATOM     21  O   UNL     1      -5.792 -10.471  31.480  1.00  0.00    -0.504 OA
ATOM     22  H   UNL     1      -4.879 -10.687  31.113  1.00  0.00     0.293 HD
ENDBRANCH  16  21
ENDBRANCH   9  11
ENDBRANCH   8   9
ENDBRANCH   7   8
ENDBRANCH   1   7
BRANCH   2  23
ATOM     23  O   UNL     1      -4.111  -5.697  35.493  1.00  0.00    -0.452 OA
BRANCH  23  24
ATOM     24  C   UNL     1      -3.652  -4.949  34.400  1.00  0.00     0.338 C 
ATOM     25  O   UNL     1      -3.789  -3.695  34.383  1.00  0.00    -0.246 OA
BRANCH  24  26
ATOM     26  C   UNL     1      -3.001  -5.639  33.267  1.00  0.00     0.067 A 
ATOM     27  C   UNL     1      -3.577  -5.612  31.985  1.00  0.00     0.066 A 
ATOM     28  C   UNL     1      -1.792  -6.323  33.460  1.00  0.00     0.066 A 
ATOM     29  C   UNL     1      -2.956  -6.257  30.912  1.00  0.00     0.162 A 
ATOM     30  C   UNL     1      -1.167  -6.976  32.395  1.00  0.00     0.162 A 
ATOM     31  C   UNL     1      -1.748  -6.947  31.115  1.00  0.00     0.200 A 
BRANCH  29  32
ATOM     32  O   UNL     1      -3.542  -6.185  29.647  1.00  0.00    -0.504 OA
ATOM     33  H   UNL     1      -4.327  -6.769  29.388  1.00  0.00     0.293 HD
ENDBRANCH  29  32
BRANCH  30  34
ATOM     34  O   UNL     1       0.031  -7.663  32.601  1.00  0.00    -0.504 OA
ATOM     35  H   UNL     1       0.142  -8.627  32.303  1.00  0.00     0.293 HD
ENDBRANCH  30  34
BRANCH  31  36
ATOM     36  O   UNL     1      -1.134  -7.590  30.039  1.00  0.00    -0.502 OA
ATOM     37  H   UNL     1      -1.303  -7.315  29.076  1.00  0.00     0.293 HD
ENDBRANCH  31  36
ENDBRANCH  24  26
ENDBRANCH  23  24
ENDBRANCH   2  23
BRANCH   3  38
ATOM     38  O   UNL     1      -2.868  -8.193  35.781  1.00  0.00    -0.450 OA
BRANCH  38  39
ATOM     39  C   UNL     1      -2.306  -9.399  35.350  1.00  0.00     0.338 C 
ATOM     40  O   UNL     1      -1.132  -9.421  34.888  1.00  0.00    -0.246 OA
BRANCH  39  41
ATOM     41  C   UNL     1      -3.102 -10.646  35.431  1.00  0.00     0.067 A 
ATOM     42  C   UNL     1      -4.207 -10.861  34.590  1.00  0.00     0.066 A 
ATOM     43  C   UNL     1      -2.759 -11.634  36.368  1.00  0.00     0.066 A 
ATOM     44  C   UNL     1      -4.978 -12.027  34.703  1.00  0.00     0.162 A 
ATOM     45  C   UNL     1      -3.522 -12.799  36.490  1.00  0.00     0.162 A 
ATOM     46  C   UNL     1      -4.638 -12.998  35.661  1.00  0.00     0.200 A 
BRANCH  44  47
ATOM     47  O   UNL     1      -6.082 -12.226  33.868  1.00  0.00    -0.504 OA
ATOM     48  H   UNL     1      -6.670 -11.456  33.567  1.00  0.00     0.293 HD
ENDBRANCH  44  47
BRANCH  45  49
ATOM     49  O   UNL     1      -3.154 -13.754  37.438  1.00  0.00    -0.504 OA
ATOM     50  H   UNL     1      -2.973 -13.510  38.402  1.00  0.00     0.293 HD
ENDBRANCH  45  49
BRANCH  46  51
ATOM     51  O   UNL     1      -5.396 -14.161  35.798  1.00  0.00    -0.502 OA
ATOM     52  H   UNL     1      -6.382 -14.145  36.035  1.00  0.00     0.293 HD
ENDBRANCH  46  51
ENDBRANCH  39  41
ENDBRANCH  38  39
ENDBRANCH   3  38
BRANCH   5  53
ATOM     53  O   UNL     1      -6.588  -8.508  37.991  1.00  0.00    -0.428 OA
BRANCH  53  54
ATOM     54  C   UNL     1      -7.435  -8.928  39.025  1.00  0.00     0.340 C 
ATOM     55  O   UNL     1      -8.655  -8.608  39.015  1.00  0.00    -0.246 OA
BRANCH  54  56
ATOM     56  C   UNL     1      -6.880  -9.725  40.142  1.00  0.00     0.067 A 
ATOM     57  C   UNL     1      -6.900 -11.128  40.085  1.00  0.00     0.066 A 
ATOM     58  C   UNL     1      -6.317  -9.091  41.262  1.00  0.00     0.066 A 
ATOM     59  C   UNL     1      -6.374 -11.891  41.137  1.00  0.00     0.162 A 
ATOM     60  C   UNL     1      -5.783  -9.847  42.313  1.00  0.00     0.162 A 
ATOM     61  C   UNL     1      -5.816 -11.250  42.257  1.00  0.00     0.200 A 
BRANCH  59  62
ATOM     62  O   UNL     1      -6.402 -13.282  41.076  1.00  0.00    -0.504 OA
ATOM     63  H   UNL     1      -5.763 -13.851  41.619  1.00  0.00     0.293 HD
ENDBRANCH  59  62
BRANCH  60  64
ATOM     64  O   UNL     1      -5.233  -9.195  43.416  1.00  0.00    -0.504 OA
ATOM     65  H   UNL     1      -4.235  -9.194  43.595  1.00  0.00     0.293 HD
ENDBRANCH  60  64
BRANCH  61  66
ATOM     66  O   UNL     1      -5.291 -11.991  43.319  1.00  0.00    -0.502 OA
ATOM     67  H   UNL     1      -5.852 -12.237  44.133  1.00  0.00     0.293 HD
ENDBRANCH  61  66
ENDBRANCH  54  56
ENDBRANCH  53  54
ENDBRANCH   5  53
BRANCH   4  68
ATOM     68  O   UNL     1      -3.854  -8.866  38.427  1.00  0.00    -0.448 OA
BRANCH  68  69
ATOM     69  C   UNL     1      -2.879  -8.801  39.434  1.00  0.00     0.339 C 
ATOM     70  O   UNL     1      -2.235  -7.734  39.622  1.00  0.00    -0.246 OA
BRANCH  69  71
ATOM     71  C   UNL     1      -2.632  -9.972  40.302  1.00  0.00     0.067 A 
ATOM     72  C   UNL     1      -3.085 -11.250  39.926  1.00  0.00     0.066 A 
ATOM     73  C   UNL     1      -1.936  -9.824  41.512  1.00  0.00     0.066 A 
ATOM     74  C   UNL     1      -2.818 -12.366  40.731  1.00  0.00     0.162 A 
ATOM     75  C   UNL     1      -1.676 -10.929  42.335  1.00  0.00     0.162 A 
ATOM     76  C   UNL     1      -2.105 -12.218  41.930  1.00  0.00     0.200 A 
BRANCH  74  77
ATOM     77  O   UNL     1      -3.247 -13.635  40.341  1.00  0.00    -0.504 OA
ATOM     78  H   UNL     1      -3.678 -14.269  40.996  1.00  0.00     0.293 HD
ENDBRANCH  74  77
BRANCH  75  79
ATOM     79  O   UNL     1      -1.004 -10.695  43.538  1.00  0.00    -0.504 OA
ATOM     80  H   UNL     1      -0.358 -11.344  43.960  1.00  0.00     0.293 HD
ENDBRANCH  75  79
BRANCH  76  81
ATOM     81  O   UNL     1      -1.833 -13.363  42.681  1.00  0.00    -0.502 OA
ATOM     82  H   UNL     1      -1.988 -13.427  43.672  1.00  0.00     0.293 HD
ENDBRANCH  76  81
ENDBRANCH  69  71
ENDBRANCH  68  69
ENDBRANCH   4  68
TORSDOF 31
ENDMDL
MODEL 9
REMARK VINA RESULT:    -4.712      1.540      2.650
REMARK INTER + INTRA:         -20.439
REMARK INTER:                 -12.016
REMARK INTRA:                  -8.423
REMARK UNBOUND:                -9.253
REMARK SMILES O=C(OC[C@@H]1O[C@@H](OC(=O)c2cc(O)c(O)c(O)c2)[C@@H](OC(=O)c2cc(O)c(O)c(O)c2)[C@H](OC(=O)c2cc(O)c(O)c(O)c2)[C@@H]1OC(=O)c1cc(O)c(O)c(O)c1)c1cc(O)c(O)c(O)c1
REMARK SMILES IDX 5 1 46 2 33 3 20 4 7 5 6 6 4 7 3 8 2 9 1 10 59 11 60 12
REMARK SMILES IDX 61 13 67 14 63 15 65 16 62 17 64 19 66 21 47 23 48 24 49 25
REMARK SMILES IDX 50 26 58 27 51 28 56 29 52 30 54 31 57 32 53 34 55 36 34 38
REMARK SMILES IDX 35 39 36 40 37 41 45 42 38 43 43 44 39 45 41 46 44 47 40 49
REMARK SMILES IDX 42 51 8 53 9 54 10 55 11 56 19 57 12 58 17 59 13 60 15 61
REMARK SMILES IDX 18 62 14 64 16 66 21 68 22 69 23 70 24 71 32 72 25 73 30 74
REMARK SMILES IDX 26 75 28 76 31 77 27 79 29 81
REMARK H PARENT 62 18 64 20 66 22 57 33 53 35 55 37 44 48 40 50 42 52 18 63
REMARK H PARENT 14 65 16 67 31 78 27 80 29 82
REMARK Flexibility Score: inf
ROOT
ATOM      1  C   UNL     1      -4.923 -10.428  35.165  1.00  0.00     0.205 C 
ATOM      2  C   UNL     1      -5.756  -9.281  35.777  1.00  0.00     0.254 C 
ATOM      3  C   UNL     1      -6.184  -9.673  37.206  1.00  0.00     0.267 C 
ATOM      4  C   UNL     1      -6.872 -11.050  37.192  1.00  0.00     0.290 C 
ATOM      5  C   UNL     1      -5.996 -12.073  36.449  1.00  0.00     0.357 C 
ATOM      6  O   UNL     1      -5.679 -11.630  35.139  1.00  0.00    -0.329 OA
ENDROOT
BRANCH   1   7
ATOM      7  C   UNL     1      -4.473 -10.084  33.735  1.00  0.00     0.269 C 
BRANCH   7   8
ATOM      8  O   UNL     1      -3.508  -9.033  33.751  1.00  0.00    -0.459 OA
BRANCH   8   9
ATOM      9  C   UNL     1      -2.266  -9.117  34.391  1.00  0.00     0.338 C 
ATOM     10  O   UNL     1      -1.266  -9.578  33.778  1.00  0.00    -0.246 OA
BRANCH   9  11
ATOM     11  C   UNL     1      -2.126  -8.629  35.780  1.00  0.00     0.067 A 
ATOM     12  C   UNL     1      -1.432  -9.392  36.729  1.00  0.00     0.066 A 
ATOM     13  C   UNL     1      -1.307  -8.952  38.048  1.00  0.00     0.162 A 
ATOM     14  C   UNL     1      -2.688  -7.404  36.170  1.00  0.00     0.066 A 
ATOM     15  C   UNL     1      -1.880  -7.729  38.442  1.00  0.00     0.200 A 
ATOM     16  C   UNL     1      -2.571  -6.943  37.486  1.00  0.00     0.162 A 
BRANCH  13  17
ATOM     17  O   UNL     1      -0.622  -9.753  38.964  1.00  0.00    -0.504 OA
ATOM     18  H   UNL     1      -1.067 -10.134  39.791  1.00  0.00     0.293 HD
ENDBRANCH  13  17
BRANCH  15  19
ATOM     19  O   UNL     1      -1.750  -7.333  39.776  1.00  0.00    -0.502 OA
ATOM     20  H   UNL     1      -1.878  -6.387  40.100  1.00  0.00     0.293 HD
ENDBRANCH  15  19
BRANCH  16  21
ATOM     21  O   UNL     1      -3.146  -5.707  37.795  1.00  0.00    -0.504 OA
ATOM     22  H   UNL     1      -4.113  -5.475  37.639  1.00  0.00     0.293 HD
ENDBRANCH  16  21
ENDBRANCH   9  11
ENDBRANCH   8   9
ENDBRANCH   7   8
ENDBRANCH   1   7
BRANCH   2  23
ATOM     23  O   UNL     1      -6.912  -9.050  34.972  1.00  0.00    -0.452 OA
BRANCH  23  24
ATOM     24  C   UNL     1      -7.377  -7.777  34.614  1.00  0.00     0.338 C 
ATOM     25  O   UNL     1      -8.579  -7.611  34.269  1.00  0.00    -0.246 OA
BRANCH  24  26
ATOM     26  C   UNL     1      -6.449  -6.628  34.646  1.00  0.00     0.067 A 
ATOM     27  C   UNL     1      -6.410  -5.769  35.758  1.00  0.00     0.066 A 
ATOM     28  C   UNL     1      -5.589  -6.388  33.565  1.00  0.00     0.066 A 
ATOM     29  C   UNL     1      -5.525  -4.688  35.792  1.00  0.00     0.162 A 
ATOM     30  C   UNL     1      -4.705  -5.305  33.586  1.00  0.00     0.162 A 
ATOM     31  C   UNL     1      -4.671  -4.448  34.701  1.00  0.00     0.200 A 
BRANCH  29  32
ATOM     32  O   UNL     1      -5.493  -3.873  36.924  1.00  0.00    -0.504 OA
ATOM     33  H   UNL     1      -4.645  -3.408  37.225  1.00  0.00     0.293 HD
ENDBRANCH  29  32
BRANCH  30  34
ATOM     34  O   UNL     1      -3.861  -5.069  32.499  1.00  0.00    -0.504 OA
ATOM     35  H   UNL     1      -4.071  -5.445  31.580  1.00  0.00     0.293 HD
ENDBRANCH  30  34
BRANCH  31  36
ATOM     36  O   UNL     1      -3.791  -3.366  34.740  1.00  0.00    -0.502 OA
ATOM     37  H   UNL     1      -3.627  -2.772  33.933  1.00  0.00     0.293 HD
ENDBRANCH  31  36
ENDBRANCH  24  26
ENDBRANCH  23  24
ENDBRANCH   2  23
BRANCH   3  38
ATOM     38  O   UNL     1      -7.086  -8.708  37.748  1.00  0.00    -0.450 OA
BRANCH  38  39
ATOM     39  C   UNL     1      -6.847  -7.964  38.908  1.00  0.00     0.338 C 
ATOM     40  O   UNL     1      -7.151  -6.740  38.950  1.00  0.00    -0.246 OA
BRANCH  39  41
ATOM     41  C   UNL     1      -6.228  -8.621  40.083  1.00  0.00     0.067 A 
ATOM     42  C   UNL     1      -6.999  -9.010  41.191  1.00  0.00     0.066 A 
ATOM     43  C   UNL     1      -4.844  -8.858  40.103  1.00  0.00     0.066 A 
ATOM     44  C   UNL     1      -6.397  -9.593  42.315  1.00  0.00     0.162 A 
ATOM     45  C   UNL     1      -4.234  -9.437  41.218  1.00  0.00     0.162 A 
ATOM     46  C   UNL     1      -5.007  -9.803  42.332  1.00  0.00     0.200 A 
BRANCH  44  47
ATOM     47  O   UNL     1      -7.173  -9.966  43.417  1.00  0.00    -0.504 OA
ATOM     48  H   UNL     1      -8.183 -10.044  43.358  1.00  0.00     0.293 HD
ENDBRANCH  44  47
BRANCH  45  49
ATOM     49  O   UNL     1      -2.855  -9.649  41.203  1.00  0.00    -0.504 OA
ATOM     50  H   UNL     1      -2.413 -10.348  41.786  1.00  0.00     0.293 HD
ENDBRANCH  45  49
BRANCH  46  51
ATOM     51  O   UNL     1      -4.386 -10.374  43.442  1.00  0.00    -0.502 OA
ATOM     52  H   UNL     1      -3.885 -11.254  43.394  1.00  0.00     0.293 HD
ENDBRANCH  46  51
ENDBRANCH  39  41
ENDBRANCH  38  39
ENDBRANCH   3  38
BRANCH   5  53
ATOM     53  O   UNL     1      -4.806 -12.356  37.188  1.00  0.00    -0.428 OA
BRANCH  53  54
ATOM     54  C   UNL     1      -4.538 -13.600  37.774  1.00  0.00     0.340 C 
ATOM     55  O   UNL     1      -4.340 -14.612  37.048  1.00  0.00    -0.246 OA
BRANCH  54  56
ATOM     56  C   UNL     1      -4.519 -13.722  39.249  1.00  0.00     0.067 A 
ATOM     57  C   UNL     1      -3.565 -13.017  40.001  1.00  0.00     0.066 A 
ATOM     58  C   UNL     1      -5.457 -14.529  39.911  1.00  0.00     0.066 A 
ATOM     59  C   UNL     1      -3.542 -13.124  41.399  1.00  0.00     0.162 A 
ATOM     60  C   UNL     1      -5.444 -14.635  41.309  1.00  0.00     0.162 A 
ATOM     61  C   UNL     1      -4.481 -13.938  42.056  1.00  0.00     0.200 A 
BRANCH  59  62
ATOM     62  O   UNL     1      -2.591 -12.426  42.139  1.00  0.00    -0.504 OA
ATOM     63  H   UNL     1      -2.809 -11.546  42.592  1.00  0.00     0.293 HD
ENDBRANCH  59  62
BRANCH  60  64
ATOM     64  O   UNL     1      -6.383 -15.446  41.944  1.00  0.00    -0.504 OA
ATOM     65  H   UNL     1      -6.320 -16.458  41.921  1.00  0.00     0.293 HD
ENDBRANCH  60  64
BRANCH  61  66
ATOM     66  O   UNL     1      -4.472 -14.062  43.448  1.00  0.00    -0.502 OA
ATOM     67  H   UNL     1      -4.172 -14.920  43.909  1.00  0.00     0.293 HD
ENDBRANCH  61  66
ENDBRANCH  54  56
ENDBRANCH  53  54
ENDBRANCH   5  53
BRANCH   4  68
ATOM     68  O   UNL     1      -7.101 -11.503  38.531  1.00  0.00    -0.448 OA
BRANCH  68  69
ATOM     69  C   UNL     1      -8.296 -12.105  38.952  1.00  0.00     0.339 C 
ATOM     70  O   UNL     1      -8.565 -13.286  38.602  1.00  0.00    -0.246 OA
BRANCH  69  71
ATOM     71  C   UNL     1      -9.223 -11.370  39.838  1.00  0.00     0.067 A 
ATOM     72  C   UNL     1      -9.423 -11.786  41.167  1.00  0.00     0.066 A 
ATOM     73  C   UNL     1      -9.913 -10.242  39.366  1.00  0.00     0.066 A 
ATOM     74  C   UNL     1     -10.273 -11.067  42.019  1.00  0.00     0.162 A 
ATOM     75  C   UNL     1     -10.778  -9.523  40.201  1.00  0.00     0.162 A 
ATOM     76  C   UNL     1     -10.945  -9.929  41.549  1.00  0.00     0.200 A 
BRANCH  74  77
ATOM     77  O   UNL     1     -10.447 -11.468  43.343  1.00  0.00    -0.504 OA
ATOM     78  H   UNL     1     -11.324 -11.846  43.668  1.00  0.00     0.293 HD
ENDBRANCH  74  77
BRANCH  75  79
ATOM     79  O   UNL     1     -11.452  -8.430  39.648  1.00  0.00    -0.504 OA
ATOM     80  H   UNL     1     -12.320  -8.498  39.142  1.00  0.00     0.293 HD
ENDBRANCH  75  79
BRANCH  76  81
ATOM     81  O   UNL     1     -11.754  -9.226  42.444  1.00  0.00    -0.502 OA
ATOM     82  H   UNL     1     -12.698  -9.492  42.666  1.00  0.00     0.293 HD
ENDBRANCH  76  81
ENDBRANCH  69  71
ENDBRANCH  68  69
ENDBRANCH   4  68
TORSDOF 31
ENDMDL
