MODEL 1
REMARK VINA RESULT:    -2.383      0.000      0.000
REMARK INTER + INTRA:          -2.383
REMARK INTER:                  -2.383
REMARK INTRA:                   0.000
REMARK UNBOUND:                 0.000
REMARK SMILES CC(=O)[O-]
REMARK SMILES IDX 1 1 2 2 3 3 4 4
REMARK H PARENT
REMARK Flexibility Score: inf
ROOT
ATOM      1  C   UNL     1      13.366   2.593 -35.436  1.00  0.00     0.063 C 
ATOM      2  C   UNL     1      13.241   1.929 -34.106  1.00  0.00     0.038 C 
ATOM      3  O   UNL     1      12.301   1.121 -33.890  1.00  0.00    -0.550 OA
ATOM      4  O   UNL     1      14.128   2.243 -33.085  1.00  0.00    -0.550 OA
ENDROOT
TORSDOF 0
ENDMDL
MODEL 2
REMARK VINA RESULT:    -2.348      1.568      2.168
REMARK INTER + INTRA:          -2.348
REMARK INTER:                  -2.348
REMARK INTRA:                   0.000
REMARK UNBOUND:                 0.000
REMARK SMILES CC(=O)[O-]
REMARK SMILES IDX 1 1 2 2 3 3 4 4
REMARK H PARENT
REMARK Flexibility Score: inf
ROOT
ATOM      1  C   UNL     1      13.716   1.917 -34.968  1.00  0.00     0.063 C 
ATOM      2  C   UNL     1      12.294   2.264 -34.678  1.00  0.00     0.038 C 
ATOM      3  O   UNL     1      11.927   2.483 -33.494  1.00  0.00    -0.550 OA
ATOM      4  O   UNL     1      11.361   2.293 -35.705  1.00  0.00    -0.550 OA
ENDROOT
TORSDOF 0
ENDMDL
MODEL 3
REMARK VINA RESULT:    -2.297      6.018      6.053
REMARK INTER + INTRA:          -2.297
REMARK INTER:                  -2.297
REMARK INTRA:                   0.000
REMARK UNBOUND:                 0.000
REMARK SMILES CC(=O)[O-]
REMARK SMILES IDX 1 1 2 2 3 3 4 4
REMARK H PARENT
REMARK Flexibility Score: inf
ROOT
ATOM      1  C   UNL     1       8.109   2.211 -36.948  1.00  0.00     0.063 C 
ATOM      2  C   UNL     1       8.468   0.814 -37.329  1.00  0.00     0.038 C 
ATOM      3  O   UNL     1       8.126  -0.148 -36.593  1.00  0.00    -0.550 OA
ATOM      4  O   UNL     1       9.228   0.576 -38.466  1.00  0.00    -0.550 OA
ENDROOT
TORSDOF 0
ENDMDL
MODEL 4
REMARK VINA RESULT:    -2.291      5.124      5.601
REMARK INTER + INTRA:          -2.291
REMARK INTER:                  -2.291
REMARK INTRA:                   0.000
REMARK UNBOUND:                 0.000
REMARK SMILES CC(=O)[O-]
REMARK SMILES IDX 1 1 2 2 3 3 4 4
REMARK H PARENT
REMARK Flexibility Score: inf
ROOT
ATOM      1  C   UNL     1       9.672   1.575 -35.687  1.00  0.00     0.063 C 
ATOM      2  C   UNL     1       8.259   1.970 -35.960  1.00  0.00     0.038 C 
ATOM      3  O   UNL     1       7.410   1.958 -35.031  1.00  0.00    -0.550 OA
ATOM      4  O   UNL     1       7.865   2.298 -37.250  1.00  0.00    -0.550 OA
ENDROOT
TORSDOF 0
ENDMDL
MODEL 5
REMARK VINA RESULT:    -2.260      6.089      6.338
REMARK INTER + INTRA:          -2.260
REMARK INTER:                  -2.260
REMARK INTRA:                   0.000
REMARK UNBOUND:                 0.000
REMARK SMILES CC(=O)[O-]
REMARK SMILES IDX 1 1 2 2 3 3 4 4
REMARK H PARENT
REMARK Flexibility Score: inf
ROOT
ATOM      1  C   UNL     1       8.649   0.600 -37.997  1.00  0.00     0.063 C 
ATOM      2  C   UNL     1       7.914   1.436 -37.004  1.00  0.00     0.038 C 
ATOM      3  O   UNL     1       8.176   2.662 -36.894  1.00  0.00    -0.550 OA
ATOM      4  O   UNL     1       6.979   0.853 -36.160  1.00  0.00    -0.550 OA
ENDROOT
TORSDOF 0
ENDMDL
MODEL 6
REMARK VINA RESULT:    -2.246      1.400      2.104
REMARK INTER + INTRA:          -2.246
REMARK INTER:                  -2.246
REMARK INTRA:                   0.000
REMARK UNBOUND:                 0.000
REMARK SMILES CC(=O)[O-]
REMARK SMILES IDX 1 1 2 2 3 3 4 4
REMARK H PARENT
REMARK Flexibility Score: inf
ROOT
ATOM      1  C   UNL     1      11.914   1.462 -33.866  1.00  0.00     0.063 C 
ATOM      2  C   UNL     1      13.261   1.919 -34.316  1.00  0.00     0.038 C 
ATOM      3  O   UNL     1      14.151   2.190 -33.469  1.00  0.00    -0.550 OA
ATOM      4  O   UNL     1      13.518   2.100 -35.668  1.00  0.00    -0.550 OA
ENDROOT
TORSDOF 0
ENDMDL
MODEL 7
REMARK VINA RESULT:    -2.233      2.725      2.961
REMARK INTER + INTRA:          -2.233
REMARK INTER:                  -2.233
REMARK INTRA:                   0.000
REMARK UNBOUND:                 0.000
REMARK SMILES CC(=O)[O-]
REMARK SMILES IDX 1 1 2 2 3 3 4 4
REMARK H PARENT
REMARK Flexibility Score: inf
ROOT
ATOM      1  C   UNL     1      12.207   1.541 -33.944  1.00  0.00     0.063 C 
ATOM      2  C   UNL     1      10.717   1.469 -33.929  1.00  0.00     0.038 C 
ATOM      3  O   UNL     1      10.076   1.438 -35.012  1.00  0.00    -0.550 OA
ATOM      4  O   UNL     1      10.031   1.493 -32.722  1.00  0.00    -0.550 OA
ENDROOT
TORSDOF 0
ENDMDL
MODEL 8
REMARK VINA RESULT:    -2.215      6.256      6.339
REMARK INTER + INTRA:          -2.215
REMARK INTER:                  -2.215
REMARK INTRA:                   0.000
REMARK UNBOUND:                 0.000
REMARK SMILES CC(=O)[O-]
REMARK SMILES IDX 1 1 2 2 3 3 4 4
REMARK H PARENT
REMARK Flexibility Score: inf
ROOT
ATOM      1  C   UNL     1       8.883  -0.327 -38.371  1.00  0.00     0.063 C 
ATOM      2  C   UNL     1       8.197   0.506 -37.341  1.00  0.00     0.038 C 
ATOM      3  O   UNL     1       7.751  -0.028 -36.292  1.00  0.00    -0.550 OA
ATOM      4  O   UNL     1       7.999   1.862 -37.561  1.00  0.00    -0.550 OA
ENDROOT
TORSDOF 0
ENDMDL
MODEL 9
REMARK VINA RESULT:    -2.167     13.122     13.756
REMARK INTER + INTRA:          -2.167
REMARK INTER:                  -2.167
REMARK INTRA:                   0.000
REMARK UNBOUND:                 0.000
REMARK SMILES CC(=O)[O-]
REMARK SMILES IDX 1 1 2 2 3 3 4 4
REMARK H PARENT
REMARK Flexibility Score: inf
ROOT
ATOM      1  C   UNL     1       1.954   2.080 -39.645  1.00  0.00     0.063 C 
ATOM      2  C   UNL     1       0.870   3.105 -39.639  1.00  0.00     0.038 C 
ATOM      3  O   UNL     1       0.837   3.984 -38.740  1.00  0.00    -0.550 OA
ATOM      4  O   UNL     1      -0.138   3.057 -40.593  1.00  0.00    -0.550 OA
ENDROOT
TORSDOF 0
ENDMDL
