MODEL 1
REMARK VINA RESULT:    -4.439      0.000      0.000
REMARK INTER + INTRA:          -7.714
REMARK INTER:                  -6.774
REMARK INTRA:                  -0.940
REMARK UNBOUND:                -0.940
REMARK SMILES O=C([O-])CCCCCCCCC(=O)[O-]
REMARK SMILES IDX 7 1 6 2 5 3 4 4 2 5 1 6 3 7 8 8 9 9 10 10 11 11 12 12 13 13
REMARK SMILES IDX 14 14
REMARK H PARENT
REMARK Flexibility Score: inf
ROOT
ATOM      1  C   UNL     1      63.843  18.184  40.030  1.00  0.00     0.000 C 
ENDROOT
BRANCH   1   2
ATOM      2  C   UNL     1      62.965  18.727  38.891  1.00  0.00     0.000 C 
BRANCH   2   3
ATOM      3  C   UNL     1      63.679  18.700  37.531  1.00  0.00     0.006 C 
BRANCH   3   4
ATOM      4  C   UNL     1      64.850  17.714  37.546  1.00  0.00     0.053 C 
BRANCH   4   5
ATOM      5  C   UNL     1      65.409  17.543  36.169  1.00  0.00     0.041 C 
ATOM      6  O   UNL     1      66.476  18.125  35.841  1.00  0.00    -0.550 OA
ATOM      7  O   UNL     1      64.725  16.779  35.232  1.00  0.00    -0.550 OA
ENDBRANCH   4   5
ENDBRANCH   3   4
ENDBRANCH   2   3
ENDBRANCH   1   2
BRANCH   1   8
ATOM      8  C   UNL     1      63.173  17.027  40.793  1.00  0.00     0.000 C 
BRANCH   8   9
ATOM      9  C   UNL     1      61.854  16.578  40.147  1.00  0.00     0.000 C 
BRANCH   9  10
ATOM     10  C   UNL     1      61.910  15.132  39.632  1.00  0.00     0.006 C 
BRANCH  10  11
ATOM     11  C   UNL     1      63.349  14.607  39.632  1.00  0.00     0.053 C 
BRANCH  11  12
ATOM     12  C   UNL     1      63.812  14.348  38.233  1.00  0.00     0.041 C 
ATOM     13  O   UNL     1      63.024  14.509  37.264  1.00  0.00    -0.550 OA
ATOM     14  O   UNL     1      65.129  13.975  37.993  1.00  0.00    -0.550 OA
ENDBRANCH  11  12
ENDBRANCH  10  11
ENDBRANCH   9  10
ENDBRANCH   8   9
ENDBRANCH   1   8
TORSDOF 9
ENDMDL
MODEL 2
REMARK VINA RESULT:    -4.381     10.190     12.031
REMARK INTER + INTRA:          -7.626
REMARK INTER:                  -6.923
REMARK INTRA:                  -0.703
REMARK UNBOUND:                -0.940
REMARK SMILES O=C([O-])CCCCCCCCC(=O)[O-]
REMARK SMILES IDX 7 1 6 2 5 3 4 4 2 5 1 6 3 7 8 8 9 9 10 10 11 11 12 12 13 13
REMARK SMILES IDX 14 14
REMARK H PARENT
REMARK Flexibility Score: inf
ROOT
ATOM      1  C   UNL     1      68.662   6.870  32.873  1.00  0.00     0.000 C 
ENDROOT
BRANCH   1   2
ATOM      2  C   UNL     1      68.003   8.211  33.232  1.00  0.00     0.000 C 
BRANCH   2   3
ATOM      3  C   UNL     1      69.020   9.358  33.340  1.00  0.00     0.006 C 
BRANCH   3   4
ATOM      4  C   UNL     1      68.436  10.661  32.786  1.00  0.00     0.053 C 
BRANCH   4   5
ATOM      5  C   UNL     1      69.425  11.340  31.892  1.00  0.00     0.041 C 
ATOM      6  O   UNL     1      70.660  11.227  32.111  1.00  0.00    -0.550 OA
ATOM      7  O   UNL     1      68.982  12.140  30.847  1.00  0.00    -0.550 OA
ENDBRANCH   4   5
ENDBRANCH   3   4
ENDBRANCH   2   3
ENDBRANCH   1   2
BRANCH   1   8
ATOM      8  C   UNL     1      69.226   6.139  34.105  1.00  0.00     0.000 C 
BRANCH   8   9
ATOM      9  C   UNL     1      70.760   6.046  34.085  1.00  0.00     0.000 C 
BRANCH   9  10
ATOM     10  C   UNL     1      71.363   6.528  32.756  1.00  0.00     0.006 C 
BRANCH  10  11
ATOM     11  C   UNL     1      72.808   6.997  32.950  1.00  0.00     0.053 C 
BRANCH  11  12
ATOM     12  C   UNL     1      72.873   8.490  32.998  1.00  0.00     0.041 C 
ATOM     13  O   UNL     1      73.259   9.141  31.992  1.00  0.00    -0.550 OA
ATOM     14  O   UNL     1      72.459   9.168  34.139  1.00  0.00    -0.550 OA
ENDBRANCH  11  12
ENDBRANCH  10  11
ENDBRANCH   9  10
ENDBRANCH   8   9
ENDBRANCH   1   8
TORSDOF 9
ENDMDL
MODEL 3
REMARK VINA RESULT:    -4.344     10.241     12.297
REMARK INTER + INTRA:          -7.570
REMARK INTER:                  -6.897
REMARK INTRA:                  -0.673
REMARK UNBOUND:                -0.940
REMARK SMILES O=C([O-])CCCCCCCCC(=O)[O-]
REMARK SMILES IDX 7 1 6 2 5 3 4 4 2 5 1 6 3 7 8 8 9 9 10 10 11 11 12 12 13 13
REMARK SMILES IDX 14 14
REMARK H PARENT
REMARK Flexibility Score: inf
ROOT
ATOM      1  C   UNL     1      69.236   6.136  34.226  1.00  0.00     0.000 C 
ENDROOT
BRANCH   1   2
ATOM      2  C   UNL     1      70.758   5.982  34.079  1.00  0.00     0.000 C 
BRANCH   2   3
ATOM      3  C   UNL     1      71.283   6.540  32.748  1.00  0.00     0.006 C 
BRANCH   3   4
ATOM      4  C   UNL     1      72.773   6.875  32.843  1.00  0.00     0.053 C 
BRANCH   4   5
ATOM      5  C   UNL     1      72.977   8.357  32.888  1.00  0.00     0.041 C 
ATOM      6  O   UNL     1      73.571   8.943  31.946  1.00  0.00    -0.550 OA
ATOM      7  O   UNL     1      72.554   9.083  33.994  1.00  0.00    -0.550 OA
ENDBRANCH   4   5
ENDBRANCH   3   4
ENDBRANCH   2   3
ENDBRANCH   1   2
BRANCH   1   8
ATOM      8  C   UNL     1      68.599   6.881  33.040  1.00  0.00     0.000 C 
BRANCH   8   9
ATOM      9  C   UNL     1      68.025   8.249  33.441  1.00  0.00     0.000 C 
BRANCH   9  10
ATOM     10  C   UNL     1      69.045   9.387  33.280  1.00  0.00     0.006 C 
BRANCH  10  11
ATOM     11  C   UNL     1      68.438  10.559  32.502  1.00  0.00     0.053 C 
BRANCH  11  12
ATOM     12  C   UNL     1      69.517  11.404  31.903  1.00  0.00     0.041 C 
ATOM     13  O   UNL     1      70.728  11.119  32.098  1.00  0.00    -0.550 OA
ATOM     14  O   UNL     1      69.186  12.480  31.088  1.00  0.00    -0.550 OA
ENDBRANCH  11  12
ENDBRANCH  10  11
ENDBRANCH   9  10
ENDBRANCH   8   9
ENDBRANCH   1   8
TORSDOF 9
ENDMDL
MODEL 4
REMARK VINA RESULT:    -4.321      0.760      3.761
REMARK INTER + INTRA:          -7.534
REMARK INTER:                  -6.498
REMARK INTRA:                  -1.036
REMARK UNBOUND:                -0.940
REMARK SMILES O=C([O-])CCCCCCCCC(=O)[O-]
REMARK SMILES IDX 7 1 6 2 5 3 4 4 2 5 1 6 3 7 8 8 9 9 10 10 11 11 12 12 13 13
REMARK SMILES IDX 14 14
REMARK H PARENT
REMARK Flexibility Score: inf
ROOT
ATOM      1  C   UNL     1      62.912  17.364  40.678  1.00  0.00     0.000 C 
ENDROOT
BRANCH   1   2
ATOM      2  C   UNL     1      61.630  16.586  40.343  1.00  0.00     0.000 C 
BRANCH   2   3
ATOM      3  C   UNL     1      61.918  15.228  39.684  1.00  0.00     0.006 C 
BRANCH   3   4
ATOM      4  C   UNL     1      63.424  14.968  39.600  1.00  0.00     0.053 C 
BRANCH   4   5
ATOM      5  C   UNL     1      63.785  14.402  38.263  1.00  0.00     0.041 C 
ATOM      6  O   UNL     1      62.951  14.419  37.321  1.00  0.00    -0.550 OA
ATOM      7  O   UNL     1      65.027  13.810  38.072  1.00  0.00    -0.550 OA
ENDBRANCH   4   5
ENDBRANCH   3   4
ENDBRANCH   2   3
ENDBRANCH   1   2
BRANCH   1   8
ATOM      8  C   UNL     1      63.082  18.626  39.814  1.00  0.00     0.000 C 
BRANCH   8   9
ATOM      9  C   UNL     1      62.088  18.678  38.643  1.00  0.00     0.000 C 
BRANCH   9  10
ATOM     10  C   UNL     1      62.731  18.277  37.306  1.00  0.00     0.006 C 
BRANCH  10  11
ATOM     11  C   UNL     1      64.219  18.636  37.285  1.00  0.00     0.053 C 
BRANCH  11  12
ATOM     12  C   UNL     1      65.029  17.484  36.781  1.00  0.00     0.041 C 
ATOM     13  O   UNL     1      66.039  17.090  37.421  1.00  0.00    -0.550 OA
ATOM     14  O   UNL     1      64.641  16.812  35.628  1.00  0.00    -0.550 OA
ENDBRANCH  11  12
ENDBRANCH  10  11
ENDBRANCH   9  10
ENDBRANCH   8   9
ENDBRANCH   1   8
TORSDOF 9
ENDMDL
MODEL 5
REMARK VINA RESULT:    -4.229     10.839     11.972
REMARK INTER + INTRA:          -7.395
REMARK INTER:                  -6.611
REMARK INTRA:                  -0.784
REMARK UNBOUND:                -0.940
REMARK SMILES O=C([O-])CCCCCCCCC(=O)[O-]
REMARK SMILES IDX 7 1 6 2 5 3 4 4 2 5 1 6 3 7 8 8 9 9 10 10 11 11 12 12 13 13
REMARK SMILES IDX 14 14
REMARK H PARENT
REMARK Flexibility Score: inf
ROOT
ATOM      1  C   UNL     1      69.166  10.408  33.295  1.00  0.00     0.000 C 
ENDROOT
BRANCH   1   2
ATOM      2  C   UNL     1      69.873  11.056  32.094  1.00  0.00     0.000 C 
BRANCH   2   3
ATOM      3  C   UNL     1      71.403  11.052  32.237  1.00  0.00     0.006 C 
BRANCH   3   4
ATOM      4  C   UNL     1      71.875   9.836  33.039  1.00  0.00     0.053 C 
BRANCH   4   5
ATOM      5  C   UNL     1      72.783   8.982  32.211  1.00  0.00     0.041 C 
ATOM      6  O   UNL     1      73.722   8.343  32.754  1.00  0.00    -0.550 OA
ATOM      7  O   UNL     1      72.623   8.932  30.832  1.00  0.00    -0.550 OA
ENDBRANCH   4   5
ENDBRANCH   3   4
ENDBRANCH   2   3
ENDBRANCH   1   2
BRANCH   1   8
ATOM      8  C   UNL     1      68.106   9.376  32.871  1.00  0.00     0.000 C 
BRANCH   8   9
ATOM      9  C   UNL     1      68.028   8.181  33.833  1.00  0.00     0.000 C 
BRANCH   9  10
ATOM     10  C   UNL     1      68.446   6.860  33.168  1.00  0.00     0.006 C 
BRANCH  10  11
ATOM     11  C   UNL     1      69.968   6.789  33.004  1.00  0.00     0.053 C 
BRANCH  11  12
ATOM     12  C   UNL     1      70.572   5.945  34.081  1.00  0.00     0.041 C 
ATOM     13  O   UNL     1      71.798   6.042  34.350  1.00  0.00    -0.550 OA
ATOM     14  O   UNL     1      69.771   5.085  34.823  1.00  0.00    -0.550 OA
ENDBRANCH  11  12
ENDBRANCH  10  11
ENDBRANCH   9  10
ENDBRANCH   8   9
ENDBRANCH   1   8
TORSDOF 9
ENDMDL
MODEL 6
REMARK VINA RESULT:    -4.207      1.642      4.030
REMARK INTER + INTRA:          -7.360
REMARK INTER:                  -6.378
REMARK INTRA:                  -0.983
REMARK UNBOUND:                -0.940
REMARK SMILES O=C([O-])CCCCCCCCC(=O)[O-]
REMARK SMILES IDX 7 1 6 2 5 3 4 4 2 5 1 6 3 7 8 8 9 9 10 10 11 11 12 12 13 13
REMARK SMILES IDX 14 14
REMARK H PARENT
REMARK Flexibility Score: inf
ROOT
ATOM      1  C   UNL     1      62.830  18.874  39.419  1.00  0.00     0.000 C 
ENDROOT
BRANCH   1   2
ATOM      2  C   UNL     1      63.130  17.731  40.401  1.00  0.00     0.000 C 
BRANCH   2   3
ATOM      3  C   UNL     1      62.446  16.415  40.002  1.00  0.00     0.006 C 
BRANCH   3   4
ATOM      4  C   UNL     1      63.453  15.262  39.973  1.00  0.00     0.053 C 
BRANCH   4   5
ATOM      5  C   UNL     1      62.758  13.966  39.694  1.00  0.00     0.041 C 
ATOM      6  O   UNL     1      63.427  12.917  39.500  1.00  0.00    -0.550 OA
ATOM      7  O   UNL     1      61.373  13.926  39.599  1.00  0.00    -0.550 OA
ENDBRANCH   4   5
ENDBRANCH   3   4
ENDBRANCH   2   3
ENDBRANCH   1   2
BRANCH   1   8
ATOM      8  C   UNL     1      62.671  18.383  37.969  1.00  0.00     0.000 C 
BRANCH   8   9
ATOM      9  C   UNL     1      63.912  18.670  37.110  1.00  0.00     0.000 C 
BRANCH   9  10
ATOM     10  C   UNL     1      64.886  17.482  37.064  1.00  0.00     0.006 C 
BRANCH  10  11
ATOM     11  C   UNL     1      64.570  16.560  35.883  1.00  0.00     0.053 C 
BRANCH  11  12
ATOM     12  C   UNL     1      64.128  15.217  36.371  1.00  0.00     0.041 C 
ATOM     13  O   UNL     1      62.932  14.851  36.225  1.00  0.00    -0.550 OA
ATOM     14  O   UNL     1      65.048  14.347  36.944  1.00  0.00    -0.550 OA
ENDBRANCH  11  12
ENDBRANCH  10  11
ENDBRANCH   9  10
ENDBRANCH   8   9
ENDBRANCH   1   8
TORSDOF 9
ENDMDL
MODEL 7
REMARK VINA RESULT:    -4.190      2.262      4.112
REMARK INTER + INTRA:          -7.335
REMARK INTER:                  -6.517
REMARK INTRA:                  -0.817
REMARK UNBOUND:                -0.940
REMARK SMILES O=C([O-])CCCCCCCCC(=O)[O-]
REMARK SMILES IDX 7 1 6 2 5 3 4 4 2 5 1 6 3 7 8 8 9 9 10 10 11 11 12 12 13 13
REMARK SMILES IDX 14 14
REMARK H PARENT
REMARK Flexibility Score: inf
ROOT
ATOM      1  C   UNL     1      62.143  15.284  39.469  1.00  0.00     0.000 C 
ENDROOT
BRANCH   1   2
ATOM      2  C   UNL     1      63.250  16.184  40.039  1.00  0.00     0.000 C 
BRANCH   2   3
ATOM      3  C   UNL     1      62.695  17.435  40.736  1.00  0.00     0.006 C 
BRANCH   3   4
ATOM      4  C   UNL     1      62.915  18.684  39.877  1.00  0.00     0.053 C 
BRANCH   4   5
ATOM      5  C   UNL     1      61.735  18.924  38.989  1.00  0.00     0.041 C 
ATOM      6  O   UNL     1      60.694  19.461  39.450  1.00  0.00    -0.550 OA
ATOM      7  O   UNL     1      61.767  18.508  37.664  1.00  0.00    -0.550 OA
ENDBRANCH   4   5
ENDBRANCH   3   4
ENDBRANCH   2   3
ENDBRANCH   1   2
BRANCH   1   8
ATOM      8  C   UNL     1      62.622  14.436  38.278  1.00  0.00     0.000 C 
BRANCH   8   9
ATOM      9  C   UNL     1      64.154  14.349  38.193  1.00  0.00     0.000 C 
BRANCH   9  10
ATOM     10  C   UNL     1      64.685  14.642  36.781  1.00  0.00     0.006 C 
BRANCH  10  11
ATOM     11  C   UNL     1      63.892  15.776  36.123  1.00  0.00     0.053 C 
BRANCH  11  12
ATOM     12  C   UNL     1      64.763  16.975  35.921  1.00  0.00     0.041 C 
ATOM     13  O   UNL     1      65.243  17.225  34.784  1.00  0.00    -0.550 OA
ATOM     14  O   UNL     1      65.005  17.845  36.976  1.00  0.00    -0.550 OA
ENDBRANCH  11  12
ENDBRANCH  10  11
ENDBRANCH   9  10
ENDBRANCH   8   9
ENDBRANCH   1   8
TORSDOF 9
ENDMDL
MODEL 8
REMARK VINA RESULT:    -4.121     11.240     13.503
REMARK INTER + INTRA:          -7.230
REMARK INTER:                  -6.225
REMARK INTRA:                  -1.005
REMARK UNBOUND:                -0.940
REMARK SMILES O=C([O-])CCCCCCCCC(=O)[O-]
REMARK SMILES IDX 7 1 6 2 5 3 4 4 2 5 1 6 3 7 8 8 9 9 10 10 11 11 12 12 13 13
REMARK SMILES IDX 14 14
REMARK H PARENT
REMARK Flexibility Score: inf
ROOT
ATOM      1  C   UNL     1      72.851   6.118  34.281  1.00  0.00     0.000 C 
ENDROOT
BRANCH   1   2
ATOM      2  C   UNL     1      71.616   5.354  33.779  1.00  0.00     0.000 C 
BRANCH   2   3
ATOM      3  C   UNL     1      70.298   6.031  34.181  1.00  0.00     0.006 C 
BRANCH   3   4
ATOM      4  C   UNL     1      69.733   6.861  33.025  1.00  0.00     0.053 C 
BRANCH   4   5
ATOM      5  C   UNL     1      68.598   7.715  33.497  1.00  0.00     0.041 C 
ATOM      6  O   UNL     1      68.546   8.932  33.180  1.00  0.00    -0.550 OA
ATOM      7  O   UNL     1      67.624   7.177  34.329  1.00  0.00    -0.550 OA
ENDBRANCH   4   5
ENDBRANCH   3   4
ENDBRANCH   2   3
ENDBRANCH   1   2
BRANCH   1   8
ATOM      8  C   UNL     1      74.003   6.119  33.260  1.00  0.00     0.000 C 
BRANCH   8   9
ATOM      9  C   UNL     1      73.622   6.809  31.941  1.00  0.00     0.000 C 
BRANCH   9  10
ATOM     10  C   UNL     1      73.749   8.339  32.016  1.00  0.00     0.006 C 
BRANCH  10  11
ATOM     11  C   UNL     1      72.465   9.019  31.531  1.00  0.00     0.053 C 
BRANCH  11  12
ATOM     12  C   UNL     1      71.886   9.876  32.611  1.00  0.00     0.041 C 
ATOM     13  O   UNL     1      71.267  10.933  32.319  1.00  0.00    -0.550 OA
ATOM     14  O   UNL     1      71.988   9.484  33.941  1.00  0.00    -0.550 OA
ENDBRANCH  11  12
ENDBRANCH  10  11
ENDBRANCH   9  10
ENDBRANCH   8   9
ENDBRANCH   1   8
TORSDOF 9
ENDMDL
MODEL 9
REMARK VINA RESULT:    -4.105      2.446      3.834
REMARK INTER + INTRA:          -7.206
REMARK INTER:                  -6.524
REMARK INTRA:                  -0.682
REMARK UNBOUND:                -0.940
REMARK SMILES O=C([O-])CCCCCCCCC(=O)[O-]
REMARK SMILES IDX 7 1 6 2 5 3 4 4 2 5 1 6 3 7 8 8 9 9 10 10 11 11 12 12 13 13
REMARK SMILES IDX 14 14
REMARK H PARENT
REMARK Flexibility Score: inf
ROOT
ATOM      1  C   UNL     1      62.496  13.956  37.919  1.00  0.00     0.000 C 
ENDROOT
BRANCH   1   2
ATOM      2  C   UNL     1      62.712  14.799  36.653  1.00  0.00     0.000 C 
BRANCH   2   3
ATOM      3  C   UNL     1      64.185  15.178  36.439  1.00  0.00     0.006 C 
BRANCH   3   4
ATOM      4  C   UNL     1      64.309  16.586  35.852  1.00  0.00     0.053 C 
BRANCH   4   5
ATOM      5  C   UNL     1      65.360  17.366  36.577  1.00  0.00     0.041 C 
ATOM      6  O   UNL     1      65.384  17.380  37.836  1.00  0.00    -0.550 OA
ATOM      7  O   UNL     1      66.284  18.118  35.863  1.00  0.00    -0.550 OA
ENDBRANCH   4   5
ENDBRANCH   3   4
ENDBRANCH   2   3
ENDBRANCH   1   2
BRANCH   1   8
ATOM      8  C   UNL     1      62.038  14.799  39.121  1.00  0.00     0.000 C 
BRANCH   8   9
ATOM      9  C   UNL     1      63.212  15.282  39.986  1.00  0.00     0.000 C 
BRANCH   9  10
ATOM     10  C   UNL     1      63.093  16.766  40.369  1.00  0.00     0.006 C 
BRANCH  10  11
ATOM     11  C   UNL     1      61.689  17.297  40.065  1.00  0.00     0.053 C 
BRANCH  11  12
ATOM     12  C   UNL     1      61.754  18.726  39.626  1.00  0.00     0.041 C 
ATOM     13  O   UNL     1      62.795  19.405  39.827  1.00  0.00    -0.550 OA
ATOM     14  O   UNL     1      60.681  19.295  38.950  1.00  0.00    -0.550 OA
ENDBRANCH  11  12
ENDBRANCH  10  11
ENDBRANCH   9  10
ENDBRANCH   8   9
ENDBRANCH   1   8
TORSDOF 9
ENDMDL
