MODEL 1
REMARK VINA RESULT:    -6.988      0.000      0.000
REMARK INTER + INTRA:         -11.652
REMARK INTER:                 -10.868
REMARK INTRA:                  -0.783
REMARK UNBOUND:                -0.783
REMARK SMILES COc1cc(CNC(=O)CCCCC=CC(C)C)ccc1O
REMARK SMILES IDX 11 1 12 2 13 3 14 4 15 5 16 6 17 7 18 8 10 9 8 10 9 11 7 12
REMARK SMILES IDX 6 14 5 15 4 16 19 17 3 18 20 19 21 20 2 21 1 22 22 23
REMARK H PARENT 7 13 22 24
REMARK Flexibility Score: inf
ROOT
ATOM      1  C   UNL     1      31.257   9.361 105.547  1.00  0.00     0.010 C 
ENDROOT
BRANCH   1   2
ATOM      2  C   UNL     1      31.003   8.294 104.476  1.00  0.00     0.005 C 
BRANCH   2   3
ATOM      3  C   UNL     1      30.267   7.088 105.071  1.00  0.00     0.027 C 
BRANCH   3   4
ATOM      4  C   UNL     1      31.021   6.516 106.239  1.00  0.00    -0.031 C 
ATOM      5  C   UNL     1      31.426   5.237 106.256  1.00  0.00    -0.028 C 
BRANCH   5   6
ATOM      6  C   UNL     1      32.163   4.664 107.443  1.00  0.00     0.005 C 
ATOM      7  C   UNL     1      33.348   3.811 106.979  1.00  0.00     0.012 C 
ATOM      8  C   UNL     1      32.644   5.789 108.368  1.00  0.00     0.012 C 
ENDBRANCH   5   6
ENDBRANCH   3   4
ENDBRANCH   2   3
ENDBRANCH   1   2
BRANCH   1   9
ATOM      9  C   UNL     1      30.473  10.642 105.245  1.00  0.00     0.100 C 
BRANCH   9  10
ATOM     10  C   UNL     1      31.406  11.809 105.131  1.00  0.00     0.220 C 
ATOM     11  O   UNL     1      30.940  12.979 105.155  1.00  0.00    -0.275 OA
ATOM     12  N   UNL     1      32.813  11.591 104.951  1.00  0.00    -0.352 N 
ATOM     13  H   UNL     1      33.172  10.611 104.917  1.00  0.00     0.163 HD
BRANCH  12  14
ATOM     14  C   UNL     1      33.760  12.685 104.749  1.00  0.00     0.151 C 
BRANCH  14  15
ATOM     15  C   UNL     1      35.063  12.393 105.442  1.00  0.00    -0.025 A 
ATOM     16  C   UNL     1      36.267  12.900 104.924  1.00  0.00     0.056 A 
ATOM     17  C   UNL     1      35.092  11.602 106.601  1.00  0.00     0.009 A 
ATOM     18  C   UNL     1      37.494  12.617 105.556  1.00  0.00     0.160 A 
ATOM     19  C   UNL     1      36.306  11.323 107.234  1.00  0.00     0.050 A 
ATOM     20  C   UNL     1      37.506  11.827 106.716  1.00  0.00     0.157 A 
BRANCH  18  21
ATOM     21  O   UNL     1      38.718  13.100 105.066  1.00  0.00    -0.493 OA
ATOM     22  C   UNL     1      39.457  12.494 104.011  1.00  0.00     0.278 C 
ENDBRANCH  18  21
BRANCH  20  23
ATOM     23  O   UNL     1      38.716  11.548 107.347  1.00  0.00    -0.504 OA
ATOM     24  H   UNL     1      38.817  11.616 108.353  1.00  0.00     0.293 HD
ENDBRANCH  20  23
ENDBRANCH  14  15
ENDBRANCH  12  14
ENDBRANCH   9  10
ENDBRANCH   1   9
TORSDOF 10
ENDMDL
MODEL 2
REMARK VINA RESULT:    -6.777      1.143      1.957
REMARK INTER + INTRA:         -11.324
REMARK INTER:                 -10.495
REMARK INTRA:                  -0.830
REMARK UNBOUND:                -0.783
REMARK SMILES COc1cc(CNC(=O)CCCCC=CC(C)C)ccc1O
REMARK SMILES IDX 11 1 12 2 13 3 14 4 15 5 16 6 17 7 18 8 10 9 8 10 9 11 7 12
REMARK SMILES IDX 6 14 5 15 4 16 19 17 3 18 20 19 21 20 2 21 1 22 22 23
REMARK H PARENT 7 13 22 24
REMARK Flexibility Score: inf
ROOT
ATOM      1  C   UNL     1      31.057   9.560 105.603  1.00  0.00     0.010 C 
ENDROOT
BRANCH   1   2
ATOM      2  C   UNL     1      31.063   8.441 104.556  1.00  0.00     0.005 C 
BRANCH   2   3
ATOM      3  C   UNL     1      30.353   7.190 105.091  1.00  0.00     0.027 C 
BRANCH   3   4
ATOM      4  C   UNL     1      31.090   6.612 106.268  1.00  0.00    -0.031 C 
ATOM      5  C   UNL     1      31.550   5.352 106.258  1.00  0.00    -0.028 C 
BRANCH   5   6
ATOM      6  C   UNL     1      32.268   4.772 107.454  1.00  0.00     0.005 C 
ATOM      7  C   UNL     1      33.371   3.809 107.002  1.00  0.00     0.012 C 
ATOM      8  C   UNL     1      32.857   5.891 108.320  1.00  0.00     0.012 C 
ENDBRANCH   5   6
ENDBRANCH   3   4
ENDBRANCH   2   3
ENDBRANCH   1   2
BRANCH   1   9
ATOM      9  C   UNL     1      30.168  10.726 105.158  1.00  0.00     0.100 C 
BRANCH   9  10
ATOM     10  C   UNL     1      30.933  12.014 105.213  1.00  0.00     0.220 C 
ATOM     11  O   UNL     1      30.341  13.071 105.559  1.00  0.00    -0.275 OA
ATOM     12  N   UNL     1      32.315  12.048 104.830  1.00  0.00    -0.352 N 
ATOM     13  H   UNL     1      32.778  11.161 104.530  1.00  0.00     0.163 HD
BRANCH  12  14
ATOM     14  C   UNL     1      33.089  13.286 104.781  1.00  0.00     0.151 C 
BRANCH  14  15
ATOM     15  C   UNL     1      34.441  13.091 105.413  1.00  0.00    -0.025 A 
ATOM     16  C   UNL     1      34.745  11.887 106.070  1.00  0.00     0.056 A 
ATOM     17  C   UNL     1      35.403  14.112 105.366  1.00  0.00     0.009 A 
ATOM     18  C   UNL     1      36.002  11.702 106.680  1.00  0.00     0.160 A 
ATOM     19  C   UNL     1      36.653  13.931 105.965  1.00  0.00     0.050 A 
ATOM     20  C   UNL     1      36.954  12.731 106.622  1.00  0.00     0.157 A 
BRANCH  18  21
ATOM     21  O   UNL     1      36.342  10.516 107.351  1.00  0.00    -0.493 OA
ATOM     22  C   UNL     1      35.610   9.299 107.255  1.00  0.00     0.278 C 
ENDBRANCH  18  21
BRANCH  20  23
ATOM     23  O   UNL     1      38.200  12.552 107.219  1.00  0.00    -0.504 OA
ATOM     24  H   UNL     1      39.047  12.476 106.668  1.00  0.00     0.293 HD
ENDBRANCH  20  23
ENDBRANCH  14  15
ENDBRANCH  12  14
ENDBRANCH   9  10
ENDBRANCH   1   9
TORSDOF 10
ENDMDL
MODEL 3
REMARK VINA RESULT:    -6.540      2.819      7.943
REMARK INTER + INTRA:         -10.956
REMARK INTER:                 -10.284
REMARK INTRA:                  -0.671
REMARK UNBOUND:                -0.783
REMARK SMILES COc1cc(CNC(=O)CCCCC=CC(C)C)ccc1O
REMARK SMILES IDX 11 1 12 2 13 3 14 4 15 5 16 6 17 7 18 8 10 9 8 10 9 11 7 12
REMARK SMILES IDX 6 14 5 15 4 16 19 17 3 18 20 19 21 20 2 21 1 22 22 23
REMARK H PARENT 7 13 22 24
REMARK Flexibility Score: inf
ROOT
ATOM      1  C   UNL     1      35.779  10.999 105.807  1.00  0.00     0.010 C 
ENDROOT
BRANCH   1   2
ATOM      2  C   UNL     1      36.493  11.523 107.059  1.00  0.00     0.005 C 
BRANCH   2   3
ATOM      3  C   UNL     1      37.461  12.657 106.701  1.00  0.00     0.027 C 
BRANCH   3   4
ATOM      4  C   UNL     1      38.724  12.117 106.089  1.00  0.00    -0.031 C 
ATOM      5  C   UNL     1      39.883  12.106 106.764  1.00  0.00    -0.028 C 
BRANCH   5   6
ATOM      6  C   UNL     1      41.152  11.584 106.133  1.00  0.00     0.005 C 
ATOM      7  C   UNL     1      41.806  10.532 107.035  1.00  0.00     0.012 C 
ATOM      8  C   UNL     1      40.859  10.994 104.749  1.00  0.00     0.012 C 
ENDBRANCH   5   6
ENDBRANCH   3   4
ENDBRANCH   2   3
ENDBRANCH   1   2
BRANCH   1   9
ATOM      9  C   UNL     1      35.088  12.137 105.051  1.00  0.00     0.100 C 
BRANCH   9  10
ATOM     10  C   UNL     1      33.604  11.929 105.039  1.00  0.00     0.220 C 
ATOM     11  O   UNL     1      32.839  12.929 104.998  1.00  0.00    -0.275 OA
ATOM     12  N   UNL     1      33.062  10.603 105.119  1.00  0.00    -0.352 N 
ATOM     13  H   UNL     1      33.718   9.792 105.169  1.00  0.00     0.163 HD
BRANCH  12  14
ATOM     14  C   UNL     1      31.627  10.342 105.197  1.00  0.00     0.151 C 
BRANCH  14  15
ATOM     15  C   UNL     1      31.369   8.893 105.516  1.00  0.00    -0.025 A 
ATOM     16  C   UNL     1      31.781   8.359 106.748  1.00  0.00     0.056 A 
ATOM     17  C   UNL     1      30.728   8.063 104.584  1.00  0.00     0.009 A 
ATOM     18  C   UNL     1      31.560   7.000 107.049  1.00  0.00     0.160 A 
ATOM     19  C   UNL     1      30.501   6.715 104.880  1.00  0.00     0.050 A 
ATOM     20  C   UNL     1      30.915   6.182 106.108  1.00  0.00     0.157 A 
BRANCH  18  21
ATOM     21  O   UNL     1      31.963   6.426 108.265  1.00  0.00    -0.493 OA
ATOM     22  C   UNL     1      33.246   5.856 108.500  1.00  0.00     0.278 C 
ENDBRANCH  18  21
BRANCH  20  23
ATOM     23  O   UNL     1      30.690   4.839 106.401  1.00  0.00    -0.504 OA
ATOM     24  H   UNL     1      31.177   4.373 107.158  1.00  0.00     0.293 HD
ENDBRANCH  20  23
ENDBRANCH  14  15
ENDBRANCH  12  14
ENDBRANCH   9  10
ENDBRANCH   1   9
TORSDOF 10
ENDMDL
MODEL 4
REMARK VINA RESULT:    -6.409      3.110      6.794
REMARK INTER + INTRA:         -10.753
REMARK INTER:                  -9.660
REMARK INTRA:                  -1.092
REMARK UNBOUND:                -0.783
REMARK SMILES COc1cc(CNC(=O)CCCCC=CC(C)C)ccc1O
REMARK SMILES IDX 11 1 12 2 13 3 14 4 15 5 16 6 17 7 18 8 10 9 8 10 9 11 7 12
REMARK SMILES IDX 6 14 5 15 4 16 19 17 3 18 20 19 21 20 2 21 1 22 22 23
REMARK H PARENT 7 13 22 24
REMARK Flexibility Score: inf
ROOT
ATOM      1  C   UNL     1      32.539  12.468 105.129  1.00  0.00     0.010 C 
ENDROOT
BRANCH   1   2
ATOM      2  C   UNL     1      33.201  13.802 104.766  1.00  0.00     0.005 C 
BRANCH   2   3
ATOM      3  C   UNL     1      34.728  13.701 104.878  1.00  0.00     0.027 C 
BRANCH   3   4
ATOM      4  C   UNL     1      35.137  12.418 105.546  1.00  0.00    -0.031 C 
ATOM      5  C   UNL     1      35.797  12.414 106.714  1.00  0.00    -0.028 C 
BRANCH   5   6
ATOM      6  C   UNL     1      36.225  11.121 107.367  1.00  0.00     0.005 C 
ATOM      7  C   UNL     1      35.727  11.060 108.815  1.00  0.00     0.012 C 
ATOM      8  C   UNL     1      35.704   9.920 106.570  1.00  0.00     0.012 C 
ENDBRANCH   5   6
ENDBRANCH   3   4
ENDBRANCH   2   3
ENDBRANCH   1   2
BRANCH   1   9
ATOM      9  C   UNL     1      31.012  12.592 105.123  1.00  0.00     0.100 C 
BRANCH   9  10
ATOM     10  C   UNL     1      30.379  11.236 105.210  1.00  0.00     0.220 C 
ATOM     11  O   UNL     1      29.159  11.140 105.507  1.00  0.00    -0.275 OA
ATOM     12  N   UNL     1      31.170  10.058 105.000  1.00  0.00    -0.352 N 
ATOM     13  H   UNL     1      32.184  10.164 104.772  1.00  0.00     0.163 HD
BRANCH  12  14
ATOM     14  C   UNL     1      30.630   8.709 105.156  1.00  0.00     0.151 C 
BRANCH  14  15
ATOM     15  C   UNL     1      31.381   7.957 106.222  1.00  0.00    -0.025 A 
ATOM     16  C   UNL     1      31.361   6.553 106.241  1.00  0.00     0.056 A 
ATOM     17  C   UNL     1      32.094   8.649 107.213  1.00  0.00     0.009 A 
ATOM     18  C   UNL     1      32.046   5.840 107.245  1.00  0.00     0.160 A 
ATOM     19  C   UNL     1      32.779   7.947 108.209  1.00  0.00     0.050 A 
ATOM     20  C   UNL     1      32.757   6.546 108.228  1.00  0.00     0.157 A 
BRANCH  18  21
ATOM     21  O   UNL     1      32.045   4.437 107.302  1.00  0.00    -0.493 OA
ATOM     22  C   UNL     1      33.159   3.618 106.966  1.00  0.00     0.278 C 
ENDBRANCH  18  21
BRANCH  20  23
ATOM     23  O   UNL     1      33.439   5.847 109.221  1.00  0.00    -0.504 OA
ATOM     24  H   UNL     1      34.008   6.325 109.911  1.00  0.00     0.293 HD
ENDBRANCH  20  23
ENDBRANCH  14  15
ENDBRANCH  12  14
ENDBRANCH   9  10
ENDBRANCH   1   9
TORSDOF 10
ENDMDL
MODEL 5
REMARK VINA RESULT:    -6.337      2.063      5.530
REMARK INTER + INTRA:         -10.640
REMARK INTER:                  -9.597
REMARK INTRA:                  -1.043
REMARK UNBOUND:                -0.783
REMARK SMILES COc1cc(CNC(=O)CCCCC=CC(C)C)ccc1O
REMARK SMILES IDX 11 1 12 2 13 3 14 4 15 5 16 6 17 7 18 8 10 9 8 10 9 11 7 12
REMARK SMILES IDX 6 14 5 15 4 16 19 17 3 18 20 19 21 20 2 21 1 22 22 23
REMARK H PARENT 7 13 22 24
REMARK Flexibility Score: inf
ROOT
ATOM      1  C   UNL     1      35.567   9.446 107.658  1.00  0.00     0.010 C 
ENDROOT
BRANCH   1   2
ATOM      2  C   UNL     1      34.243   8.704 107.445  1.00  0.00     0.005 C 
BRANCH   2   3
ATOM      3  C   UNL     1      33.699   8.167 108.775  1.00  0.00     0.027 C 
BRANCH   3   4
ATOM      4  C   UNL     1      33.108   6.795 108.602  1.00  0.00    -0.031 C 
ATOM      5  C   UNL     1      32.654   6.369 107.414  1.00  0.00    -0.028 C 
BRANCH   5   6
ATOM      6  C   UNL     1      32.040   4.998 107.255  1.00  0.00     0.005 C 
ATOM      7  C   UNL     1      31.137   4.955 106.018  1.00  0.00     0.012 C 
ATOM      8  C   UNL     1      33.135   3.930 107.157  1.00  0.00     0.012 C 
ENDBRANCH   5   6
ENDBRANCH   3   4
ENDBRANCH   2   3
ENDBRANCH   1   2
BRANCH   1   9
ATOM      9  C   UNL     1      36.045  10.103 106.360  1.00  0.00     0.100 C 
BRANCH   9  10
ATOM     10  C   UNL     1      35.303  11.384 106.121  1.00  0.00     0.220 C 
ATOM     11  O   UNL     1      35.256  12.252 107.032  1.00  0.00    -0.275 OA
ATOM     12  N   UNL     1      34.616  11.596 104.879  1.00  0.00    -0.352 N 
ATOM     13  H   UNL     1      34.656  10.853 104.146  1.00  0.00     0.163 HD
BRANCH  12  14
ATOM     14  C   UNL     1      33.807  12.785 104.621  1.00  0.00     0.151 C 
BRANCH  14  15
ATOM     15  C   UNL     1      32.360  12.521 104.941  1.00  0.00    -0.025 A 
ATOM     16  C   UNL     1      31.895  11.201 105.068  1.00  0.00     0.056 A 
ATOM     17  C   UNL     1      31.461  13.586 105.103  1.00  0.00     0.009 A 
ATOM     18  C   UNL     1      30.539  10.943 105.350  1.00  0.00     0.160 A 
ATOM     19  C   UNL     1      30.115  13.335 105.388  1.00  0.00     0.050 A 
ATOM     20  C   UNL     1      29.652  12.019 105.512  1.00  0.00     0.157 A 
BRANCH  18  21
ATOM     21  O   UNL     1      30.035   9.639 105.477  1.00  0.00    -0.493 OA
ATOM     22  C   UNL     1      30.641   8.483 104.911  1.00  0.00     0.278 C 
ENDBRANCH  18  21
BRANCH  20  23
ATOM     23  O   UNL     1      28.312  11.770 105.795  1.00  0.00    -0.504 OA
ATOM     24  H   UNL     1      27.583  12.422 105.527  1.00  0.00     0.293 HD
ENDBRANCH  20  23
ENDBRANCH  14  15
ENDBRANCH  12  14
ENDBRANCH   9  10
ENDBRANCH   1   9
TORSDOF 10
ENDMDL
MODEL 6
REMARK VINA RESULT:    -6.238      1.955      5.998
REMARK INTER + INTRA:         -10.486
REMARK INTER:                  -9.501
REMARK INTRA:                  -0.985
REMARK UNBOUND:                -0.783
REMARK SMILES COc1cc(CNC(=O)CCCCC=CC(C)C)ccc1O
REMARK SMILES IDX 11 1 12 2 13 3 14 4 15 5 16 6 17 7 18 8 10 9 8 10 9 11 7 12
REMARK SMILES IDX 6 14 5 15 4 16 19 17 3 18 20 19 21 20 2 21 1 22 22 23
REMARK H PARENT 7 13 22 24
REMARK Flexibility Score: inf
ROOT
ATOM      1  C   UNL     1      37.073  11.492 107.363  1.00  0.00     0.010 C 
ENDROOT
BRANCH   1   2
ATOM      2  C   UNL     1      35.835  10.753 107.883  1.00  0.00     0.005 C 
BRANCH   2   3
ATOM      3  C   UNL     1      35.494   9.559 106.982  1.00  0.00     0.027 C 
BRANCH   3   4
ATOM      4  C   UNL     1      34.766   8.491 107.751  1.00  0.00    -0.031 C 
ATOM      5  C   UNL     1      33.427   8.464 107.820  1.00  0.00    -0.028 C 
BRANCH   5   6
ATOM      6  C   UNL     1      32.705   7.402 108.614  1.00  0.00     0.005 C 
ATOM      7  C   UNL     1      31.398   7.957 109.190  1.00  0.00     0.012 C 
ATOM      8  C   UNL     1      32.425   6.175 107.738  1.00  0.00     0.012 C 
ENDBRANCH   5   6
ENDBRANCH   3   4
ENDBRANCH   2   3
ENDBRANCH   1   2
BRANCH   1   9
ATOM      9  C   UNL     1      36.717  12.912 106.913  1.00  0.00     0.100 C 
BRANCH   9  10
ATOM     10  C   UNL     1      35.867  12.871 105.680  1.00  0.00     0.220 C 
ATOM     11  O   UNL     1      36.395  12.576 104.574  1.00  0.00    -0.275 OA
ATOM     12  N   UNL     1      34.475  13.208 105.753  1.00  0.00    -0.352 N 
ATOM     13  H   UNL     1      34.066  13.466 106.678  1.00  0.00     0.163 HD
BRANCH  12  14
ATOM     14  C   UNL     1      33.616  13.268 104.572  1.00  0.00     0.151 C 
BRANCH  14  15
ATOM     15  C   UNL     1      32.218  12.825 104.911  1.00  0.00    -0.025 A 
ATOM     16  C   UNL     1      31.930  11.460 105.071  1.00  0.00     0.056 A 
ATOM     17  C   UNL     1      31.188  13.768 105.058  1.00  0.00     0.009 A 
ATOM     18  C   UNL     1      30.621  11.033 105.371  1.00  0.00     0.160 A 
ATOM     19  C   UNL     1      29.889  13.350 105.360  1.00  0.00     0.050 A 
ATOM     20  C   UNL     1      29.602  11.988 105.516  1.00  0.00     0.157 A 
BRANCH  18  21
ATOM     21  O   UNL     1      30.292   9.678 105.531  1.00  0.00    -0.493 OA
ATOM     22  C   UNL     1      31.093   8.595 105.068  1.00  0.00     0.278 C 
ENDBRANCH  18  21
BRANCH  20  23
ATOM     23  O   UNL     1      28.307  11.573 105.817  1.00  0.00    -0.504 OA
ATOM     24  H   UNL     1      27.894  10.761 105.372  1.00  0.00     0.293 HD
ENDBRANCH  20  23
ENDBRANCH  14  15
ENDBRANCH  12  14
ENDBRANCH   9  10
ENDBRANCH   1   9
TORSDOF 10
ENDMDL
MODEL 7
REMARK VINA RESULT:    -6.050      2.814      3.888
REMARK INTER + INTRA:         -10.193
REMARK INTER:                  -9.469
REMARK INTRA:                  -0.724
REMARK UNBOUND:                -0.783
REMARK SMILES COc1cc(CNC(=O)CCCCC=CC(C)C)ccc1O
REMARK SMILES IDX 11 1 12 2 13 3 14 4 15 5 16 6 17 7 18 8 10 9 8 10 9 11 7 12
REMARK SMILES IDX 6 14 5 15 4 16 19 17 3 18 20 19 21 20 2 21 1 22 22 23
REMARK H PARENT 7 13 22 24
REMARK Flexibility Score: inf
ROOT
ATOM      1  C   UNL     1      33.620   8.835 107.520  1.00  0.00     0.010 C 
ENDROOT
BRANCH   1   2
ATOM      2  C   UNL     1      33.226   8.319 108.908  1.00  0.00     0.005 C 
BRANCH   2   3
ATOM      3  C   UNL     1      31.756   7.880 108.930  1.00  0.00     0.027 C 
BRANCH   3   4
ATOM      4  C   UNL     1      31.535   6.683 108.047  1.00  0.00    -0.031 C 
ATOM      5  C   UNL     1      32.341   5.612 108.102  1.00  0.00    -0.028 C 
BRANCH   5   6
ATOM      6  C   UNL     1      32.125   4.424 107.195  1.00  0.00     0.005 C 
ATOM      7  C   UNL     1      31.468   4.863 105.882  1.00  0.00     0.012 C 
ATOM      8  C   UNL     1      33.456   3.715 106.916  1.00  0.00     0.012 C 
ENDBRANCH   5   6
ENDBRANCH   3   4
ENDBRANCH   2   3
ENDBRANCH   1   2
BRANCH   1   9
ATOM      9  C   UNL     1      35.143   8.884 107.363  1.00  0.00     0.100 C 
BRANCH   9  10
ATOM     10  C   UNL     1      35.575  10.240 106.894  1.00  0.00     0.220 C 
ATOM     11  O   UNL     1      34.973  10.784 105.931  1.00  0.00    -0.275 OA
ATOM     12  N   UNL     1      36.694  10.892 107.512  1.00  0.00    -0.352 N 
ATOM     13  H   UNL     1      37.187  10.413 108.297  1.00  0.00     0.163 HD
BRANCH  12  14
ATOM     14  C   UNL     1      37.214  12.175 107.044  1.00  0.00     0.151 C 
BRANCH  14  15
ATOM     15  C   UNL     1      38.357  11.965 106.086  1.00  0.00    -0.025 A 
ATOM     16  C   UNL     1      39.675  11.891 106.566  1.00  0.00     0.056 A 
ATOM     17  C   UNL     1      38.119  11.856 104.707  1.00  0.00     0.009 A 
ATOM     18  C   UNL     1      40.753  11.713 105.676  1.00  0.00     0.160 A 
ATOM     19  C   UNL     1      39.184  11.675 103.821  1.00  0.00     0.050 A 
ATOM     20  C   UNL     1      40.498  11.603 104.300  1.00  0.00     0.157 A 
BRANCH  18  21
ATOM     21  O   UNL     1      42.084  11.641 106.116  1.00  0.00    -0.493 OA
ATOM     22  C   UNL     1      42.623  10.565 106.875  1.00  0.00     0.278 C 
ENDBRANCH  18  21
BRANCH  20  23
ATOM     23  O   UNL     1      41.559  11.423 103.416  1.00  0.00    -0.504 OA
ATOM     24  H   UNL     1      41.562  11.850 102.496  1.00  0.00     0.293 HD
ENDBRANCH  20  23
ENDBRANCH  14  15
ENDBRANCH  12  14
ENDBRANCH   9  10
ENDBRANCH   1   9
TORSDOF 10
ENDMDL
MODEL 8
REMARK VINA RESULT:    -6.039      3.089      8.495
REMARK INTER + INTRA:         -10.177
REMARK INTER:                  -9.474
REMARK INTRA:                  -0.702
REMARK UNBOUND:                -0.783
REMARK SMILES COc1cc(CNC(=O)CCCCC=CC(C)C)ccc1O
REMARK SMILES IDX 11 1 12 2 13 3 14 4 15 5 16 6 17 7 18 8 10 9 8 10 9 11 7 12
REMARK SMILES IDX 6 14 5 15 4 16 19 17 3 18 20 19 21 20 2 21 1 22 22 23
REMARK H PARENT 7 13 22 24
REMARK Flexibility Score: inf
ROOT
ATOM      1  C   UNL     1      35.772  12.483 106.250  1.00  0.00     0.010 C 
ENDROOT
BRANCH   1   2
ATOM      2  C   UNL     1      36.953  13.336 105.772  1.00  0.00     0.005 C 
BRANCH   2   3
ATOM      3  C   UNL     1      37.930  13.609 106.922  1.00  0.00     0.027 C 
BRANCH   3   4
ATOM      4  C   UNL     1      39.333  13.223 106.544  1.00  0.00    -0.031 C 
ATOM      5  C   UNL     1      39.811  11.992 106.780  1.00  0.00    -0.028 C 
BRANCH   5   6
ATOM      6  C   UNL     1      41.229  11.620 106.418  1.00  0.00     0.005 C 
ATOM      7  C   UNL     1      41.795  10.616 107.429  1.00  0.00     0.012 C 
ATOM      8  C   UNL     1      41.286  11.041 105.000  1.00  0.00     0.012 C 
ENDBRANCH   5   6
ENDBRANCH   3   4
ENDBRANCH   2   3
ENDBRANCH   1   2
BRANCH   1   9
ATOM      9  C   UNL     1      36.204  11.034 106.496  1.00  0.00     0.100 C 
BRANCH   9  10
ATOM     10  C   UNL     1      35.403  10.434 107.612  1.00  0.00     0.220 C 
ATOM     11  O   UNL     1      35.422  10.976 108.748  1.00  0.00    -0.275 OA
ATOM     12  N   UNL     1      34.659   9.226 107.395  1.00  0.00    -0.352 N 
ATOM     13  H   UNL     1      34.675   8.786 106.448  1.00  0.00     0.163 HD
BRANCH  12  14
ATOM     14  C   UNL     1      33.930   8.548 108.464  1.00  0.00     0.151 C 
BRANCH  14  15
ATOM     15  C   UNL     1      33.048   7.467 107.901  1.00  0.00    -0.025 A 
ATOM     16  C   UNL     1      32.089   7.778 106.922  1.00  0.00     0.056 A 
ATOM     17  C   UNL     1      33.163   6.144 108.356  1.00  0.00     0.009 A 
ATOM     18  C   UNL     1      31.246   6.776 106.400  1.00  0.00     0.160 A 
ATOM     19  C   UNL     1      32.332   5.146 107.838  1.00  0.00     0.050 A 
ATOM     20  C   UNL     1      31.376   5.458 106.864  1.00  0.00     0.157 A 
BRANCH  18  21
ATOM     21  O   UNL     1      30.272   7.048 105.427  1.00  0.00    -0.493 OA
ATOM     22  C   UNL     1      30.555   7.542 104.122  1.00  0.00     0.278 C 
ENDBRANCH  18  21
BRANCH  20  23
ATOM     23  O   UNL     1      30.548   4.462 106.349  1.00  0.00    -0.504 OA
ATOM     24  H   UNL     1      30.072   3.802 106.954  1.00  0.00     0.293 HD
ENDBRANCH  20  23
ENDBRANCH  14  15
ENDBRANCH  12  14
ENDBRANCH   9  10
ENDBRANCH   1   9
TORSDOF 10
ENDMDL
MODEL 9
REMARK VINA RESULT:    -5.858      3.361      8.611
REMARK INTER + INTRA:          -9.896
REMARK INTER:                  -9.157
REMARK INTRA:                  -0.739
REMARK UNBOUND:                -0.783
REMARK SMILES COc1cc(CNC(=O)CCCCC=CC(C)C)ccc1O
REMARK SMILES IDX 11 1 12 2 13 3 14 4 15 5 16 6 17 7 18 8 10 9 8 10 9 11 7 12
REMARK SMILES IDX 6 14 5 15 4 16 19 17 3 18 20 19 21 20 2 21 1 22 22 23
REMARK H PARENT 7 13 22 24
REMARK Flexibility Score: inf
ROOT
ATOM      1  C   UNL     1      36.087  13.094 106.031  1.00  0.00     0.010 C 
ENDROOT
BRANCH   1   2
ATOM      2  C   UNL     1      37.363  13.858 105.657  1.00  0.00     0.005 C 
BRANCH   2   3
ATOM      3  C   UNL     1      38.401  13.769 106.782  1.00  0.00     0.027 C 
BRANCH   3   4
ATOM      4  C   UNL     1      39.665  13.112 106.301  1.00  0.00    -0.031 C 
ATOM      5  C   UNL     1      39.990  11.862 106.664  1.00  0.00    -0.028 C 
BRANCH   5   6
ATOM      6  C   UNL     1      41.273  11.218 106.194  1.00  0.00     0.005 C 
ATOM      7  C   UNL     1      42.187  12.259 105.539  1.00  0.00     0.012 C 
ATOM      8  C   UNL     1      41.991  10.537 107.366  1.00  0.00     0.012 C 
ENDBRANCH   5   6
ENDBRANCH   3   4
ENDBRANCH   2   3
ENDBRANCH   1   2
BRANCH   1   9
ATOM      9  C   UNL     1      36.329  11.582 106.024  1.00  0.00     0.100 C 
BRANCH   9  10
ATOM     10  C   UNL     1      35.646  10.940 107.193  1.00  0.00     0.220 C 
ATOM     11  O   UNL     1      35.777  11.443 108.341  1.00  0.00    -0.275 OA
ATOM     12  N   UNL     1      34.886   9.736 107.011  1.00  0.00    -0.352 N 
ATOM     13  H   UNL     1      34.807   9.329 106.053  1.00  0.00     0.163 HD
BRANCH  12  14
ATOM     14  C   UNL     1      34.269   9.019 108.124  1.00  0.00     0.151 C 
BRANCH  14  15
ATOM     15  C   UNL     1      33.233   8.049 107.620  1.00  0.00    -0.025 A 
ATOM     16  C   UNL     1      33.320   6.688 107.955  1.00  0.00     0.056 A 
ATOM     17  C   UNL     1      32.182   8.492 106.801  1.00  0.00     0.009 A 
ATOM     18  C   UNL     1      32.365   5.769 107.474  1.00  0.00     0.160 A 
ATOM     19  C   UNL     1      31.230   7.585 106.325  1.00  0.00     0.050 A 
ATOM     20  C   UNL     1      31.319   6.228 106.658  1.00  0.00     0.157 A 
BRANCH  18  21
ATOM     21  O   UNL     1      32.421   4.401 107.780  1.00  0.00    -0.493 OA
ATOM     22  C   UNL     1      33.357   3.487 107.218  1.00  0.00     0.278 C 
ENDBRANCH  18  21
BRANCH  20  23
ATOM     23  O   UNL     1      30.370   5.325 106.183  1.00  0.00    -0.504 OA
ATOM     24  H   UNL     1      29.832   4.740 106.812  1.00  0.00     0.293 HD
ENDBRANCH  20  23
ENDBRANCH  14  15
ENDBRANCH  12  14
ENDBRANCH   9  10
ENDBRANCH   1   9
TORSDOF 10
ENDMDL
