MODEL 1
REMARK VINA RESULT:    -3.183      0.000      0.000
REMARK INTER + INTRA:          -5.798
REMARK INTER:                  -4.857
REMARK INTRA:                  -0.941
REMARK UNBOUND:                -0.941
REMARK SMILES O=C([O-])CCCCCCCCC(=O)[O-]
REMARK SMILES IDX 7 1 6 2 5 3 4 4 2 5 1 6 3 7 8 8 9 9 10 10 11 11 12 12 13 13
REMARK SMILES IDX 14 14
REMARK H PARENT
REMARK Flexibility Score: inf
ROOT
ATOM      1  C   UNL     1      17.281   1.460  39.531  1.00  0.00     0.000 C 
ENDROOT
BRANCH   1   2
ATOM      2  C   UNL     1      15.756   1.615  39.505  1.00  0.00     0.000 C 
BRANCH   2   3
ATOM      3  C   UNL     1      15.355   3.051  39.146  1.00  0.00     0.006 C 
BRANCH   3   4
ATOM      4  C   UNL     1      14.586   3.093  37.823  1.00  0.00     0.053 C 
BRANCH   4   5
ATOM      5  C   UNL     1      15.294   3.962  36.832  1.00  0.00     0.041 C 
ATOM      6  O   UNL     1      16.489   3.723  36.520  1.00  0.00    -0.550 OA
ATOM      7  O   UNL     1      14.649   5.067  36.291  1.00  0.00    -0.550 OA
ENDBRANCH   4   5
ENDBRANCH   3   4
ENDBRANCH   2   3
ENDBRANCH   1   2
BRANCH   1   8
ATOM      8  C   UNL     1      17.796   0.858  38.217  1.00  0.00     0.000 C 
BRANCH   8   9
ATOM      9  C   UNL     1      16.745  -0.060  37.583  1.00  0.00     0.000 C 
BRANCH   9  10
ATOM     10  C   UNL     1      16.525   0.293  36.107  1.00  0.00     0.006 C 
BRANCH  10  11
ATOM     11  C   UNL     1      15.131  -0.138  35.641  1.00  0.00     0.053 C 
BRANCH  11  12
ATOM     12  C   UNL     1      15.101  -0.296  34.154  1.00  0.00     0.041 C 
ATOM     13  O   UNL     1      14.029  -0.119  33.519  1.00  0.00    -0.550 OA
ATOM     14  O   UNL     1      16.270  -0.590  33.463  1.00  0.00    -0.550 OA
ENDBRANCH  11  12
ENDBRANCH  10  11
ENDBRANCH   9  10
ENDBRANCH   8   9
ENDBRANCH   1   8
TORSDOF 9
ENDMDL
MODEL 2
REMARK VINA RESULT:    -3.154      1.711      5.227
REMARK INTER + INTRA:          -5.754
REMARK INTER:                  -5.096
REMARK INTRA:                  -0.658
REMARK UNBOUND:                -0.941
REMARK SMILES O=C([O-])CCCCCCCCC(=O)[O-]
REMARK SMILES IDX 7 1 6 2 5 3 4 4 2 5 1 6 3 7 8 8 9 9 10 10 11 11 12 12 13 13
REMARK SMILES IDX 14 14
REMARK H PARENT
REMARK Flexibility Score: inf
ROOT
ATOM      1  C   UNL     1      14.575   1.208  38.518  1.00  0.00     0.000 C 
ENDROOT
BRANCH   1   2
ATOM      2  C   UNL     1      14.249   0.567  37.164  1.00  0.00     0.000 C 
BRANCH   2   3
ATOM      3  C   UNL     1      15.298   0.940  36.111  1.00  0.00     0.006 C 
BRANCH   3   4
ATOM      4  C   UNL     1      15.893  -0.311  35.458  1.00  0.00     0.053 C 
BRANCH   4   5
ATOM      5  C   UNL     1      15.451  -0.421  34.033  1.00  0.00     0.041 C 
ATOM      6  O   UNL     1      16.281  -0.712  33.134  1.00  0.00    -0.550 OA
ATOM      7  O   UNL     1      14.131  -0.152  33.692  1.00  0.00    -0.550 OA
ENDBRANCH   4   5
ENDBRANCH   3   4
ENDBRANCH   2   3
ENDBRANCH   1   2
BRANCH   1   8
ATOM      8  C   UNL     1      14.574   2.739  38.417  1.00  0.00     0.000 C 
BRANCH   8   9
ATOM      9  C   UNL     1      15.790   3.338  39.133  1.00  0.00     0.000 C 
BRANCH   9  10
ATOM     10  C   UNL     1      16.675   4.120  38.155  1.00  0.00     0.006 C 
BRANCH  10  11
ATOM     11  C   UNL     1      15.876   4.566  36.927  1.00  0.00     0.053 C 
BRANCH  11  12
ATOM     12  C   UNL     1      16.182   5.991  36.592  1.00  0.00     0.041 C 
ATOM     13  O   UNL     1      15.743   6.500  35.528  1.00  0.00    -0.550 OA
ATOM     14  O   UNL     1      16.910   6.773  37.480  1.00  0.00    -0.550 OA
ENDBRANCH  11  12
ENDBRANCH  10  11
ENDBRANCH   9  10
ENDBRANCH   8   9
ENDBRANCH   1   8
TORSDOF 9
ENDMDL
MODEL 3
REMARK VINA RESULT:    -3.082      9.462     11.149
REMARK INTER + INTRA:          -5.645
REMARK INTER:                  -5.207
REMARK INTRA:                  -0.437
REMARK UNBOUND:                -0.941
REMARK SMILES O=C([O-])CCCCCCCCC(=O)[O-]
REMARK SMILES IDX 7 1 6 2 5 3 4 4 2 5 1 6 3 7 8 8 9 9 10 10 11 11 12 12 13 13
REMARK SMILES IDX 14 14
REMARK H PARENT
REMARK Flexibility Score: inf
ROOT
ATOM      1  C   UNL     1       9.921   0.152  45.223  1.00  0.00     0.000 C 
ENDROOT
BRANCH   1   2
ATOM      2  C   UNL     1       9.384   1.106  46.297  1.00  0.00     0.000 C 
BRANCH   2   3
ATOM      3  C   UNL     1       8.115   1.818  45.815  1.00  0.00     0.006 C 
BRANCH   3   4
ATOM      4  C   UNL     1       7.563   1.161  44.547  1.00  0.00     0.053 C 
BRANCH   4   5
ATOM      5  C   UNL     1       6.141   0.743  44.750  1.00  0.00     0.041 C 
ATOM      6  O   UNL     1       5.873  -0.284  45.425  1.00  0.00    -0.550 OA
ATOM      7  O   UNL     1       5.113   1.460  44.150  1.00  0.00    -0.550 OA
ENDBRANCH   4   5
ENDBRANCH   3   4
ENDBRANCH   2   3
ENDBRANCH   1   2
BRANCH   1   8
ATOM      8  C   UNL     1      11.294  -0.407  45.620  1.00  0.00     0.000 C 
BRANCH   8   9
ATOM      9  C   UNL     1      12.187  -0.597  44.388  1.00  0.00     0.000 C 
BRANCH   9  10
ATOM     10  C   UNL     1      13.660  -0.345  44.733  1.00  0.00     0.006 C 
BRANCH  10  11
ATOM     11  C   UNL     1      13.790   0.562  45.960  1.00  0.00     0.053 C 
BRANCH  11  12
ATOM     12  C   UNL     1      15.190   1.074  46.087  1.00  0.00     0.041 C 
ATOM     13  O   UNL     1      15.965   1.053  45.095  1.00  0.00    -0.550 OA
ATOM     14  O   UNL     1      15.624   1.621  47.288  1.00  0.00    -0.550 OA
ENDBRANCH  11  12
ENDBRANCH  10  11
ENDBRANCH   9  10
ENDBRANCH   8   9
ENDBRANCH   1   8
TORSDOF 9
ENDMDL
MODEL 4
REMARK VINA RESULT:    -3.073      9.678     11.069
REMARK INTER + INTRA:          -5.630
REMARK INTER:                  -5.311
REMARK INTRA:                  -0.319
REMARK UNBOUND:                -0.941
REMARK SMILES O=C([O-])CCCCCCCCC(=O)[O-]
REMARK SMILES IDX 7 1 6 2 5 3 4 4 2 5 1 6 3 7 8 8 9 9 10 10 11 11 12 12 13 13
REMARK SMILES IDX 14 14
REMARK H PARENT
REMARK Flexibility Score: inf
ROOT
ATOM      1  C   UNL     1       8.397   0.818  46.297  1.00  0.00     0.000 C 
ENDROOT
BRANCH   1   2
ATOM      2  C   UNL     1       7.899   1.127  44.880  1.00  0.00     0.000 C 
BRANCH   2   3
ATOM      3  C   UNL     1       6.401   0.830  44.746  1.00  0.00     0.006 C 
BRANCH   3   4
ATOM      4  C   UNL     1       5.666   1.997  44.080  1.00  0.00     0.053 C 
BRANCH   4   5
ATOM      5  C   UNL     1       6.027   3.290  44.740  1.00  0.00     0.041 C 
ATOM      6  O   UNL     1       6.705   4.150  44.121  1.00  0.00    -0.550 OA
ATOM      7  O   UNL     1       5.655   3.524  46.058  1.00  0.00    -0.550 OA
ENDBRANCH   4   5
ENDBRANCH   3   4
ENDBRANCH   2   3
ENDBRANCH   1   2
BRANCH   1   8
ATOM      8  C   UNL     1       9.529  -0.216  46.270  1.00  0.00     0.000 C 
BRANCH   8   9
ATOM      9  C   UNL     1      10.446   0.002  45.060  1.00  0.00     0.000 C 
BRANCH   9  10
ATOM     10  C   UNL     1      11.904  -0.313  45.412  1.00  0.00     0.006 C 
BRANCH  10  11
ATOM     11  C   UNL     1      12.721  -0.614  44.151  1.00  0.00     0.053 C 
BRANCH  11  12
ATOM     12  C   UNL     1      14.111  -1.029  44.514  1.00  0.00     0.041 C 
ATOM     13  O   UNL     1      14.447  -2.241  44.457  1.00  0.00    -0.550 OA
ATOM     14  O   UNL     1      15.053  -0.070  44.867  1.00  0.00    -0.550 OA
ENDBRANCH  11  12
ENDBRANCH  10  11
ENDBRANCH   9  10
ENDBRANCH   8   9
ENDBRANCH   1   8
TORSDOF 9
ENDMDL
MODEL 5
REMARK VINA RESULT:    -3.052      9.674     11.410
REMARK INTER + INTRA:          -5.599
REMARK INTER:                  -5.237
REMARK INTRA:                  -0.362
REMARK UNBOUND:                -0.941
REMARK SMILES O=C([O-])CCCCCCCCC(=O)[O-]
REMARK SMILES IDX 7 1 6 2 5 3 4 4 2 5 1 6 3 7 8 8 9 9 10 10 11 11 12 12 13 13
REMARK SMILES IDX 14 14
REMARK H PARENT
REMARK Flexibility Score: inf
ROOT
ATOM      1  C   UNL     1       9.895   0.367  45.749  1.00  0.00     0.000 C 
ENDROOT
BRANCH   1   2
ATOM      2  C   UNL     1      11.376   0.208  46.112  1.00  0.00     0.000 C 
BRANCH   2   3
ATOM      3  C   UNL     1      11.976  -1.037  45.446  1.00  0.00     0.006 C 
BRANCH   3   4
ATOM      4  C   UNL     1      12.796  -0.658  44.210  1.00  0.00     0.053 C 
BRANCH   4   5
ATOM      5  C   UNL     1      14.260  -0.717  44.513  1.00  0.00     0.041 C 
ATOM      6  O   UNL     1      14.882  -1.806  44.420  1.00  0.00    -0.550 OA
ATOM      7  O   UNL     1      14.926   0.423  44.946  1.00  0.00    -0.550 OA
ENDBRANCH   4   5
ENDBRANCH   3   4
ENDBRANCH   2   3
ENDBRANCH   1   2
BRANCH   1   8
ATOM      8  C   UNL     1       9.270   1.552  46.496  1.00  0.00     0.000 C 
BRANCH   8   9
ATOM      9  C   UNL     1       7.889   1.896  45.923  1.00  0.00     0.000 C 
BRANCH   9  10
ATOM     10  C   UNL     1       7.614   1.107  44.639  1.00  0.00     0.006 C 
BRANCH  10  11
ATOM     11  C   UNL     1       6.152   0.652  44.576  1.00  0.00     0.053 C 
BRANCH  11  12
ATOM     12  C   UNL     1       5.256   1.809  44.267  1.00  0.00     0.041 C 
ATOM     13  O   UNL     1       4.107   1.874  44.777  1.00  0.00    -0.550 OA
ATOM     14  O   UNL     1       5.709   2.842  43.456  1.00  0.00    -0.550 OA
ENDBRANCH  11  12
ENDBRANCH  10  11
ENDBRANCH   9  10
ENDBRANCH   8   9
ENDBRANCH   1   8
TORSDOF 9
ENDMDL
MODEL 6
REMARK VINA RESULT:    -3.041      3.135      6.187
REMARK INTER + INTRA:          -5.582
REMARK INTER:                  -5.205
REMARK INTRA:                  -0.376
REMARK UNBOUND:                -0.941
REMARK SMILES O=C([O-])CCCCCCCCC(=O)[O-]
REMARK SMILES IDX 7 1 6 2 5 3 4 4 2 5 1 6 3 7 8 8 9 9 10 10 11 11 12 12 13 13
REMARK SMILES IDX 14 14
REMARK H PARENT
REMARK Flexibility Score: inf
ROOT
ATOM      1  C   UNL     1      14.787   1.283  38.556  1.00  0.00     0.000 C 
ENDROOT
BRANCH   1   2
ATOM      2  C   UNL     1      14.345   0.629  37.242  1.00  0.00     0.000 C 
BRANCH   2   3
ATOM      3  C   UNL     1      15.389   0.846  36.140  1.00  0.00     0.006 C 
BRANCH   3   4
ATOM      4  C   UNL     1      15.379  -0.310  35.136  1.00  0.00     0.053 C 
BRANCH   4   5
ATOM      5  C   UNL     1      14.932   0.167  33.791  1.00  0.00     0.041 C 
ATOM      6  O   UNL     1      13.818  -0.193  33.329  1.00  0.00    -0.550 OA
ATOM      7  O   UNL     1      15.767   0.971  33.025  1.00  0.00    -0.550 OA
ENDBRANCH   4   5
ENDBRANCH   3   4
ENDBRANCH   2   3
ENDBRANCH   1   2
BRANCH   1   8
ATOM      8  C   UNL     1      14.995   2.792  38.377  1.00  0.00     0.000 C 
BRANCH   8   9
ATOM      9  C   UNL     1      15.866   3.365  39.501  1.00  0.00     0.000 C 
BRANCH   9  10
ATOM     10  C   UNL     1      16.208   2.287  40.536  1.00  0.00     0.006 C 
BRANCH  10  11
ATOM     11  C   UNL     1      16.559   2.915  41.889  1.00  0.00     0.053 C 
BRANCH  11  12
ATOM     12  C   UNL     1      17.141   1.888  42.808  1.00  0.00     0.041 C 
ATOM     13  O   UNL     1      18.386   1.702  42.843  1.00  0.00    -0.550 OA
ATOM     14  O   UNL     1      16.313   1.171  43.662  1.00  0.00    -0.550 OA
ENDBRANCH  11  12
ENDBRANCH  10  11
ENDBRANCH   9  10
ENDBRANCH   8   9
ENDBRANCH   1   8
TORSDOF 9
ENDMDL
MODEL 7
REMARK VINA RESULT:    -3.032      2.790      5.693
REMARK INTER + INTRA:          -5.569
REMARK INTER:                  -4.700
REMARK INTRA:                  -0.868
REMARK UNBOUND:                -0.941
REMARK SMILES O=C([O-])CCCCCCCCC(=O)[O-]
REMARK SMILES IDX 7 1 6 2 5 3 4 4 2 5 1 6 3 7 8 8 9 9 10 10 11 11 12 12 13 13
REMARK SMILES IDX 14 14
REMARK H PARENT
REMARK Flexibility Score: inf
ROOT
ATOM      1  C   UNL     1      17.749   1.596  33.356  1.00  0.00     0.000 C 
ENDROOT
BRANCH   1   2
ATOM      2  C   UNL     1      16.352   1.180  32.880  1.00  0.00     0.000 C 
BRANCH   2   3
ATOM      3  C   UNL     1      15.965  -0.193  33.441  1.00  0.00     0.006 C 
BRANCH   3   4
ATOM      4  C   UNL     1      14.769  -0.084  34.391  1.00  0.00     0.053 C 
BRANCH   4   5
ATOM      5  C   UNL     1      15.231  -0.026  35.812  1.00  0.00     0.041 C 
ATOM      6  O   UNL     1      16.339  -0.526  36.139  1.00  0.00    -0.550 OA
ATOM      7  O   UNL     1      14.415   0.535  36.786  1.00  0.00    -0.550 OA
ENDBRANCH   4   5
ENDBRANCH   3   4
ENDBRANCH   2   3
ENDBRANCH   1   2
BRANCH   1   8
ATOM      8  C   UNL     1      17.661   2.547  34.556  1.00  0.00     0.000 C 
BRANCH   8   9
ATOM      9  C   UNL     1      16.451   3.481  34.432  1.00  0.00     0.000 C 
BRANCH   9  10
ATOM     10  C   UNL     1      15.841   3.776  35.807  1.00  0.00     0.006 C 
BRANCH  10  11
ATOM     11  C   UNL     1      15.171   5.154  35.827  1.00  0.00     0.053 C 
BRANCH  11  12
ATOM     12  C   UNL     1      16.164   6.213  36.188  1.00  0.00     0.041 C 
ATOM     13  O   UNL     1      16.159   7.318  35.583  1.00  0.00    -0.550 OA
ATOM     14  O   UNL     1      17.062   6.000  37.226  1.00  0.00    -0.550 OA
ENDBRANCH  11  12
ENDBRANCH  10  11
ENDBRANCH   9  10
ENDBRANCH   8   9
ENDBRANCH   1   8
TORSDOF 9
ENDMDL
MODEL 8
REMARK VINA RESULT:    -2.979      4.478      6.589
REMARK INTER + INTRA:          -5.487
REMARK INTER:                  -4.918
REMARK INTRA:                  -0.569
REMARK UNBOUND:                -0.941
REMARK SMILES O=C([O-])CCCCCCCCC(=O)[O-]
REMARK SMILES IDX 7 1 6 2 5 3 4 4 2 5 1 6 3 7 8 8 9 9 10 10 11 11 12 12 13 13
REMARK SMILES IDX 14 14
REMARK H PARENT
REMARK Flexibility Score: inf
ROOT
ATOM      1  C   UNL     1      16.592   2.256  41.183  1.00  0.00     0.000 C 
ENDROOT
BRANCH   1   2
ATOM      2  C   UNL     1      15.948   3.382  40.366  1.00  0.00     0.000 C 
BRANCH   2   3
ATOM      3  C   UNL     1      16.002   3.072  38.865  1.00  0.00     0.006 C 
BRANCH   3   4
ATOM      4  C   UNL     1      14.605   2.774  38.314  1.00  0.00     0.053 C 
BRANCH   4   5
ATOM      5  C   UNL     1      14.389   1.298  38.200  1.00  0.00     0.041 C 
ATOM      6  O   UNL     1      13.224   0.825  38.225  1.00  0.00    -0.550 OA
ATOM      7  O   UNL     1      15.480   0.441  38.117  1.00  0.00    -0.550 OA
ENDBRANCH   4   5
ENDBRANCH   3   4
ENDBRANCH   2   3
ENDBRANCH   1   2
BRANCH   1   8
ATOM      8  C   UNL     1      18.029   1.990  40.718  1.00  0.00     0.000 C 
BRANCH   8   9
ATOM      9  C   UNL     1      19.000   3.016  41.315  1.00  0.00     0.000 C 
BRANCH   9  10
ATOM     10  C   UNL     1      19.924   2.362  42.350  1.00  0.00     0.006 C 
BRANCH  10  11
ATOM     11  C   UNL     1      19.850   0.835  42.266  1.00  0.00     0.053 C 
BRANCH  11  12
ATOM     12  C   UNL     1      19.693   0.242  43.630  1.00  0.00     0.041 C 
ATOM     13  O   UNL     1      19.381   0.972  44.607  1.00  0.00    -0.550 OA
ATOM     14  O   UNL     1      19.843  -1.127  43.814  1.00  0.00    -0.550 OA
ENDBRANCH  11  12
ENDBRANCH  10  11
ENDBRANCH   9  10
ENDBRANCH   8   9
ENDBRANCH   1   8
TORSDOF 9
ENDMDL
MODEL 9
REMARK VINA RESULT:    -2.954      2.522      5.019
REMARK INTER + INTRA:          -5.450
REMARK INTER:                  -4.564
REMARK INTRA:                  -0.886
REMARK UNBOUND:                -0.941
REMARK SMILES O=C([O-])CCCCCCCCC(=O)[O-]
REMARK SMILES IDX 7 1 6 2 5 3 4 4 2 5 1 6 3 7 8 8 9 9 10 10 11 11 12 12 13 13
REMARK SMILES IDX 14 14
REMARK H PARENT
REMARK Flexibility Score: inf
ROOT
ATOM      1  C   UNL     1      16.771  -0.087  33.608  1.00  0.00     0.000 C 
ENDROOT
BRANCH   1   2
ATOM      2  C   UNL     1      15.239  -0.053  33.626  1.00  0.00     0.000 C 
BRANCH   2   3
ATOM      3  C   UNL     1      14.705  -0.022  35.063  1.00  0.00     0.006 C 
BRANCH   3   4
ATOM      4  C   UNL     1      15.852  -0.053  36.076  1.00  0.00     0.053 C 
BRANCH   4   5
ATOM      5  C   UNL     1      15.379   0.406  37.419  1.00  0.00     0.041 C 
ATOM      6  O   UNL     1      14.156   0.626  37.618  1.00  0.00    -0.550 OA
ATOM      7  O   UNL     1      16.295   0.639  38.437  1.00  0.00    -0.550 OA
ENDBRANCH   4   5
ENDBRANCH   3   4
ENDBRANCH   2   3
ENDBRANCH   1   2
BRANCH   1   8
ATOM      8  C   UNL     1      17.342   1.159  32.920  1.00  0.00     0.000 C 
BRANCH   8   9
ATOM      9  C   UNL     1      16.305   2.287  32.875  1.00  0.00     0.000 C 
BRANCH   9  10
ATOM     10  C   UNL     1      16.856   3.568  33.512  1.00  0.00     0.006 C 
BRANCH  10  11
ATOM     11  C   UNL     1      16.880   3.457  35.039  1.00  0.00     0.053 C 
BRANCH  11  12
ATOM     12  C   UNL     1      15.758   4.243  35.640  1.00  0.00     0.041 C 
ATOM     13  O   UNL     1      15.113   3.782  36.617  1.00  0.00    -0.550 OA
ATOM     14  O   UNL     1      15.458   5.509  35.152  1.00  0.00    -0.550 OA
ENDBRANCH  11  12
ENDBRANCH  10  11
ENDBRANCH   9  10
ENDBRANCH   8   9
ENDBRANCH   1   8
TORSDOF 9
ENDMDL
