MODEL 1
REMARK VINA RESULT:    -5.128      0.000      0.000
REMARK INTER + INTRA:          -5.128
REMARK INTER:                  -5.128
REMARK INTRA:                   0.000
REMARK UNBOUND:                 0.000
REMARK SMILES O=c1ccc2ccc3occc3c2o1
REMARK SMILES IDX 6 1 7 2 8 3 12 4 11 5 10 6 9 7 13 8 5 9 4 10 3 11 2 12 1 13
REMARK SMILES IDX 14 14
REMARK H PARENT
REMARK Flexibility Score: inf
ROOT
ATOM      1  C   UNL     1      16.421  -9.137   9.625  1.00  0.00     0.016 A 
ATOM      2  C   UNL     1      17.692  -8.614   9.925  1.00  0.00     0.048 A 
ATOM      3  C   UNL     1      18.004  -7.338   9.458  1.00  0.00     0.137 A 
ATOM      4  C   UNL     1      17.113  -6.597   8.728  1.00  0.00     0.064 A 
ATOM      5  C   UNL     1      17.731  -5.404   8.433  1.00  0.00     0.054 A 
ATOM      6  C   UNL     1      18.988  -5.507   9.019  1.00  0.00     0.196 A 
ATOM      7  O   UNL     1      19.122  -6.674   9.625  1.00  0.00    -0.464 OA
ATOM      8  C   UNL     1      15.844  -7.079   8.411  1.00  0.00     0.149 A 
ATOM      9  C   UNL     1      15.495  -8.374   8.871  1.00  0.00     0.018 A 
ATOM     10  C   UNL     1      14.224  -8.864   8.557  1.00  0.00     0.019 A 
ATOM     11  C   UNL     1      13.351  -8.072   7.810  1.00  0.00     0.094 A 
ATOM     12  C   UNL     1      13.768  -6.802   7.393  1.00  0.00     0.336 A 
ATOM     13  O   UNL     1      12.992  -6.075   6.718  1.00  0.00    -0.246 OA
ATOM     14  O   UNL     1      14.984  -6.355   7.702  1.00  0.00    -0.422 OA
ENDROOT
TORSDOF 0
ENDMDL
MODEL 2
REMARK VINA RESULT:    -5.128      2.124      3.970
REMARK INTER + INTRA:          -5.128
REMARK INTER:                  -5.128
REMARK INTRA:                   0.000
REMARK UNBOUND:                 0.000
REMARK SMILES O=c1ccc2ccc3occc3c2o1
REMARK SMILES IDX 6 1 7 2 8 3 12 4 11 5 10 6 9 7 13 8 5 9 4 10 3 11 2 12 1 13
REMARK SMILES IDX 14 14
REMARK H PARENT
REMARK Flexibility Score: inf
ROOT
ATOM      1  C   UNL     1      18.056  -8.772  10.034  1.00  0.00     0.016 A 
ATOM      2  C   UNL     1      17.492  -9.994   9.622  1.00  0.00     0.048 A 
ATOM      3  C   UNL     1      16.723 -10.002   8.459  1.00  0.00     0.137 A 
ATOM      4  C   UNL     1      16.513  -8.867   7.723  1.00  0.00     0.064 A 
ATOM      5  C   UNL     1      15.724  -9.223   6.654  1.00  0.00     0.054 A 
ATOM      6  C   UNL     1      15.505 -10.586   6.820  1.00  0.00     0.196 A 
ATOM      7  O   UNL     1      16.115 -11.024   7.907  1.00  0.00    -0.464 OA
ATOM      8  C   UNL     1      17.055  -7.639   8.097  1.00  0.00     0.149 A 
ATOM      9  C   UNL     1      17.841  -7.595   9.276  1.00  0.00     0.018 A 
ATOM     10  C   UNL     1      18.388  -6.366   9.658  1.00  0.00     0.019 A 
ATOM     11  C   UNL     1      18.145  -5.236   8.876  1.00  0.00     0.094 A 
ATOM     12  C   UNL     1      17.358  -5.360   7.724  1.00  0.00     0.336 A 
ATOM     13  O   UNL     1      17.129  -4.349   7.008  1.00  0.00    -0.246 OA
ATOM     14  O   UNL     1      16.846  -6.540   7.379  1.00  0.00    -0.422 OA
ENDROOT
TORSDOF 0
ENDMDL
MODEL 3
REMARK VINA RESULT:    -5.109      1.286      2.890
REMARK INTER + INTRA:          -5.109
REMARK INTER:                  -5.109
REMARK INTRA:                   0.000
REMARK UNBOUND:                 0.000
REMARK SMILES O=c1ccc2ccc3occc3c2o1
REMARK SMILES IDX 6 1 7 2 8 3 12 4 11 5 10 6 9 7 13 8 5 9 4 10 3 11 2 12 1 13
REMARK SMILES IDX 14 14
REMARK H PARENT
REMARK Flexibility Score: inf
ROOT
ATOM      1  C   UNL     1      17.876  -5.159   9.088  1.00  0.00     0.016 A 
ATOM      2  C   UNL     1      18.558  -6.265   9.629  1.00  0.00     0.048 A 
ATOM      3  C   UNL     1      17.938  -7.512   9.568  1.00  0.00     0.137 A 
ATOM      4  C   UNL     1      16.704  -7.679   9.001  1.00  0.00     0.064 A 
ATOM      5  C   UNL     1      16.392  -9.015   9.105  1.00  0.00     0.054 A 
ATOM      6  C   UNL     1      17.490  -9.581   9.744  1.00  0.00     0.196 A 
ATOM      7  O   UNL     1      18.398  -8.658  10.009  1.00  0.00    -0.464 OA
ATOM      8  C   UNL     1      15.996  -6.610   8.454  1.00  0.00     0.149 A 
ATOM      9  C   UNL     1      16.598  -5.326   8.500  1.00  0.00     0.018 A 
ATOM     10  C   UNL     1      15.894  -4.249   7.954  1.00  0.00     0.019 A 
ATOM     11  C   UNL     1      14.638  -4.469   7.387  1.00  0.00     0.094 A 
ATOM     12  C   UNL     1      14.110  -5.767   7.378  1.00  0.00     0.336 A 
ATOM     13  O   UNL     1      12.978  -5.981   6.870  1.00  0.00    -0.246 OA
ATOM     14  O   UNL     1      14.797  -6.778   7.905  1.00  0.00    -0.422 OA
ENDROOT
TORSDOF 0
ENDMDL
MODEL 4
REMARK VINA RESULT:    -5.058      1.111      4.238
REMARK INTER + INTRA:          -5.058
REMARK INTER:                  -5.058
REMARK INTRA:                   0.000
REMARK UNBOUND:                 0.000
REMARK SMILES O=c1ccc2ccc3occc3c2o1
REMARK SMILES IDX 6 1 7 2 8 3 12 4 11 5 10 6 9 7 13 8 5 9 4 10 3 11 2 12 1 13
REMARK SMILES IDX 14 14
REMARK H PARENT
REMARK Flexibility Score: inf
ROOT
ATOM      1  C   UNL     1      14.625  -8.805   8.618  1.00  0.00     0.016 A 
ATOM      2  C   UNL     1      13.642  -8.118   7.883  1.00  0.00     0.048 A 
ATOM      3  C   UNL     1      13.921  -6.816   7.469  1.00  0.00     0.137 A 
ATOM      4  C   UNL     1      15.112  -6.206   7.757  1.00  0.00     0.064 A 
ATOM      5  C   UNL     1      15.060  -4.946   7.207  1.00  0.00     0.054 A 
ATOM      6  C   UNL     1      13.807  -4.878   6.608  1.00  0.00     0.196 A 
ATOM      7  O   UNL     1      13.150  -6.011   6.780  1.00  0.00    -0.464 OA
ATOM      8  C   UNL     1      16.112  -6.852   8.482  1.00  0.00     0.149 A 
ATOM      9  C   UNL     1      15.859  -8.178   8.919  1.00  0.00     0.018 A 
ATOM     10  C   UNL     1      16.857  -8.832   9.647  1.00  0.00     0.019 A 
ATOM     11  C   UNL     1      18.054  -8.168   9.917  1.00  0.00     0.094 A 
ATOM     12  C   UNL     1      18.230  -6.859   9.450  1.00  0.00     0.336 A 
ATOM     13  O   UNL     1      19.305  -6.247   9.686  1.00  0.00    -0.246 OA
ATOM     14  O   UNL     1      17.266  -6.254   8.759  1.00  0.00    -0.422 OA
ENDROOT
TORSDOF 0
ENDMDL
MODEL 5
REMARK VINA RESULT:    -4.995      2.029      3.399
REMARK INTER + INTRA:          -4.995
REMARK INTER:                  -4.995
REMARK INTRA:                   0.000
REMARK UNBOUND:                 0.000
REMARK SMILES O=c1ccc2ccc3occc3c2o1
REMARK SMILES IDX 6 1 7 2 8 3 12 4 11 5 10 6 9 7 13 8 5 9 4 10 3 11 2 12 1 13
REMARK SMILES IDX 14 14
REMARK H PARENT
REMARK Flexibility Score: inf
ROOT
ATOM      1  C   UNL     1      18.290  -6.391   9.671  1.00  0.00     0.016 A 
ATOM      2  C   UNL     1      17.913  -5.076   9.339  1.00  0.00     0.048 A 
ATOM      3  C   UNL     1      16.745  -4.895   8.601  1.00  0.00     0.137 A 
ATOM      4  C   UNL     1      15.971  -5.951   8.201  1.00  0.00     0.064 A 
ATOM      5  C   UNL     1      14.907  -5.427   7.503  1.00  0.00     0.054 A 
ATOM      6  C   UNL     1      15.116  -4.052   7.529  1.00  0.00     0.196 A 
ATOM      7  O   UNL     1      16.222  -3.765   8.192  1.00  0.00    -0.464 OA
ATOM      8  C   UNL     1      16.309  -7.267   8.510  1.00  0.00     0.149 A 
ATOM      9  C   UNL     1      17.492  -7.487   9.260  1.00  0.00     0.018 A 
ATOM     10  C   UNL     1      17.838  -8.805   9.574  1.00  0.00     0.019 A 
ATOM     11  C   UNL     1      17.017  -9.849   9.143  1.00  0.00     0.094 A 
ATOM     12  C   UNL     1      15.863  -9.551   8.407  1.00  0.00     0.336 A 
ATOM     13  O   UNL     1      15.113 -10.482   8.012  1.00  0.00    -0.246 OA
ATOM     14  O   UNL     1      15.553  -8.289   8.119  1.00  0.00    -0.422 OA
ENDROOT
TORSDOF 0
ENDMDL
MODEL 6
REMARK VINA RESULT:    -4.988      2.188      3.896
REMARK INTER + INTRA:          -4.988
REMARK INTER:                  -4.988
REMARK INTRA:                   0.000
REMARK UNBOUND:                 0.000
REMARK SMILES O=c1ccc2ccc3occc3c2o1
REMARK SMILES IDX 6 1 7 2 8 3 12 4 11 5 10 6 9 7 13 8 5 9 4 10 3 11 2 12 1 13
REMARK SMILES IDX 14 14
REMARK H PARENT
REMARK Flexibility Score: inf
ROOT
ATOM      1  C   UNL     1      16.380  -8.040   6.323  1.00  0.00     0.016 A 
ATOM      2  C   UNL     1      16.245  -6.657   6.095  1.00  0.00     0.048 A 
ATOM      3  C   UNL     1      16.616  -5.784   7.116  1.00  0.00     0.137 A 
ATOM      4  C   UNL     1      17.102  -6.236   8.313  1.00  0.00     0.064 A 
ATOM      5  C   UNL     1      17.368  -5.127   9.082  1.00  0.00     0.054 A 
ATOM      6  C   UNL     1      17.015  -4.050   8.277  1.00  0.00     0.196 A 
ATOM      7  O   UNL     1      16.569  -4.474   7.107  1.00  0.00    -0.464 OA
ATOM      8  C   UNL     1      17.253  -7.596   8.578  1.00  0.00     0.149 A 
ATOM      9  C   UNL     1      16.883  -8.512   7.560  1.00  0.00     0.018 A 
ATOM     10  C   UNL     1      17.031  -9.878   7.818  1.00  0.00     0.019 A 
ATOM     11  C   UNL     1      17.531 -10.291   9.054  1.00  0.00     0.094 A 
ATOM     12  C   UNL     1      17.874  -9.325  10.009  1.00  0.00     0.336 A 
ATOM     13  O   UNL     1      18.327  -9.682  11.129  1.00  0.00    -0.246 OA
ATOM     14  O   UNL     1      17.725  -8.029   9.742  1.00  0.00    -0.422 OA
ENDROOT
TORSDOF 0
ENDMDL
MODEL 7
REMARK VINA RESULT:    -4.968      2.083      4.560
REMARK INTER + INTRA:          -4.968
REMARK INTER:                  -4.968
REMARK INTRA:                   0.000
REMARK UNBOUND:                 0.000
REMARK SMILES O=c1ccc2ccc3occc3c2o1
REMARK SMILES IDX 6 1 7 2 8 3 12 4 11 5 10 6 9 7 13 8 5 9 4 10 3 11 2 12 1 13
REMARK SMILES IDX 14 14
REMARK H PARENT
REMARK Flexibility Score: inf
ROOT
ATOM      1  C   UNL     1      14.790  -7.335   7.796  1.00  0.00     0.016 A 
ATOM      2  C   UNL     1      14.510  -8.693   7.555  1.00  0.00     0.048 A 
ATOM      3  C   UNL     1      15.500  -9.629   7.847  1.00  0.00     0.137 A 
ATOM      4  C   UNL     1      16.716  -9.261   8.356  1.00  0.00     0.064 A 
ATOM      5  C   UNL     1      17.446 -10.415   8.527  1.00  0.00     0.054 A 
ATOM      6  C   UNL     1      16.598 -11.430   8.099  1.00  0.00     0.196 A 
ATOM      7  O   UNL     1      15.442 -10.930   7.698  1.00  0.00    -0.464 OA
ATOM      8  C   UNL     1      17.033  -7.927   8.609  1.00  0.00     0.149 A 
ATOM      9  C   UNL     1      16.047  -6.948   8.322  1.00  0.00     0.018 A 
ATOM     10  C   UNL     1      16.357  -5.608   8.574  1.00  0.00     0.019 A 
ATOM     11  C   UNL     1      17.611  -5.282   9.092  1.00  0.00     0.094 A 
ATOM     12  C   UNL     1      18.531  -6.306   9.350  1.00  0.00     0.336 A 
ATOM     13  O   UNL     1      19.667  -6.027   9.818  1.00  0.00    -0.246 OA
ATOM     14  O   UNL     1      18.216  -7.575   9.103  1.00  0.00    -0.422 OA
ENDROOT
TORSDOF 0
ENDMDL
MODEL 8
REMARK VINA RESULT:    -4.854     15.314     16.756
REMARK INTER + INTRA:          -4.854
REMARK INTER:                  -4.854
REMARK INTRA:                   0.000
REMARK UNBOUND:                 0.000
REMARK SMILES O=c1ccc2ccc3occc3c2o1
REMARK SMILES IDX 6 1 7 2 8 3 12 4 11 5 10 6 9 7 13 8 5 9 4 10 3 11 2 12 1 13
REMARK SMILES IDX 14 14
REMARK H PARENT
REMARK Flexibility Score: inf
ROOT
ATOM      1  C   UNL     1      14.120 -14.861  22.164  1.00  0.00     0.016 A 
ATOM      2  C   UNL     1      13.832 -15.260  23.482  1.00  0.00     0.048 A 
ATOM      3  C   UNL     1      13.060 -16.406  23.667  1.00  0.00     0.137 A 
ATOM      4  C   UNL     1      12.588 -17.138  22.611  1.00  0.00     0.064 A 
ATOM      5  C   UNL     1      11.875 -18.189  23.139  1.00  0.00     0.054 A 
ATOM      6  C   UNL     1      11.967 -18.018  24.516  1.00  0.00     0.196 A 
ATOM      7  O   UNL     1      12.682 -16.944  24.801  1.00  0.00    -0.464 OA
ATOM      8  C   UNL     1      12.852 -16.777  21.291  1.00  0.00     0.149 A 
ATOM      9  C   UNL     1      13.634 -15.615  21.068  1.00  0.00     0.018 A 
ATOM     10  C   UNL     1      13.904 -15.246  19.746  1.00  0.00     0.019 A 
ATOM     11  C   UNL     1      13.399 -16.024  18.703  1.00  0.00     0.094 A 
ATOM     12  C   UNL     1      12.635 -17.159  19.004  1.00  0.00     0.336 A 
ATOM     13  O   UNL     1      12.174 -17.870  18.073  1.00  0.00    -0.246 OA
ATOM     14  O   UNL     1      12.390 -17.491  20.269  1.00  0.00    -0.422 OA
ENDROOT
TORSDOF 0
ENDMDL
MODEL 9
REMARK VINA RESULT:    -4.838      2.416      3.798
REMARK INTER + INTRA:          -4.838
REMARK INTER:                  -4.838
REMARK INTRA:                   0.000
REMARK UNBOUND:                 0.000
REMARK SMILES O=c1ccc2ccc3occc3c2o1
REMARK SMILES IDX 6 1 7 2 8 3 12 4 11 5 10 6 9 7 13 8 5 9 4 10 3 11 2 12 1 13
REMARK SMILES IDX 14 14
REMARK H PARENT
REMARK Flexibility Score: inf
ROOT
ATOM      1  C   UNL     1      16.560  -7.839   6.179  1.00  0.00     0.016 A 
ATOM      2  C   UNL     1      16.794  -9.152   6.629  1.00  0.00     0.048 A 
ATOM      3  C   UNL     1      17.165  -9.332   7.961  1.00  0.00     0.137 A 
ATOM      4  C   UNL     1      17.302  -8.278   8.823  1.00  0.00     0.064 A 
ATOM      5  C   UNL     1      17.671  -8.801  10.040  1.00  0.00     0.054 A 
ATOM      6  C   UNL     1      17.734 -10.173   9.826  1.00  0.00     0.196 A 
ATOM      7  O   UNL     1      17.426 -10.461   8.574  1.00  0.00    -0.464 OA
ATOM      8  C   UNL     1      17.078  -6.963   8.416  1.00  0.00     0.149 A 
ATOM      9  C   UNL     1      16.700  -6.744   7.067  1.00  0.00     0.018 A 
ATOM     10  C   UNL     1      16.474  -5.429   6.651  1.00  0.00     0.019 A 
ATOM     11  C   UNL     1      16.628  -4.386   7.567  1.00  0.00     0.094 A 
ATOM     12  C   UNL     1      17.003  -4.683   8.883  1.00  0.00     0.336 A 
ATOM     13  O   UNL     1      17.145  -3.753   9.720  1.00  0.00    -0.246 OA
ATOM     14  O   UNL     1      17.214  -5.943   9.258  1.00  0.00    -0.422 OA
ENDROOT
TORSDOF 0
ENDMDL
