MODEL 1
REMARK VINA RESULT:    -5.258      0.000      0.000
REMARK INTER + INTRA:          -9.437
REMARK INTER:                  -8.024
REMARK INTRA:                  -1.413
REMARK UNBOUND:                -1.413
REMARK SMILES CC(=O)CCC=C(C)CCC=C(C)CCC=C(C)C
REMARK SMILES IDX 10 1 11 2 12 3 13 4 14 5 15 6 16 7 18 8 17 9 19 10 9 11 7 12
REMARK SMILES IDX 6 13 8 14 5 15 4 16 2 17 3 18 1 19
REMARK H PARENT
REMARK Flexibility Score: inf
ROOT
ATOM      1  C   UNL     1      36.445  42.135 148.056  1.00  0.00     0.032 C 
ENDROOT
BRANCH   1   2
ATOM      2  C   UNL     1      37.160  43.048 147.089  1.00  0.00    -0.028 C 
ATOM      3  C   UNL     1      37.154  42.913 145.743  1.00  0.00    -0.077 C 
ATOM      4  C   UNL     1      37.988  43.868 144.928  1.00  0.00     0.039 C 
BRANCH   3   5
ATOM      5  C   UNL     1      36.322  41.868 145.022  1.00  0.00     0.034 C 
BRANCH   5   6
ATOM      6  C   UNL     1      35.111  42.488 144.312  1.00  0.00     0.032 C 
BRANCH   6   7
ATOM      7  C   UNL     1      35.067  42.092 142.854  1.00  0.00    -0.028 C 
ATOM      8  C   UNL     1      32.798  43.080 142.466  1.00  0.00     0.039 C 
ATOM      9  C   UNL     1      34.051  42.373 142.008  1.00  0.00    -0.080 C 
ATOM     10  C   UNL     1      34.187  41.966 140.564  1.00  0.00     0.039 C 
ENDBRANCH   6   7
ENDBRANCH   5   6
ENDBRANCH   3   5
ENDBRANCH   1   2
BRANCH   1  11
ATOM     11  C   UNL     1      35.057  42.680 148.425  1.00  0.00     0.034 C 
BRANCH  11  12
ATOM     12  C   UNL     1      34.101  41.571 148.817  1.00  0.00    -0.077 C 
ATOM     13  C   UNL     1      32.833  41.888 149.167  1.00  0.00    -0.028 C 
ATOM     14  C   UNL     1      34.599  40.144 148.828  1.00  0.00     0.039 C 
BRANCH  13  15
ATOM     15  C   UNL     1      31.776  40.883 149.546  1.00  0.00     0.035 C 
BRANCH  15  16
ATOM     16  C   UNL     1      30.705  40.782 148.456  1.00  0.00     0.079 C 
BRANCH  16  17
ATOM     17  C   UNL     1      31.200  39.957 147.297  1.00  0.00     0.130 C 
ATOM     18  O   UNL     1      31.502  38.787 147.479  1.00  0.00    -0.300 OA
ATOM     19  C   UNL     1      31.324  40.538 145.921  1.00  0.00     0.087 C 
ENDBRANCH  16  17
ENDBRANCH  15  16
ENDBRANCH  13  15
ENDBRANCH  11  12
ENDBRANCH   1  11
TORSDOF 9
ENDMDL
MODEL 2
REMARK VINA RESULT:    -5.228      3.383      7.055
REMARK INTER + INTRA:          -9.391
REMARK INTER:                  -7.929
REMARK INTRA:                  -1.462
REMARK UNBOUND:                -1.413
REMARK SMILES CC(=O)CCC=C(C)CCC=C(C)CCC=C(C)C
REMARK SMILES IDX 10 1 11 2 12 3 13 4 14 5 15 6 16 7 18 8 17 9 19 10 9 11 7 12
REMARK SMILES IDX 6 13 8 14 5 15 4 16 2 17 3 18 1 19
REMARK H PARENT
REMARK Flexibility Score: inf
ROOT
ATOM      1  C   UNL     1      34.764  42.218 148.211  1.00  0.00     0.032 C 
ENDROOT
BRANCH   1   2
ATOM      2  C   UNL     1      34.732  40.967 149.056  1.00  0.00    -0.028 C 
ATOM      3  C   UNL     1      33.742  40.635 149.916  1.00  0.00    -0.077 C 
ATOM      4  C   UNL     1      33.906  39.385 150.742  1.00  0.00     0.039 C 
BRANCH   3   5
ATOM      5  C   UNL     1      32.465  41.445 150.058  1.00  0.00     0.034 C 
BRANCH   5   6
ATOM      6  C   UNL     1      31.250  40.710 149.477  1.00  0.00     0.032 C 
BRANCH   6   7
ATOM      7  C   UNL     1      31.061  41.032 148.013  1.00  0.00    -0.028 C 
ATOM      8  C   UNL     1      32.050  38.870 147.222  1.00  0.00     0.039 C 
ATOM      9  C   UNL     1      31.389  40.208 146.993  1.00  0.00    -0.080 C 
ATOM     10  C   UNL     1      31.076  40.648 145.586  1.00  0.00     0.039 C 
ENDBRANCH   6   7
ENDBRANCH   5   6
ENDBRANCH   3   5
ENDBRANCH   1   2
BRANCH   1  11
ATOM     11  C   UNL     1      35.287  41.931 146.796  1.00  0.00     0.034 C 
BRANCH  11  12
ATOM     12  C   UNL     1      36.607  42.627 146.530  1.00  0.00    -0.077 C 
ATOM     13  C   UNL     1      36.880  43.063 145.278  1.00  0.00    -0.028 C 
ATOM     14  C   UNL     1      37.589  42.795 147.666  1.00  0.00     0.039 C 
BRANCH  13  15
ATOM     15  C   UNL     1      38.137  43.797 144.886  1.00  0.00     0.035 C 
BRANCH  15  16
ATOM     16  C   UNL     1      38.867  43.062 143.758  1.00  0.00     0.079 C 
BRANCH  16  17
ATOM     17  C   UNL     1      40.221  43.675 143.512  1.00  0.00     0.130 C 
ATOM     18  O   UNL     1      40.760  44.316 144.401  1.00  0.00    -0.300 OA
ATOM     19  C   UNL     1      40.926  43.509 142.200  1.00  0.00     0.087 C 
ENDBRANCH  16  17
ENDBRANCH  15  16
ENDBRANCH  13  15
ENDBRANCH  11  12
ENDBRANCH   1  11
TORSDOF 9
ENDMDL
MODEL 3
REMARK VINA RESULT:    -5.219      1.488      2.238
REMARK INTER + INTRA:          -9.377
REMARK INTER:                  -7.493
REMARK INTRA:                  -1.884
REMARK UNBOUND:                -1.413
REMARK SMILES CC(=O)CCC=C(C)CCC=C(C)CCC=C(C)C
REMARK SMILES IDX 10 1 11 2 12 3 13 4 14 5 15 6 16 7 18 8 17 9 19 10 9 11 7 12
REMARK SMILES IDX 6 13 8 14 5 15 4 16 2 17 3 18 1 19
REMARK H PARENT
REMARK Flexibility Score: inf
ROOT
ATOM      1  C   UNL     1      36.578  42.220 147.882  1.00  0.00     0.032 C 
ENDROOT
BRANCH   1   2
ATOM      2  C   UNL     1      37.318  43.165 146.965  1.00  0.00    -0.028 C 
ATOM      3  C   UNL     1      37.477  42.990 145.633  1.00  0.00    -0.077 C 
ATOM      4  C   UNL     1      38.313  43.992 144.879  1.00  0.00     0.039 C 
BRANCH   3   5
ATOM      5  C   UNL     1      36.825  41.854 144.866  1.00  0.00     0.034 C 
BRANCH   5   6
ATOM      6  C   UNL     1      35.545  42.304 144.150  1.00  0.00     0.032 C 
BRANCH   6   7
ATOM      7  C   UNL     1      34.311  41.874 144.908  1.00  0.00    -0.028 C 
ATOM      8  C   UNL     1      34.167  39.645 143.773  1.00  0.00     0.039 C 
ATOM      9  C   UNL     1      33.698  40.677 144.771  1.00  0.00    -0.080 C 
ATOM     10  C   UNL     1      32.513  40.373 145.649  1.00  0.00     0.039 C 
ENDBRANCH   6   7
ENDBRANCH   5   6
ENDBRANCH   3   5
ENDBRANCH   1   2
BRANCH   1  11
ATOM     11  C   UNL     1      35.171  42.740 148.211  1.00  0.00     0.034 C 
BRANCH  11  12
ATOM     12  C   UNL     1      34.280  41.646 148.764  1.00  0.00    -0.077 C 
ATOM     13  C   UNL     1      33.117  41.986 149.367  1.00  0.00    -0.028 C 
ATOM     14  C   UNL     1      34.727  40.207 148.646  1.00  0.00     0.039 C 
BRANCH  13  15
ATOM     15  C   UNL     1      32.127  40.998 149.930  1.00  0.00     0.035 C 
BRANCH  15  16
ATOM     16  C   UNL     1      30.948  40.802 148.972  1.00  0.00     0.079 C 
BRANCH  16  17
ATOM     17  C   UNL     1      30.296  39.463 149.196  1.00  0.00     0.130 C 
ATOM     18  O   UNL     1      30.612  38.517 148.490  1.00  0.00    -0.300 OA
ATOM     19  C   UNL     1      29.273  39.263 150.273  1.00  0.00     0.087 C 
ENDBRANCH  16  17
ENDBRANCH  15  16
ENDBRANCH  13  15
ENDBRANCH  11  12
ENDBRANCH   1  11
TORSDOF 9
ENDMDL
MODEL 4
REMARK VINA RESULT:    -5.161      2.278      3.791
REMARK INTER + INTRA:          -9.289
REMARK INTER:                  -7.767
REMARK INTRA:                  -1.522
REMARK UNBOUND:                -1.413
REMARK SMILES CC(=O)CCC=C(C)CCC=C(C)CCC=C(C)C
REMARK SMILES IDX 10 1 11 2 12 3 13 4 14 5 15 6 16 7 18 8 17 9 19 10 9 11 7 12
REMARK SMILES IDX 6 13 8 14 5 15 4 16 2 17 3 18 1 19
REMARK H PARENT
REMARK Flexibility Score: inf
ROOT
ATOM      1  C   UNL     1      38.726  43.092 145.197  1.00  0.00     0.032 C 
ENDROOT
BRANCH   1   2
ATOM      2  C   UNL     1      39.638  43.759 144.195  1.00  0.00    -0.028 C 
ATOM      3  C   UNL     1      40.029  43.217 143.019  1.00  0.00    -0.077 C 
ATOM      4  C   UNL     1      41.008  43.987 142.171  1.00  0.00     0.039 C 
BRANCH   3   5
ATOM      5  C   UNL     1      39.501  41.889 142.506  1.00  0.00     0.034 C 
BRANCH   5   6
ATOM      6  C   UNL     1      38.660  42.059 141.233  1.00  0.00     0.032 C 
BRANCH   6   7
ATOM      7  C   UNL     1      37.226  42.400 141.564  1.00  0.00    -0.028 C 
ATOM      8  C   UNL     1      36.289  41.189 139.581  1.00  0.00     0.039 C 
ATOM      9  C   UNL     1      36.152  41.995 140.850  1.00  0.00    -0.080 C 
ATOM     10  C   UNL     1      34.779  42.365 141.348  1.00  0.00     0.039 C 
ENDBRANCH   6   7
ENDBRANCH   5   6
ENDBRANCH   3   5
ENDBRANCH   1   2
BRANCH   1  11
ATOM     11  C   UNL     1      37.271  43.551 145.027  1.00  0.00     0.034 C 
BRANCH  11  12
ATOM     12  C   UNL     1      36.301  42.624 145.732  1.00  0.00    -0.077 C 
ATOM     13  C   UNL     1      36.447  42.405 147.060  1.00  0.00    -0.028 C 
ATOM     14  C   UNL     1      35.211  41.953 144.928  1.00  0.00     0.039 C 
BRANCH  13  15
ATOM     15  C   UNL     1      35.535  41.534 147.886  1.00  0.00     0.035 C 
BRANCH  15  16
ATOM     16  C   UNL     1      34.527  42.385 148.664  1.00  0.00     0.079 C 
BRANCH  16  17
ATOM     17  C   UNL     1      33.239  41.632 148.868  1.00  0.00     0.130 C 
ATOM     18  O   UNL     1      32.606  41.793 149.900  1.00  0.00    -0.300 OA
ATOM     19  C   UNL     1      32.710  40.692 147.826  1.00  0.00     0.087 C 
ENDBRANCH  16  17
ENDBRANCH  15  16
ENDBRANCH  13  15
ENDBRANCH  11  12
ENDBRANCH   1  11
TORSDOF 9
ENDMDL
MODEL 5
REMARK VINA RESULT:    -5.126      3.635      5.807
REMARK INTER + INTRA:          -9.235
REMARK INTER:                  -7.281
REMARK INTRA:                  -1.954
REMARK UNBOUND:                -1.413
REMARK SMILES CC(=O)CCC=C(C)CCC=C(C)CCC=C(C)C
REMARK SMILES IDX 10 1 11 2 12 3 13 4 14 5 15 6 16 7 18 8 17 9 19 10 9 11 7 12
REMARK SMILES IDX 6 13 8 14 5 15 4 16 2 17 3 18 1 19
REMARK H PARENT
REMARK Flexibility Score: inf
ROOT
ATOM      1  C   UNL     1      40.990  44.118 142.623  1.00  0.00     0.032 C 
ENDROOT
BRANCH   1   2
ATOM      2  C   UNL     1      41.217  42.875 141.797  1.00  0.00    -0.028 C 
ATOM      3  C   UNL     1      40.240  42.127 141.234  1.00  0.00    -0.077 C 
ATOM      4  C   UNL     1      40.637  40.869 140.506  1.00  0.00     0.039 C 
BRANCH   3   5
ATOM      5  C   UNL     1      38.773  42.518 141.277  1.00  0.00     0.034 C 
BRANCH   5   6
ATOM      6  C   UNL     1      37.853  41.329 140.970  1.00  0.00     0.032 C 
BRANCH   6   7
ATOM      7  C   UNL     1      36.509  41.793 140.459  1.00  0.00    -0.028 C 
ATOM      8  C   UNL     1      35.335  39.670 141.085  1.00  0.00     0.039 C 
ATOM      9  C   UNL     1      35.367  41.073 140.528  1.00  0.00    -0.080 C 
ATOM     10  C   UNL     1      34.091  41.703 140.032  1.00  0.00     0.039 C 
ENDBRANCH   6   7
ENDBRANCH   5   6
ENDBRANCH   3   5
ENDBRANCH   1   2
BRANCH   1  11
ATOM     11  C   UNL     1      41.187  43.844 144.121  1.00  0.00     0.034 C 
BRANCH  11  12
ATOM     12  C   UNL     1      39.937  43.273 144.760  1.00  0.00    -0.077 C 
ATOM     13  C   UNL     1      38.775  43.960 144.663  1.00  0.00    -0.028 C 
ATOM     14  C   UNL     1      40.029  41.963 145.507  1.00  0.00     0.039 C 
BRANCH  13  15
ATOM     15  C   UNL     1      37.457  43.491 145.224  1.00  0.00     0.035 C 
BRANCH  15  16
ATOM     16  C   UNL     1      36.639  42.763 144.153  1.00  0.00     0.079 C 
BRANCH  16  17
ATOM     17  C   UNL     1      35.285  42.376 144.689  1.00  0.00     0.130 C 
ATOM     18  O   UNL     1      35.152  42.162 145.884  1.00  0.00    -0.300 OA
ATOM     19  C   UNL     1      34.094  42.257 143.787  1.00  0.00     0.087 C 
ENDBRANCH  16  17
ENDBRANCH  15  16
ENDBRANCH  13  15
ENDBRANCH  11  12
ENDBRANCH   1  11
TORSDOF 9
ENDMDL
MODEL 6
REMARK VINA RESULT:    -5.106      3.579      7.947
REMARK INTER + INTRA:          -9.205
REMARK INTER:                  -7.506
REMARK INTRA:                  -1.699
REMARK UNBOUND:                -1.413
REMARK SMILES CC(=O)CCC=C(C)CCC=C(C)CCC=C(C)C
REMARK SMILES IDX 10 1 11 2 12 3 13 4 14 5 15 6 16 7 18 8 17 9 19 10 9 11 7 12
REMARK SMILES IDX 6 13 8 14 5 15 4 16 2 17 3 18 1 19
REMARK H PARENT
REMARK Flexibility Score: inf
ROOT
ATOM      1  C   UNL     1      36.412  42.601 141.297  1.00  0.00     0.032 C 
ENDROOT
BRANCH   1   2
ATOM      2  C   UNL     1      35.013  42.176 141.674  1.00  0.00    -0.028 C 
ATOM      3  C   UNL     1      34.519  42.161 142.934  1.00  0.00    -0.077 C 
ATOM      4  C   UNL     1      33.124  41.632 143.144  1.00  0.00     0.039 C 
BRANCH   3   5
ATOM      5  C   UNL     1      35.293  42.683 144.131  1.00  0.00     0.034 C 
BRANCH   5   6
ATOM      6  C   UNL     1      35.691  41.556 145.093  1.00  0.00     0.032 C 
BRANCH   6   7
ATOM      7  C   UNL     1      34.936  41.656 146.398  1.00  0.00    -0.028 C 
ATOM      8  C   UNL     1      36.806  42.812 147.601  1.00  0.00     0.039 C 
ATOM      9  C   UNL     1      35.411  42.239 147.522  1.00  0.00    -0.080 C 
ATOM     10  C   UNL     1      34.508  42.317 148.725  1.00  0.00     0.039 C 
ENDBRANCH   6   7
ENDBRANCH   5   6
ENDBRANCH   3   5
ENDBRANCH   1   2
BRANCH   1  11
ATOM     11  C   UNL     1      37.323  41.389 141.053  1.00  0.00     0.034 C 
BRANCH  11  12
ATOM     12  C   UNL     1      38.682  41.565 141.700  1.00  0.00    -0.077 C 
ATOM     13  C   UNL     1      39.514  42.526 141.235  1.00  0.00    -0.028 C 
ATOM     14  C   UNL     1      39.079  40.647 142.833  1.00  0.00     0.039 C 
BRANCH  13  15
ATOM     15  C   UNL     1      40.876  42.826 141.808  1.00  0.00     0.035 C 
BRANCH  15  16
ATOM     16  C   UNL     1      40.870  44.165 142.552  1.00  0.00     0.079 C 
BRANCH  16  17
ATOM     17  C   UNL     1      40.550  43.963 144.009  1.00  0.00     0.130 C 
ATOM     18  O   UNL     1      41.457  43.757 144.800  1.00  0.00    -0.300 OA
ATOM     19  C   UNL     1      39.139  44.019 144.514  1.00  0.00     0.087 C 
ENDBRANCH  16  17
ENDBRANCH  15  16
ENDBRANCH  13  15
ENDBRANCH  11  12
ENDBRANCH   1  11
TORSDOF 9
ENDMDL
MODEL 7
REMARK VINA RESULT:    -5.079      2.912      5.951
REMARK INTER + INTRA:          -9.164
REMARK INTER:                  -6.656
REMARK INTRA:                  -2.508
REMARK UNBOUND:                -1.413
REMARK SMILES CC(=O)CCC=C(C)CCC=C(C)CCC=C(C)C
REMARK SMILES IDX 10 1 11 2 12 3 13 4 14 5 15 6 16 7 18 8 17 9 19 10 9 11 7 12
REMARK SMILES IDX 6 13 8 14 5 15 4 16 2 17 3 18 1 19
REMARK H PARENT
REMARK Flexibility Score: inf
ROOT
ATOM      1  C   UNL     1      34.265  41.502 149.263  1.00  0.00     0.032 C 
ENDROOT
BRANCH   1   2
ATOM      2  C   UNL     1      32.762  41.525 149.124  1.00  0.00    -0.028 C 
ATOM      3  C   UNL     1      32.060  40.880 148.163  1.00  0.00    -0.077 C 
ATOM      4  C   UNL     1      30.567  41.074 148.122  1.00  0.00     0.039 C 
BRANCH   3   5
ATOM      5  C   UNL     1      32.707  39.949 147.153  1.00  0.00     0.034 C 
BRANCH   5   6
ATOM      6  C   UNL     1      32.861  40.611 145.778  1.00  0.00     0.032 C 
BRANCH   6   7
ATOM      7  C   UNL     1      34.159  40.210 145.117  1.00  0.00    -0.028 C 
ATOM      8  C   UNL     1      34.600  42.492 144.182  1.00  0.00     0.039 C 
ATOM      9  C   UNL     1      34.963  41.046 144.423  1.00  0.00    -0.080 C 
ATOM     10  C   UNL     1      36.260  40.507 143.879  1.00  0.00     0.039 C 
ENDBRANCH   6   7
ENDBRANCH   5   6
ENDBRANCH   3   5
ENDBRANCH   1   2
BRANCH   1  11
ATOM     11  C   UNL     1      34.922  42.651 148.484  1.00  0.00     0.034 C 
BRANCH  11  12
ATOM     12  C   UNL     1      36.154  42.192 147.730  1.00  0.00    -0.077 C 
ATOM     13  C   UNL     1      36.853  43.092 147.000  1.00  0.00    -0.028 C 
ATOM     14  C   UNL     1      36.554  40.736 147.798  1.00  0.00     0.039 C 
BRANCH  13  15
ATOM     15  C   UNL     1      38.110  42.774 146.232  1.00  0.00     0.035 C 
BRANCH  15  16
ATOM     16  C   UNL     1      38.249  43.689 145.012  1.00  0.00     0.079 C 
BRANCH  16  17
ATOM     17  C   UNL     1      39.569  43.463 144.323  1.00  0.00     0.130 C 
ATOM     18  O   UNL     1      40.414  44.345 144.340  1.00  0.00    -0.300 OA
ATOM     19  C   UNL     1      39.873  42.172 143.623  1.00  0.00     0.087 C 
ENDBRANCH  16  17
ENDBRANCH  15  16
ENDBRANCH  13  15
ENDBRANCH  11  12
ENDBRANCH   1  11
TORSDOF 9
ENDMDL
MODEL 8
REMARK VINA RESULT:    -5.024     11.943     14.650
REMARK INTER + INTRA:          -9.080
REMARK INTER:                  -6.547
REMARK INTRA:                  -2.533
REMARK UNBOUND:                -1.413
REMARK SMILES CC(=O)CCC=C(C)CCC=C(C)CCC=C(C)C
REMARK SMILES IDX 10 1 11 2 12 3 13 4 14 5 15 6 16 7 18 8 17 9 19 10 9 11 7 12
REMARK SMILES IDX 6 13 8 14 5 15 4 16 2 17 3 18 1 19
REMARK H PARENT
REMARK Flexibility Score: inf
ROOT
ATOM      1  C   UNL     1      25.165  30.294 139.547  1.00  0.00     0.032 C 
ENDROOT
BRANCH   1   2
ATOM      2  C   UNL     1      25.993  30.600 138.322  1.00  0.00    -0.028 C 
ATOM      3  C   UNL     1      27.305  30.304 138.176  1.00  0.00    -0.077 C 
ATOM      4  C   UNL     1      28.000  30.753 136.917  1.00  0.00     0.039 C 
BRANCH   3   5
ATOM      5  C   UNL     1      28.092  29.515 139.207  1.00  0.00     0.034 C 
BRANCH   5   6
ATOM      6  C   UNL     1      29.350  30.265 139.667  1.00  0.00     0.032 C 
BRANCH   6   7
ATOM      7  C   UNL     1      29.134  30.929 141.007  1.00  0.00    -0.028 C 
ATOM      8  C   UNL     1      28.619  33.172 140.017  1.00  0.00     0.039 C 
ATOM      9  C   UNL     1      28.780  32.222 141.179  1.00  0.00    -0.080 C 
ATOM     10  C   UNL     1      28.539  32.718 142.581  1.00  0.00     0.039 C 
ENDBRANCH   6   7
ENDBRANCH   5   6
ENDBRANCH   3   5
ENDBRANCH   1   2
BRANCH   1  11
ATOM     11  C   UNL     1      25.132  31.484 140.518  1.00  0.00     0.034 C 
BRANCH  11  12
ATOM     12  C   UNL     1      24.927  31.037 141.951  1.00  0.00    -0.077 C 
ATOM     13  C   UNL     1      25.824  30.194 142.513  1.00  0.00    -0.028 C 
ATOM     14  C   UNL     1      23.714  31.529 142.706  1.00  0.00     0.039 C 
BRANCH  13  15
ATOM     15  C   UNL     1      25.756  29.700 143.935  1.00  0.00     0.035 C 
BRANCH  15  16
ATOM     16  C   UNL     1      26.983  30.157 144.730  1.00  0.00     0.079 C 
BRANCH  16  17
ATOM     17  C   UNL     1      27.792  28.973 145.189  1.00  0.00     0.130 C 
ATOM     18  O   UNL     1      27.217  27.964 145.568  1.00  0.00    -0.300 OA
ATOM     19  C   UNL     1      29.291  29.002 145.184  1.00  0.00     0.087 C 
ENDBRANCH  16  17
ENDBRANCH  15  16
ENDBRANCH  13  15
ENDBRANCH  11  12
ENDBRANCH   1  11
TORSDOF 9
ENDMDL
MODEL 9
REMARK VINA RESULT:    -5.019      3.337      6.847
REMARK INTER + INTRA:          -9.072
REMARK INTER:                  -7.476
REMARK INTRA:                  -1.596
REMARK UNBOUND:                -1.413
REMARK SMILES CC(=O)CCC=C(C)CCC=C(C)CCC=C(C)C
REMARK SMILES IDX 10 1 11 2 12 3 13 4 14 5 15 6 16 7 18 8 17 9 19 10 9 11 7 12
REMARK SMILES IDX 6 13 8 14 5 15 4 16 2 17 3 18 1 19
REMARK H PARENT
REMARK Flexibility Score: inf
ROOT
ATOM      1  C   UNL     1      40.244  43.254 141.396  1.00  0.00     0.032 C 
ENDROOT
BRANCH   1   2
ATOM      2  C   UNL     1      41.252  43.523 142.487  1.00  0.00    -0.028 C 
ATOM      3  C   UNL     1      41.036  43.328 143.809  1.00  0.00    -0.077 C 
ATOM      4  C   UNL     1      42.125  43.724 144.773  1.00  0.00     0.039 C 
BRANCH   3   5
ATOM      5  C   UNL     1      39.767  42.700 144.355  1.00  0.00     0.034 C 
BRANCH   5   6
ATOM      6  C   UNL     1      38.706  43.754 144.700  1.00  0.00     0.032 C 
BRANCH   6   7
ATOM      7  C   UNL     1      37.310  43.192 144.570  1.00  0.00    -0.028 C 
ATOM      8  C   UNL     1      37.124  42.608 147.000  1.00  0.00     0.039 C 
ATOM      9  C   UNL     1      36.578  42.700 145.595  1.00  0.00    -0.080 C 
ATOM     10  C   UNL     1      35.173  42.235 145.314  1.00  0.00     0.039 C 
ENDBRANCH   6   7
ENDBRANCH   5   6
ENDBRANCH   3   5
ENDBRANCH   1   2
BRANCH   1  11
ATOM     11  C   UNL     1      40.115  41.751 141.106  1.00  0.00     0.034 C 
BRANCH  11  12
ATOM     12  C   UNL     1      38.733  41.390 140.599  1.00  0.00    -0.077 C 
ATOM     13  C   UNL     1      37.656  42.034 141.107  1.00  0.00    -0.028 C 
ATOM     14  C   UNL     1      38.595  40.305 139.557  1.00  0.00     0.039 C 
BRANCH  13  15
ATOM     15  C   UNL     1      36.234  41.795 140.669  1.00  0.00     0.035 C 
BRANCH  15  16
ATOM     16  C   UNL     1      35.254  42.572 141.552  1.00  0.00     0.079 C 
BRANCH  16  17
ATOM     17  C   UNL     1      33.961  41.816 141.706  1.00  0.00     0.130 C 
ATOM     18  O   UNL     1      33.987  40.647 142.057  1.00  0.00    -0.300 OA
ATOM     19  C   UNL     1      32.637  42.471 141.444  1.00  0.00     0.087 C 
ENDBRANCH  16  17
ENDBRANCH  15  16
ENDBRANCH  13  15
ENDBRANCH  11  12
ENDBRANCH   1  11
TORSDOF 9
ENDMDL
