MODEL 1
REMARK VINA RESULT:    -2.000      0.000      0.000
REMARK INTER + INTRA:          -3.452
REMARK INTER:                  -3.052
REMARK INTRA:                  -0.399
REMARK UNBOUND:                -0.399
REMARK SMILES CC1=CCC[C@@H](C)C(=O)C[C@H](C(C)C)C(=O)C1
REMARK SMILES IDX 8 1 9 2 6 3 7 4 5 5 4 6 3 7 2 8 1 9 10 11 11 12 15 13 16 14
REMARK SMILES IDX 17 15 12 17 13 18 14 19
REMARK H PARENT
REMARK Flexibility Score: 70.00
ROOT
ATOM      1  C   UNL     1      52.825  -0.603  21.634  1.00  0.00     0.136 C 
ATOM      2  O   UNL     1      53.135  -1.605  22.264  1.00  0.00    -0.299 OA
ENDROOT
BRANCH   1   3
ATOM      3  C   UNL     1      51.364  -0.464  21.243  1.00  0.00     0.053 C 
ATOM      4  C   UNL     1      50.619  -1.773  20.931  1.00  0.00     0.016 C 
BRANCH   3   5
ATOM      5  C   UNL     1      51.177   0.597  20.134  1.00  0.00     0.015 C 
BRANCH   5   6
ATOM      6  C   UNL     1      50.832   2.012  20.645  1.00  0.00     0.028 C 
BRANCH   6   7
ATOM      7  C   UNL     1      50.341   2.016  22.080  1.00  0.00    -0.028 C 
ATOM      8  C   UNL     1      51.000   2.373  23.219  1.00  0.00    -0.070 CG0
ATOM      9  C   UNL     1      50.223   2.241  24.508  1.00  0.00     0.039 C 
ATOM     10  G   UNL     1      52.464   2.789  23.350  1.00  0.00     0.000 G0
ENDBRANCH   6   7
ENDBRANCH   5   6
ENDBRANCH   3   5
ENDBRANCH   1   3
BRANCH   1  11
ATOM     11  C   UNL     1      53.941   0.336  21.209  1.00  0.00     0.087 C 
BRANCH  11  12
ATOM     12  C   UNL     1      54.447   1.354  22.275  1.00  0.00     0.066 C 
BRANCH  12  13
ATOM     13  C   UNL     1      53.477   1.680  23.410  1.00  0.00     0.140 C 
ATOM     14  O   UNL     1      53.495   0.979  24.413  1.00  0.00    -0.299 OA
BRANCH  13  15
ATOM     15  C   UNL     1      52.468   2.794  23.354  1.00  0.00     0.106 CG0
ATOM     16  G   UNL     1      51.010   2.360  23.214  1.00  0.00     0.000 G0
ENDBRANCH  13  15
ENDBRANCH  12  13
BRANCH  12  17
ATOM     17  C   UNL     1      55.847   0.917  22.819  1.00  0.00    -0.006 C 
ATOM     18  C   UNL     1      56.630   0.080  21.796  1.00  0.00     0.008 C 
ATOM     19  C   UNL     1      56.710   2.098  23.300  1.00  0.00     0.008 C 
ENDBRANCH  12  17
ENDBRANCH  11  12
ENDBRANCH   1  11
TORSDOF 1
ENDMDL
MODEL 2
REMARK VINA RESULT:    -1.863      2.032      3.759
REMARK INTER + INTRA:          -3.243
REMARK INTER:                  -2.655
REMARK INTRA:                  -0.588
REMARK UNBOUND:                -0.399
REMARK SMILES CC1=CCC[C@@H](C)C(=O)C[C@H](C(C)C)C(=O)C1
REMARK SMILES IDX 8 1 9 2 6 3 7 4 5 5 4 6 3 7 2 8 1 9 10 11 11 12 15 13 16 14
REMARK SMILES IDX 17 15 12 17 13 18 14 19
REMARK H PARENT
REMARK Flexibility Score: 70.00
ROOT
ATOM      1  C   UNL     1      52.023   2.900  22.557  1.00  0.00     0.136 C 
ATOM      2  O   UNL     1      51.326   3.122  21.576  1.00  0.00    -0.299 OA
ENDROOT
BRANCH   1   3
ATOM      3  C   UNL     1      51.365   3.060  23.916  1.00  0.00     0.053 C 
ATOM      4  C   UNL     1      52.314   3.125  25.125  1.00  0.00     0.016 C 
BRANCH   3   5
ATOM      5  C   UNL     1      50.229   2.029  24.116  1.00  0.00     0.015 C 
BRANCH   5   6
ATOM      6  C   UNL     1      50.691   0.556  24.144  1.00  0.00     0.028 C 
BRANCH   6   7
ATOM      7  C   UNL     1      50.285  -0.212  22.901  1.00  0.00    -0.028 C 
ATOM      8  C   UNL     1      51.055  -0.940  22.044  1.00  0.00    -0.070 CG0
ATOM      9  C   UNL     1      50.336  -1.573  20.875  1.00  0.00     0.039 C 
ATOM     10  G   UNL     1      52.574  -1.099  22.071  1.00  0.00     0.000 G0
ENDBRANCH   6   7
ENDBRANCH   5   6
ENDBRANCH   3   5
ENDBRANCH   1   3
BRANCH   1  11
ATOM     11  C   UNL     1      53.494   2.602  22.323  1.00  0.00     0.087 C 
BRANCH  11  12
ATOM     12  C   UNL     1      53.958   1.132  22.549  1.00  0.00     0.066 C 
BRANCH  12  13
ATOM     13  C   UNL     1      53.369   0.085  21.604  1.00  0.00     0.140 C 
ATOM     14  O   UNL     1      53.518   0.238  20.399  1.00  0.00    -0.299 OA
BRANCH  13  15
ATOM     15  C   UNL     1      52.579  -1.108  22.066  1.00  0.00     0.106 CG0
ATOM     16  G   UNL     1      51.060  -0.948  22.038  1.00  0.00     0.000 G0
ENDBRANCH  13  15
ENDBRANCH  12  13
BRANCH  12  17
ATOM     17  C   UNL     1      55.520   1.058  22.592  1.00  0.00    -0.006 C 
ATOM     18  C   UNL     1      56.169   2.445  22.462  1.00  0.00     0.008 C 
ATOM     19  C   UNL     1      56.063   0.340  23.841  1.00  0.00     0.008 C 
ENDBRANCH  12  17
ENDBRANCH  11  12
ENDBRANCH   1  11
TORSDOF 1
ENDMDL
MODEL 3
REMARK VINA RESULT:    -1.469      1.996      4.222
REMARK INTER + INTRA:          -2.642
REMARK INTER:                  -2.388
REMARK INTRA:                  -0.254
REMARK UNBOUND:                -0.399
REMARK SMILES CC1=CCC[C@@H](C)C(=O)C[C@H](C(C)C)C(=O)C1
REMARK SMILES IDX 8 1 9 2 6 3 7 4 5 5 4 6 3 7 2 8 1 9 10 11 11 12 15 13 16 14
REMARK SMILES IDX 17 15 12 17 13 18 14 19
REMARK H PARENT
REMARK Flexibility Score: 70.00
ROOT
ATOM      1  C   UNL     1      56.275   2.328  22.677  1.00  0.00     0.136 C 
ATOM      2  O   UNL     1      56.072   3.118  21.765  1.00  0.00    -0.299 OA
ENDROOT
BRANCH   1   3
ATOM      3  C   UNL     1      56.078   2.847  24.090  1.00  0.00     0.053 C 
ATOM      4  C   UNL     1      57.130   2.409  25.125  1.00  0.00     0.016 C 
BRANCH   3   5
ATOM      5  C   UNL     1      54.633   2.603  24.583  1.00  0.00     0.015 C 
BRANCH   5   6
ATOM      6  C   UNL     1      53.533   2.974  23.566  1.00  0.00     0.028 C 
BRANCH   6   7
ATOM      7  C   UNL     1      52.522   1.862  23.361  1.00  0.00    -0.028 C 
ATOM      8  C   UNL     1      52.620   0.733  22.604  1.00  0.00    -0.070 CG0
ATOM      9  C   UNL     1      51.410  -0.173  22.598  1.00  0.00     0.039 C 
ATOM     10  G   UNL     1      53.769   0.335  21.679  1.00  0.00     0.000 G0
ENDBRANCH   6   7
ENDBRANCH   5   6
ENDBRANCH   3   5
ENDBRANCH   1   3
BRANCH   1  11
ATOM     11  C   UNL     1      56.809   0.953  22.312  1.00  0.00     0.087 C 
BRANCH  11  12
ATOM     12  C   UNL     1      56.071  -0.274  22.926  1.00  0.00     0.066 C 
BRANCH  12  13
ATOM     13  C   UNL     1      54.752  -0.670  22.263  1.00  0.00     0.140 C 
ATOM     14  O   UNL     1      54.480  -1.859  22.169  1.00  0.00    -0.299 OA
BRANCH  13  15
ATOM     15  C   UNL     1      53.780   0.318  21.680  1.00  0.00     0.106 CG0
ATOM     16  G   UNL     1      52.618   0.718  22.588  1.00  0.00     0.000 G0
ENDBRANCH  13  15
ENDBRANCH  12  13
BRANCH  12  17
ATOM     17  C   UNL     1      57.047  -1.490  23.042  1.00  0.00    -0.006 C 
ATOM     18  C   UNL     1      57.832  -1.728  21.743  1.00  0.00     0.008 C 
ATOM     19  C   UNL     1      58.021  -1.379  24.230  1.00  0.00     0.008 C 
ENDBRANCH  12  17
ENDBRANCH  11  12
ENDBRANCH   1  11
TORSDOF 1
ENDMDL
MODEL 4
REMARK VINA RESULT:    -1.310      2.272      5.736
REMARK INTER + INTRA:          -2.399
REMARK INTER:                  -2.998
REMARK INTRA:                   0.600
REMARK UNBOUND:                -0.399
REMARK SMILES CC1=CCC[C@@H](C)C(=O)C[C@H](C(C)C)C(=O)C1
REMARK SMILES IDX 8 1 9 2 6 3 7 4 5 5 4 6 3 7 2 8 1 9 10 11 11 12 15 13 16 14
REMARK SMILES IDX 17 15 12 17 13 18 14 19
REMARK H PARENT
REMARK Flexibility Score: 70.00
ROOT
ATOM      1  C   UNL     1      54.593   2.612  23.366  1.00  0.00     0.136 C 
ATOM      2  O   UNL     1      53.816   2.447  24.296  1.00  0.00    -0.299 OA
ENDROOT
BRANCH   1   3
ATOM      3  C   UNL     1      56.018   2.995  23.721  1.00  0.00     0.053 C 
ATOM      4  C   UNL     1      56.999   3.124  22.543  1.00  0.00     0.016 C 
BRANCH   3   5
ATOM      5  C   UNL     1      56.575   2.102  24.854  1.00  0.00     0.015 C 
BRANCH   5   6
ATOM      6  C   UNL     1      56.070   0.643  24.834  1.00  0.00     0.028 C 
BRANCH   6   7
ATOM      7  C   UNL     1      56.999  -0.291  24.083  1.00  0.00    -0.028 C 
ATOM      8  C   UNL     1      57.087  -0.532  22.745  1.00  0.00    -0.070 CG0
ATOM      9  C   UNL     1      58.119  -1.550  22.317  1.00  0.00     0.039 C 
ATOM     10  G   UNL     1      56.191   0.029  21.642  1.00  0.00     0.000 G0
ENDBRANCH   6   7
ENDBRANCH   5   6
ENDBRANCH   3   5
ENDBRANCH   1   3
BRANCH   1  11
ATOM     11  C   UNL     1      54.030   2.531  21.957  1.00  0.00     0.087 C 
BRANCH  11  12
ATOM     12  C   UNL     1      53.776   1.105  21.382  1.00  0.00     0.066 C 
BRANCH  12  13
ATOM     13  C   UNL     1      54.719   0.004  21.866  1.00  0.00     0.140 C 
ATOM     14  O   UNL     1      54.251  -0.920  22.517  1.00  0.00    -0.299 OA
BRANCH  13  15
ATOM     15  C   UNL     1      56.203   0.008  21.623  1.00  0.00     0.106 CG0
ATOM     16  G   UNL     1      57.061  -0.549  22.758  1.00  0.00     0.000 G0
ENDBRANCH  13  15
ENDBRANCH  12  13
BRANCH  12  17
ATOM     17  C   UNL     1      52.275   0.705  21.571  1.00  0.00    -0.006 C 
ATOM     18  C   UNL     1      51.363   1.933  21.715  1.00  0.00     0.008 C 
ATOM     19  C   UNL     1      51.744  -0.215  20.457  1.00  0.00     0.008 C 
ENDBRANCH  12  17
ENDBRANCH  11  12
ENDBRANCH   1  11
TORSDOF 1
ENDMDL
MODEL 5
REMARK VINA RESULT:    -0.958      1.638      4.093
REMARK INTER + INTRA:          -1.861
REMARK INTER:                  -2.920
REMARK INTRA:                   1.059
REMARK UNBOUND:                -0.399
REMARK SMILES CC1=CCC[C@@H](C)C(=O)C[C@H](C(C)C)C(=O)C1
REMARK SMILES IDX 8 1 9 2 6 3 7 4 5 5 4 6 3 7 2 8 1 9 10 11 11 12 15 13 16 14
REMARK SMILES IDX 17 15 12 17 13 18 14 19
REMARK H PARENT
REMARK Flexibility Score: 70.00
ROOT
ATOM      1  C   UNL     1      55.173   0.342  22.198  1.00  0.00     0.136 C 
ATOM      2  O   UNL     1      55.480  -0.767  22.613  1.00  0.00    -0.299 OA
ENDROOT
BRANCH   1   3
ATOM      3  C   UNL     1      55.879   1.530  22.827  1.00  0.00     0.053 C 
ATOM      4  C   UNL     1      57.060   1.202  23.757  1.00  0.00     0.016 C 
BRANCH   3   5
ATOM      5  C   UNL     1      54.869   2.502  23.481  1.00  0.00     0.015 C 
BRANCH   5   6
ATOM      6  C   UNL     1      54.502   2.166  24.942  1.00  0.00     0.028 C 
BRANCH   6   7
ATOM      7  C   UNL     1      53.026   1.869  25.125  1.00  0.00    -0.028 C 
ATOM      8  C   UNL     1      51.974   2.182  24.317  1.00  0.00    -0.070 CG0
ATOM      9  C   UNL     1      50.609   1.755  24.804  1.00  0.00     0.039 C 
ATOM     10  G   UNL     1      52.007   3.007  23.031  1.00  0.00     0.000 G0
ENDBRANCH   6   7
ENDBRANCH   5   6
ENDBRANCH   3   5
ENDBRANCH   1   3
BRANCH   1  11
ATOM     11  C   UNL     1      54.044   0.426  21.184  1.00  0.00     0.087 C 
BRANCH  11  12
ATOM     12  C   UNL     1      52.619   0.716  21.743  1.00  0.00     0.066 C 
BRANCH  12  13
ATOM     13  C   UNL     1      52.179   2.180  21.744  1.00  0.00     0.140 C 
ATOM     14  O   UNL     1      52.003   2.737  20.669  1.00  0.00    -0.299 OA
BRANCH  13  15
ATOM     15  C   UNL     1      51.986   2.994  22.993  1.00  0.00     0.106 CG0
ATOM     16  G   UNL     1      51.978   2.206  24.303  1.00  0.00     0.000 G0
ENDBRANCH  13  15
ENDBRANCH  12  13
BRANCH  12  17
ATOM     17  C   UNL     1      51.565  -0.203  21.041  1.00  0.00    -0.006 C 
ATOM     18  C   UNL     1      50.128   0.300  21.250  1.00  0.00     0.008 C 
ATOM     19  C   UNL     1      51.837  -0.406  19.539  1.00  0.00     0.008 C 
ENDBRANCH  12  17
ENDBRANCH  11  12
ENDBRANCH   1  11
TORSDOF 1
ENDMDL
MODEL 6
REMARK VINA RESULT:    -0.925      1.897      5.089
REMARK INTER + INTRA:          -1.811
REMARK INTER:                  -2.378
REMARK INTRA:                   0.567
REMARK UNBOUND:                -0.399
REMARK SMILES CC1=CCC[C@@H](C)C(=O)C[C@H](C(C)C)C(=O)C1
REMARK SMILES IDX 8 1 9 2 6 3 7 4 5 5 4 6 3 7 2 8 1 9 10 11 11 12 15 13 16 14
REMARK SMILES IDX 17 15 12 17 13 18 14 19
REMARK H PARENT
REMARK Flexibility Score: 70.00
ROOT
ATOM      1  C   UNL     1      52.336   1.964  23.609  1.00  0.00     0.136 C 
ATOM      2  O   UNL     1      52.198   1.952  24.825  1.00  0.00    -0.299 OA
ENDROOT
BRANCH   1   3
ATOM      3  C   UNL     1      53.226   3.050  23.031  1.00  0.00     0.053 C 
ATOM      4  C   UNL     1      53.298   3.120  21.496  1.00  0.00     0.016 C 
BRANCH   3   5
ATOM      5  C   UNL     1      54.627   3.037  23.685  1.00  0.00     0.015 C 
BRANCH   5   6
ATOM      6  C   UNL     1      55.789   2.724  22.718  1.00  0.00     0.028 C 
BRANCH   6   7
ATOM      7  C   UNL     1      56.276   1.292  22.827  1.00  0.00    -0.028 C 
ATOM      8  C   UNL     1      55.876   0.187  22.136  1.00  0.00    -0.070 CG0
ATOM      9  C   UNL     1      56.556  -1.111  22.503  1.00  0.00     0.039 C 
ATOM     10  G   UNL     1      54.746   0.095  21.111  1.00  0.00     0.000 G0
ENDBRANCH   6   7
ENDBRANCH   5   6
ENDBRANCH   3   5
ENDBRANCH   1   3
BRANCH   1  11
ATOM     11  C   UNL     1      51.518   0.973  22.798  1.00  0.00     0.087 C 
BRANCH  11  12
ATOM     12  C   UNL     1      52.135   0.489  21.452  1.00  0.00     0.066 C 
BRANCH  12  13
ATOM     13  C   UNL     1      53.402  -0.360  21.556  1.00  0.00     0.140 C 
ATOM     14  O   UNL     1      53.325  -1.458  22.088  1.00  0.00    -0.299 OA
BRANCH  13  15
ATOM     15  C   UNL     1      54.753   0.093  21.075  1.00  0.00     0.106 CG0
ATOM     16  G   UNL     1      55.845   0.165  22.141  1.00  0.00     0.000 G0
ENDBRANCH  13  15
ENDBRANCH  12  13
BRANCH  12  17
ATOM     17  C   UNL     1      51.042  -0.208  20.576  1.00  0.00    -0.006 C 
ATOM     18  C   UNL     1      50.034  -0.995  21.428  1.00  0.00     0.008 C 
ATOM     19  C   UNL     1      50.296   0.764  19.644  1.00  0.00     0.008 C 
ENDBRANCH  12  17
ENDBRANCH  11  12
ENDBRANCH   1  11
TORSDOF 1
ENDMDL
MODEL 7
REMARK VINA RESULT:    -0.887      1.763      3.810
REMARK INTER + INTRA:          -1.753
REMARK INTER:                  -1.593
REMARK INTRA:                  -0.160
REMARK UNBOUND:                -0.399
REMARK SMILES CC1=CCC[C@@H](C)C(=O)C[C@H](C(C)C)C(=O)C1
REMARK SMILES IDX 8 1 9 2 6 3 7 4 5 5 4 6 3 7 2 8 1 9 10 11 11 12 15 13 16 14
REMARK SMILES IDX 17 15 12 17 13 18 14 19
REMARK H PARENT
REMARK Flexibility Score: 70.00
ROOT
ATOM      1  C   UNL     1      54.960   0.275  22.217  1.00  0.00     0.136 C 
ATOM      2  O   UNL     1      55.433  -0.169  21.180  1.00  0.00    -0.299 OA
ENDROOT
BRANCH   1   3
ATOM      3  C   UNL     1      55.691   1.439  22.861  1.00  0.00     0.053 C 
ATOM      4  C   UNL     1      56.550   1.102  24.092  1.00  0.00     0.016 C 
BRANCH   3   5
ATOM      5  C   UNL     1      54.739   2.630  23.118  1.00  0.00     0.015 C 
BRANCH   5   6
ATOM      6  C   UNL     1      54.158   2.695  24.547  1.00  0.00     0.028 C 
BRANCH   6   7
ATOM      7  C   UNL     1      52.701   3.117  24.571  1.00  0.00    -0.028 C 
ATOM      8  C   UNL     1      51.577   2.346  24.578  1.00  0.00    -0.070 CG0
ATOM      9  C   UNL     1      50.260   3.087  24.582  1.00  0.00     0.039 C 
ATOM     10  G   UNL     1      51.498   0.824  24.473  1.00  0.00     0.000 G0
ENDBRANCH   6   7
ENDBRANCH   5   6
ENDBRANCH   3   5
ENDBRANCH   1   3
BRANCH   1  11
ATOM     11  C   UNL     1      53.764  -0.449  22.812  1.00  0.00     0.087 C 
BRANCH  11  12
ATOM     12  C   UNL     1      52.379  -0.181  22.150  1.00  0.00     0.066 C 
BRANCH  12  13
ATOM     13  C   UNL     1      51.259   0.269  23.088  1.00  0.00     0.140 C 
ATOM     14  O   UNL     1      50.104   0.212  22.686  1.00  0.00    -0.299 OA
BRANCH  13  15
ATOM     15  C   UNL     1      51.493   0.817  24.468  1.00  0.00     0.106 CG0
ATOM     16  G   UNL     1      51.579   2.339  24.571  1.00  0.00     0.000 G0
ENDBRANCH  13  15
ENDBRANCH  12  13
BRANCH  12  17
ATOM     17  C   UNL     1      52.539   0.788  20.934  1.00  0.00    -0.006 C 
ATOM     18  C   UNL     1      52.122   0.129  19.610  1.00  0.00     0.008 C 
ATOM     19  C   UNL     1      51.791   2.122  21.114  1.00  0.00     0.008 C 
ENDBRANCH  12  17
ENDBRANCH  11  12
ENDBRANCH   1  11
TORSDOF 1
ENDMDL
MODEL 8
REMARK VINA RESULT:    -0.496      1.817      4.579
REMARK INTER + INTRA:          -1.156
REMARK INTER:                  -1.932
REMARK INTRA:                   0.776
REMARK UNBOUND:                -0.399
REMARK SMILES CC1=CCC[C@@H](C)C(=O)C[C@H](C(C)C)C(=O)C1
REMARK SMILES IDX 8 1 9 2 6 3 7 4 5 5 4 6 3 7 2 8 1 9 10 11 11 12 15 13 16 14
REMARK SMILES IDX 17 15 12 17 13 18 14 19
REMARK H PARENT
REMARK Flexibility Score: 70.00
ROOT
ATOM      1  C   UNL     1      54.249   1.779  23.473  1.00  0.00     0.136 C 
ATOM      2  O   UNL     1      54.563   2.935  23.719  1.00  0.00    -0.299 OA
ENDROOT
BRANCH   1   3
ATOM      3  C   UNL     1      55.282   0.924  22.762  1.00  0.00     0.053 C 
ATOM      4  C   UNL     1      56.544   1.654  22.269  1.00  0.00     0.016 C 
BRANCH   3   5
ATOM      5  C   UNL     1      54.633   0.062  21.654  1.00  0.00     0.015 C 
BRANCH   5   6
ATOM      6  C   UNL     1      53.889  -1.191  22.163  1.00  0.00     0.028 C 
BRANCH   6   7
ATOM      7  C   UNL     1      52.457  -1.266  21.672  1.00  0.00    -0.028 C 
ATOM      8  C   UNL     1      51.692  -0.303  21.083  1.00  0.00    -0.070 CG0
ATOM      9  C   UNL     1      50.278  -0.699  20.727  1.00  0.00     0.039 C 
ATOM     10  G   UNL     1      52.069   1.158  20.841  1.00  0.00     0.000 G0
ENDBRANCH   6   7
ENDBRANCH   5   6
ENDBRANCH   3   5
ENDBRANCH   1   3
BRANCH   1  11
ATOM     11  C   UNL     1      52.827   1.352  23.797  1.00  0.00     0.087 C 
BRANCH  11  12
ATOM     12  C   UNL     1      51.681   2.254  23.250  1.00  0.00     0.066 C 
BRANCH  12  13
ATOM     13  C   UNL     1      51.428   2.185  21.744  1.00  0.00     0.140 C 
ATOM     14  O   UNL     1      50.635   2.974  21.249  1.00  0.00    -0.299 OA
BRANCH  13  15
ATOM     15  C   UNL     1      52.070   1.175  20.834  1.00  0.00     0.106 CG0
ATOM     16  G   UNL     1      51.682  -0.281  21.082  1.00  0.00     0.000 G0
ENDBRANCH  13  15
ENDBRANCH  12  13
BRANCH  12  17
ATOM     17  C   UNL     1      50.368   2.016  24.067  1.00  0.00    -0.006 C 
ATOM     18  C   UNL     1      50.340   0.628  24.726  1.00  0.00     0.008 C 
ATOM     19  C   UNL     1      50.103   3.104  25.125  1.00  0.00     0.008 C 
ENDBRANCH  12  17
ENDBRANCH  11  12
ENDBRANCH   1  11
TORSDOF 1
ENDMDL
MODEL 9
REMARK VINA RESULT:    -0.235      2.252      3.675
REMARK INTER + INTRA:          -0.757
REMARK INTER:                  -2.237
REMARK INTRA:                   1.480
REMARK UNBOUND:                -0.399
REMARK SMILES CC1=CCC[C@@H](C)C(=O)C[C@H](C(C)C)C(=O)C1
REMARK SMILES IDX 8 1 9 2 6 3 7 4 5 5 4 6 3 7 2 8 1 9 10 11 11 12 15 13 16 14
REMARK SMILES IDX 17 15 12 17 13 18 14 19
REMARK H PARENT
REMARK Flexibility Score: 70.00
ROOT
ATOM      1  C   UNL     1      51.809   2.140  20.869  1.00  0.00     0.136 C 
ATOM      2  O   UNL     1      52.788   2.869  20.788  1.00  0.00    -0.299 OA
ENDROOT
BRANCH   1   3
ATOM      3  C   UNL     1      51.316   1.508  19.579  1.00  0.00     0.053 C 
ATOM      4  C   UNL     1      49.925   1.951  19.096  1.00  0.00     0.016 C 
BRANCH   3   5
ATOM      5  C   UNL     1      51.462  -0.031  19.617  1.00  0.00     0.015 C 
BRANCH   5   6
ATOM      6  C   UNL     1      50.133  -0.803  19.757  1.00  0.00     0.028 C 
BRANCH   6   7
ATOM      7  C   UNL     1      49.917  -1.355  21.153  1.00  0.00    -0.028 C 
ATOM      8  C   UNL     1      50.809  -1.499  22.174  1.00  0.00    -0.070 CG0
ATOM      9  C   UNL     1      50.272  -2.110  23.447  1.00  0.00     0.039 C 
ATOM     10  G   UNL     1      52.309  -1.210  22.141  1.00  0.00     0.000 G0
ENDBRANCH   6   7
ENDBRANCH   5   6
ENDBRANCH   3   5
ENDBRANCH   1   3
BRANCH   1  11
ATOM     11  C   UNL     1      51.120   2.035  22.219  1.00  0.00     0.087 C 
BRANCH  11  12
ATOM     12  C   UNL     1      51.815   1.147  23.295  1.00  0.00     0.066 C 
BRANCH  12  13
ATOM     13  C   UNL     1      52.768   0.073  22.770  1.00  0.00     0.140 C 
ATOM     14  O   UNL     1      53.972   0.278  22.838  1.00  0.00    -0.299 OA
BRANCH  13  15
ATOM     15  C   UNL     1      52.312  -1.212  22.137  1.00  0.00     0.106 CG0
ATOM     16  G   UNL     1      50.808  -1.479  22.188  1.00  0.00     0.000 G0
ENDBRANCH  13  15
ENDBRANCH  12  13
BRANCH  12  17
ATOM     17  C   UNL     1      52.497   2.045  24.379  1.00  0.00    -0.006 C 
ATOM     18  C   UNL     1      53.767   2.728  23.849  1.00  0.00     0.008 C 
ATOM     19  C   UNL     1      51.549   3.097  24.983  1.00  0.00     0.008 C 
ENDBRANCH  12  17
ENDBRANCH  11  12
ENDBRANCH   1  11
TORSDOF 1
ENDMDL
