MODEL 1
REMARK VINA RESULT:    -3.494      0.000      0.000
REMARK INTER + INTRA:          -3.719
REMARK INTER:                  -3.698
REMARK INTRA:                  -0.021
REMARK UNBOUND:                -0.021
REMARK SMILES O=C([O-])c1cccnc1
REMARK SMILES IDX 4 1 5 2 9 3 6 4 8 5 7 6 2 7 1 8 3 9
REMARK H PARENT
REMARK Flexibility Score: inf
ROOT
ATOM      1  C   UNL     1       6.014  -0.328   0.384  1.00  0.00     0.016 A 
ATOM      2  C   UNL     1       6.826  -1.473   0.351  1.00  0.00     0.013 A 
ATOM      3  C   UNL     1       5.554   0.201  -0.835  1.00  0.00     0.120 A 
ATOM      4  C   UNL     1       7.159  -2.061  -0.871  1.00  0.00     0.021 A 
ATOM      5  N   UNL     1       5.893  -0.392  -2.011  1.00  0.00    -0.264 NA
ATOM      6  C   UNL     1       6.678  -1.500  -2.054  1.00  0.00     0.111 A 
ENDROOT
BRANCH   1   7
ATOM      7  C   UNL     1       5.654   0.304   1.671  1.00  0.00     0.073 C 
ATOM      8  O   UNL     1       5.425  -0.401   2.690  1.00  0.00    -0.545 OA
ATOM      9  O   UNL     1       5.565   1.688   1.775  1.00  0.00    -0.545 OA
ENDBRANCH   1   7
TORSDOF 1
ENDMDL
MODEL 2
REMARK VINA RESULT:    -3.387      1.054      1.549
REMARK INTER + INTRA:          -3.606
REMARK INTER:                  -3.589
REMARK INTRA:                  -0.017
REMARK UNBOUND:                -0.021
REMARK SMILES O=C([O-])c1cccnc1
REMARK SMILES IDX 4 1 5 2 9 3 6 4 8 5 7 6 2 7 1 8 3 9
REMARK H PARENT
REMARK Flexibility Score: inf
ROOT
ATOM      1  C   UNL     1       6.184  -0.196   0.415  1.00  0.00     0.016 A 
ATOM      2  C   UNL     1       5.369  -0.291  -0.724  1.00  0.00     0.013 A 
ATOM      3  C   UNL     1       7.512  -0.650   0.327  1.00  0.00     0.120 A 
ATOM      4  C   UNL     1       5.880  -0.823  -1.910  1.00  0.00     0.021 A 
ATOM      5  N   UNL     1       7.985  -1.164  -0.840  1.00  0.00    -0.264 NA
ATOM      6  C   UNL     1       7.205  -1.260  -1.948  1.00  0.00     0.111 A 
ENDROOT
BRANCH   1   7
ATOM      7  C   UNL     1       5.653   0.365   1.676  1.00  0.00     0.073 C 
ATOM      8  O   UNL     1       5.394  -0.387   2.654  1.00  0.00    -0.545 OA
ATOM      9  O   UNL     1       5.434   1.732   1.800  1.00  0.00    -0.545 OA
ENDBRANCH   1   7
TORSDOF 1
ENDMDL
MODEL 3
REMARK VINA RESULT:    -3.251      1.121      1.636
REMARK INTER + INTRA:          -3.462
REMARK INTER:                  -3.439
REMARK INTRA:                  -0.024
REMARK UNBOUND:                -0.021
REMARK SMILES O=C([O-])c1cccnc1
REMARK SMILES IDX 4 1 5 2 9 3 6 4 8 5 7 6 2 7 1 8 3 9
REMARK H PARENT
REMARK Flexibility Score: inf
ROOT
ATOM      1  C   UNL     1       6.015   0.503   0.290  1.00  0.00     0.016 A 
ATOM      2  C   UNL     1       5.975  -0.792  -0.253  1.00  0.00     0.013 A 
ATOM      3  C   UNL     1       6.377   1.570  -0.552  1.00  0.00     0.120 A 
ATOM      4  C   UNL     1       6.289  -0.998  -1.598  1.00  0.00     0.021 A 
ATOM      5  N   UNL     1       6.678   1.340  -1.858  1.00  0.00    -0.264 NA
ATOM      6  C   UNL     1       6.642   0.092  -2.393  1.00  0.00     0.111 A 
ENDROOT
BRANCH   1   7
ATOM      7  C   UNL     1       5.685   0.734   1.712  1.00  0.00     0.073 C 
ATOM      8  O   UNL     1       5.708   1.897   2.195  1.00  0.00    -0.545 OA
ATOM      9  O   UNL     1       5.344  -0.332   2.538  1.00  0.00    -0.545 OA
ENDBRANCH   1   7
TORSDOF 1
ENDMDL
MODEL 4
REMARK VINA RESULT:    -3.012      6.859      7.502
REMARK INTER + INTRA:          -3.209
REMARK INTER:                  -3.190
REMARK INTRA:                  -0.019
REMARK UNBOUND:                -0.021
REMARK SMILES O=C([O-])c1cccnc1
REMARK SMILES IDX 4 1 5 2 9 3 6 4 8 5 7 6 2 7 1 8 3 9
REMARK H PARENT
REMARK Flexibility Score: inf
ROOT
ATOM      1  C   UNL     1       1.966  -3.752  -4.219  1.00  0.00     0.016 A 
ATOM      2  C   UNL     1       1.045  -4.013  -3.191  1.00  0.00     0.013 A 
ATOM      3  C   UNL     1       2.627  -4.841  -4.815  1.00  0.00     0.120 A 
ATOM      4  C   UNL     1       0.802  -5.326  -2.783  1.00  0.00     0.021 A 
ATOM      5  N   UNL     1       2.371  -6.110  -4.399  1.00  0.00    -0.264 NA
ATOM      6  C   UNL     1       1.482  -6.373  -3.406  1.00  0.00     0.111 A 
ENDROOT
BRANCH   1   7
ATOM      7  C   UNL     1       2.232  -2.366  -4.659  1.00  0.00     0.073 C 
ATOM      8  O   UNL     1       2.475  -1.462  -3.816  1.00  0.00    -0.545 OA
ATOM      9  O   UNL     1       2.219  -2.042  -6.011  1.00  0.00    -0.545 OA
ENDBRANCH   1   7
TORSDOF 1
ENDMDL
MODEL 5
REMARK VINA RESULT:    -2.949      6.878      7.491
REMARK INTER + INTRA:          -3.142
REMARK INTER:                  -3.124
REMARK INTRA:                  -0.019
REMARK UNBOUND:                -0.021
REMARK SMILES O=C([O-])c1cccnc1
REMARK SMILES IDX 4 1 5 2 9 3 6 4 8 5 7 6 2 7 1 8 3 9
REMARK H PARENT
REMARK Flexibility Score: inf
ROOT
ATOM      1  C   UNL     1       1.608  -3.975  -4.215  1.00  0.00     0.016 A 
ATOM      2  C   UNL     1       2.027  -2.673  -3.892  1.00  0.00     0.013 A 
ATOM      3  C   UNL     1       1.760  -4.416  -5.542  1.00  0.00     0.120 A 
ATOM      4  C   UNL     1       2.579  -1.850  -4.876  1.00  0.00     0.021 A 
ATOM      5  N   UNL     1       2.302  -3.593  -6.480  1.00  0.00    -0.264 NA
ATOM      6  C   UNL     1       2.709  -2.334  -6.178  1.00  0.00     0.111 A 
ENDROOT
BRANCH   1   7
ATOM      7  C   UNL     1       1.021  -4.855  -3.183  1.00  0.00     0.073 C 
ATOM      8  O   UNL     1       1.464  -6.021  -3.007  1.00  0.00    -0.545 OA
ATOM      9  O   UNL     1      -0.030  -4.407  -2.390  1.00  0.00    -0.545 OA
ENDBRANCH   1   7
TORSDOF 1
ENDMDL
MODEL 6
REMARK VINA RESULT:    -2.909      2.926      3.757
REMARK INTER + INTRA:          -3.100
REMARK INTER:                  -3.080
REMARK INTRA:                  -0.020
REMARK UNBOUND:                -0.021
REMARK SMILES O=C([O-])c1cccnc1
REMARK SMILES IDX 4 1 5 2 9 3 6 4 8 5 7 6 2 7 1 8 3 9
REMARK H PARENT
REMARK Flexibility Score: inf
ROOT
ATOM      1  C   UNL     1       6.676  -0.412   0.822  1.00  0.00     0.016 A 
ATOM      2  C   UNL     1       8.029  -0.158   1.099  1.00  0.00     0.013 A 
ATOM      3  C   UNL     1       5.725  -0.128   1.819  1.00  0.00     0.120 A 
ATOM      4  C   UNL     1       8.405   0.365   2.338  1.00  0.00     0.021 A 
ATOM      5  N   UNL     1       6.119   0.381   3.017  1.00  0.00    -0.264 NA
ATOM      6  C   UNL     1       7.425   0.630   3.295  1.00  0.00     0.111 A 
ENDROOT
BRANCH   1   7
ATOM      7  C   UNL     1       6.265  -0.966  -0.486  1.00  0.00     0.073 C 
ATOM      8  O   UNL     1       6.900  -1.921  -1.005  1.00  0.00    -0.545 OA
ATOM      9  O   UNL     1       5.170  -0.438  -1.161  1.00  0.00    -0.545 OA
ENDBRANCH   1   7
TORSDOF 1
ENDMDL
MODEL 7
REMARK VINA RESULT:    -2.828     12.021     12.784
REMARK INTER + INTRA:          -3.014
REMARK INTER:                  -2.997
REMARK INTRA:                  -0.017
REMARK UNBOUND:                -0.021
REMARK SMILES O=C([O-])c1cccnc1
REMARK SMILES IDX 4 1 5 2 9 3 6 4 8 5 7 6 2 7 1 8 3 9
REMARK H PARENT
REMARK Flexibility Score: inf
ROOT
ATOM      1  C   UNL     1      -6.192  -0.484   2.174  1.00  0.00     0.016 A 
ATOM      2  C   UNL     1      -4.826  -0.218   1.987  1.00  0.00     0.013 A 
ATOM      3  C   UNL     1      -6.948   0.411   2.953  1.00  0.00     0.120 A 
ATOM      4  C   UNL     1      -4.247   0.913   2.566  1.00  0.00     0.021 A 
ATOM      5  N   UNL     1      -6.358   1.506   3.504  1.00  0.00    -0.264 NA
ATOM      6  C   UNL     1      -5.038   1.773   3.329  1.00  0.00     0.111 A 
ENDROOT
BRANCH   1   7
ATOM      7  C   UNL     1      -6.817  -1.679   1.568  1.00  0.00     0.073 C 
ATOM      8  O   UNL     1      -7.233  -2.623   2.292  1.00  0.00    -0.545 OA
ATOM      9  O   UNL     1      -6.954  -1.777   0.187  1.00  0.00    -0.545 OA
ENDBRANCH   1   7
TORSDOF 1
ENDMDL
MODEL 8
REMARK VINA RESULT:    -2.820      2.849      4.016
REMARK INTER + INTRA:          -3.006
REMARK INTER:                  -2.986
REMARK INTRA:                  -0.020
REMARK UNBOUND:                -0.021
REMARK SMILES O=C([O-])c1cccnc1
REMARK SMILES IDX 4 1 5 2 9 3 6 4 8 5 7 6 2 7 1 8 3 9
REMARK H PARENT
REMARK Flexibility Score: inf
ROOT
ATOM      1  C   UNL     1       5.895   0.364   0.011  1.00  0.00     0.016 A 
ATOM      2  C   UNL     1       5.970   1.668  -0.504  1.00  0.00     0.013 A 
ATOM      3  C   UNL     1       5.741   0.201   1.400  1.00  0.00     0.120 A 
ATOM      4  C   UNL     1       5.891   2.766   0.354  1.00  0.00     0.021 A 
ATOM      5  N   UNL     1       5.666   1.289   2.213  1.00  0.00    -0.264 NA
ATOM      6  C   UNL     1       5.737   2.554   1.725  1.00  0.00     0.111 A 
ENDROOT
BRANCH   1   7
ATOM      7  C   UNL     1       5.979  -0.807  -0.888  1.00  0.00     0.073 C 
ATOM      8  O   UNL     1       5.313  -0.844  -1.957  1.00  0.00    -0.545 OA
ATOM      9  O   UNL     1       6.795  -1.886  -0.564  1.00  0.00    -0.545 OA
ENDBRANCH   1   7
TORSDOF 1
ENDMDL
MODEL 9
REMARK VINA RESULT:    -2.807      4.436      5.288
REMARK INTER + INTRA:          -2.992
REMARK INTER:                  -2.968
REMARK INTRA:                  -0.024
REMARK UNBOUND:                -0.021
REMARK SMILES O=C([O-])c1cccnc1
REMARK SMILES IDX 4 1 5 2 9 3 6 4 8 5 7 6 2 7 1 8 3 9
REMARK H PARENT
REMARK Flexibility Score: inf
ROOT
ATOM      1  C   UNL     1       4.517  -1.532  -4.019  1.00  0.00     0.016 A 
ATOM      2  C   UNL     1       3.146  -1.657  -3.742  1.00  0.00     0.013 A 
ATOM      3  C   UNL     1       4.967  -1.832  -5.318  1.00  0.00     0.120 A 
ATOM      4  C   UNL     1       2.263  -2.069  -4.743  1.00  0.00     0.021 A 
ATOM      5  N   UNL     1       4.085  -2.231  -6.273  1.00  0.00    -0.264 NA
ATOM      6  C   UNL     1       2.758  -2.355  -6.016  1.00  0.00     0.111 A 
ENDROOT
BRANCH   1   7
ATOM      7  C   UNL     1       5.461  -1.098  -2.968  1.00  0.00     0.073 C 
ATOM      8  O   UNL     1       5.048  -0.810  -1.813  1.00  0.00    -0.545 OA
ATOM      9  O   UNL     1       6.822  -1.000  -3.240  1.00  0.00    -0.545 OA
ENDBRANCH   1   7
TORSDOF 1
ENDMDL
