MODEL 1
REMARK VINA RESULT:    -5.211      0.000      0.000
REMARK INTER + INTRA:          -5.611
REMARK INTER:                  -5.515
REMARK INTRA:                  -0.096
REMARK UNBOUND:                -0.096
REMARK SMILES C=C(C)[C@@H]1CC=C(C)C(=O)C1
REMARK SMILES IDX 8 1 7 2 6 3 5 4 4 5 11 6 9 7 10 8 2 9 1 10 3 11
REMARK H PARENT
REMARK Flexibility Score: inf
ROOT
ATOM      1  C   UNL     1      11.019 -15.885  16.143  1.00  0.00     0.048 C 
ATOM      2  C   UNL     1      10.909 -14.507  16.735  1.00  0.00    -0.012 C 
ATOM      3  C   UNL     1      11.599 -13.485  16.201  1.00  0.00    -0.019 C 
ATOM      4  C   UNL     1      11.460 -12.073  16.708  1.00  0.00     0.036 C 
ATOM      5  C   UNL     1      11.127 -12.053  18.212  1.00  0.00     0.025 C 
ATOM      6  C   UNL     1       9.874 -12.902  18.495  1.00  0.00     0.089 C 
ATOM      7  C   UNL     1      10.017 -14.274  17.898  1.00  0.00     0.158 C 
ATOM      8  O   UNL     1       9.332 -15.222  18.369  1.00  0.00    -0.295 OA
ENDROOT
BRANCH   5   9
ATOM      9  C   UNL     1      10.964 -10.629  18.728  1.00  0.00    -0.077 C 
ATOM     10  C   UNL     1       9.983  -9.847  18.248  1.00  0.00     0.008 C 
ATOM     11  C   UNL     1      11.888 -10.064  19.778  1.00  0.00     0.039 C 
ENDBRANCH   5   9
TORSDOF 1
ENDMDL
MODEL 2
REMARK VINA RESULT:    -5.101      2.108      4.650
REMARK INTER + INTRA:          -5.495
REMARK INTER:                  -5.396
REMARK INTRA:                  -0.098
REMARK UNBOUND:                -0.096
REMARK SMILES C=C(C)[C@@H]1CC=C(C)C(=O)C1
REMARK SMILES IDX 8 1 7 2 6 3 5 4 4 5 11 6 9 7 10 8 2 9 1 10 3 11
REMARK H PARENT
REMARK Flexibility Score: inf
ROOT
ATOM      1  C   UNL     1      10.726  -8.909  17.738  1.00  0.00     0.048 C 
ATOM      2  C   UNL     1      10.521 -10.394  17.612  1.00  0.00    -0.012 C 
ATOM      3  C   UNL     1      10.434 -11.159  18.714  1.00  0.00    -0.019 C 
ATOM      4  C   UNL     1      10.149 -12.637  18.641  1.00  0.00     0.036 C 
ATOM      5  C   UNL     1      10.708 -13.247  17.341  1.00  0.00     0.025 C 
ATOM      6  C   UNL     1      10.167 -12.486  16.116  1.00  0.00     0.089 C 
ATOM      7  C   UNL     1      10.393 -11.007  16.268  1.00  0.00     0.158 C 
ATOM      8  O   UNL     1      10.426 -10.283  15.236  1.00  0.00    -0.295 OA
ENDROOT
BRANCH   5   9
ATOM      9  C   UNL     1      10.406 -14.737  17.250  1.00  0.00    -0.077 C 
ATOM     10  C   UNL     1       9.431 -15.274  18.000  1.00  0.00     0.008 C 
ATOM     11  C   UNL     1      11.184 -15.640  16.326  1.00  0.00     0.039 C 
ENDBRANCH   5   9
TORSDOF 1
ENDMDL
MODEL 3
REMARK VINA RESULT:    -5.058      2.877      4.627
REMARK INTER + INTRA:          -5.450
REMARK INTER:                  -5.362
REMARK INTRA:                  -0.088
REMARK UNBOUND:                -0.096
REMARK SMILES C=C(C)[C@@H]1CC=C(C)C(=O)C1
REMARK SMILES IDX 8 1 7 2 6 3 5 4 4 5 11 6 9 7 10 8 2 9 1 10 3 11
REMARK H PARENT
REMARK Flexibility Score: inf
ROOT
ATOM      1  C   UNL     1      12.616 -18.615  13.599  1.00  0.00     0.048 C 
ATOM      2  C   UNL     1      12.106 -17.592  14.577  1.00  0.00    -0.012 C 
ATOM      3  C   UNL     1      12.200 -17.816  15.899  1.00  0.00    -0.019 C 
ATOM      4  C   UNL     1      11.777 -16.789  16.917  1.00  0.00     0.036 C 
ATOM      5  C   UNL     1      10.628 -15.915  16.380  1.00  0.00     0.025 C 
ATOM      6  C   UNL     1      11.022 -15.277  15.035  1.00  0.00     0.089 C 
ATOM      7  C   UNL     1      11.520 -16.324  14.077  1.00  0.00     0.158 C 
ATOM      8  O   UNL     1      11.476 -16.093  12.838  1.00  0.00    -0.295 OA
ENDROOT
BRANCH   5   9
ATOM      9  C   UNL     1      10.209 -14.860  17.395  1.00  0.00    -0.077 C 
ATOM     10  C   UNL     1       9.280 -15.146  18.320  1.00  0.00     0.008 C 
ATOM     11  C   UNL     1      10.817 -13.479  17.387  1.00  0.00     0.039 C 
ENDBRANCH   5   9
TORSDOF 1
ENDMDL
MODEL 4
REMARK VINA RESULT:    -4.910     17.004     19.117
REMARK INTER + INTRA:          -5.293
REMARK INTER:                  -5.197
REMARK INTRA:                  -0.096
REMARK UNBOUND:                -0.096
REMARK SMILES C=C(C)[C@@H]1CC=C(C)C(=O)C1
REMARK SMILES IDX 8 1 7 2 6 3 5 4 4 5 11 6 9 7 10 8 2 9 1 10 3 11
REMARK H PARENT
REMARK Flexibility Score: inf
ROOT
ATOM      1  C   UNL     1      -4.298 -28.959  13.377  1.00  0.00     0.048 C 
ATOM      2  C   UNL     1      -3.349 -27.848  13.734  1.00  0.00    -0.012 C 
ATOM      3  C   UNL     1      -3.403 -26.677  13.077  1.00  0.00    -0.019 C 
ATOM      4  C   UNL     1      -2.529 -25.508  13.452  1.00  0.00     0.036 C 
ATOM      5  C   UNL     1      -1.185 -25.984  14.035  1.00  0.00     0.025 C 
ATOM      6  C   UNL     1      -1.423 -26.940  15.219  1.00  0.00     0.089 C 
ATOM      7  C   UNL     1      -2.368 -28.043  14.830  1.00  0.00     0.158 C 
ATOM      8  O   UNL     1      -2.350 -29.124  15.479  1.00  0.00    -0.295 OA
ENDROOT
BRANCH   5   9
ATOM      9  C   UNL     1      -0.303 -24.809  14.436  1.00  0.00    -0.077 C 
ATOM     10  C   UNL     1      -0.741 -23.915  15.337  1.00  0.00     0.008 C 
ATOM     11  C   UNL     1       1.069 -24.617  13.839  1.00  0.00     0.039 C 
ENDBRANCH   5   9
TORSDOF 1
ENDMDL
MODEL 5
REMARK VINA RESULT:    -4.886      1.928      4.787
REMARK INTER + INTRA:          -5.268
REMARK INTER:                  -5.169
REMARK INTRA:                  -0.098
REMARK UNBOUND:                -0.096
REMARK SMILES C=C(C)[C@@H]1CC=C(C)C(=O)C1
REMARK SMILES IDX 8 1 7 2 6 3 5 4 4 5 11 6 9 7 10 8 2 9 1 10 3 11
REMARK H PARENT
REMARK Flexibility Score: inf
ROOT
ATOM      1  C   UNL     1       9.945 -10.424  18.418  1.00  0.00     0.048 C 
ATOM      2  C   UNL     1      10.113 -11.743  17.715  1.00  0.00    -0.012 C 
ATOM      3  C   UNL     1      10.136 -12.887  18.421  1.00  0.00    -0.019 C 
ATOM      4  C   UNL     1      10.221 -14.236  17.756  1.00  0.00     0.036 C 
ATOM      5  C   UNL     1      11.000 -14.154  16.430  1.00  0.00     0.025 C 
ATOM      6  C   UNL     1      10.379 -13.087  15.509  1.00  0.00     0.089 C 
ATOM      7  C   UNL     1      10.231 -11.779  16.236  1.00  0.00     0.158 C 
ATOM      8  O   UNL     1      10.162 -10.711  15.570  1.00  0.00    -0.295 OA
ENDROOT
BRANCH   5   9
ATOM      9  C   UNL     1      11.073 -15.510  15.741  1.00  0.00    -0.077 C 
ATOM     10  C   UNL     1      10.864 -15.605  14.418  1.00  0.00     0.008 C 
ATOM     11  C   UNL     1      11.375 -16.769  16.515  1.00  0.00     0.039 C 
ENDBRANCH   5   9
TORSDOF 1
ENDMDL
MODEL 6
REMARK VINA RESULT:    -4.858      1.796      2.401
REMARK INTER + INTRA:          -5.238
REMARK INTER:                  -5.145
REMARK INTRA:                  -0.093
REMARK UNBOUND:                -0.096
REMARK SMILES C=C(C)[C@@H]1CC=C(C)C(=O)C1
REMARK SMILES IDX 8 1 7 2 6 3 5 4 4 5 11 6 9 7 10 8 2 9 1 10 3 11
REMARK H PARENT
REMARK Flexibility Score: inf
ROOT
ATOM      1  C   UNL     1       9.570 -15.619  16.909  1.00  0.00     0.048 C 
ATOM      2  C   UNL     1       9.937 -14.163  17.007  1.00  0.00    -0.012 C 
ATOM      3  C   UNL     1      10.083 -13.583  18.211  1.00  0.00    -0.019 C 
ATOM      4  C   UNL     1      10.528 -12.152  18.361  1.00  0.00     0.036 C 
ATOM      5  C   UNL     1      10.065 -11.298  17.165  1.00  0.00     0.025 C 
ATOM      6  C   UNL     1      10.546 -11.924  15.842  1.00  0.00     0.089 C 
ATOM      7  C   UNL     1      10.158 -13.375  15.770  1.00  0.00     0.158 C 
ATOM      8  O   UNL     1      10.068 -13.930  14.641  1.00  0.00    -0.295 OA
ENDROOT
BRANCH   5   9
ATOM      9  C   UNL     1      10.528  -9.854  17.298  1.00  0.00    -0.077 C 
ATOM     10  C   UNL     1      10.165  -9.126  18.366  1.00  0.00     0.008 C 
ATOM     11  C   UNL     1      11.396  -9.207  16.246  1.00  0.00     0.039 C 
ENDBRANCH   5   9
TORSDOF 1
ENDMDL
MODEL 7
REMARK VINA RESULT:    -4.821      1.935      2.750
REMARK INTER + INTRA:          -5.199
REMARK INTER:                  -5.110
REMARK INTRA:                  -0.089
REMARK UNBOUND:                -0.096
REMARK SMILES C=C(C)[C@@H]1CC=C(C)C(=O)C1
REMARK SMILES IDX 8 1 7 2 6 3 5 4 4 5 11 6 9 7 10 8 2 9 1 10 3 11
REMARK H PARENT
REMARK Flexibility Score: inf
ROOT
ATOM      1  C   UNL     1      11.602 -17.463  16.164  1.00  0.00     0.048 C 
ATOM      2  C   UNL     1      11.303 -16.033  16.522  1.00  0.00    -0.012 C 
ATOM      3  C   UNL     1      10.446 -15.751  17.519  1.00  0.00    -0.019 C 
ATOM      4  C   UNL     1      10.176 -14.338  17.967  1.00  0.00     0.036 C 
ATOM      5  C   UNL     1      10.324 -13.347  16.798  1.00  0.00     0.025 C 
ATOM      6  C   UNL     1      11.708 -13.497  16.139  1.00  0.00     0.089 C 
ATOM      7  C   UNL     1      11.975 -14.934  15.786  1.00  0.00     0.158 C 
ATOM      8  O   UNL     1      12.815 -15.198  14.883  1.00  0.00    -0.295 OA
ENDROOT
BRANCH   5   9
ATOM      9  C   UNL     1      10.074 -11.913  17.247  1.00  0.00    -0.077 C 
ATOM     10  C   UNL     1       9.395 -11.068  16.455  1.00  0.00     0.008 C 
ATOM     11  C   UNL     1      10.578 -11.408  18.576  1.00  0.00     0.039 C 
ENDBRANCH   5   9
TORSDOF 1
ENDMDL
MODEL 8
REMARK VINA RESULT:    -4.809      2.044      5.218
REMARK INTER + INTRA:          -5.186
REMARK INTER:                  -5.089
REMARK INTRA:                  -0.097
REMARK UNBOUND:                -0.096
REMARK SMILES C=C(C)[C@@H]1CC=C(C)C(=O)C1
REMARK SMILES IDX 8 1 7 2 6 3 5 4 4 5 11 6 9 7 10 8 2 9 1 10 3 11
REMARK H PARENT
REMARK Flexibility Score: inf
ROOT
ATOM      1  C   UNL     1       9.822 -12.391  16.878  1.00  0.00     0.048 C 
ATOM      2  C   UNL     1      10.544 -13.691  16.649  1.00  0.00    -0.012 C 
ATOM      3  C   UNL     1      11.495 -13.778  15.702  1.00  0.00    -0.019 C 
ATOM      4  C   UNL     1      12.301 -15.033  15.491  1.00  0.00     0.036 C 
ATOM      5  C   UNL     1      11.483 -16.286  15.856  1.00  0.00     0.025 C 
ATOM      6  C   UNL     1      10.943 -16.175  17.294  1.00  0.00     0.089 C 
ATOM      7  C   UNL     1      10.220 -14.871  17.489  1.00  0.00     0.158 C 
ATOM      8  O   UNL     1       9.363 -14.776  18.409  1.00  0.00    -0.295 OA
ENDROOT
BRANCH   5   9
ATOM      9  C   UNL     1      12.298 -17.559  15.665  1.00  0.00    -0.077 C 
ATOM     10  C   UNL     1      13.020 -18.055  16.681  1.00  0.00     0.008 C 
ATOM     11  C   UNL     1      12.317 -18.287  14.344  1.00  0.00     0.039 C 
ENDBRANCH   5   9
TORSDOF 1
ENDMDL
MODEL 9
REMARK VINA RESULT:    -4.785      2.002      5.225
REMARK INTER + INTRA:          -5.160
REMARK INTER:                  -5.071
REMARK INTRA:                  -0.089
REMARK UNBOUND:                -0.096
REMARK SMILES C=C(C)[C@@H]1CC=C(C)C(=O)C1
REMARK SMILES IDX 8 1 7 2 6 3 5 4 4 5 11 6 9 7 10 8 2 9 1 10 3 11
REMARK H PARENT
REMARK Flexibility Score: inf
ROOT
ATOM      1  C   UNL     1       9.971 -12.110  18.588  1.00  0.00     0.048 C 
ATOM      2  C   UNL     1      10.379 -13.307  17.773  1.00  0.00    -0.012 C 
ATOM      3  C   UNL     1       9.860 -14.517  18.044  1.00  0.00    -0.019 C 
ATOM      4  C   UNL     1      10.175 -15.729  17.206  1.00  0.00     0.036 C 
ATOM      5  C   UNL     1      11.589 -15.633  16.601  1.00  0.00     0.025 C 
ATOM      6  C   UNL     1      11.747 -14.320  15.812  1.00  0.00     0.089 C 
ATOM      7  C   UNL     1      11.340 -13.143  16.655  1.00  0.00     0.158 C 
ATOM      8  O   UNL     1      11.790 -12.000  16.370  1.00  0.00    -0.295 OA
ENDROOT
BRANCH   5   9
ATOM      9  C   UNL     1      11.908 -16.844  15.735  1.00  0.00    -0.077 C 
ATOM     10  C   UNL     1      12.339 -17.982  16.302  1.00  0.00     0.008 C 
ATOM     11  C   UNL     1      11.753 -16.800  14.235  1.00  0.00     0.039 C 
ENDBRANCH   5   9
TORSDOF 1
ENDMDL
