MODEL 1
REMARK VINA RESULT:    -7.055      0.000      0.000
REMARK INTER + INTRA:          -9.749
REMARK INTER:                  -8.705
REMARK INTRA:                  -1.044
REMARK UNBOUND:                -1.044
REMARK SMILES CC(C)=CCC[C@@H](C)c1ccc(C)cc1
REMARK SMILES IDX 6 1 7 2 8 3 9 4 13 5 12 6 11 7 14 8 10 9 15 10 5 11 4 12
REMARK SMILES IDX 2 13 1 14 3 15
REMARK H PARENT
REMARK Flexibility Score: inf
ROOT
ATOM      1  C   UNL     1      16.637  -0.097  -2.209  1.00  0.00     0.012 C 
ENDROOT
BRANCH   1   2
ATOM      2  C   UNL     1      15.257  -0.513  -2.766  1.00  0.00     0.016 C 
ATOM      3  C   UNL     1      14.910  -1.979  -2.454  1.00  0.00     0.013 C 
BRANCH   2   4
ATOM      4  C   UNL     1      14.157   0.462  -2.371  1.00  0.00    -0.045 A 
ATOM      5  C   UNL     1      11.123   3.336  -1.269  1.00  0.00     0.044 C 
ATOM      6  C   UNL     1      12.197   2.354  -1.631  1.00  0.00    -0.051 A 
ATOM      7  C   UNL     1      12.326   1.155  -0.918  1.00  0.00     0.004 A 
ATOM      8  C   UNL     1      13.042   2.599  -2.723  1.00  0.00     0.004 A 
ATOM      9  C   UNL     1      13.304   0.222  -1.276  1.00  0.00     0.004 A 
ATOM     10  C   UNL     1      14.019   1.668  -3.081  1.00  0.00     0.004 A 
ENDBRANCH   2   4
ENDBRANCH   1   2
BRANCH   1  11
ATOM     11  C   UNL     1      17.256  -1.097  -1.218  1.00  0.00     0.028 C 
BRANCH  11  12
ATOM     12  C   UNL     1      17.477  -0.446   0.126  1.00  0.00    -0.028 C 
ATOM     13  C   UNL     1      16.698  -0.660   1.210  1.00  0.00    -0.080 C 
ATOM     14  C   UNL     1      17.025   0.023   2.514  1.00  0.00     0.039 C 
ATOM     15  C   UNL     1      15.468  -1.532   1.154  1.00  0.00     0.039 C 
ENDBRANCH  11  12
ENDBRANCH   1  11
TORSDOF 4
ENDMDL
MODEL 2
REMARK VINA RESULT:    -7.036      1.950      3.532
REMARK INTER + INTRA:          -9.725
REMARK INTER:                  -8.771
REMARK INTRA:                  -0.954
REMARK UNBOUND:                -1.044
REMARK SMILES CC(C)=CCC[C@@H](C)c1ccc(C)cc1
REMARK SMILES IDX 6 1 7 2 8 3 9 4 13 5 12 6 11 7 14 8 10 9 15 10 5 11 4 12
REMARK SMILES IDX 2 13 1 14 3 15
REMARK H PARENT
REMARK Flexibility Score: inf
ROOT
ATOM      1  C   UNL     1      15.442  -2.274  -1.512  1.00  0.00     0.012 C 
ENDROOT
BRANCH   1   2
ATOM      2  C   UNL     1      15.893  -0.826  -1.807  1.00  0.00     0.016 C 
ATOM      3  C   UNL     1      16.762  -0.723  -3.073  1.00  0.00     0.013 C 
BRANCH   2   4
ATOM      4  C   UNL     1      14.729   0.154  -1.796  1.00  0.00    -0.045 A 
ATOM      5  C   UNL     1      11.503   3.031  -1.828  1.00  0.00     0.044 C 
ATOM      6  C   UNL     1      12.642   2.056  -1.805  1.00  0.00    -0.051 A 
ATOM      7  C   UNL     1      12.865   1.256  -0.676  1.00  0.00     0.004 A 
ATOM      8  C   UNL     1      13.457   1.894  -2.934  1.00  0.00     0.004 A 
ATOM      9  C   UNL     1      13.905   0.322  -0.666  1.00  0.00     0.004 A 
ATOM     10  C   UNL     1      14.497   0.961  -2.925  1.00  0.00     0.004 A 
ENDBRANCH   2   4
ENDBRANCH   1   2
BRANCH   1  11
ATOM     11  C   UNL     1      14.603  -2.924  -2.625  1.00  0.00     0.028 C 
BRANCH  11  12
ATOM     12  C   UNL     1      13.813  -4.090  -2.084  1.00  0.00    -0.028 C 
ATOM     13  C   UNL     1      12.550  -3.995  -1.608  1.00  0.00    -0.080 C 
ATOM     14  C   UNL     1      11.841  -5.231  -1.115  1.00  0.00     0.039 C 
ATOM     15  C   UNL     1      11.828  -2.675  -1.506  1.00  0.00     0.039 C 
ENDBRANCH  11  12
ENDBRANCH   1  11
TORSDOF 4
ENDMDL
MODEL 3
REMARK VINA RESULT:    -7.001      2.386      4.969
REMARK INTER + INTRA:          -9.682
REMARK INTER:                  -8.625
REMARK INTRA:                  -1.057
REMARK UNBOUND:                -1.044
REMARK SMILES CC(C)=CCC[C@@H](C)c1ccc(C)cc1
REMARK SMILES IDX 6 1 7 2 8 3 9 4 13 5 12 6 11 7 14 8 10 9 15 10 5 11 4 12
REMARK SMILES IDX 2 13 1 14 3 15
REMARK H PARENT
REMARK Flexibility Score: inf
ROOT
ATOM      1  C   UNL     1      15.544  -1.064  -3.171  1.00  0.00     0.012 C 
ENDROOT
BRANCH   1   2
ATOM      2  C   UNL     1      15.656  -2.069  -2.002  1.00  0.00     0.016 C 
ATOM      3  C   UNL     1      16.244  -1.434  -0.729  1.00  0.00     0.013 C 
BRANCH   2   4
ATOM      4  C   UNL     1      14.353  -2.815  -1.756  1.00  0.00    -0.045 A 
ATOM      5  C   UNL     1      10.653  -4.976  -1.188  1.00  0.00     0.044 C 
ATOM      6  C   UNL     1      11.924  -4.212  -1.412  1.00  0.00    -0.051 A 
ATOM      7  C   UNL     1      12.102  -2.950  -0.831  1.00  0.00     0.004 A 
ATOM      8  C   UNL     1      12.969  -4.780  -2.155  1.00  0.00     0.004 A 
ATOM      9  C   UNL     1      13.300  -2.252  -1.010  1.00  0.00     0.004 A 
ATOM     10  C   UNL     1      14.167  -4.083  -2.335  1.00  0.00     0.004 A 
ENDBRANCH   2   4
ENDBRANCH   1   2
BRANCH   1  11
ATOM     11  C   UNL     1      15.720   0.410  -2.767  1.00  0.00     0.028 C 
BRANCH  11  12
ATOM     12  C   UNL     1      14.481   1.204  -3.099  1.00  0.00    -0.028 C 
ATOM     13  C   UNL     1      13.589   1.639  -2.180  1.00  0.00    -0.080 C 
ATOM     14  C   UNL     1      12.396   2.450  -2.619  1.00  0.00     0.039 C 
ATOM     15  C   UNL     1      13.717   1.300  -0.715  1.00  0.00     0.039 C 
ENDBRANCH  11  12
ENDBRANCH   1  11
TORSDOF 4
ENDMDL
MODEL 4
REMARK VINA RESULT:    -6.960      1.166      1.617
REMARK INTER + INTRA:          -9.632
REMARK INTER:                  -8.593
REMARK INTRA:                  -1.039
REMARK UNBOUND:                -1.044
REMARK SMILES CC(C)=CCC[C@@H](C)c1ccc(C)cc1
REMARK SMILES IDX 6 1 7 2 8 3 9 4 13 5 12 6 11 7 14 8 10 9 15 10 5 11 4 12
REMARK SMILES IDX 2 13 1 14 3 15
REMARK H PARENT
REMARK Flexibility Score: inf
ROOT
ATOM      1  C   UNL     1      14.362  -1.501  -1.529  1.00  0.00     0.012 C 
ENDROOT
BRANCH   1   2
ATOM      2  C   UNL     1      14.930  -0.078  -1.730  1.00  0.00     0.016 C 
ATOM      3  C   UNL     1      15.737   0.059  -3.033  1.00  0.00     0.013 C 
BRANCH   2   4
ATOM      4  C   UNL     1      13.865   0.997  -1.567  1.00  0.00    -0.045 A 
ATOM      5  C   UNL     1      10.905   4.125  -1.200  1.00  0.00     0.044 C 
ATOM      6  C   UNL     1      11.956   3.063  -1.324  1.00  0.00    -0.051 A 
ATOM      7  C   UNL     1      12.414   2.386  -0.186  1.00  0.00     0.004 A 
ATOM      8  C   UNL     1      12.444   2.695  -2.586  1.00  0.00     0.004 A 
ATOM      9  C   UNL     1      13.368   1.371  -0.303  1.00  0.00     0.004 A 
ATOM     10  C   UNL     1      13.398   1.680  -2.705  1.00  0.00     0.004 A 
ENDBRANCH   2   4
ENDBRANCH   1   2
BRANCH   1  11
ATOM     11  C   UNL     1      14.687  -2.133  -0.165  1.00  0.00     0.028 C 
BRANCH  11  12
ATOM     12  C   UNL     1      15.790  -1.370   0.526  1.00  0.00    -0.028 C 
ATOM     13  C   UNL     1      15.724  -0.930   1.804  1.00  0.00    -0.080 C 
ATOM     14  C   UNL     1      16.897  -0.198   2.405  1.00  0.00     0.039 C 
ATOM     15  C   UNL     1      14.487  -1.105   2.649  1.00  0.00     0.039 C 
ENDBRANCH  11  12
ENDBRANCH   1  11
TORSDOF 4
ENDMDL
MODEL 5
REMARK VINA RESULT:    -6.944      2.220      5.313
REMARK INTER + INTRA:          -9.612
REMARK INTER:                  -8.617
REMARK INTRA:                  -0.995
REMARK UNBOUND:                -1.044
REMARK SMILES CC(C)=CCC[C@@H](C)c1ccc(C)cc1
REMARK SMILES IDX 6 1 7 2 8 3 9 4 13 5 12 6 11 7 14 8 10 9 15 10 5 11 4 12
REMARK SMILES IDX 2 13 1 14 3 15
REMARK H PARENT
REMARK Flexibility Score: inf
ROOT
ATOM      1  C   UNL     1      15.666  -2.510  -1.643  1.00  0.00     0.012 C 
ENDROOT
BRANCH   1   2
ATOM      2  C   UNL     1      15.684  -1.039  -1.169  1.00  0.00     0.016 C 
ATOM      3  C   UNL     1      14.587  -0.190  -1.835  1.00  0.00     0.013 C 
BRANCH   2   4
ATOM      4  C   UNL     1      15.699  -0.921   0.348  1.00  0.00    -0.045 A 
ATOM      5  C   UNL     1      15.874  -0.618   4.656  1.00  0.00     0.044 C 
ATOM      6  C   UNL     1      15.829  -0.753   3.163  1.00  0.00    -0.051 A 
ATOM      7  C   UNL     1      14.727  -1.355   2.541  1.00  0.00     0.004 A 
ATOM      8  C   UNL     1      16.859  -0.223   2.373  1.00  0.00     0.004 A 
ATOM      9  C   UNL     1      14.667  -1.450   1.148  1.00  0.00     0.004 A 
ATOM     10  C   UNL     1      16.800  -0.317   0.981  1.00  0.00     0.004 A 
ENDBRANCH   2   4
ENDBRANCH   1   2
BRANCH   1  11
ATOM     11  C   UNL     1      14.535  -2.853  -2.627  1.00  0.00     0.028 C 
BRANCH  11  12
ATOM     12  C   UNL     1      13.740  -4.036  -2.133  1.00  0.00    -0.028 C 
ATOM     13  C   UNL     1      12.527  -3.944  -1.542  1.00  0.00    -0.080 C 
ATOM     14  C   UNL     1      11.807  -5.196  -1.109  1.00  0.00     0.039 C 
ATOM     15  C   UNL     1      11.876  -2.614  -1.252  1.00  0.00     0.039 C 
ENDBRANCH  11  12
ENDBRANCH   1  11
TORSDOF 4
ENDMDL
MODEL 6
REMARK VINA RESULT:    -6.824      2.770      4.765
REMARK INTER + INTRA:          -9.464
REMARK INTER:                  -8.383
REMARK INTRA:                  -1.081
REMARK UNBOUND:                -1.044
REMARK SMILES CC(C)=CCC[C@@H](C)c1ccc(C)cc1
REMARK SMILES IDX 6 1 7 2 8 3 9 4 13 5 12 6 11 7 14 8 10 9 15 10 5 11 4 12
REMARK SMILES IDX 2 13 1 14 3 15
REMARK H PARENT
REMARK Flexibility Score: inf
ROOT
ATOM      1  C   UNL     1      15.570  -1.503  -0.596  1.00  0.00     0.012 C 
ENDROOT
BRANCH   1   2
ATOM      2  C   UNL     1      14.695  -1.562  -1.869  1.00  0.00     0.016 C 
ATOM      3  C   UNL     1      15.529  -1.705  -3.154  1.00  0.00     0.013 C 
BRANCH   2   4
ATOM      4  C   UNL     1      13.582  -2.593  -1.756  1.00  0.00    -0.045 A 
ATOM      5  C   UNL     1      10.372  -5.455  -1.325  1.00  0.00     0.044 C 
ATOM      6  C   UNL     1      11.493  -4.466  -1.442  1.00  0.00    -0.051 A 
ATOM      7  C   UNL     1      12.778  -4.894  -1.802  1.00  0.00     0.004 A 
ATOM      8  C   UNL     1      11.252  -3.098  -1.253  1.00  0.00     0.004 A 
ATOM      9  C   UNL     1      13.816  -3.969  -1.946  1.00  0.00     0.004 A 
ATOM     10  C   UNL     1      12.288  -2.172  -1.397  1.00  0.00     0.004 A 
ENDBRANCH   2   4
ENDBRANCH   1   2
BRANCH   1  11
ATOM     11  C   UNL     1      14.984  -0.654   0.545  1.00  0.00     0.028 C 
BRANCH  11  12
ATOM     12  C   UNL     1      14.319   0.586  -0.002  1.00  0.00    -0.028 C 
ATOM     13  C   UNL     1      13.093   1.018   0.371  1.00  0.00    -0.080 C 
ATOM     14  C   UNL     1      12.534   2.287  -0.220  1.00  0.00     0.039 C 
ATOM     15  C   UNL     1      12.229   0.243   1.335  1.00  0.00     0.039 C 
ENDBRANCH  11  12
ENDBRANCH   1  11
TORSDOF 4
ENDMDL
MODEL 7
REMARK VINA RESULT:    -6.772      1.037      5.080
REMARK INTER + INTRA:          -9.400
REMARK INTER:                  -8.468
REMARK INTRA:                  -0.932
REMARK UNBOUND:                -1.044
REMARK SMILES CC(C)=CCC[C@@H](C)c1ccc(C)cc1
REMARK SMILES IDX 6 1 7 2 8 3 9 4 13 5 12 6 11 7 14 8 10 9 15 10 5 11 4 12
REMARK SMILES IDX 2 13 1 14 3 15
REMARK H PARENT
REMARK Flexibility Score: inf
ROOT
ATOM      1  C   UNL     1      14.702  -0.390  -2.676  1.00  0.00     0.012 C 
ENDROOT
BRANCH   1   2
ATOM      2  C   UNL     1      15.917  -1.165  -2.117  1.00  0.00     0.016 C 
ATOM      3  C   UNL     1      17.210  -0.887  -2.904  1.00  0.00     0.013 C 
BRANCH   2   4
ATOM      4  C   UNL     1      16.076  -0.981  -0.615  1.00  0.00    -0.045 A 
ATOM      5  C   UNL     1      16.397  -0.418   3.659  1.00  0.00     0.044 C 
ATOM      6  C   UNL     1      16.272  -0.583   2.173  1.00  0.00    -0.051 A 
ATOM      7  C   UNL     1      17.326  -0.206   1.330  1.00  0.00     0.004 A 
ATOM      8  C   UNL     1      15.126  -1.172   1.621  1.00  0.00     0.004 A 
ATOM      9  C   UNL     1      17.225  -0.392  -0.052  1.00  0.00     0.004 A 
ATOM     10  C   UNL     1      15.024  -1.358   0.240  1.00  0.00     0.004 A 
ENDBRANCH   2   4
ENDBRANCH   1   2
BRANCH   1  11
ATOM     11  C   UNL     1      14.902   1.132  -2.772  1.00  0.00     0.028 C 
BRANCH  11  12
ATOM     12  C   UNL     1      13.573   1.838  -2.868  1.00  0.00    -0.028 C 
ATOM     13  C   UNL     1      12.824   2.194  -1.800  1.00  0.00    -0.080 C 
ATOM     14  C   UNL     1      11.520   2.922  -2.008  1.00  0.00     0.039 C 
ATOM     15  C   UNL     1      13.224   1.846  -0.387  1.00  0.00     0.039 C 
ENDBRANCH  11  12
ENDBRANCH   1  11
TORSDOF 4
ENDMDL
MODEL 8
REMARK VINA RESULT:    -6.769      2.753      3.943
REMARK INTER + INTRA:          -9.396
REMARK INTER:                  -8.740
REMARK INTRA:                  -0.656
REMARK UNBOUND:                -1.044
REMARK SMILES CC(C)=CCC[C@@H](C)c1ccc(C)cc1
REMARK SMILES IDX 6 1 7 2 8 3 9 4 13 5 12 6 11 7 14 8 10 9 15 10 5 11 4 12
REMARK SMILES IDX 2 13 1 14 3 15
REMARK H PARENT
REMARK Flexibility Score: inf
ROOT
ATOM      1  C   UNL     1      16.532  -1.809  -1.236  1.00  0.00     0.012 C 
ENDROOT
BRANCH   1   2
ATOM      2  C   UNL     1      15.405  -1.581  -2.269  1.00  0.00     0.016 C 
ATOM      3  C   UNL     1      15.910  -1.653  -3.721  1.00  0.00     0.013 C 
BRANCH   2   4
ATOM      4  C   UNL     1      14.195  -2.467  -2.009  1.00  0.00    -0.045 A 
ATOM      5  C   UNL     1      10.738  -4.914  -1.148  1.00  0.00     0.044 C 
ATOM      6  C   UNL     1      11.949  -4.071  -1.416  1.00  0.00    -0.051 A 
ATOM      7  C   UNL     1      13.100  -4.644  -1.974  1.00  0.00     0.004 A 
ATOM      8  C   UNL     1      11.920  -2.691  -1.168  1.00  0.00     0.004 A 
ATOM      9  C   UNL     1      14.217  -3.853  -2.257  1.00  0.00     0.004 A 
ATOM     10  C   UNL     1      13.035  -1.900  -1.450  1.00  0.00     0.004 A 
ENDBRANCH   2   4
ENDBRANCH   1   2
BRANCH   1  11
ATOM     11  C   UNL     1      17.243  -0.527  -0.771  1.00  0.00     0.028 C 
BRANCH  11  12
ATOM     12  C   UNL     1      17.363  -0.501   0.733  1.00  0.00    -0.028 C 
ATOM     13  C   UNL     1      16.338  -0.225   1.572  1.00  0.00    -0.080 C 
ATOM     14  C   UNL     1      16.562  -0.252   3.062  1.00  0.00     0.039 C 
ATOM     15  C   UNL     1      14.970   0.162   1.067  1.00  0.00     0.039 C 
ENDBRANCH  11  12
ENDBRANCH   1  11
TORSDOF 4
ENDMDL
MODEL 9
REMARK VINA RESULT:    -6.624      3.358      5.373
REMARK INTER + INTRA:          -9.217
REMARK INTER:                  -8.774
REMARK INTRA:                  -0.443
REMARK UNBOUND:                -1.044
REMARK SMILES CC(C)=CCC[C@@H](C)c1ccc(C)cc1
REMARK SMILES IDX 6 1 7 2 8 3 9 4 13 5 12 6 11 7 14 8 10 9 15 10 5 11 4 12
REMARK SMILES IDX 2 13 1 14 3 15
REMARK H PARENT
REMARK Flexibility Score: inf
ROOT
ATOM      1  C   UNL     1      15.808  -1.169   3.029  1.00  0.00     0.012 C 
ENDROOT
BRANCH   1   2
ATOM      2  C   UNL     1      16.047  -0.484   1.664  1.00  0.00     0.016 C 
ATOM      3  C   UNL     1      17.516  -0.078   1.454  1.00  0.00     0.013 C 
BRANCH   2   4
ATOM      4  C   UNL     1      15.474  -1.289   0.507  1.00  0.00    -0.045 A 
ATOM      5  C   UNL     1      13.799  -3.668  -2.689  1.00  0.00     0.044 C 
ATOM      6  C   UNL     1      14.394  -2.870  -1.568  1.00  0.00    -0.051 A 
ATOM      7  C   UNL     1      15.652  -2.270  -1.717  1.00  0.00     0.004 A 
ATOM      8  C   UNL     1      13.672  -2.667  -0.383  1.00  0.00     0.004 A 
ATOM      9  C   UNL     1      16.193  -1.497  -0.687  1.00  0.00     0.004 A 
ATOM     10  C   UNL     1      14.212  -1.894   0.648  1.00  0.00     0.004 A 
ENDBRANCH   2   4
ENDBRANCH   1   2
BRANCH   1  11
ATOM     11  C   UNL     1      16.657  -0.609   4.183  1.00  0.00     0.028 C 
BRANCH  11  12
ATOM     12  C   UNL     1      15.958  -0.816   5.505  1.00  0.00    -0.028 C 
ATOM     13  C   UNL     1      16.545  -1.357   6.597  1.00  0.00    -0.080 C 
ATOM     14  C   UNL     1      15.761  -1.494   7.878  1.00  0.00     0.039 C 
ATOM     15  C   UNL     1      17.959  -1.882   6.571  1.00  0.00     0.039 C 
ENDBRANCH  11  12
ENDBRANCH   1  11
TORSDOF 4
ENDMDL
