MODEL 1
REMARK VINA RESULT:    -2.729      0.000      0.000
REMARK INTER + INTRA:          -4.402
REMARK INTER:                  -3.925
REMARK INTRA:                  -0.476
REMARK UNBOUND:                -0.476
REMARK SMILES CCCCCCCCCO
REMARK SMILES IDX 6 1 5 2 4 3 3 4 2 5 1 6 7 7 8 8 9 9 10 10
REMARK H PARENT 10 11
REMARK Flexibility Score: inf
ROOT
ATOM      1  C   UNL     1     143.905 139.869 143.920  1.00  0.00     0.000 C 
ENDROOT
BRANCH   1   2
ATOM      2  C   UNL     1     145.225 140.640 144.089  1.00  0.00     0.000 C 
BRANCH   2   3
ATOM      3  C   UNL     1     145.057 142.152 143.863  1.00  0.00    -0.000 C 
BRANCH   3   4
ATOM      4  C   UNL     1     144.987 142.522 142.371  1.00  0.00    -0.000 C 
BRANCH   4   5
ATOM      5  C   UNL     1     146.137 141.909 141.557  1.00  0.00    -0.003 C 
ATOM      6  C   UNL     1     145.663 141.258 140.258  1.00  0.00     0.004 C 
ENDBRANCH   4   5
ENDBRANCH   3   4
ENDBRANCH   2   3
ENDBRANCH   1   2
BRANCH   1   7
ATOM      7  C   UNL     1     144.116 138.414 143.464  1.00  0.00     0.002 C 
BRANCH   7   8
ATOM      8  C   UNL     1     143.386 138.018 142.166  1.00  0.00     0.028 C 
BRANCH   8   9
ATOM      9  C   UNL     1     142.698 136.646 142.239  1.00  0.00     0.156 C 
BRANCH   9  10
ATOM     10  O   UNL     1     142.649 136.173 143.558  1.00  0.00    -0.396 OA
ATOM     11  H   UNL     1     143.577 136.203 143.906  1.00  0.00     0.210 HD
ENDBRANCH   9  10
ENDBRANCH   8   9
ENDBRANCH   7   8
ENDBRANCH   1   7
TORSDOF 8
ENDMDL
MODEL 2
REMARK VINA RESULT:    -2.661      5.054      6.331
REMARK INTER + INTRA:          -4.304
REMARK INTER:                  -3.875
REMARK INTRA:                  -0.429
REMARK UNBOUND:                -0.476
REMARK SMILES CCCCCCCCCO
REMARK SMILES IDX 6 1 5 2 4 3 3 4 2 5 1 6 7 7 8 8 9 9 10 10
REMARK H PARENT 10 11
REMARK Flexibility Score: inf
ROOT
ATOM      1  C   UNL     1     140.249 138.406 143.970  1.00  0.00     0.000 C 
ENDROOT
BRANCH   1   2
ATOM      2  C   UNL     1     141.601 137.676 143.904  1.00  0.00     0.000 C 
BRANCH   2   3
ATOM      3  C   UNL     1     141.464 136.226 143.409  1.00  0.00    -0.000 C 
BRANCH   3   4
ATOM      4  C   UNL     1     142.289 135.955 142.139  1.00  0.00    -0.000 C 
BRANCH   4   5
ATOM      5  C   UNL     1     141.425 135.934 140.869  1.00  0.00    -0.003 C 
ATOM      6  C   UNL     1     141.571 134.638 140.073  1.00  0.00     0.004 C 
ENDBRANCH   4   5
ENDBRANCH   3   4
ENDBRANCH   2   3
ENDBRANCH   1   2
BRANCH   1   7
ATOM      7  C   UNL     1     139.067 137.517 143.539  1.00  0.00     0.002 C 
BRANCH   7   8
ATOM      8  C   UNL     1     138.188 138.092 142.413  1.00  0.00     0.028 C 
BRANCH   8   9
ATOM      9  C   UNL     1     137.016 138.947 142.919  1.00  0.00     0.156 C 
BRANCH   9  10
ATOM     10  O   UNL     1     135.834 138.644 142.229  1.00  0.00    -0.396 OA
ATOM     11  H   UNL     1     135.959 138.960 141.296  1.00  0.00     0.210 HD
ENDBRANCH   9  10
ENDBRANCH   8   9
ENDBRANCH   7   8
ENDBRANCH   1   7
TORSDOF 8
ENDMDL
MODEL 3
REMARK VINA RESULT:    -2.621      6.784      7.212
REMARK INTER + INTRA:          -4.247
REMARK INTER:                  -3.949
REMARK INTRA:                  -0.298
REMARK UNBOUND:                -0.476
REMARK SMILES CCCCCCCCCO
REMARK SMILES IDX 6 1 5 2 4 3 3 4 2 5 1 6 7 7 8 8 9 9 10 10
REMARK H PARENT 10 11
REMARK Flexibility Score: inf
ROOT
ATOM      1  C   UNL     1     138.034 142.032 142.783  1.00  0.00     0.000 C 
ENDROOT
BRANCH   1   2
ATOM      2  C   UNL     1     138.196 143.538 142.518  1.00  0.00     0.000 C 
BRANCH   2   3
ATOM      3  C   UNL     1     138.837 144.280 143.704  1.00  0.00    -0.000 C 
BRANCH   3   4
ATOM      4  C   UNL     1     139.914 145.285 143.259  1.00  0.00    -0.000 C 
BRANCH   4   5
ATOM      5  C   UNL     1     140.117 145.296 141.736  1.00  0.00    -0.003 C 
ATOM      6  C   UNL     1     139.768 146.640 141.100  1.00  0.00     0.004 C 
ENDBRANCH   4   5
ENDBRANCH   3   4
ENDBRANCH   2   3
ENDBRANCH   1   2
BRANCH   1   7
ATOM      7  C   UNL     1     137.105 141.729 143.973  1.00  0.00     0.002 C 
BRANCH   7   8
ATOM      8  C   UNL     1     136.164 140.525 143.783  1.00  0.00     0.028 C 
BRANCH   8   9
ATOM      9  C   UNL     1     136.122 139.994 142.342  1.00  0.00     0.156 C 
BRANCH   9  10
ATOM     10  O   UNL     1     135.836 138.622 142.316  1.00  0.00    -0.396 OA
ATOM     11  H   UNL     1     135.421 138.400 143.190  1.00  0.00     0.210 HD
ENDBRANCH   9  10
ENDBRANCH   8   9
ENDBRANCH   7   8
ENDBRANCH   1   7
TORSDOF 8
ENDMDL
MODEL 4
REMARK VINA RESULT:    -2.618      0.930      2.587
REMARK INTER + INTRA:          -4.242
REMARK INTER:                  -3.615
REMARK INTRA:                  -0.627
REMARK UNBOUND:                -0.476
REMARK SMILES CCCCCCCCCO
REMARK SMILES IDX 6 1 5 2 4 3 3 4 2 5 1 6 7 7 8 8 9 9 10 10
REMARK H PARENT 10 11
REMARK Flexibility Score: inf
ROOT
ATOM      1  C   UNL     1     144.074 140.449 140.292  1.00  0.00     0.000 C 
ENDROOT
BRANCH   1   2
ATOM      2  C   UNL     1     145.519 140.955 140.139  1.00  0.00     0.000 C 
BRANCH   2   3
ATOM      3  C   UNL     1     145.997 141.751 141.365  1.00  0.00    -0.000 C 
BRANCH   3   4
ATOM      4  C   UNL     1     144.836 142.404 142.135  1.00  0.00    -0.000 C 
BRANCH   4   5
ATOM      5  C   UNL     1     144.958 142.217 143.655  1.00  0.00    -0.003 C 
ATOM      6  C   UNL     1     145.603 140.886 144.039  1.00  0.00     0.004 C 
ENDBRANCH   4   5
ENDBRANCH   3   4
ENDBRANCH   2   3
ENDBRANCH   1   2
BRANCH   1   7
ATOM      7  C   UNL     1     143.994 138.931 140.537  1.00  0.00     0.002 C 
BRANCH   7   8
ATOM      8  C   UNL     1     143.613 138.515 141.970  1.00  0.00     0.028 C 
BRANCH   8   9
ATOM      9  C   UNL     1     142.885 137.164 142.047  1.00  0.00     0.156 C 
BRANCH   9  10
ATOM     10  O   UNL     1     143.029 136.584 143.315  1.00  0.00    -0.396 OA
ATOM     11  H   UNL     1     143.051 137.329 143.970  1.00  0.00     0.210 HD
ENDBRANCH   9  10
ENDBRANCH   8   9
ENDBRANCH   7   8
ENDBRANCH   1   7
TORSDOF 8
ENDMDL
MODEL 5
REMARK VINA RESULT:    -2.614      5.132      6.331
REMARK INTER + INTRA:          -4.236
REMARK INTER:                  -3.962
REMARK INTRA:                  -0.274
REMARK UNBOUND:                -0.476
REMARK SMILES CCCCCCCCCO
REMARK SMILES IDX 6 1 5 2 4 3 3 4 2 5 1 6 7 7 8 8 9 9 10 10
REMARK H PARENT 10 11
REMARK Flexibility Score: inf
ROOT
ATOM      1  C   UNL     1     141.796 143.833 144.112  1.00  0.00     0.000 C 
ENDROOT
BRANCH   1   2
ATOM      2  C   UNL     1     141.071 145.179 143.932  1.00  0.00     0.000 C 
BRANCH   2   3
ATOM      3  C   UNL     1     139.548 145.014 143.801  1.00  0.00    -0.000 C 
BRANCH   3   4
ATOM      4  C   UNL     1     139.097 144.832 142.341  1.00  0.00    -0.000 C 
BRANCH   4   5
ATOM      5  C   UNL     1     140.100 145.421 141.337  1.00  0.00    -0.003 C 
ATOM      6  C   UNL     1     139.759 146.853 140.928  1.00  0.00     0.004 C 
ENDBRANCH   4   5
ENDBRANCH   3   4
ENDBRANCH   2   3
ENDBRANCH   1   2
BRANCH   1   7
ATOM      7  C   UNL     1     143.285 143.900 143.727  1.00  0.00     0.002 C 
BRANCH   7   8
ATOM      8  C   UNL     1     144.114 142.652 144.086  1.00  0.00     0.028 C 
BRANCH   8   9
ATOM      9  C   UNL     1     144.880 142.055 142.896  1.00  0.00     0.156 C 
BRANCH   9  10
ATOM     10  O   UNL     1     145.667 143.027 142.262  1.00  0.00    -0.396 OA
ATOM     11  H   UNL     1     145.146 143.871 142.277  1.00  0.00     0.210 HD
ENDBRANCH   9  10
ENDBRANCH   8   9
ENDBRANCH   7   8
ENDBRANCH   1   7
TORSDOF 8
ENDMDL
MODEL 6
REMARK VINA RESULT:    -2.613      4.769      5.968
REMARK INTER + INTRA:          -4.235
REMARK INTER:                  -3.960
REMARK INTRA:                  -0.276
REMARK UNBOUND:                -0.476
REMARK SMILES CCCCCCCCCO
REMARK SMILES IDX 6 1 5 2 4 3 3 4 2 5 1 6 7 7 8 8 9 9 10 10
REMARK H PARENT 10 11
REMARK Flexibility Score: inf
ROOT
ATOM      1  C   UNL     1     141.884 143.597 143.034  1.00  0.00     0.000 C 
ENDROOT
BRANCH   1   2
ATOM      2  C   UNL     1     143.411 143.757 143.132  1.00  0.00     0.000 C 
BRANCH   2   3
ATOM      3  C   UNL     1     144.151 143.063 141.975  1.00  0.00    -0.000 C 
BRANCH   3   4
ATOM      4  C   UNL     1     145.403 142.303 142.446  1.00  0.00    -0.000 C 
BRANCH   4   5
ATOM      5  C   UNL     1     145.298 141.845 143.909  1.00  0.00    -0.003 C 
ATOM      6  C   UNL     1     144.943 140.365 144.044  1.00  0.00     0.004 C 
ENDBRANCH   4   5
ENDBRANCH   3   4
ENDBRANCH   2   3
ENDBRANCH   1   2
BRANCH   1   7
ATOM      7  C   UNL     1     141.118 144.730 143.742  1.00  0.00     0.002 C 
BRANCH   7   8
ATOM      8  C   UNL     1     139.619 144.462 143.978  1.00  0.00     0.028 C 
BRANCH   8   9
ATOM      9  C   UNL     1     138.771 144.520 142.699  1.00  0.00     0.156 C 
BRANCH   9  10
ATOM     10  O   UNL     1     138.712 145.825 142.189  1.00  0.00    -0.396 OA
ATOM     11  H   UNL     1     138.774 146.439 142.967  1.00  0.00     0.210 HD
ENDBRANCH   9  10
ENDBRANCH   8   9
ENDBRANCH   7   8
ENDBRANCH   1   7
TORSDOF 8
ENDMDL
MODEL 7
REMARK VINA RESULT:    -2.574      7.273      7.763
REMARK INTER + INTRA:          -4.179
REMARK INTER:                  -3.887
REMARK INTRA:                  -0.292
REMARK UNBOUND:                -0.476
REMARK SMILES CCCCCCCCCO
REMARK SMILES IDX 6 1 5 2 4 3 3 4 2 5 1 6 7 7 8 8 9 9 10 10
REMARK H PARENT 10 11
REMARK Flexibility Score: inf
ROOT
ATOM      1  C   UNL     1     136.256 141.006 144.125  1.00  0.00     0.000 C 
ENDROOT
BRANCH   1   2
ATOM      2  C   UNL     1     137.616 141.726 144.125  1.00  0.00     0.000 C 
BRANCH   2   3
ATOM      3  C   UNL     1     137.483 143.235 143.858  1.00  0.00    -0.000 C 
BRANCH   3   4
ATOM      4  C   UNL     1     138.260 143.684 142.607  1.00  0.00    -0.000 C 
BRANCH   4   5
ATOM      5  C   UNL     1     139.356 144.710 142.930  1.00  0.00    -0.003 C 
ATOM      6  C   UNL     1     139.418 145.851 141.917  1.00  0.00     0.004 C 
ENDBRANCH   4   5
ENDBRANCH   3   4
ENDBRANCH   2   3
ENDBRANCH   1   2
BRANCH   1   7
ATOM      7  C   UNL     1     136.161 139.906 143.052  1.00  0.00     0.002 C 
BRANCH   7   8
ATOM      8  C   UNL     1     136.678 140.302 141.656  1.00  0.00     0.028 C 
BRANCH   8   9
ATOM      9  C   UNL     1     135.661 140.065 140.530  1.00  0.00     0.156 C 
BRANCH   9  10
ATOM     10  O   UNL     1     134.662 139.166 140.931  1.00  0.00    -0.396 OA
ATOM     11  H   UNL     1     133.805 139.512 140.570  1.00  0.00     0.210 HD
ENDBRANCH   9  10
ENDBRANCH   8   9
ENDBRANCH   7   8
ENDBRANCH   1   7
TORSDOF 8
ENDMDL
MODEL 8
REMARK VINA RESULT:    -2.540      5.221      6.965
REMARK INTER + INTRA:          -4.130
REMARK INTER:                  -3.898
REMARK INTRA:                  -0.232
REMARK UNBOUND:                -0.476
REMARK SMILES CCCCCCCCCO
REMARK SMILES IDX 6 1 5 2 4 3 3 4 2 5 1 6 7 7 8 8 9 9 10 10
REMARK H PARENT 10 11
REMARK Flexibility Score: inf
ROOT
ATOM      1  C   UNL     1     139.685 137.974 143.018  1.00  0.00     0.000 C 
ENDROOT
BRANCH   1   2
ATOM      2  C   UNL     1     138.173 138.055 142.747  1.00  0.00     0.000 C 
BRANCH   2   3
ATOM      3  C   UNL     1     137.483 139.150 143.578  1.00  0.00    -0.000 C 
BRANCH   3   4
ATOM      4  C   UNL     1     136.125 139.570 142.991  1.00  0.00    -0.000 C 
BRANCH   4   5
ATOM      5  C   UNL     1     136.241 140.085 141.548  1.00  0.00    -0.003 C 
ATOM      6  C   UNL     1     134.962 139.875 140.738  1.00  0.00     0.004 C 
ENDBRANCH   4   5
ENDBRANCH   3   4
ENDBRANCH   2   3
ENDBRANCH   1   2
BRANCH   1   7
ATOM      7  C   UNL     1     140.045 136.934 144.095  1.00  0.00     0.002 C 
BRANCH   7   8
ATOM      8  C   UNL     1     141.376 136.190 143.874  1.00  0.00     0.028 C 
BRANCH   8   9
ATOM      9  C   UNL     1     141.783 136.078 142.397  1.00  0.00     0.156 C 
BRANCH   9  10
ATOM     10  O   UNL     1     143.177 136.125 142.251  1.00  0.00    -0.396 OA
ATOM     11  H   UNL     1     143.513 136.775 142.921  1.00  0.00     0.210 HD
ENDBRANCH   9  10
ENDBRANCH   8   9
ENDBRANCH   7   8
ENDBRANCH   1   7
TORSDOF 8
ENDMDL
MODEL 9
REMARK VINA RESULT:    -2.509      4.478      6.511
REMARK INTER + INTRA:          -4.085
REMARK INTER:                  -3.395
REMARK INTRA:                  -0.690
REMARK UNBOUND:                -0.476
REMARK SMILES CCCCCCCCCO
REMARK SMILES IDX 6 1 5 2 4 3 3 4 2 5 1 6 7 7 8 8 9 9 10 10
REMARK H PARENT 10 11
REMARK Flexibility Score: inf
ROOT
ATOM      1  C   UNL     1     139.775 137.715 139.857  1.00  0.00     0.000 C 
ENDROOT
BRANCH   1   2
ATOM      2  C   UNL     1     140.206 136.309 139.402  1.00  0.00     0.000 C 
BRANCH   2   3
ATOM      3  C   UNL     1     141.651 135.975 139.809  1.00  0.00    -0.000 C 
BRANCH   3   4
ATOM      4  C   UNL     1     141.721 135.098 141.072  1.00  0.00    -0.000 C 
BRANCH   4   5
ATOM      5  C   UNL     1     142.170 135.885 142.312  1.00  0.00    -0.003 C 
ATOM      6  C   UNL     1     142.962 137.143 141.962  1.00  0.00     0.004 C 
ENDBRANCH   4   5
ENDBRANCH   3   4
ENDBRANCH   2   3
ENDBRANCH   1   2
BRANCH   1   7
ATOM      7  C   UNL     1     138.748 137.683 141.004  1.00  0.00     0.002 C 
BRANCH   7   8
ATOM      8  C   UNL     1     139.260 138.202 142.361  1.00  0.00     0.028 C 
BRANCH   8   9
ATOM      9  C   UNL     1     138.504 137.626 143.568  1.00  0.00     0.156 C 
BRANCH   9  10
ATOM     10  O   UNL     1     137.172 138.064 143.586  1.00  0.00    -0.396 OA
ATOM     11  H   UNL     1     136.962 138.379 142.668  1.00  0.00     0.210 HD
ENDBRANCH   9  10
ENDBRANCH   8   9
ENDBRANCH   7   8
ENDBRANCH   1   7
TORSDOF 8
ENDMDL
