MODEL 1
REMARK VINA RESULT:    -7.750      0.000      0.000
REMARK INTER + INTRA:          -9.401
REMARK INTER:                  -9.110
REMARK INTRA:                  -0.292
REMARK UNBOUND:                -0.292
REMARK SMILES O=c1cc(-c2ccc(O)c(O)c2)oc2cc(O)cc(O)c12
REMARK SMILES IDX 4 1 3 2 2 3 1 4 21 5 19 6 18 7 16 8 15 9 14 10 13 11 5 12
REMARK SMILES IDX 6 13 7 14 8 15 12 16 10 17 9 18 11 20 20 22 17 24
REMARK H PARENT 9 19 11 21 20 23 17 25
REMARK Flexibility Score: inf
ROOT
ATOM      1  C   UNL     1       9.584 -12.857 -23.292  1.00  0.00     0.138 A 
ATOM      2  C   UNL     1       8.980 -13.509 -24.381  1.00  0.00     0.100 A 
ATOM      3  C   UNL     1       8.605 -12.768 -25.503  1.00  0.00     0.197 A 
ATOM      4  O   UNL     1       8.065 -13.361 -26.475  1.00  0.00    -0.289 OA
ATOM      5  C   UNL     1       8.840 -11.378 -25.530  1.00  0.00     0.107 A 
ATOM      6  C   UNL     1       8.490 -10.554 -26.626  1.00  0.00     0.134 A 
ATOM      7  C   UNL     1       8.764  -9.179 -26.576  1.00  0.00     0.093 A 
ATOM      8  C   UNL     1       9.379  -8.614 -25.456  1.00  0.00     0.123 A 
ATOM      9  C   UNL     1       9.727  -9.425 -24.370  1.00  0.00     0.094 A 
ATOM     10  C   UNL     1       9.462 -10.797 -24.399  1.00  0.00     0.146 A 
ATOM     11  O   UNL     1       9.800 -11.545 -23.353  1.00  0.00    -0.456 OA
ENDROOT
BRANCH   1  12
ATOM     12  C   UNL     1      10.003 -13.594 -22.074  1.00  0.00     0.021 A 
ATOM     13  C   UNL     1      10.138 -12.899 -20.859  1.00  0.00     0.016 A 
ATOM     14  C   UNL     1      10.524 -13.571 -19.696  1.00  0.00     0.051 A 
ATOM     15  C   UNL     1      10.775 -14.948 -19.724  1.00  0.00     0.157 A 
ATOM     16  C   UNL     1      10.243 -14.982 -22.092  1.00  0.00     0.062 A 
ATOM     17  C   UNL     1      10.629 -15.656 -20.928  1.00  0.00     0.158 A 
BRANCH  15  18
ATOM     18  O   UNL     1      11.161 -15.614 -18.563  1.00  0.00    -0.504 OA
ATOM     19  H   UNL     1      11.889 -16.318 -18.571  1.00  0.00     0.293 HD
ENDBRANCH  15  18
BRANCH  17  20
ATOM     20  O   UNL     1      10.860 -17.030 -20.987  1.00  0.00    -0.504 OA
ATOM     21  H   UNL     1      10.243 -17.699 -20.543  1.00  0.00     0.293 HD
ENDBRANCH  17  20
ENDBRANCH   1  12
BRANCH   6  22
ATOM     22  O   UNL     1       7.876 -11.089 -27.758  1.00  0.00    -0.507 OA
ATOM     23  H   UNL     1       8.260 -11.891 -28.244  1.00  0.00     0.293 HD
ENDBRANCH   6  22
BRANCH   8  24
ATOM     24  O   UNL     1       9.640  -7.246 -25.433  1.00  0.00    -0.508 OA
ATOM     25  H   UNL     1      10.536  -6.883 -25.129  1.00  0.00     0.293 HD
ENDBRANCH   8  24
TORSDOF 5
ENDMDL
MODEL 2
REMARK VINA RESULT:    -6.872      1.406      6.939
REMARK INTER + INTRA:          -8.368
REMARK INTER:                  -8.050
REMARK INTRA:                  -0.318
REMARK UNBOUND:                -0.292
REMARK SMILES O=c1cc(-c2ccc(O)c(O)c2)oc2cc(O)cc(O)c12
REMARK SMILES IDX 4 1 3 2 2 3 1 4 21 5 19 6 18 7 16 8 15 9 14 10 13 11 5 12
REMARK SMILES IDX 6 13 7 14 8 15 12 16 10 17 9 18 11 20 20 22 17 24
REMARK H PARENT 9 19 11 21 20 23 17 25
REMARK Flexibility Score: inf
ROOT
ATOM      1  C   UNL     1       8.949 -12.254 -24.563  1.00  0.00     0.138 A 
ATOM      2  C   UNL     1       8.523 -13.535 -24.952  1.00  0.00     0.100 A 
ATOM      3  C   UNL     1       8.662 -14.604 -24.065  1.00  0.00     0.197 A 
ATOM      4  O   UNL     1       8.275 -15.749 -24.423  1.00  0.00    -0.289 OA
ATOM      5  C   UNL     1       9.224 -14.384 -22.792  1.00  0.00     0.107 A 
ATOM      6  C   UNL     1       9.402 -15.411 -21.835  1.00  0.00     0.134 A 
ATOM      7  C   UNL     1       9.964 -15.107 -20.586  1.00  0.00     0.093 A 
ATOM      8  C   UNL     1      10.352 -13.801 -20.277  1.00  0.00     0.123 A 
ATOM      9  C   UNL     1      10.178 -12.781 -21.220  1.00  0.00     0.094 A 
ATOM     10  C   UNL     1       9.621 -13.063 -22.470  1.00  0.00     0.146 A 
ATOM     11  O   UNL     1       9.468 -12.078 -23.349  1.00  0.00    -0.456 OA
ENDROOT
BRANCH   1  12
ATOM     12  C   UNL     1       8.826 -11.081 -25.463  1.00  0.00     0.021 A 
ATOM     13  C   UNL     1       8.347 -11.262 -26.773  1.00  0.00     0.016 A 
ATOM     14  C   UNL     1       8.214 -10.173 -27.638  1.00  0.00     0.051 A 
ATOM     15  C   UNL     1       8.550  -8.883 -27.208  1.00  0.00     0.157 A 
ATOM     16  C   UNL     1       9.148  -9.779 -25.033  1.00  0.00     0.062 A 
ATOM     17  C   UNL     1       9.015  -8.686 -25.898  1.00  0.00     0.158 A 
BRANCH  15  18
ATOM     18  O   UNL     1       8.418  -7.800 -28.075  1.00  0.00    -0.504 OA
ATOM     19  H   UNL     1       8.720  -7.851 -29.040  1.00  0.00     0.293 HD
ENDBRANCH  15  18
BRANCH  17  20
ATOM     20  O   UNL     1       9.347  -7.413 -25.436  1.00  0.00    -0.504 OA
ATOM     21  H   UNL     1       9.811  -6.731 -26.023  1.00  0.00     0.293 HD
ENDBRANCH  17  20
ENDBRANCH   1  12
BRANCH   6  22
ATOM     22  O   UNL     1       9.024 -16.724 -22.114  1.00  0.00    -0.507 OA
ATOM     23  H   UNL     1       9.431 -17.512 -21.623  1.00  0.00     0.293 HD
ENDBRANCH   6  22
BRANCH   8  24
ATOM     24  O   UNL     1      10.908 -13.526 -19.030  1.00  0.00    -0.508 OA
ATOM     25  H   UNL     1      10.994 -12.577 -18.685  1.00  0.00     0.293 HD
ENDBRANCH   8  24
TORSDOF 5
ENDMDL
MODEL 3
REMARK VINA RESULT:    -6.812      3.447      7.603
REMARK INTER + INTRA:          -8.299
REMARK INTER:                  -8.034
REMARK INTRA:                  -0.265
REMARK UNBOUND:                -0.292
REMARK SMILES O=c1cc(-c2ccc(O)c(O)c2)oc2cc(O)cc(O)c12
REMARK SMILES IDX 4 1 3 2 2 3 1 4 21 5 19 6 18 7 16 8 15 9 14 10 13 11 5 12
REMARK SMILES IDX 6 13 7 14 8 15 12 16 10 17 9 18 11 20 20 22 17 24
REMARK H PARENT 9 19 11 21 20 23 17 25
REMARK Flexibility Score: inf
ROOT
ATOM      1  C   UNL     1      10.120 -15.782 -24.087  1.00  0.00     0.138 A 
ATOM      2  C   UNL     1      10.996 -16.432 -24.973  1.00  0.00     0.100 A 
ATOM      3  C   UNL     1      11.091 -17.824 -24.945  1.00  0.00     0.197 A 
ATOM      4  O   UNL     1      11.879 -18.399 -25.745  1.00  0.00    -0.289 OA
ATOM      5  C   UNL     1      10.307 -18.558 -24.032  1.00  0.00     0.107 A 
ATOM      6  C   UNL     1      10.345 -19.969 -23.938  1.00  0.00     0.134 A 
ATOM      7  C   UNL     1       9.528 -20.626 -23.006  1.00  0.00     0.093 A 
ATOM      8  C   UNL     1       8.677 -19.900 -22.168  1.00  0.00     0.123 A 
ATOM      9  C   UNL     1       8.635 -18.504 -22.258  1.00  0.00     0.094 A 
ATOM     10  C   UNL     1       9.443 -17.831 -23.180  1.00  0.00     0.146 A 
ATOM     11  O   UNL     1       9.386 -16.505 -23.244  1.00  0.00    -0.456 OA
ENDROOT
BRANCH   1  12
ATOM     12  C   UNL     1       9.976 -14.305 -24.072  1.00  0.00     0.021 A 
ATOM     13  C   UNL     1       9.039 -13.693 -24.924  1.00  0.00     0.016 A 
ATOM     14  C   UNL     1       8.879 -12.305 -24.923  1.00  0.00     0.051 A 
ATOM     15  C   UNL     1       9.645 -11.505 -24.067  1.00  0.00     0.157 A 
ATOM     16  C   UNL     1      10.733 -13.494 -23.203  1.00  0.00     0.062 A 
ATOM     17  C   UNL     1      10.573 -12.104 -23.200  1.00  0.00     0.158 A 
BRANCH  15  18
ATOM     18  O   UNL     1       9.483 -10.120 -24.071  1.00  0.00    -0.504 OA
ATOM     19  H   UNL     1       9.601  -9.574 -24.915  1.00  0.00     0.293 HD
ENDBRANCH  15  18
BRANCH  17  20
ATOM     20  O   UNL     1      11.343 -11.336 -22.327  1.00  0.00    -0.504 OA
ATOM     21  H   UNL     1      11.191 -11.345 -21.326  1.00  0.00     0.293 HD
ENDBRANCH  17  20
ENDBRANCH   1  12
BRANCH   6  22
ATOM     22  O   UNL     1      11.185 -20.721 -24.760  1.00  0.00    -0.507 OA
ATOM     23  H   UNL     1      12.120 -20.982 -24.472  1.00  0.00     0.293 HD
ENDBRANCH   6  22
BRANCH   8  24
ATOM     24  O   UNL     1       7.875 -20.576 -21.252  1.00  0.00    -0.508 OA
ATOM     25  H   UNL     1       8.192 -21.423 -20.794  1.00  0.00     0.293 HD
ENDBRANCH   8  24
TORSDOF 5
ENDMDL
MODEL 4
REMARK VINA RESULT:    -6.798      4.242      6.403
REMARK INTER + INTRA:          -8.282
REMARK INTER:                  -7.985
REMARK INTRA:                  -0.297
REMARK UNBOUND:                -0.292
REMARK SMILES O=c1cc(-c2ccc(O)c(O)c2)oc2cc(O)cc(O)c12
REMARK SMILES IDX 4 1 3 2 2 3 1 4 21 5 19 6 18 7 16 8 15 9 14 10 13 11 5 12
REMARK SMILES IDX 6 13 7 14 8 15 12 16 10 17 9 18 11 20 20 22 17 24
REMARK H PARENT 9 19 11 21 20 23 17 25
REMARK Flexibility Score: inf
ROOT
ATOM      1  C   UNL     1      10.742 -16.783 -23.255  1.00  0.00     0.138 A 
ATOM      2  C   UNL     1      11.028 -18.136 -23.010  1.00  0.00     0.100 A 
ATOM      3  C   UNL     1      11.076 -19.032 -24.079  1.00  0.00     0.197 A 
ATOM      4  O   UNL     1      11.336 -20.245 -23.850  1.00  0.00    -0.289 OA
ATOM      5  C   UNL     1      10.839 -18.567 -25.389  1.00  0.00     0.107 A 
ATOM      6  C   UNL     1      10.867 -19.408 -26.526  1.00  0.00     0.134 A 
ATOM      7  C   UNL     1      10.627 -18.865 -27.797  1.00  0.00     0.093 A 
ATOM      8  C   UNL     1      10.359 -17.502 -27.952  1.00  0.00     0.123 A 
ATOM      9  C   UNL     1      10.331 -16.667 -26.830  1.00  0.00     0.094 A 
ATOM     10  C   UNL     1      10.567 -17.188 -25.555  1.00  0.00     0.146 A 
ATOM     11  O   UNL     1      10.533 -16.374 -24.504  1.00  0.00    -0.456 OA
ENDROOT
BRANCH   1  12
ATOM     12  C   UNL     1      10.679 -15.785 -22.158  1.00  0.00     0.021 A 
ATOM     13  C   UNL     1      10.271 -14.470 -22.443  1.00  0.00     0.016 A 
ATOM     14  C   UNL     1      10.196 -13.514 -21.427  1.00  0.00     0.051 A 
ATOM     15  C   UNL     1      10.519 -13.856 -20.108  1.00  0.00     0.157 A 
ATOM     16  C   UNL     1      10.988 -16.126 -20.827  1.00  0.00     0.062 A 
ATOM     17  C   UNL     1      10.912 -15.170 -19.807  1.00  0.00     0.158 A 
BRANCH  15  18
ATOM     18  O   UNL     1      10.444 -12.899 -19.097  1.00  0.00    -0.504 OA
ATOM     19  H   UNL     1       9.702 -12.912 -18.407  1.00  0.00     0.293 HD
ENDBRANCH  15  18
BRANCH  17  20
ATOM     20  O   UNL     1      11.229 -15.546 -18.502  1.00  0.00    -0.504 OA
ATOM     21  H   UNL     1      10.797 -16.344 -18.052  1.00  0.00     0.293 HD
ENDBRANCH  17  20
ENDBRANCH   1  12
BRANCH   6  22
ATOM     22  O   UNL     1      11.131 -20.773 -26.404  1.00  0.00    -0.507 OA
ATOM     23  H   UNL     1      10.784 -21.445 -27.077  1.00  0.00     0.293 HD
ENDBRANCH   6  22
BRANCH   8  24
ATOM     24  O   UNL     1      10.125 -16.989 -29.225  1.00  0.00    -0.508 OA
ATOM     25  H   UNL     1      10.151 -15.993 -29.408  1.00  0.00     0.293 HD
ENDBRANCH   8  24
TORSDOF 5
ENDMDL
MODEL 5
REMARK VINA RESULT:    -6.753      3.832      6.848
REMARK INTER + INTRA:          -8.229
REMARK INTER:                  -7.918
REMARK INTRA:                  -0.311
REMARK UNBOUND:                -0.292
REMARK SMILES O=c1cc(-c2ccc(O)c(O)c2)oc2cc(O)cc(O)c12
REMARK SMILES IDX 4 1 3 2 2 3 1 4 21 5 19 6 18 7 16 8 15 9 14 10 13 11 5 12
REMARK SMILES IDX 6 13 7 14 8 15 12 16 10 17 9 18 11 20 20 22 17 24
REMARK H PARENT 9 19 11 21 20 23 17 25
REMARK Flexibility Score: inf
ROOT
ATOM      1  C   UNL     1      10.538 -16.278 -24.408  1.00  0.00     0.138 A 
ATOM      2  C   UNL     1      10.100 -14.983 -24.732  1.00  0.00     0.100 A 
ATOM      3  C   UNL     1       9.946 -14.036 -23.718  1.00  0.00     0.197 A 
ATOM      4  O   UNL     1       9.554 -12.876 -24.020  1.00  0.00    -0.289 OA
ATOM      5  C   UNL     1      10.233 -14.390 -22.385  1.00  0.00     0.107 A 
ATOM      6  C   UNL     1      10.102 -13.493 -21.299  1.00  0.00     0.134 A 
ATOM      7  C   UNL     1      10.414 -13.922 -20.001  1.00  0.00     0.093 A 
ATOM      8  C   UNL     1      10.854 -15.228 -19.768  1.00  0.00     0.123 A 
ATOM      9  C   UNL     1      10.986 -16.120 -20.839  1.00  0.00     0.094 A 
ATOM     10  C   UNL     1      10.678 -15.711 -22.140  1.00  0.00     0.146 A 
ATOM     11  O   UNL     1      10.810 -16.578 -23.139  1.00  0.00    -0.456 OA
ENDROOT
BRANCH   1  12
ATOM     12  C   UNL     1      10.721 -17.325 -25.443  1.00  0.00     0.021 A 
ATOM     13  C   UNL     1      10.947 -16.944 -26.778  1.00  0.00     0.016 A 
ATOM     14  C   UNL     1      11.130 -17.910 -27.770  1.00  0.00     0.051 A 
ATOM     15  C   UNL     1      11.098 -19.272 -27.447  1.00  0.00     0.157 A 
ATOM     16  C   UNL     1      10.705 -18.696 -25.122  1.00  0.00     0.062 A 
ATOM     17  C   UNL     1      10.889 -19.665 -26.115  1.00  0.00     0.158 A 
BRANCH  15  18
ATOM     18  O   UNL     1      11.280 -20.233 -28.440  1.00  0.00    -0.504 OA
ATOM     19  H   UNL     1      11.912 -20.081 -29.217  1.00  0.00     0.293 HD
ENDBRANCH  15  18
BRANCH  17  20
ATOM     20  O   UNL     1      10.863 -21.013 -25.758  1.00  0.00    -0.504 OA
ATOM     21  H   UNL     1      10.135 -21.401 -25.171  1.00  0.00     0.293 HD
ENDBRANCH  17  20
ENDBRANCH   1  12
BRANCH   6  22
ATOM     22  O   UNL     1       9.666 -12.183 -21.499  1.00  0.00    -0.507 OA
ATOM     23  H   UNL     1       9.662 -11.501 -20.750  1.00  0.00     0.293 HD
ENDBRANCH   6  22
BRANCH   8  24
ATOM     24  O   UNL     1      11.158 -15.629 -18.469  1.00  0.00    -0.508 OA
ATOM     25  H   UNL     1      12.112 -15.644 -18.129  1.00  0.00     0.293 HD
ENDBRANCH   8  24
TORSDOF 5
ENDMDL
MODEL 6
REMARK VINA RESULT:    -6.648      4.174      6.994
REMARK INTER + INTRA:          -8.105
REMARK INTER:                  -7.832
REMARK INTRA:                  -0.273
REMARK UNBOUND:                -0.292
REMARK SMILES O=c1cc(-c2ccc(O)c(O)c2)oc2cc(O)cc(O)c12
REMARK SMILES IDX 4 1 3 2 2 3 1 4 21 5 19 6 18 7 16 8 15 9 14 10 13 11 5 12
REMARK SMILES IDX 6 13 7 14 8 15 12 16 10 17 9 18 11 20 20 22 17 24
REMARK H PARENT 9 19 11 21 20 23 17 25
REMARK Flexibility Score: inf
ROOT
ATOM      1  C   UNL     1      10.744 -16.547 -24.613  1.00  0.00     0.138 A 
ATOM      2  C   UNL     1      10.240 -15.302 -25.025  1.00  0.00     0.100 A 
ATOM      3  C   UNL     1       9.983 -14.316 -24.072  1.00  0.00     0.197 A 
ATOM      4  O   UNL     1       9.532 -13.201 -24.452  1.00  0.00    -0.289 OA
ATOM      5  C   UNL     1      10.234 -14.580 -22.711  1.00  0.00     0.107 A 
ATOM      6  C   UNL     1      10.000 -13.637 -21.682  1.00  0.00     0.134 A 
ATOM      7  C   UNL     1      10.282 -13.977 -20.351  1.00  0.00     0.093 A 
ATOM      8  C   UNL     1      10.793 -15.237 -20.029  1.00  0.00     0.123 A 
ATOM      9  C   UNL     1      11.027 -16.173 -21.043  1.00  0.00     0.094 A 
ATOM     10  C   UNL     1      10.751 -15.854 -22.376  1.00  0.00     0.146 A 
ATOM     11  O   UNL     1      10.980 -16.762 -23.320  1.00  0.00    -0.456 OA
ENDROOT
BRANCH   1  12
ATOM     12  C   UNL     1      11.037 -17.633 -25.581  1.00  0.00     0.021 A 
ATOM     13  C   UNL     1      10.478 -18.907 -25.380  1.00  0.00     0.016 A 
ATOM     14  C   UNL     1      10.733 -19.944 -26.281  1.00  0.00     0.051 A 
ATOM     15  C   UNL     1      11.542 -19.725 -27.402  1.00  0.00     0.157 A 
ATOM     16  C   UNL     1      11.839 -17.416 -26.719  1.00  0.00     0.062 A 
ATOM     17  C   UNL     1      12.094 -18.453 -27.623  1.00  0.00     0.158 A 
BRANCH  15  18
ATOM     18  O   UNL     1      11.795 -20.763 -28.298  1.00  0.00    -0.504 OA
ATOM     19  H   UNL     1      12.591 -21.379 -28.187  1.00  0.00     0.293 HD
ENDBRANCH  15  18
BRANCH  17  20
ATOM     20  O   UNL     1      12.895 -18.199 -28.736  1.00  0.00    -0.504 OA
ATOM     21  H   UNL     1      12.596 -17.588 -29.487  1.00  0.00     0.293 HD
ENDBRANCH  17  20
ENDBRANCH   1  12
BRANCH   6  22
ATOM     22  O   UNL     1       9.491 -12.371 -21.972  1.00  0.00    -0.507 OA
ATOM     23  H   UNL     1      10.086 -11.619 -22.298  1.00  0.00     0.293 HD
ENDBRANCH   6  22
BRANCH   8  24
ATOM     24  O   UNL     1      11.065 -15.549 -18.699  1.00  0.00    -0.508 OA
ATOM     25  H   UNL     1      11.964 -15.921 -18.415  1.00  0.00     0.293 HD
ENDBRANCH   8  24
TORSDOF 5
ENDMDL
MODEL 7
REMARK VINA RESULT:    -6.535      1.841      7.298
REMARK INTER + INTRA:          -7.972
REMARK INTER:                  -7.691
REMARK INTRA:                  -0.281
REMARK UNBOUND:                -0.292
REMARK SMILES O=c1cc(-c2ccc(O)c(O)c2)oc2cc(O)cc(O)c12
REMARK SMILES IDX 4 1 3 2 2 3 1 4 21 5 19 6 18 7 16 8 15 9 14 10 13 11 5 12
REMARK SMILES IDX 6 13 7 14 8 15 12 16 10 17 9 18 11 20 20 22 17 24
REMARK H PARENT 9 19 11 21 20 23 17 25
REMARK Flexibility Score: inf
ROOT
ATOM      1  C   UNL     1       9.712 -12.889 -23.872  1.00  0.00     0.138 A 
ATOM      2  C   UNL     1       9.622 -12.851 -22.471  1.00  0.00     0.100 A 
ATOM      3  C   UNL     1       9.967 -13.982 -21.730  1.00  0.00     0.197 A 
ATOM      4  O   UNL     1       9.885 -13.938 -20.473  1.00  0.00    -0.289 OA
ATOM      5  C   UNL     1      10.404 -15.145 -22.397  1.00  0.00     0.107 A 
ATOM      6  C   UNL     1      10.771 -16.333 -21.722  1.00  0.00     0.134 A 
ATOM      7  C   UNL     1      11.200 -17.446 -22.459  1.00  0.00     0.093 A 
ATOM      8  C   UNL     1      11.270 -17.394 -23.854  1.00  0.00     0.123 A 
ATOM      9  C   UNL     1      10.909 -16.221 -24.526  1.00  0.00     0.094 A 
ATOM     10  C   UNL     1      10.476 -15.101 -23.809  1.00  0.00     0.146 A 
ATOM     11  O   UNL     1      10.137 -14.000 -24.471  1.00  0.00    -0.456 OA
ENDROOT
BRANCH   1  12
ATOM     12  C   UNL     1       9.359 -11.717 -24.712  1.00  0.00     0.021 A 
ATOM     13  C   UNL     1       8.653 -11.914 -25.911  1.00  0.00     0.016 A 
ATOM     14  C   UNL     1       8.302 -10.826 -26.715  1.00  0.00     0.051 A 
ATOM     15  C   UNL     1       8.642  -9.523 -26.332  1.00  0.00     0.157 A 
ATOM     16  C   UNL     1       9.686 -10.402 -24.325  1.00  0.00     0.062 A 
ATOM     17  C   UNL     1       9.334  -9.312 -25.129  1.00  0.00     0.158 A 
BRANCH  15  18
ATOM     18  O   UNL     1       8.292  -8.442 -27.138  1.00  0.00    -0.504 OA
ATOM     19  H   UNL     1       7.323  -8.214 -27.329  1.00  0.00     0.293 HD
ENDBRANCH  15  18
BRANCH  17  20
ATOM     20  O   UNL     1       9.678  -8.026 -24.712  1.00  0.00    -0.504 OA
ATOM     21  H   UNL     1      10.306  -7.437 -25.246  1.00  0.00     0.293 HD
ENDBRANCH  17  20
ENDBRANCH   1  12
BRANCH   6  22
ATOM     22  O   UNL     1      10.712 -16.416 -20.330  1.00  0.00    -0.507 OA
ATOM     23  H   UNL     1      10.845 -15.602 -19.742  1.00  0.00     0.293 HD
ENDBRANCH   6  22
BRANCH   8  24
ATOM     24  O   UNL     1      11.701 -18.514 -24.562  1.00  0.00    -0.508 OA
ATOM     25  H   UNL     1      11.981 -18.451 -25.534  1.00  0.00     0.293 HD
ENDBRANCH   8  24
TORSDOF 5
ENDMDL
MODEL 8
REMARK VINA RESULT:    -6.484      4.003      6.490
REMARK INTER + INTRA:          -7.913
REMARK INTER:                  -7.595
REMARK INTRA:                  -0.318
REMARK UNBOUND:                -0.292
REMARK SMILES O=c1cc(-c2ccc(O)c(O)c2)oc2cc(O)cc(O)c12
REMARK SMILES IDX 4 1 3 2 2 3 1 4 21 5 19 6 18 7 16 8 15 9 14 10 13 11 5 12
REMARK SMILES IDX 6 13 7 14 8 15 12 16 10 17 9 18 11 20 20 22 17 24
REMARK H PARENT 9 19 11 21 20 23 17 25
REMARK Flexibility Score: inf
ROOT
ATOM      1  C   UNL     1      10.752 -16.761 -23.324  1.00  0.00     0.138 A 
ATOM      2  C   UNL     1      11.072 -18.106 -23.076  1.00  0.00     0.100 A 
ATOM      3  C   UNL     1      11.137 -19.004 -24.142  1.00  0.00     0.197 A 
ATOM      4  O   UNL     1      11.426 -20.209 -23.910  1.00  0.00    -0.289 OA
ATOM      5  C   UNL     1      10.884 -18.550 -25.452  1.00  0.00     0.107 A 
ATOM      6  C   UNL     1      10.928 -19.393 -26.587  1.00  0.00     0.134 A 
ATOM      7  C   UNL     1      10.670 -18.861 -27.859  1.00  0.00     0.093 A 
ATOM      8  C   UNL     1      10.370 -17.506 -28.017  1.00  0.00     0.123 A 
ATOM      9  C   UNL     1      10.326 -16.667 -26.898  1.00  0.00     0.094 A 
ATOM     10  C   UNL     1      10.579 -17.178 -25.622  1.00  0.00     0.146 A 
ATOM     11  O   UNL     1      10.529 -16.361 -24.574  1.00  0.00    -0.456 OA
ENDROOT
BRANCH   1  12
ATOM     12  C   UNL     1      10.670 -15.761 -22.230  1.00  0.00     0.021 A 
ATOM     13  C   UNL     1      10.882 -16.171 -20.902  1.00  0.00     0.016 A 
ATOM     14  C   UNL     1      10.817 -15.248 -19.855  1.00  0.00     0.051 A 
ATOM     15  C   UNL     1      10.548 -13.899 -20.116  1.00  0.00     0.157 A 
ATOM     16  C   UNL     1      10.413 -14.400 -22.487  1.00  0.00     0.062 A 
ATOM     17  C   UNL     1      10.349 -13.474 -21.440  1.00  0.00     0.158 A 
BRANCH  15  18
ATOM     18  O   UNL     1      10.482 -12.982 -19.069  1.00  0.00    -0.504 OA
ATOM     19  H   UNL     1       9.747 -13.021 -18.373  1.00  0.00     0.293 HD
ENDBRANCH  15  18
BRANCH  17  20
ATOM     20  O   UNL     1      10.090 -12.136 -21.735  1.00  0.00    -0.504 OA
ATOM     21  H   UNL     1       9.476 -11.860 -22.492  1.00  0.00     0.293 HD
ENDBRANCH  17  20
ENDBRANCH   1  12
BRANCH   6  22
ATOM     22  O   UNL     1      11.225 -20.751 -26.461  1.00  0.00    -0.507 OA
ATOM     23  H   UNL     1      10.878 -21.303 -25.686  1.00  0.00     0.293 HD
ENDBRANCH   6  22
BRANCH   8  24
ATOM     24  O   UNL     1      10.118 -17.002 -29.291  1.00  0.00    -0.508 OA
ATOM     25  H   UNL     1      10.271 -17.562 -30.122  1.00  0.00     0.293 HD
ENDBRANCH   8  24
TORSDOF 5
ENDMDL
MODEL 9
REMARK VINA RESULT:    -6.253      4.333      7.083
REMARK INTER + INTRA:          -7.641
REMARK INTER:                  -7.323
REMARK INTRA:                  -0.318
REMARK UNBOUND:                -0.292
REMARK SMILES O=c1cc(-c2ccc(O)c(O)c2)oc2cc(O)cc(O)c12
REMARK SMILES IDX 4 1 3 2 2 3 1 4 21 5 19 6 18 7 16 8 15 9 14 10 13 11 5 12
REMARK SMILES IDX 6 13 7 14 8 15 12 16 10 17 9 18 11 20 20 22 17 24
REMARK H PARENT 9 19 11 21 20 23 17 25
REMARK Flexibility Score: inf
ROOT
ATOM      1  C   UNL     1      10.822 -17.173 -24.505  1.00  0.00     0.138 A 
ATOM      2  C   UNL     1      10.306 -17.892 -23.414  1.00  0.00     0.100 A 
ATOM      3  C   UNL     1       9.975 -17.214 -22.240  1.00  0.00     0.197 A 
ATOM      4  O   UNL     1       9.510 -17.868 -21.267  1.00  0.00    -0.289 OA
ATOM      5  C   UNL     1      10.160 -15.819 -22.165  1.00  0.00     0.107 A 
ATOM      6  C   UNL     1       9.852 -15.057 -21.014  1.00  0.00     0.134 A 
ATOM      7  C   UNL     1      10.060 -13.670 -21.022  1.00  0.00     0.093 A 
ATOM      8  C   UNL     1      10.569 -13.032 -22.157  1.00  0.00     0.123 A 
ATOM      9  C   UNL     1      10.875 -13.781 -23.299  1.00  0.00     0.094 A 
ATOM     10  C   UNL     1      10.676 -15.165 -23.309  1.00  0.00     0.146 A 
ATOM     11  O   UNL     1      10.976 -15.854 -24.406  1.00  0.00    -0.456 OA
ENDROOT
BRANCH   1  12
ATOM     12  C   UNL     1      11.191 -17.840 -25.778  1.00  0.00     0.021 A 
ATOM     13  C   UNL     1      10.891 -19.202 -25.957  1.00  0.00     0.016 A 
ATOM     14  C   UNL     1      11.221 -19.852 -27.149  1.00  0.00     0.051 A 
ATOM     15  C   UNL     1      11.849 -19.151 -28.187  1.00  0.00     0.157 A 
ATOM     16  C   UNL     1      11.810 -17.138 -26.832  1.00  0.00     0.062 A 
ATOM     17  C   UNL     1      12.140 -17.787 -28.027  1.00  0.00     0.158 A 
BRANCH  15  18
ATOM     18  O   UNL     1      12.177 -19.803 -29.374  1.00  0.00    -0.504 OA
ATOM     19  H   UNL     1      12.847 -19.413 -30.027  1.00  0.00     0.293 HD
ENDBRANCH  15  18
BRANCH  17  20
ATOM     20  O   UNL     1      12.753 -17.058 -29.045  1.00  0.00    -0.504 OA
ATOM     21  H   UNL     1      12.865 -16.052 -28.995  1.00  0.00     0.293 HD
ENDBRANCH  17  20
ENDBRANCH   1  12
BRANCH   6  22
ATOM     22  O   UNL     1       9.342 -15.665 -19.866  1.00  0.00    -0.507 OA
ATOM     23  H   UNL     1       9.217 -15.152 -19.002  1.00  0.00     0.293 HD
ENDBRANCH   6  22
BRANCH   8  24
ATOM     24  O   UNL     1      10.766 -11.653 -22.139  1.00  0.00    -0.508 OA
ATOM     25  H   UNL     1      10.503 -11.070 -22.925  1.00  0.00     0.293 HD
ENDBRANCH   8  24
TORSDOF 5
ENDMDL
