MODEL 1
REMARK VINA RESULT:    -7.168      0.000      0.000
REMARK INTER + INTRA:          -9.459
REMARK INTER:                  -9.054
REMARK INTRA:                  -0.405
REMARK UNBOUND:                -0.405
REMARK SMILES Oc1ccc(CCc2cc(O)cc(O)c2)cc1
REMARK SMILES IDX 6 1 5 2 4 3 3 4 2 5 16 6 17 7 1 8 7 10 8 11 15 12 9 13 13 14
REMARK SMILES IDX 10 15 12 16 14 17 11 19
REMARK H PARENT 1 9 14 18 11 20
REMARK Flexibility Score: inf
ROOT
ATOM      1  C   UNL     1      61.151 151.726   3.085  1.00  0.00     0.040 C 
ENDROOT
BRANCH   1   2
ATOM      2  C   UNL     1      60.281 152.800   2.483  1.00  0.00    -0.047 A 
ATOM      3  C   UNL     1      60.503 153.240   1.167  1.00  0.00     0.007 A 
ATOM      4  C   UNL     1      59.727 154.269   0.627  1.00  0.00     0.046 A 
ATOM      5  C   UNL     1      58.726 154.874   1.396  1.00  0.00     0.115 A 
ATOM      6  C   UNL     1      59.282 153.415   3.254  1.00  0.00     0.007 A 
ATOM      7  C   UNL     1      58.505 154.444   2.712  1.00  0.00     0.046 A 
BRANCH   5   8
ATOM      8  O   UNL     1      57.961 155.899   0.846  1.00  0.00    -0.508 OA
ATOM      9  H   UNL     1      57.710 155.905  -0.136  1.00  0.00     0.293 HD
ENDBRANCH   5   8
ENDBRANCH   1   2
BRANCH   1  10
ATOM     10  C   UNL     1      62.597 151.816   2.578  1.00  0.00     0.040 C 
BRANCH  10  11
ATOM     11  C   UNL     1      63.592 151.497   3.665  1.00  0.00    -0.040 A 
ATOM     12  C   UNL     1      63.880 150.161   3.993  1.00  0.00     0.050 A 
ATOM     13  C   UNL     1      64.191 152.532   4.401  1.00  0.00     0.050 A 
ATOM     14  C   UNL     1      64.764 149.863   5.035  1.00  0.00     0.119 A 
ATOM     15  C   UNL     1      65.078 152.238   5.442  1.00  0.00     0.119 A 
ATOM     16  C   UNL     1      65.365 150.904   5.758  1.00  0.00     0.092 A 
BRANCH  14  17
ATOM     17  O   UNL     1      65.036 148.533   5.346  1.00  0.00    -0.508 OA
ATOM     18  H   UNL     1      65.985 148.179   5.369  1.00  0.00     0.293 HD
ENDBRANCH  14  17
BRANCH  15  19
ATOM     19  O   UNL     1      65.664 153.278   6.158  1.00  0.00    -0.508 OA
ATOM     20  H   UNL     1      66.423 153.112   6.810  1.00  0.00     0.293 HD
ENDBRANCH  15  19
ENDBRANCH  10  11
ENDBRANCH   1  10
TORSDOF 6
ENDMDL
MODEL 2
REMARK VINA RESULT:    -7.154      0.072      2.041
REMARK INTER + INTRA:          -9.441
REMARK INTER:                  -9.055
REMARK INTRA:                  -0.386
REMARK UNBOUND:                -0.405
REMARK SMILES Oc1ccc(CCc2cc(O)cc(O)c2)cc1
REMARK SMILES IDX 6 1 5 2 4 3 3 4 2 5 16 6 17 7 1 8 7 10 8 11 15 12 9 13 13 14
REMARK SMILES IDX 10 15 12 16 14 17 11 19
REMARK H PARENT 1 9 14 18 11 20
REMARK Flexibility Score: inf
ROOT
ATOM      1  C   UNL     1      61.117 151.721   3.060  1.00  0.00     0.040 C 
ENDROOT
BRANCH   1   2
ATOM      2  C   UNL     1      60.236 152.783   2.452  1.00  0.00    -0.047 A 
ATOM      3  C   UNL     1      60.461 153.225   1.137  1.00  0.00     0.007 A 
ATOM      4  C   UNL     1      59.675 154.244   0.592  1.00  0.00     0.046 A 
ATOM      5  C   UNL     1      58.661 154.835   1.354  1.00  0.00     0.115 A 
ATOM      6  C   UNL     1      59.223 153.384   3.216  1.00  0.00     0.007 A 
ATOM      7  C   UNL     1      58.437 154.402   2.668  1.00  0.00     0.046 A 
BRANCH   5   8
ATOM      8  O   UNL     1      57.885 155.849   0.799  1.00  0.00    -0.508 OA
ATOM      9  H   UNL     1      57.439 156.552   1.377  1.00  0.00     0.293 HD
ENDBRANCH   5   8
ENDBRANCH   1   2
BRANCH   1  10
ATOM     10  C   UNL     1      62.582 151.883   2.631  1.00  0.00     0.040 C 
BRANCH  10  11
ATOM     11  C   UNL     1      63.533 151.541   3.750  1.00  0.00    -0.040 A 
ATOM     12  C   UNL     1      64.188 152.561   4.461  1.00  0.00     0.050 A 
ATOM     13  C   UNL     1      63.821 150.199   4.048  1.00  0.00     0.050 A 
ATOM     14  C   UNL     1      65.109 152.244   5.464  1.00  0.00     0.119 A 
ATOM     15  C   UNL     1      64.740 149.878   5.053  1.00  0.00     0.119 A 
ATOM     16  C   UNL     1      65.382 150.901   5.762  1.00  0.00     0.092 A 
BRANCH  14  17
ATOM     17  O   UNL     1      65.749 153.269   6.158  1.00  0.00    -0.508 OA
ATOM     18  H   UNL     1      66.399 153.895   5.697  1.00  0.00     0.293 HD
ENDBRANCH  14  17
BRANCH  15  19
ATOM     19  O   UNL     1      65.009 148.541   5.335  1.00  0.00    -0.508 OA
ATOM     20  H   UNL     1      64.417 148.002   5.958  1.00  0.00     0.293 HD
ENDBRANCH  15  19
ENDBRANCH  10  11
ENDBRANCH   1  10
TORSDOF 6
ENDMDL
MODEL 3
REMARK VINA RESULT:    -6.894      1.622      2.284
REMARK INTER + INTRA:          -9.113
REMARK INTER:                  -8.650
REMARK INTRA:                  -0.462
REMARK UNBOUND:                -0.405
REMARK SMILES Oc1ccc(CCc2cc(O)cc(O)c2)cc1
REMARK SMILES IDX 6 1 5 2 4 3 3 4 2 5 16 6 17 7 1 8 7 10 8 11 15 12 9 13 13 14
REMARK SMILES IDX 10 15 12 16 14 17 11 19
REMARK H PARENT 1 9 14 18 11 20
REMARK Flexibility Score: inf
ROOT
ATOM      1  C   UNL     1      61.481 151.498   2.281  1.00  0.00     0.040 C 
ENDROOT
BRANCH   1   2
ATOM      2  C   UNL     1      60.590 152.653   1.900  1.00  0.00    -0.047 A 
ATOM      3  C   UNL     1      59.468 152.974   2.684  1.00  0.00     0.007 A 
ATOM      4  C   UNL     1      58.616 154.014   2.303  1.00  0.00     0.046 A 
ATOM      5  C   UNL     1      58.871 154.740   1.135  1.00  0.00     0.115 A 
ATOM      6  C   UNL     1      60.838 153.379   0.725  1.00  0.00     0.007 A 
ATOM      7  C   UNL     1      59.985 154.420   0.346  1.00  0.00     0.046 A 
BRANCH   5   8
ATOM      8  O   UNL     1      58.013 155.773   0.766  1.00  0.00    -0.508 OA
ATOM      9  H   UNL     1      58.338 156.730   0.692  1.00  0.00     0.293 HD
ENDBRANCH   5   8
ENDBRANCH   1   2
BRANCH   1  10
ATOM     10  C   UNL     1      62.716 151.966   3.063  1.00  0.00     0.040 C 
BRANCH  10  11
ATOM     11  C   UNL     1      62.962 151.115   4.283  1.00  0.00    -0.040 A 
ATOM     12  C   UNL     1      64.167 150.406   4.422  1.00  0.00     0.050 A 
ATOM     13  C   UNL     1      61.962 150.973   5.259  1.00  0.00     0.050 A 
ATOM     14  C   UNL     1      64.376 149.576   5.528  1.00  0.00     0.119 A 
ATOM     15  C   UNL     1      62.168 150.146   6.368  1.00  0.00     0.119 A 
ATOM     16  C   UNL     1      63.376 149.449   6.503  1.00  0.00     0.092 A 
BRANCH  14  17
ATOM     17  O   UNL     1      65.577 148.881   5.649  1.00  0.00    -0.508 OA
ATOM     18  H   UNL     1      65.597 147.897   5.888  1.00  0.00     0.293 HD
ENDBRANCH  14  17
BRANCH  15  19
ATOM     19  O   UNL     1      61.166 150.022   7.327  1.00  0.00    -0.508 OA
ATOM     20  H   UNL     1      61.272 150.412   8.257  1.00  0.00     0.293 HD
ENDBRANCH  15  19
ENDBRANCH  10  11
ENDBRANCH   1  10
TORSDOF 6
ENDMDL
MODEL 4
REMARK VINA RESULT:    -6.773      1.628      2.443
REMARK INTER + INTRA:          -8.960
REMARK INTER:                  -8.510
REMARK INTRA:                  -0.450
REMARK UNBOUND:                -0.405
REMARK SMILES Oc1ccc(CCc2cc(O)cc(O)c2)cc1
REMARK SMILES IDX 6 1 5 2 4 3 3 4 2 5 16 6 17 7 1 8 7 10 8 11 15 12 9 13 13 14
REMARK SMILES IDX 10 15 12 16 14 17 11 19
REMARK H PARENT 1 9 14 18 11 20
REMARK Flexibility Score: inf
ROOT
ATOM      1  C   UNL     1      61.398 151.502   2.314  1.00  0.00     0.040 C 
ENDROOT
BRANCH   1   2
ATOM      2  C   UNL     1      60.527 152.679   1.955  1.00  0.00    -0.047 A 
ATOM      3  C   UNL     1      59.463 153.058   2.792  1.00  0.00     0.007 A 
ATOM      4  C   UNL     1      58.627 154.118   2.434  1.00  0.00     0.046 A 
ATOM      5  C   UNL     1      58.840 154.809   1.235  1.00  0.00     0.115 A 
ATOM      6  C   UNL     1      60.732 153.369   0.750  1.00  0.00     0.007 A 
ATOM      7  C   UNL     1      59.896 154.432   0.394  1.00  0.00     0.046 A 
BRANCH   5   8
ATOM      8  O   UNL     1      57.999 155.863   0.890  1.00  0.00    -0.508 OA
ATOM      9  H   UNL     1      57.802 156.618   1.537  1.00  0.00     0.293 HD
ENDBRANCH   5   8
ENDBRANCH   1   2
BRANCH   1  10
ATOM     10  C   UNL     1      62.608 151.925   3.158  1.00  0.00     0.040 C 
BRANCH  10  11
ATOM     11  C   UNL     1      62.852 150.974   4.301  1.00  0.00    -0.040 A 
ATOM     12  C   UNL     1      61.849 150.742   5.258  1.00  0.00     0.050 A 
ATOM     13  C   UNL     1      64.106 150.361   4.455  1.00  0.00     0.050 A 
ATOM     14  C   UNL     1      62.092 149.899   6.347  1.00  0.00     0.119 A 
ATOM     15  C   UNL     1      64.352 149.515   5.542  1.00  0.00     0.119 A 
ATOM     16  C   UNL     1      63.344 149.284   6.487  1.00  0.00     0.092 A 
BRANCH  14  17
ATOM     17  O   UNL     1      61.085 149.683   7.285  1.00  0.00    -0.508 OA
ATOM     18  H   UNL     1      60.219 150.208   7.263  1.00  0.00     0.293 HD
ENDBRANCH  14  17
BRANCH  15  19
ATOM     19  O   UNL     1      65.601 148.914   5.675  1.00  0.00    -0.508 OA
ATOM     20  H   UNL     1      66.213 148.782   4.878  1.00  0.00     0.293 HD
ENDBRANCH  15  19
ENDBRANCH  10  11
ENDBRANCH   1  10
TORSDOF 6
ENDMDL
MODEL 5
REMARK VINA RESULT:    -6.592      2.112      2.577
REMARK INTER + INTRA:          -8.731
REMARK INTER:                  -8.238
REMARK INTRA:                  -0.493
REMARK UNBOUND:                -0.405
REMARK SMILES Oc1ccc(CCc2cc(O)cc(O)c2)cc1
REMARK SMILES IDX 6 1 5 2 4 3 3 4 2 5 16 6 17 7 1 8 7 10 8 11 15 12 9 13 13 14
REMARK SMILES IDX 10 15 12 16 14 17 11 19
REMARK H PARENT 1 9 14 18 11 20
REMARK Flexibility Score: inf
ROOT
ATOM      1  C   UNL     1      59.201 152.540   4.120  1.00  0.00     0.040 C 
ENDROOT
BRANCH   1   2
ATOM      2  C   UNL     1      59.611 153.019   2.750  1.00  0.00    -0.047 A 
ATOM      3  C   UNL     1      60.847 152.633   2.202  1.00  0.00     0.007 A 
ATOM      4  C   UNL     1      61.246 153.117   0.954  1.00  0.00     0.046 A 
ATOM      5  C   UNL     1      60.421 153.994   0.242  1.00  0.00     0.115 A 
ATOM      6  C   UNL     1      58.790 153.905   2.036  1.00  0.00     0.007 A 
ATOM      7  C   UNL     1      59.191 154.387   0.786  1.00  0.00     0.046 A 
BRANCH   5   8
ATOM      8  O   UNL     1      60.832 154.469  -1.001  1.00  0.00    -0.508 OA
ATOM      9  H   UNL     1      60.781 155.454  -1.235  1.00  0.00     0.293 HD
ENDBRANCH   5   8
ENDBRANCH   1   2
BRANCH   1  10
ATOM     10  C   UNL     1      60.196 152.988   5.200  1.00  0.00     0.040 C 
BRANCH  10  11
ATOM     11  C   UNL     1      61.231 151.929   5.480  1.00  0.00    -0.040 A 
ATOM     12  C   UNL     1      60.838 150.618   5.799  1.00  0.00     0.050 A 
ATOM     13  C   UNL     1      62.597 152.259   5.486  1.00  0.00     0.050 A 
ATOM     14  C   UNL     1      61.795 149.647   6.109  1.00  0.00     0.119 A 
ATOM     15  C   UNL     1      63.558 151.290   5.793  1.00  0.00     0.119 A 
ATOM     16  C   UNL     1      63.156 149.984   6.103  1.00  0.00     0.092 A 
BRANCH  14  17
ATOM     17  O   UNL     1      61.385 148.354   6.424  1.00  0.00    -0.508 OA
ATOM     18  H   UNL     1      61.857 147.542   6.044  1.00  0.00     0.293 HD
ENDBRANCH  14  17
BRANCH  15  19
ATOM     19  O   UNL     1      64.907 151.636   5.791  1.00  0.00    -0.508 OA
ATOM     20  H   UNL     1      65.206 152.600   5.693  1.00  0.00     0.293 HD
ENDBRANCH  15  19
ENDBRANCH  10  11
ENDBRANCH   1  10
TORSDOF 6
ENDMDL
MODEL 6
REMARK VINA RESULT:    -6.585      1.602      2.828
REMARK INTER + INTRA:          -8.723
REMARK INTER:                  -8.153
REMARK INTRA:                  -0.570
REMARK UNBOUND:                -0.405
REMARK SMILES Oc1ccc(CCc2cc(O)cc(O)c2)cc1
REMARK SMILES IDX 6 1 5 2 4 3 3 4 2 5 16 6 17 7 1 8 7 10 8 11 15 12 9 13 13 14
REMARK SMILES IDX 10 15 12 16 14 17 11 19
REMARK H PARENT 1 9 14 18 11 20
REMARK Flexibility Score: inf
ROOT
ATOM      1  C   UNL     1      60.170 151.976   5.297  1.00  0.00     0.040 C 
ENDROOT
BRANCH   1   2
ATOM      2  C   UNL     1      60.043 152.612   3.936  1.00  0.00    -0.047 A 
ATOM      3  C   UNL     1      59.031 153.554   3.683  1.00  0.00     0.007 A 
ATOM      4  C   UNL     1      58.885 154.107   2.408  1.00  0.00     0.046 A 
ATOM      5  C   UNL     1      59.742 153.721   1.371  1.00  0.00     0.115 A 
ATOM      6  C   UNL     1      60.896 152.222   2.891  1.00  0.00     0.007 A 
ATOM      7  C   UNL     1      60.749 152.777   1.616  1.00  0.00     0.046 A 
BRANCH   5   8
ATOM      8  O   UNL     1      59.585 154.279   0.105  1.00  0.00    -0.508 OA
ATOM      9  H   UNL     1      58.736 154.765  -0.158  1.00  0.00     0.293 HD
ENDBRANCH   5   8
ENDBRANCH   1   2
BRANCH   1  10
ATOM     10  C   UNL     1      61.347 152.559   6.090  1.00  0.00     0.040 C 
BRANCH  10  11
ATOM     11  C   UNL     1      62.630 151.819   5.812  1.00  0.00    -0.040 A 
ATOM     12  C   UNL     1      63.759 152.509   5.339  1.00  0.00     0.050 A 
ATOM     13  C   UNL     1      62.689 150.423   5.963  1.00  0.00     0.050 A 
ATOM     14  C   UNL     1      64.935 151.816   5.032  1.00  0.00     0.119 A 
ATOM     15  C   UNL     1      63.864 149.727   5.659  1.00  0.00     0.119 A 
ATOM     16  C   UNL     1      64.987 150.425   5.195  1.00  0.00     0.092 A 
BRANCH  14  17
ATOM     17  O   UNL     1      66.043 152.518   4.564  1.00  0.00    -0.508 OA
ATOM     18  H   UNL     1      66.631 153.057   5.189  1.00  0.00     0.293 HD
ENDBRANCH  14  17
BRANCH  15  19
ATOM     19  O   UNL     1      63.903 148.345   5.819  1.00  0.00    -0.508 OA
ATOM     20  H   UNL     1      63.101 147.828   6.163  1.00  0.00     0.293 HD
ENDBRANCH  15  19
ENDBRANCH  10  11
ENDBRANCH   1  10
TORSDOF 6
ENDMDL
MODEL 7
REMARK VINA RESULT:    -6.534      1.601      2.104
REMARK INTER + INTRA:          -8.657
REMARK INTER:                  -8.139
REMARK INTRA:                  -0.518
REMARK UNBOUND:                -0.405
REMARK SMILES Oc1ccc(CCc2cc(O)cc(O)c2)cc1
REMARK SMILES IDX 6 1 5 2 4 3 3 4 2 5 16 6 17 7 1 8 7 10 8 11 15 12 9 13 13 14
REMARK SMILES IDX 10 15 12 16 14 17 11 19
REMARK H PARENT 1 9 14 18 11 20
REMARK Flexibility Score: inf
ROOT
ATOM      1  C   UNL     1      60.113 151.974   5.290  1.00  0.00     0.040 C 
ENDROOT
BRANCH   1   2
ATOM      2  C   UNL     1      60.007 152.611   3.927  1.00  0.00    -0.047 A 
ATOM      3  C   UNL     1      58.994 153.548   3.658  1.00  0.00     0.007 A 
ATOM      4  C   UNL     1      58.867 154.101   2.381  1.00  0.00     0.046 A 
ATOM      5  C   UNL     1      59.744 153.723   1.360  1.00  0.00     0.115 A 
ATOM      6  C   UNL     1      60.880 152.228   2.897  1.00  0.00     0.007 A 
ATOM      7  C   UNL     1      60.752 152.784   1.621  1.00  0.00     0.046 A 
BRANCH   5   8
ATOM      8  O   UNL     1      59.606 154.281   0.092  1.00  0.00    -0.508 OA
ATOM      9  H   UNL     1      59.371 153.714  -0.715  1.00  0.00     0.293 HD
ENDBRANCH   5   8
ENDBRANCH   1   2
BRANCH   1  10
ATOM     10  C   UNL     1      61.312 152.517   6.080  1.00  0.00     0.040 C 
BRANCH  10  11
ATOM     11  C   UNL     1      62.581 151.773   5.752  1.00  0.00    -0.040 A 
ATOM     12  C   UNL     1      62.658 150.383   5.941  1.00  0.00     0.050 A 
ATOM     13  C   UNL     1      63.718 152.473   5.315  1.00  0.00     0.050 A 
ATOM     14  C   UNL     1      63.851 149.699   5.686  1.00  0.00     0.119 A 
ATOM     15  C   UNL     1      64.912 151.791   5.056  1.00  0.00     0.119 A 
ATOM     16  C   UNL     1      64.977 150.404   5.241  1.00  0.00     0.092 A 
BRANCH  14  17
ATOM     17  O   UNL     1      63.907 148.321   5.881  1.00  0.00    -0.508 OA
ATOM     18  H   UNL     1      63.500 147.675   5.214  1.00  0.00     0.293 HD
ENDBRANCH  14  17
BRANCH  15  19
ATOM     19  O   UNL     1      66.027 152.503   4.620  1.00  0.00    -0.508 OA
ATOM     20  H   UNL     1      66.315 152.494   3.648  1.00  0.00     0.293 HD
ENDBRANCH  15  19
ENDBRANCH  10  11
ENDBRANCH   1  10
TORSDOF 6
ENDMDL
MODEL 8
REMARK VINA RESULT:    -6.521      1.590      6.978
REMARK INTER + INTRA:          -8.642
REMARK INTER:                  -8.133
REMARK INTRA:                  -0.509
REMARK UNBOUND:                -0.405
REMARK SMILES Oc1ccc(CCc2cc(O)cc(O)c2)cc1
REMARK SMILES IDX 6 1 5 2 4 3 3 4 2 5 16 6 17 7 1 8 7 10 8 11 15 12 9 13 13 14
REMARK SMILES IDX 10 15 12 16 14 17 11 19
REMARK H PARENT 1 9 14 18 11 20
REMARK Flexibility Score: inf
ROOT
ATOM      1  C   UNL     1      62.293 152.254   2.702  1.00  0.00     0.040 C 
ENDROOT
BRANCH   1   2
ATOM      2  C   UNL     1      62.958 151.294   3.656  1.00  0.00    -0.047 A 
ATOM      3  C   UNL     1      64.336 151.033   3.554  1.00  0.00     0.007 A 
ATOM      4  C   UNL     1      64.942 150.106   4.406  1.00  0.00     0.046 A 
ATOM      5  C   UNL     1      64.180 149.427   5.364  1.00  0.00     0.115 A 
ATOM      6  C   UNL     1      62.197 150.605   4.612  1.00  0.00     0.007 A 
ATOM      7  C   UNL     1      62.805 149.679   5.465  1.00  0.00     0.046 A 
BRANCH   5   8
ATOM      8  O   UNL     1      64.797 148.506   6.206  1.00  0.00    -0.508 OA
ATOM      9  H   UNL     1      64.265 147.957   6.872  1.00  0.00     0.293 HD
ENDBRANCH   5   8
ENDBRANCH   1   2
BRANCH   1  10
ATOM     10  C   UNL     1      60.852 151.832   2.383  1.00  0.00     0.040 C 
BRANCH  10  11
ATOM     11  C   UNL     1      59.876 152.957   2.612  1.00  0.00    -0.040 A 
ATOM     12  C   UNL     1      59.420 153.732   1.531  1.00  0.00     0.050 A 
ATOM     13  C   UNL     1      59.462 153.282   3.914  1.00  0.00     0.050 A 
ATOM     14  C   UNL     1      58.554 154.808   1.747  1.00  0.00     0.119 A 
ATOM     15  C   UNL     1      58.594 154.356   4.134  1.00  0.00     0.119 A 
ATOM     16  C   UNL     1      58.139 155.118   3.050  1.00  0.00     0.092 A 
BRANCH  14  17
ATOM     17  O   UNL     1      58.114 155.564   0.663  1.00  0.00    -0.508 OA
ATOM     18  H   UNL     1      57.130 155.753   0.514  1.00  0.00     0.293 HD
ENDBRANCH  14  17
BRANCH  15  19
ATOM     19  O   UNL     1      58.193 154.660   5.433  1.00  0.00    -0.508 OA
ATOM     20  H   UNL     1      58.576 154.171   6.234  1.00  0.00     0.293 HD
ENDBRANCH  15  19
ENDBRANCH  10  11
ENDBRANCH   1  10
TORSDOF 6
ENDMDL
MODEL 9
REMARK VINA RESULT:    -6.449      1.603      6.978
REMARK INTER + INTRA:          -8.551
REMARK INTER:                  -8.047
REMARK INTRA:                  -0.504
REMARK UNBOUND:                -0.405
REMARK SMILES Oc1ccc(CCc2cc(O)cc(O)c2)cc1
REMARK SMILES IDX 6 1 5 2 4 3 3 4 2 5 16 6 17 7 1 8 7 10 8 11 15 12 9 13 13 14
REMARK SMILES IDX 10 15 12 16 14 17 11 19
REMARK H PARENT 1 9 14 18 11 20
REMARK Flexibility Score: inf
ROOT
ATOM      1  C   UNL     1      62.314 152.236   2.715  1.00  0.00     0.040 C 
ENDROOT
BRANCH   1   2
ATOM      2  C   UNL     1      62.950 151.267   3.681  1.00  0.00    -0.047 A 
ATOM      3  C   UNL     1      64.322 150.975   3.594  1.00  0.00     0.007 A 
ATOM      4  C   UNL     1      64.900 150.041   4.458  1.00  0.00     0.046 A 
ATOM      5  C   UNL     1      64.114 149.385   5.413  1.00  0.00     0.115 A 
ATOM      6  C   UNL     1      62.164 150.601   4.634  1.00  0.00     0.007 A 
ATOM      7  C   UNL     1      62.744 149.668   5.499  1.00  0.00     0.046 A 
BRANCH   5   8
ATOM      8  O   UNL     1      64.702 148.456   6.266  1.00  0.00    -0.508 OA
ATOM      9  H   UNL     1      65.133 147.609   5.913  1.00  0.00     0.293 HD
ENDBRANCH   5   8
ENDBRANCH   1   2
BRANCH   1  10
ATOM     10  C   UNL     1      60.851 151.874   2.428  1.00  0.00     0.040 C 
BRANCH  10  11
ATOM     11  C   UNL     1      59.930 153.044   2.660  1.00  0.00    -0.040 A 
ATOM     12  C   UNL     1      59.457 153.330   3.952  1.00  0.00     0.050 A 
ATOM     13  C   UNL     1      59.486 153.821   1.577  1.00  0.00     0.050 A 
ATOM     14  C   UNL     1      58.562 154.384   4.162  1.00  0.00     0.119 A 
ATOM     15  C   UNL     1      58.593 154.878   1.783  1.00  0.00     0.119 A 
ATOM     16  C   UNL     1      58.132 155.160   3.076  1.00  0.00     0.092 A 
BRANCH  14  17
ATOM     17  O   UNL     1      58.104 154.650   5.450  1.00  0.00    -0.508 OA
ATOM     18  H   UNL     1      57.451 154.033   5.918  1.00  0.00     0.293 HD
ENDBRANCH  14  17
BRANCH  15  19
ATOM     19  O   UNL     1      58.168 155.639   0.697  1.00  0.00    -0.508 OA
ATOM     20  H   UNL     1      57.183 155.804   0.519  1.00  0.00     0.293 HD
ENDBRANCH  15  19
ENDBRANCH  10  11
ENDBRANCH   1  10
TORSDOF 6
ENDMDL
