MODEL 1
REMARK VINA RESULT:    -5.340      0.000      0.000
REMARK INTER + INTRA:          -7.422
REMARK INTER:                  -7.525
REMARK INTRA:                   0.104
REMARK UNBOUND:                 0.104
REMARK SMILES CC1=CCC(=C(C)C)C(=O)CC(C)=CCC1
REMARK SMILES IDX 12 1 14 2 13 3 15 4 16 5 2 6 1 7 3 8 11 10 9 11 10 12 5 13
REMARK SMILES IDX 6 14 7 15 8 16 4 17
REMARK H PARENT
REMARK Flexibility Score: 60.00
ROOT
ATOM      1  C   UNL     1      -3.677 -11.399  27.860  1.00  0.00    -0.070 C 
ATOM      2  C   UNL     1      -2.890 -10.563  28.598  1.00  0.00    -0.027 C 
ATOM      3  C   UNL     1      -3.416 -11.436  26.373  1.00  0.00     0.039 C 
ENDROOT
BRANCH   2   4
ATOM      4  C   UNL     1      -2.895 -10.224  30.084  1.00  0.00     0.032 C 
BRANCH   4   5
ATOM      5  C   UNL     1      -1.722 -10.738  30.927  1.00  0.00     0.034 C 
BRANCH   5   6
ATOM      6  C   UNL     1      -1.412 -12.242  30.903  1.00  0.00    -0.077 C 
ATOM      7  C   UNL     1       0.004 -12.605  30.506  1.00  0.00     0.039 C 
ATOM      8  C   UNL     1      -2.254 -13.297  31.108  1.00  0.00    -0.023 CG0
ATOM      9  G   UNL     1      -3.730 -13.337  31.454  1.00  0.00     0.000 G0
ENDBRANCH   5   6
ENDBRANCH   4   5
ENDBRANCH   2   4
BRANCH   1  10
ATOM     10  C   UNL     1      -4.784 -12.304  28.378  1.00  0.00     0.111 C 
BRANCH  10  11
ATOM     11  C   UNL     1      -4.239 -13.566  28.974  1.00  0.00     0.163 C 
ATOM     12  O   UNL     1      -3.521 -14.318  28.261  1.00  0.00    -0.294 OA
BRANCH  11  13
ATOM     13  C   UNL     1      -4.572 -13.953  30.370  1.00  0.00    -0.002 C 
ATOM     14  C   UNL     1      -5.596 -14.812  30.647  1.00  0.00    -0.069 C 
ATOM     15  C   UNL     1      -6.007 -15.123  32.068  1.00  0.00     0.039 C 
ATOM     16  C   UNL     1      -6.357 -15.503  29.538  1.00  0.00     0.039 C 
BRANCH  13  17
ATOM     17  C   UNL     1      -3.724 -13.324  31.454  1.00  0.00     0.066 CG0
ATOM     18  G   UNL     1      -2.253 -13.305  31.086  1.00  0.00     0.000 G0
ENDBRANCH  13  17
ENDBRANCH  11  13
ENDBRANCH  10  11
ENDBRANCH   1  10
TORSDOF 0
ENDMDL
MODEL 2
REMARK VINA RESULT:    -4.936      2.223      4.824
REMARK INTER + INTRA:          -6.852
REMARK INTER:                  -7.138
REMARK INTRA:                   0.286
REMARK UNBOUND:                 0.104
REMARK SMILES CC1=CCC(=C(C)C)C(=O)CC(C)=CCC1
REMARK SMILES IDX 12 1 14 2 13 3 15 4 16 5 2 6 1 7 3 8 11 10 9 11 10 12 5 13
REMARK SMILES IDX 6 14 7 15 8 16 4 17
REMARK H PARENT
REMARK Flexibility Score: 60.00
ROOT
ATOM      1  C   UNL     1      -4.363 -13.374  31.170  1.00  0.00    -0.070 C 
ATOM      2  C   UNL     1      -4.938 -14.347  30.406  1.00  0.00    -0.027 C 
ATOM      3  C   UNL     1      -3.804 -13.804  32.506  1.00  0.00     0.039 C 
ENDROOT
BRANCH   2   4
ATOM      4  C   UNL     1      -5.643 -14.284  29.057  1.00  0.00     0.032 C 
BRANCH   4   5
ATOM      5  C   UNL     1      -5.282 -13.120  28.126  1.00  0.00     0.034 C 
BRANCH   5   6
ATOM      6  C   UNL     1      -4.096 -13.297  27.166  1.00  0.00    -0.077 C 
ATOM      7  C   UNL     1      -4.269 -14.369  26.112  1.00  0.00     0.039 C 
ATOM      8  C   UNL     1      -2.877 -12.680  27.182  1.00  0.00    -0.023 CG0
ATOM      9  G   UNL     1      -2.314 -11.617  28.107  1.00  0.00     0.000 G0
ENDBRANCH   5   6
ENDBRANCH   4   5
ENDBRANCH   2   4
BRANCH   1  10
ATOM     10  C   UNL     1      -4.217 -11.902  30.815  1.00  0.00     0.111 C 
BRANCH  10  11
ATOM     11  C   UNL     1      -2.785 -11.521  30.595  1.00  0.00     0.163 C 
ATOM     12  O   UNL     1      -2.263 -10.649  31.342  1.00  0.00    -0.294 OA
BRANCH  11  13
ATOM     13  C   UNL     1      -1.999 -12.125  29.489  1.00  0.00    -0.002 C 
ATOM     14  C   UNL     1      -1.049 -13.076  29.725  1.00  0.00    -0.069 C 
ATOM     15  C   UNL     1      -0.173 -13.615  28.617  1.00  0.00     0.039 C 
ATOM     16  C   UNL     1      -0.843 -13.645  31.111  1.00  0.00     0.039 C 
BRANCH  13  17
ATOM     17  C   UNL     1      -2.303 -11.610  28.098  1.00  0.00     0.066 CG0
ATOM     18  G   UNL     1      -2.880 -12.691  27.205  1.00  0.00     0.000 G0
ENDBRANCH  13  17
ENDBRANCH  11  13
ENDBRANCH  10  11
ENDBRANCH   1  10
TORSDOF 0
ENDMDL
MODEL 3
REMARK VINA RESULT:    -4.884      1.186      3.908
REMARK INTER + INTRA:          -6.780
REMARK INTER:                  -6.978
REMARK INTRA:                   0.198
REMARK UNBOUND:                 0.104
REMARK SMILES CC1=CCC(=C(C)C)C(=O)CC(C)=CCC1
REMARK SMILES IDX 12 1 14 2 13 3 15 4 16 5 2 6 1 7 3 8 11 10 9 11 10 12 5 13
REMARK SMILES IDX 6 14 7 15 8 16 4 17
REMARK H PARENT
REMARK Flexibility Score: 60.00
ROOT
ATOM      1  C   UNL     1      -5.809 -14.734  29.625  1.00  0.00    -0.070 C 
ATOM      2  C   UNL     1      -5.327 -14.714  30.901  1.00  0.00    -0.027 C 
ATOM      3  C   UNL     1      -6.568 -15.972  29.207  1.00  0.00     0.039 C 
ENDROOT
BRANCH   2   4
ATOM      4  C   UNL     1      -4.485 -13.685  31.645  1.00  0.00     0.032 C 
BRANCH   4   5
ATOM      5  C   UNL     1      -2.979 -13.955  31.756  1.00  0.00     0.034 C 
BRANCH   5   6
ATOM      6  C   UNL     1      -2.007 -12.897  31.213  1.00  0.00    -0.077 C 
ATOM      7  C   UNL     1      -0.596 -12.974  31.756  1.00  0.00     0.039 C 
ATOM      8  C   UNL     1      -2.258 -11.848  30.375  1.00  0.00    -0.023 CG0
ATOM      9  G   UNL     1      -3.538 -11.409  29.689  1.00  0.00     0.000 G0
ENDBRANCH   5   6
ENDBRANCH   4   5
ENDBRANCH   2   4
BRANCH   1  10
ATOM     10  C   UNL     1      -5.671 -13.638  28.580  1.00  0.00     0.111 C 
BRANCH  10  11
ATOM     11  C   UNL     1      -4.237 -13.374  28.234  1.00  0.00     0.163 C 
ATOM     12  O   UNL     1      -3.497 -14.345  27.920  1.00  0.00    -0.294 OA
BRANCH  11  13
ATOM     13  C   UNL     1      -3.680 -11.999  28.301  1.00  0.00    -0.002 C 
ATOM     14  C   UNL     1      -3.308 -11.325  27.174  1.00  0.00    -0.069 C 
ATOM     15  C   UNL     1      -2.641  -9.969  27.244  1.00  0.00     0.039 C 
ATOM     16  C   UNL     1      -3.563 -11.901  25.799  1.00  0.00     0.039 C 
BRANCH  13  17
ATOM     17  C   UNL     1      -3.534 -11.407  29.686  1.00  0.00     0.066 CG0
ATOM     18  G   UNL     1      -2.248 -11.846  30.360  1.00  0.00     0.000 G0
ENDBRANCH  13  17
ENDBRANCH  11  13
ENDBRANCH  10  11
ENDBRANCH   1  10
TORSDOF 0
ENDMDL
MODEL 4
REMARK VINA RESULT:    -4.796      1.830      3.782
REMARK INTER + INTRA:          -6.655
REMARK INTER:                  -6.827
REMARK INTRA:                   0.172
REMARK UNBOUND:                 0.104
REMARK SMILES CC1=CCC(=C(C)C)C(=O)CC(C)=CCC1
REMARK SMILES IDX 12 1 14 2 13 3 15 4 16 5 2 6 1 7 3 8 11 10 9 11 10 12 5 13
REMARK SMILES IDX 6 14 7 15 8 16 4 17
REMARK H PARENT
REMARK Flexibility Score: 60.00
ROOT
ATOM      1  C   UNL     1      -4.965 -13.726  28.864  1.00  0.00    -0.070 C 
ATOM      2  C   UNL     1      -5.026 -14.376  30.062  1.00  0.00    -0.027 C 
ATOM      3  C   UNL     1      -5.116 -14.575  27.624  1.00  0.00     0.039 C 
ENDROOT
BRANCH   2   4
ATOM      4  C   UNL     1      -4.863 -13.874  31.492  1.00  0.00     0.032 C 
BRANCH   4   5
ATOM      5  C   UNL     1      -3.598 -13.069  31.815  1.00  0.00     0.034 C 
BRANCH   5   6
ATOM      6  C   UNL     1      -3.681 -11.536  31.774  1.00  0.00    -0.077 C 
ATOM      7  C   UNL     1      -4.745 -10.920  32.657  1.00  0.00     0.039 C 
ATOM      8  C   UNL     1      -2.986 -10.657  30.992  1.00  0.00    -0.023 CG0
ATOM      9  G   UNL     1      -1.904 -10.892  29.955  1.00  0.00     0.000 G0
ENDBRANCH   5   6
ENDBRANCH   4   5
ENDBRANCH   2   4
BRANCH   1  10
ATOM     10  C   UNL     1      -4.768 -12.233  28.645  1.00  0.00     0.111 C 
BRANCH  10  11
ATOM     11  C   UNL     1      -3.387 -11.919  28.157  1.00  0.00     0.163 C 
ATOM     12  O   UNL     1      -3.229 -11.561  26.959  1.00  0.00    -0.294 OA
BRANCH  11  13
ATOM     13  C   UNL     1      -2.212 -12.066  29.055  1.00  0.00    -0.002 C 
ATOM     14  C   UNL     1      -1.469 -13.211  29.075  1.00  0.00    -0.069 C 
ATOM     15  C   UNL     1      -0.340 -13.406  30.062  1.00  0.00     0.039 C 
ATOM     16  C   UNL     1      -1.735 -14.332  28.095  1.00  0.00     0.039 C 
BRANCH  13  17
ATOM     17  C   UNL     1      -1.907 -10.885  29.950  1.00  0.00     0.066 CG0
ATOM     18  G   UNL     1      -2.995 -10.659  30.983  1.00  0.00     0.000 G0
ENDBRANCH  13  17
ENDBRANCH  11  13
ENDBRANCH  10  11
ENDBRANCH   1  10
TORSDOF 0
ENDMDL
MODEL 5
REMARK VINA RESULT:    -4.755      1.803      4.768
REMARK INTER + INTRA:          -6.597
REMARK INTER:                  -7.415
REMARK INTRA:                   0.818
REMARK UNBOUND:                 0.104
REMARK SMILES CC1=CCC(=C(C)C)C(=O)CC(C)=CCC1
REMARK SMILES IDX 12 1 14 2 13 3 15 4 16 5 2 6 1 7 3 8 11 10 9 11 10 12 5 13
REMARK SMILES IDX 6 14 7 15 8 16 4 17
REMARK H PARENT
REMARK Flexibility Score: 60.00
ROOT
ATOM      1  C   UNL     1      -4.795 -14.332  31.695  1.00  0.00    -0.070 C 
ATOM      2  C   UNL     1      -5.284 -14.675  30.468  1.00  0.00    -0.027 C 
ATOM      3  C   UNL     1      -5.033 -15.315  32.817  1.00  0.00     0.039 C 
ENDROOT
BRANCH   2   4
ATOM      4  C   UNL     1      -5.287 -13.929  29.139  1.00  0.00     0.032 C 
BRANCH   4   5
ATOM      5  C   UNL     1      -4.282 -14.384  28.074  1.00  0.00     0.034 C 
BRANCH   5   6
ATOM      6  C   UNL     1      -3.493 -13.310  27.312  1.00  0.00    -0.077 C 
ATOM      7  C   UNL     1      -3.911 -13.098  25.872  1.00  0.00     0.039 C 
ATOM      8  C   UNL     1      -2.414 -12.580  27.724  1.00  0.00    -0.023 CG0
ATOM      9  G   UNL     1      -1.677 -12.560  29.049  1.00  0.00     0.000 G0
ENDBRANCH   5   6
ENDBRANCH   4   5
ENDBRANCH   2   4
BRANCH   1  10
ATOM     10  C   UNL     1      -4.028 -13.068  32.050  1.00  0.00     0.111 C 
BRANCH  10  11
ATOM     11  C   UNL     1      -2.719 -12.988  31.326  1.00  0.00     0.163 C 
ATOM     12  O   UNL     1      -1.764 -13.717  31.708  1.00  0.00    -0.294 OA
BRANCH  11  13
ATOM     13  C   UNL     1      -2.530 -12.036  30.202  1.00  0.00    -0.002 C 
ATOM     14  C   UNL     1      -3.120 -10.805  30.203  1.00  0.00    -0.069 C 
ATOM     15  C   UNL     1      -3.019  -9.876  29.014  1.00  0.00     0.039 C 
ATOM     16  C   UNL     1      -3.891 -10.310  31.406  1.00  0.00     0.039 C 
BRANCH  13  17
ATOM     17  C   UNL     1      -1.666 -12.521  29.057  1.00  0.00     0.066 CG0
ATOM     18  G   UNL     1      -2.434 -12.582  27.751  1.00  0.00     0.000 G0
ENDBRANCH  13  17
ENDBRANCH  11  13
ENDBRANCH  10  11
ENDBRANCH   1  10
TORSDOF 0
ENDMDL
MODEL 6
REMARK VINA RESULT:    -4.613      2.252      3.980
REMARK INTER + INTRA:          -6.397
REMARK INTER:                  -6.576
REMARK INTRA:                   0.178
REMARK UNBOUND:                 0.104
REMARK SMILES CC1=CCC(=C(C)C)C(=O)CC(C)=CCC1
REMARK SMILES IDX 12 1 14 2 13 3 15 4 16 5 2 6 1 7 3 8 11 10 9 11 10 12 5 13
REMARK SMILES IDX 6 14 7 15 8 16 4 17
REMARK H PARENT
REMARK Flexibility Score: 60.00
ROOT
ATOM      1  C   UNL     1      -0.769 -13.647  29.353  1.00  0.00    -0.070 C 
ATOM      2  C   UNL     1      -0.536 -12.865  30.447  1.00  0.00    -0.027 C 
ATOM      3  C   UNL     1       0.379 -13.821  28.387  1.00  0.00     0.039 C 
ENDROOT
BRANCH   2   4
ATOM      4  C   UNL     1      -1.448 -12.424  31.585  1.00  0.00     0.032 C 
BRANCH   4   5
ATOM      5  C   UNL     1      -1.802 -10.934  31.666  1.00  0.00     0.034 C 
BRANCH   5   6
ATOM      6  C   UNL     1      -3.094 -10.454  30.988  1.00  0.00    -0.077 C 
ATOM      7  C   UNL     1      -4.173  -9.958  31.927  1.00  0.00     0.039 C 
ATOM      8  C   UNL     1      -3.436 -10.490  29.666  1.00  0.00    -0.023 CG0
ATOM      9  G   UNL     1      -2.662 -10.969  28.453  1.00  0.00     0.000 G0
ENDBRANCH   5   6
ENDBRANCH   4   5
ENDBRANCH   2   4
BRANCH   1  10
ATOM     10  C   UNL     1      -2.062 -14.370  29.008  1.00  0.00     0.111 C 
BRANCH  10  11
ATOM     11  C   UNL     1      -3.216 -13.422  28.886  1.00  0.00     0.163 C 
ATOM     12  O   UNL     1      -4.239 -13.611  29.597  1.00  0.00    -0.294 OA
BRANCH  11  13
ATOM     13  C   UNL     1      -3.177 -12.300  27.913  1.00  0.00    -0.002 C 
ATOM     14  C   UNL     1      -3.566 -12.468  26.615  1.00  0.00    -0.069 C 
ATOM     15  C   UNL     1      -3.426 -11.360  25.596  1.00  0.00     0.039 C 
ATOM     16  C   UNL     1      -4.170 -13.772  26.144  1.00  0.00     0.039 C 
BRANCH  13  17
ATOM     17  C   UNL     1      -2.665 -10.978  28.442  1.00  0.00     0.066 CG0
ATOM     18  G   UNL     1      -3.448 -10.509  29.653  1.00  0.00     0.000 G0
ENDBRANCH  13  17
ENDBRANCH  11  13
ENDBRANCH  10  11
ENDBRANCH   1  10
TORSDOF 0
ENDMDL
MODEL 7
REMARK VINA RESULT:    -4.565      2.156      4.230
REMARK INTER + INTRA:          -6.330
REMARK INTER:                  -7.197
REMARK INTRA:                   0.868
REMARK UNBOUND:                 0.104
REMARK SMILES CC1=CCC(=C(C)C)C(=O)CC(C)=CCC1
REMARK SMILES IDX 12 1 14 2 13 3 15 4 16 5 2 6 1 7 3 8 11 10 9 11 10 12 5 13
REMARK SMILES IDX 6 14 7 15 8 16 4 17
REMARK H PARENT
REMARK Flexibility Score: 60.00
ROOT
ATOM      1  C   UNL     1      -4.174 -10.276  31.365  1.00  0.00    -0.070 C 
ATOM      2  C   UNL     1      -4.884  -9.889  30.265  1.00  0.00    -0.027 C 
ATOM      3  C   UNL     1      -4.793  -9.977  32.710  1.00  0.00     0.039 C 
ENDROOT
BRANCH   2   4
ATOM      4  C   UNL     1      -4.562  -9.970  28.778  1.00  0.00     0.032 C 
BRANCH   4   5
ATOM      5  C   UNL     1      -3.179 -10.502  28.384  1.00  0.00     0.034 C 
BRANCH   5   6
ATOM      6  C   UNL     1      -3.106 -11.713  27.442  1.00  0.00    -0.077 C 
ATOM      7  C   UNL     1      -3.031 -11.383  25.967  1.00  0.00     0.039 C 
ATOM      8  C   UNL     1      -3.181 -13.043  27.744  1.00  0.00    -0.023 CG0
ATOM      9  G   UNL     1      -3.323 -13.753  29.077  1.00  0.00     0.000 G0
ENDBRANCH   5   6
ENDBRANCH   4   5
ENDBRANCH   2   4
BRANCH   1  10
ATOM     10  C   UNL     1      -2.828 -10.985  31.379  1.00  0.00     0.111 C 
BRANCH  10  11
ATOM     11  C   UNL     1      -2.979 -12.470  31.248  1.00  0.00     0.163 C 
ATOM     12  O   UNL     1      -3.615 -13.100  32.135  1.00  0.00    -0.294 OA
BRANCH  11  13
ATOM     13  C   UNL     1      -2.354 -13.200  30.116  1.00  0.00    -0.002 C 
ATOM     14  C   UNL     1      -0.999 -13.339  30.018  1.00  0.00    -0.069 C 
ATOM     15  C   UNL     1      -0.354 -13.986  28.813  1.00  0.00     0.039 C 
ATOM     16  C   UNL     1      -0.084 -12.863  31.123  1.00  0.00     0.039 C 
BRANCH  13  17
ATOM     17  C   UNL     1      -3.304 -13.756  29.077  1.00  0.00     0.066 CG0
ATOM     18  G   UNL     1      -3.167 -13.047  27.743  1.00  0.00     0.000 G0
ENDBRANCH  13  17
ENDBRANCH  11  13
ENDBRANCH  10  11
ENDBRANCH   1  10
TORSDOF 0
ENDMDL
MODEL 8
REMARK VINA RESULT:    -4.541      1.737      3.929
REMARK INTER + INTRA:          -6.295
REMARK INTER:                  -6.956
REMARK INTRA:                   0.661
REMARK UNBOUND:                 0.104
REMARK SMILES CC1=CCC(=C(C)C)C(=O)CC(C)=CCC1
REMARK SMILES IDX 12 1 14 2 13 3 15 4 16 5 2 6 1 7 3 8 11 10 9 11 10 12 5 13
REMARK SMILES IDX 6 14 7 15 8 16 4 17
REMARK H PARENT
REMARK Flexibility Score: 60.00
ROOT
ATOM      1  C   UNL     1      -4.426 -13.981  27.051  1.00  0.00    -0.070 C 
ATOM      2  C   UNL     1      -5.558 -13.951  27.811  1.00  0.00    -0.027 C 
ATOM      3  C   UNL     1      -4.616 -14.020  25.553  1.00  0.00     0.039 C 
ENDROOT
BRANCH   2   4
ATOM      4  C   UNL     1      -5.760 -13.963  29.322  1.00  0.00     0.032 C 
BRANCH   4   5
ATOM      5  C   UNL     1      -4.577 -14.416  30.186  1.00  0.00     0.034 C 
BRANCH   5   6
ATOM      6  C   UNL     1      -4.172 -13.541  31.381  1.00  0.00    -0.077 C 
ATOM      7  C   UNL     1      -4.670 -14.014  32.730  1.00  0.00     0.039 C 
ATOM      8  C   UNL     1      -3.496 -12.353  31.388  1.00  0.00    -0.023 CG0
ATOM      9  G   UNL     1      -2.905 -11.541  30.252  1.00  0.00     0.000 G0
ENDBRANCH   5   6
ENDBRANCH   4   5
ENDBRANCH   2   4
BRANCH   1  10
ATOM     10  C   UNL     1      -2.990 -13.971  27.553  1.00  0.00     0.111 C 
BRANCH  10  11
ATOM     11  C   UNL     1      -2.553 -12.599  27.966  1.00  0.00     0.163 C 
ATOM     12  O   UNL     1      -2.607 -11.661  27.125  1.00  0.00    -0.294 OA
BRANCH  11  13
ATOM     13  C   UNL     1      -2.024 -12.349  29.332  1.00  0.00    -0.002 C 
ATOM     14  C   UNL     1      -0.821 -12.854  29.734  1.00  0.00    -0.069 C 
ATOM     15  C   UNL     1      -0.328 -12.695  31.154  1.00  0.00     0.039 C 
ATOM     16  C   UNL     1       0.082 -13.585  28.765  1.00  0.00     0.039 C 
BRANCH  13  17
ATOM     17  C   UNL     1      -2.904 -11.524  30.246  1.00  0.00     0.066 CG0
ATOM     18  G   UNL     1      -3.485 -12.353  31.376  1.00  0.00     0.000 G0
ENDBRANCH  13  17
ENDBRANCH  11  13
ENDBRANCH  10  11
ENDBRANCH   1  10
TORSDOF 0
ENDMDL
MODEL 9
REMARK VINA RESULT:    -4.472      2.141      4.552
REMARK INTER + INTRA:          -6.198
REMARK INTER:                  -6.373
REMARK INTRA:                   0.175
REMARK UNBOUND:                 0.104
REMARK SMILES CC1=CCC(=C(C)C)C(=O)CC(C)=CCC1
REMARK SMILES IDX 12 1 14 2 13 3 15 4 16 5 2 6 1 7 3 8 11 10 9 11 10 12 5 13
REMARK SMILES IDX 6 14 7 15 8 16 4 17
REMARK H PARENT
REMARK Flexibility Score: 60.00
ROOT
ATOM      1  C   UNL     1      -3.708 -11.101  30.890  1.00  0.00    -0.070 C 
ATOM      2  C   UNL     1      -3.828 -12.192  31.701  1.00  0.00    -0.027 C 
ATOM      3  C   UNL     1      -3.063  -9.876  31.495  1.00  0.00     0.039 C 
ENDROOT
BRANCH   2   4
ATOM      4  C   UNL     1      -4.461 -13.558  31.465  1.00  0.00     0.032 C 
BRANCH   4   5
ATOM      5  C   UNL     1      -3.986 -14.352  30.242  1.00  0.00     0.034 C 
BRANCH   5   6
ATOM      6  C   UNL     1      -4.839 -14.303  28.966  1.00  0.00    -0.077 C 
ATOM      7  C   UNL     1      -6.233 -14.880  29.095  1.00  0.00     0.039 C 
ATOM      8  C   UNL     1      -4.489 -13.889  27.713  1.00  0.00    -0.023 CG0
ATOM      9  G   UNL     1      -3.186 -13.320  27.183  1.00  0.00     0.000 G0
ENDBRANCH   5   6
ENDBRANCH   4   5
ENDBRANCH   2   4
BRANCH   1  10
ATOM     10  C   UNL     1      -4.146 -10.990  29.438  1.00  0.00     0.111 C 
BRANCH  10  11
ATOM     11  C   UNL     1      -2.997 -11.162  28.494  1.00  0.00     0.163 C 
ATOM     12  O   UNL     1      -2.526 -10.147  27.912  1.00  0.00    -0.294 OA
BRANCH  11  13
ATOM     13  C   UNL     1      -2.442 -12.511  28.209  1.00  0.00    -0.002 C 
ATOM     14  C   UNL     1      -1.321 -12.968  28.839  1.00  0.00    -0.069 C 
ATOM     15  C   UNL     1      -0.692 -14.294  28.474  1.00  0.00     0.039 C 
ATOM     16  C   UNL     1      -0.666 -12.170  29.944  1.00  0.00     0.039 C 
BRANCH  13  17
ATOM     17  C   UNL     1      -3.182 -13.329  27.172  1.00  0.00     0.066 CG0
ATOM     18  G   UNL     1      -4.487 -13.882  27.711  1.00  0.00     0.000 G0
ENDBRANCH  13  17
ENDBRANCH  11  13
ENDBRANCH  10  11
ENDBRANCH   1  10
TORSDOF 0
ENDMDL
