MODEL 1
REMARK VINA RESULT:    -4.709      0.000      0.000
REMARK INTER + INTRA:          -6.384
REMARK INTER:                  -6.085
REMARK INTRA:                  -0.299
REMARK UNBOUND:                -0.299
REMARK SMILES CCCCCCC(=O)[O-]
REMARK SMILES IDX 5 1 6 2 7 3 8 4 9 5 4 6 3 7 2 8 1 9
REMARK H PARENT
REMARK Flexibility Score: inf
ROOT
ATOM      1  C   UNL     1     -17.741  -8.840 -22.244  1.00  0.00     0.006 C 
ENDROOT
BRANCH   1   2
ATOM      2  C   UNL     1     -17.502  -9.242 -23.709  1.00  0.00     0.053 C 
BRANCH   2   3
ATOM      3  C   UNL     1     -16.538  -8.322 -24.391  1.00  0.00     0.041 C 
ATOM      4  O   UNL     1     -16.961  -7.340 -25.057  1.00  0.00    -0.550 OA
ATOM      5  O   UNL     1     -15.172  -8.566 -24.318  1.00  0.00    -0.550 OA
ENDBRANCH   2   3
ENDBRANCH   1   2
BRANCH   1   6
ATOM      6  C   UNL     1     -16.619  -9.267 -21.279  1.00  0.00     0.000 C 
BRANCH   6   7
ATOM      7  C   UNL     1     -15.851  -8.073 -20.696  1.00  0.00    -0.000 C 
BRANCH   7   8
ATOM      8  C   UNL     1     -16.574  -6.755 -20.996  1.00  0.00    -0.003 C 
ATOM      9  C   UNL     1     -15.787  -5.908 -21.992  1.00  0.00     0.004 C 
ENDBRANCH   7   8
ENDBRANCH   6   7
ENDBRANCH   1   6
TORSDOF 5
ENDMDL
MODEL 2
REMARK VINA RESULT:    -4.632      2.057      3.402
REMARK INTER + INTRA:          -6.285
REMARK INTER:                  -5.841
REMARK INTRA:                  -0.445
REMARK UNBOUND:                -0.299
REMARK SMILES CCCCCCC(=O)[O-]
REMARK SMILES IDX 5 1 6 2 7 3 8 4 9 5 4 6 3 7 2 8 1 9
REMARK H PARENT
REMARK Flexibility Score: inf
ROOT
ATOM      1  C   UNL     1     -16.932  -9.369 -21.727  1.00  0.00     0.006 C 
ENDROOT
BRANCH   1   2
ATOM      2  C   UNL     1     -15.874  -8.445 -21.103  1.00  0.00     0.053 C 
BRANCH   2   3
ATOM      3  C   UNL     1     -16.262  -7.002 -21.202  1.00  0.00     0.041 C 
ATOM      4  O   UNL     1     -17.232  -6.559 -20.532  1.00  0.00    -0.550 OA
ATOM      5  O   UNL     1     -15.572  -6.153 -22.058  1.00  0.00    -0.550 OA
ENDBRANCH   2   3
ENDBRANCH   1   2
BRANCH   1   6
ATOM      6  C   UNL     1     -17.091  -9.211 -23.251  1.00  0.00     0.000 C 
BRANCH   6   7
ATOM      7  C   UNL     1     -15.756  -9.319 -24.002  1.00  0.00    -0.000 C 
BRANCH   7   8
ATOM      8  C   UNL     1     -15.596  -8.167 -25.001  1.00  0.00    -0.003 C 
ATOM      9  C   UNL     1     -16.880  -7.351 -25.115  1.00  0.00     0.004 C 
ENDBRANCH   7   8
ENDBRANCH   6   7
ENDBRANCH   1   6
TORSDOF 5
ENDMDL
MODEL 3
REMARK VINA RESULT:    -4.608      2.249      3.813
REMARK INTER + INTRA:          -6.254
REMARK INTER:                  -6.049
REMARK INTRA:                  -0.204
REMARK UNBOUND:                -0.299
REMARK SMILES CCCCCCC(=O)[O-]
REMARK SMILES IDX 5 1 6 2 7 3 8 4 9 5 4 6 3 7 2 8 1 9
REMARK H PARENT
REMARK Flexibility Score: inf
ROOT
ATOM      1  C   UNL     1     -16.270  -6.256 -21.799  1.00  0.00     0.006 C 
ENDROOT
BRANCH   1   2
ATOM      2  C   UNL     1     -16.416  -7.033 -20.480  1.00  0.00     0.053 C 
BRANCH   2   3
ATOM      3  C   UNL     1     -16.077  -8.483 -20.644  1.00  0.00     0.041 C 
ATOM      4  O   UNL     1     -16.961  -9.304 -21.004  1.00  0.00    -0.550 OA
ATOM      5  O   UNL     1     -14.792  -8.932 -20.367  1.00  0.00    -0.550 OA
ENDBRANCH   2   3
ENDBRANCH   1   2
BRANCH   1   6
ATOM      6  C   UNL     1     -15.545  -7.033 -22.914  1.00  0.00     0.000 C 
BRANCH   6   7
ATOM      7  C   UNL     1     -16.467  -7.388 -24.088  1.00  0.00    -0.000 C 
BRANCH   7   8
ATOM      8  C   UNL     1     -16.253  -8.839 -24.534  1.00  0.00    -0.003 C 
ATOM      9  C   UNL     1     -14.970  -9.415 -23.942  1.00  0.00     0.004 C 
ENDBRANCH   7   8
ENDBRANCH   6   7
ENDBRANCH   1   6
TORSDOF 5
ENDMDL
MODEL 4
REMARK VINA RESULT:    -4.508      2.340      3.635
REMARK INTER + INTRA:          -6.124
REMARK INTER:                  -5.768
REMARK INTRA:                  -0.356
REMARK UNBOUND:                -0.299
REMARK SMILES CCCCCCC(=O)[O-]
REMARK SMILES IDX 5 1 6 2 7 3 8 4 9 5 4 6 3 7 2 8 1 9
REMARK H PARENT
REMARK Flexibility Score: inf
ROOT
ATOM      1  C   UNL     1     -18.085  -8.508 -22.226  1.00  0.00     0.006 C 
ENDROOT
BRANCH   1   2
ATOM      2  C   UNL     1     -17.256  -9.188 -21.124  1.00  0.00     0.053 C 
BRANCH   2   3
ATOM      3  C   UNL     1     -16.140  -8.313 -20.643  1.00  0.00     0.041 C 
ATOM      4  O   UNL     1     -14.991  -8.795 -20.460  1.00  0.00    -0.550 OA
ATOM      5  O   UNL     1     -16.376  -6.972 -20.368  1.00  0.00    -0.550 OA
ENDBRANCH   2   3
ENDBRANCH   1   2
BRANCH   1   6
ATOM      6  C   UNL     1     -17.757  -8.988 -23.652  1.00  0.00     0.000 C 
BRANCH   6   7
ATOM      7  C   UNL     1     -17.058  -7.913 -24.495  1.00  0.00    -0.000 C 
BRANCH   7   8
ATOM      8  C   UNL     1     -15.563  -7.842 -24.163  1.00  0.00    -0.003 C 
ATOM      9  C   UNL     1     -14.962  -9.237 -24.019  1.00  0.00     0.004 C 
ENDBRANCH   7   8
ENDBRANCH   6   7
ENDBRANCH   1   6
TORSDOF 5
ENDMDL
MODEL 5
REMARK VINA RESULT:    -4.435      1.510      2.473
REMARK INTER + INTRA:          -6.031
REMARK INTER:                  -5.621
REMARK INTRA:                  -0.410
REMARK UNBOUND:                -0.299
REMARK SMILES CCCCCCC(=O)[O-]
REMARK SMILES IDX 5 1 6 2 7 3 8 4 9 5 4 6 3 7 2 8 1 9
REMARK H PARENT
REMARK Flexibility Score: inf
ROOT
ATOM      1  C   UNL     1     -16.461  -6.581 -23.749  1.00  0.00     0.006 C 
ENDROOT
BRANCH   1   2
ATOM      2  C   UNL     1     -16.407  -7.766 -24.726  1.00  0.00     0.053 C 
BRANCH   2   3
ATOM      3  C   UNL     1     -16.416  -9.082 -24.011  1.00  0.00     0.041 C 
ATOM      4  O   UNL     1     -15.388  -9.809 -24.006  1.00  0.00    -0.550 OA
ATOM      5  O   UNL     1     -17.571  -9.520 -23.376  1.00  0.00    -0.550 OA
ENDBRANCH   2   3
ENDBRANCH   1   2
BRANCH   1   6
ATOM      6  C   UNL     1     -15.564  -6.741 -22.508  1.00  0.00     0.000 C 
BRANCH   6   7
ATOM      7  C   UNL     1     -16.332  -6.559 -21.191  1.00  0.00    -0.000 C 
BRANCH   7   8
ATOM      8  C   UNL     1     -16.464  -7.892 -20.445  1.00  0.00    -0.003 C 
ATOM      9  C   UNL     1     -15.208  -8.743 -20.608  1.00  0.00     0.004 C 
ENDBRANCH   7   8
ENDBRANCH   6   7
ENDBRANCH   1   6
TORSDOF 5
ENDMDL
MODEL 6
REMARK VINA RESULT:    -4.232      0.982      2.324
REMARK INTER + INTRA:          -5.768
REMARK INTER:                  -5.571
REMARK INTRA:                  -0.197
REMARK UNBOUND:                -0.299
REMARK SMILES CCCCCCC(=O)[O-]
REMARK SMILES IDX 5 1 6 2 7 3 8 4 9 5 4 6 3 7 2 8 1 9
REMARK H PARENT
REMARK Flexibility Score: inf
ROOT
ATOM      1  C   UNL     1     -15.670  -6.581 -22.335  1.00  0.00     0.006 C 
ENDROOT
BRANCH   1   2
ATOM      2  C   UNL     1     -15.125  -7.654 -23.290  1.00  0.00     0.053 C 
BRANCH   2   3
ATOM      3  C   UNL     1     -16.032  -7.873 -24.462  1.00  0.00     0.041 C 
ATOM      4  O   UNL     1     -16.716  -6.921 -24.921  1.00  0.00    -0.550 OA
ATOM      5  O   UNL     1     -16.145  -9.137 -25.027  1.00  0.00    -0.550 OA
ENDBRANCH   2   3
ENDBRANCH   1   2
BRANCH   1   6
ATOM      6  C   UNL     1     -16.537  -7.134 -21.189  1.00  0.00     0.000 C 
BRANCH   6   7
ATOM      7  C   UNL     1     -16.243  -8.609 -20.879  1.00  0.00    -0.000 C 
BRANCH   7   8
ATOM      8  C   UNL     1     -17.419  -9.501 -21.291  1.00  0.00    -0.003 C 
ATOM      9  C   UNL     1     -18.444  -8.721 -22.109  1.00  0.00     0.004 C 
ENDBRANCH   7   8
ENDBRANCH   6   7
ENDBRANCH   1   6
TORSDOF 5
ENDMDL
MODEL 7
REMARK VINA RESULT:    -4.216      2.154      3.667
REMARK INTER + INTRA:          -5.747
REMARK INTER:                  -5.650
REMARK INTRA:                  -0.096
REMARK UNBOUND:                -0.299
REMARK SMILES CCCCCCC(=O)[O-]
REMARK SMILES IDX 5 1 6 2 7 3 8 4 9 5 4 6 3 7 2 8 1 9
REMARK H PARENT
REMARK Flexibility Score: inf
ROOT
ATOM      1  C   UNL     1     -15.881  -7.059 -21.405  1.00  0.00     0.006 C 
ENDROOT
BRANCH   1   2
ATOM      2  C   UNL     1     -16.126  -8.488 -20.895  1.00  0.00     0.053 C 
BRANCH   2   3
ATOM      3  C   UNL     1     -17.486  -8.991 -21.272  1.00  0.00     0.041 C 
ATOM      4  O   UNL     1     -17.752 -10.219 -21.194  1.00  0.00    -0.550 OA
ATOM      5  O   UNL     1     -18.450  -8.106 -21.738  1.00  0.00    -0.550 OA
ENDBRANCH   2   3
ENDBRANCH   1   2
BRANCH   1   6
ATOM      6  C   UNL     1     -15.548  -6.970 -22.906  1.00  0.00     0.000 C 
BRANCH   6   7
ATOM      7  C   UNL     1     -15.181  -8.331 -23.515  1.00  0.00    -0.000 C 
BRANCH   7   8
ATOM      8  C   UNL     1     -15.752  -8.468 -24.932  1.00  0.00    -0.003 C 
ATOM      9  C   UNL     1     -17.007  -7.619 -25.106  1.00  0.00     0.004 C 
ENDBRANCH   7   8
ENDBRANCH   6   7
ENDBRANCH   1   6
TORSDOF 5
ENDMDL
MODEL 8
REMARK VINA RESULT:    -3.813      1.474      2.086
REMARK INTER + INTRA:          -5.226
REMARK INTER:                  -4.783
REMARK INTRA:                  -0.443
REMARK UNBOUND:                -0.299
REMARK SMILES CCCCCCC(=O)[O-]
REMARK SMILES IDX 5 1 6 2 7 3 8 4 9 5 4 6 3 7 2 8 1 9
REMARK H PARENT
REMARK Flexibility Score: inf
ROOT
ATOM      1  C   UNL     1     -14.920  -8.639 -23.730  1.00  0.00     0.006 C 
ENDROOT
BRANCH   1   2
ATOM      2  C   UNL     1     -16.170  -9.374 -24.239  1.00  0.00     0.053 C 
BRANCH   2   3
ATOM      3  C   UNL     1     -17.368  -8.477 -24.285  1.00  0.00     0.041 C 
ATOM      4  O   UNL     1     -18.382  -8.736 -23.585  1.00  0.00    -0.550 OA
ATOM      5  O   UNL     1     -17.376  -7.371 -25.125  1.00  0.00    -0.550 OA
ENDBRANCH   2   3
ENDBRANCH   1   2
BRANCH   1   6
ATOM      6  C   UNL     1     -15.115  -7.914 -22.386  1.00  0.00     0.000 C 
BRANCH   6   7
ATOM      7  C   UNL     1     -15.469  -8.871 -21.239  1.00  0.00    -0.000 C 
BRANCH   7   8
ATOM      8  C   UNL     1     -16.658  -8.341 -20.429  1.00  0.00    -0.003 C 
ATOM      9  C   UNL     1     -17.000  -6.907 -20.824  1.00  0.00     0.004 C 
ENDBRANCH   7   8
ENDBRANCH   6   7
ENDBRANCH   1   6
TORSDOF 5
ENDMDL
MODEL 9
REMARK VINA RESULT:    -3.636      2.301      3.790
REMARK INTER + INTRA:          -4.997
REMARK INTER:                  -4.918
REMARK INTRA:                  -0.079
REMARK UNBOUND:                -0.299
REMARK SMILES CCCCCCC(=O)[O-]
REMARK SMILES IDX 5 1 6 2 7 3 8 4 9 5 4 6 3 7 2 8 1 9
REMARK H PARENT
REMARK Flexibility Score: inf
ROOT
ATOM      1  C   UNL     1     -15.061  -7.506 -23.095  1.00  0.00     0.006 C 
ENDROOT
BRANCH   1   2
ATOM      2  C   UNL     1     -15.887  -6.503 -22.274  1.00  0.00     0.053 C 
BRANCH   2   3
ATOM      3  C   UNL     1     -16.242  -7.042 -20.923  1.00  0.00     0.041 C 
ATOM      4  O   UNL     1     -17.256  -6.610 -20.314  1.00  0.00    -0.550 OA
ATOM      5  O   UNL     1     -15.434  -8.000 -20.322  1.00  0.00    -0.550 OA
ENDBRANCH   2   3
ENDBRANCH   1   2
BRANCH   1   6
ATOM      6  C   UNL     1     -15.899  -8.584 -23.806  1.00  0.00     0.000 C 
BRANCH   6   7
ATOM      7  C   UNL     1     -17.373  -8.184 -23.964  1.00  0.00    -0.000 C 
BRANCH   7   8
ATOM      8  C   UNL     1     -18.298  -9.271 -23.405  1.00  0.00    -0.003 C 
ATOM      9  C   UNL     1     -17.866  -9.699 -22.006  1.00  0.00     0.004 C 
ENDBRANCH   7   8
ENDBRANCH   6   7
ENDBRANCH   1   6
TORSDOF 5
ENDMDL
