MODEL 1
REMARK VINA RESULT:    -5.079      0.000      0.000
REMARK INTER + INTRA:         -10.846
REMARK INTER:                  -9.235
REMARK INTRA:                  -1.611
REMARK UNBOUND:                -1.611
REMARK SMILES CCCCCCCCCCCCCC[C@@H](C)C(=O)[O-]
REMARK SMILES IDX 9 1 10 2 11 3 12 4 13 5 14 6 15 7 16 8 17 9 18 10 19 11 8 12
REMARK SMILES IDX 7 13 6 14 5 15 4 16 3 17 2 18 1 19
REMARK H PARENT
REMARK Flexibility Score: inf
ROOT
ATOM      1  C   UNL     1      19.100  27.745  31.438  1.00  0.00     0.000 C 
ENDROOT
BRANCH   1   2
ATOM      2  C   UNL     1      19.322  27.807  32.960  1.00  0.00     0.000 C 
BRANCH   2   3
ATOM      3  C   UNL     1      18.806  29.113  33.589  1.00  0.00     0.000 C 
BRANCH   3   4
ATOM      4  C   UNL     1      17.843  28.864  34.761  1.00  0.00     0.000 C 
BRANCH   4   5
ATOM      5  C   UNL     1      16.742  29.930  34.862  1.00  0.00     0.001 C 
BRANCH   5   6
ATOM      6  C   UNL     1      16.534  30.633  33.510  1.00  0.00     0.009 C 
BRANCH   6   7
ATOM      7  C   UNL     1      16.526  32.169  33.648  1.00  0.00     0.032 C 
ATOM      8  C   UNL     1      16.374  32.578  35.117  1.00  0.00     0.014 C 
BRANCH   7   9
ATOM      9  C   UNL     1      17.781  32.776  33.082  1.00  0.00     0.044 C 
ATOM     10  O   UNL     1      18.510  33.508  33.803  1.00  0.00    -0.550 OA
ATOM     11  O   UNL     1      18.148  32.532  31.763  1.00  0.00    -0.550 OA
ENDBRANCH   7   9
ENDBRANCH   6   7
ENDBRANCH   5   6
ENDBRANCH   4   5
ENDBRANCH   3   4
ENDBRANCH   2   3
ENDBRANCH   1   2
BRANCH   1  12
ATOM     12  C   UNL     1      17.966  28.638  30.901  1.00  0.00     0.000 C 
BRANCH  12  13
ATOM     13  C   UNL     1      18.446  29.645  29.842  1.00  0.00    -0.000 C 
BRANCH  13  14
ATOM     14  C   UNL     1      18.955  28.959  28.563  1.00  0.00    -0.000 C 
BRANCH  14  15
ATOM     15  C   UNL     1      17.838  28.741  27.527  1.00  0.00    -0.000 C 
BRANCH  15  16
ATOM     16  C   UNL     1      17.662  27.263  27.143  1.00  0.00    -0.000 C 
BRANCH  16  17
ATOM     17  C   UNL     1      18.862  26.355  27.478  1.00  0.00    -0.000 C 
BRANCH  17  18
ATOM     18  C   UNL     1      18.547  25.266  28.524  1.00  0.00    -0.003 C 
ATOM     19  C   UNL     1      19.057  23.888  28.106  1.00  0.00     0.004 C 
ENDBRANCH  17  18
ENDBRANCH  16  17
ENDBRANCH  15  16
ENDBRANCH  14  15
ENDBRANCH  13  14
ENDBRANCH  12  13
ENDBRANCH   1  12
TORSDOF 14
ENDMDL
MODEL 2
REMARK VINA RESULT:    -5.059      2.928      7.697
REMARK INTER + INTRA:         -10.811
REMARK INTER:                  -9.302
REMARK INTRA:                  -1.509
REMARK UNBOUND:                -1.611
REMARK SMILES CCCCCCCCCCCCCC[C@@H](C)C(=O)[O-]
REMARK SMILES IDX 9 1 10 2 11 3 12 4 13 5 14 6 15 7 16 8 17 9 18 10 19 11 8 12
REMARK SMILES IDX 7 13 6 14 5 15 4 16 3 17 2 18 1 19
REMARK H PARENT
REMARK Flexibility Score: inf
ROOT
ATOM      1  C   UNL     1      19.241  27.780  32.780  1.00  0.00     0.000 C 
ENDROOT
BRANCH   1   2
ATOM      2  C   UNL     1      19.215  27.802  31.241  1.00  0.00     0.000 C 
BRANCH   2   3
ATOM      3  C   UNL     1      17.968  28.502  30.671  1.00  0.00     0.000 C 
BRANCH   3   4
ATOM      4  C   UNL     1      18.317  29.769  29.873  1.00  0.00     0.000 C 
BRANCH   4   5
ATOM      5  C   UNL     1      18.886  29.456  28.481  1.00  0.00     0.001 C 
BRANCH   5   6
ATOM      6  C   UNL     1      17.882  28.641  27.648  1.00  0.00     0.009 C 
BRANCH   6   7
ATOM      7  C   UNL     1      18.569  27.522  26.840  1.00  0.00     0.032 C 
ATOM      8  C   UNL     1      19.612  28.110  25.885  1.00  0.00     0.014 C 
BRANCH   7   9
ATOM      9  C   UNL     1      19.224  26.515  27.747  1.00  0.00     0.044 C 
ATOM     10  O   UNL     1      20.481  26.454  27.820  1.00  0.00    -0.550 OA
ATOM     11  O   UNL     1      18.452  25.649  28.512  1.00  0.00    -0.550 OA
ENDBRANCH   7   9
ENDBRANCH   6   7
ENDBRANCH   5   6
ENDBRANCH   4   5
ENDBRANCH   3   4
ENDBRANCH   2   3
ENDBRANCH   1   2
BRANCH   1  12
ATOM     12  C   UNL     1      18.821  29.095  33.464  1.00  0.00     0.000 C 
BRANCH  12  13
ATOM     13  C   UNL     1      17.963  28.870  34.721  1.00  0.00    -0.000 C 
BRANCH  13  14
ATOM     14  C   UNL     1      16.734  29.793  34.770  1.00  0.00    -0.000 C 
BRANCH  14  15
ATOM     15  C   UNL     1      16.706  30.799  33.604  1.00  0.00    -0.000 C 
BRANCH  15  16
ATOM     16  C   UNL     1      16.344  32.223  34.056  1.00  0.00    -0.000 C 
BRANCH  16  17
ATOM     17  C   UNL     1      17.052  32.700  35.339  1.00  0.00    -0.000 C 
BRANCH  17  18
ATOM     18  C   UNL     1      16.095  33.286  36.398  1.00  0.00    -0.003 C 
ATOM     19  C   UNL     1      15.347  32.202  37.174  1.00  0.00     0.004 C 
ENDBRANCH  17  18
ENDBRANCH  16  17
ENDBRANCH  15  16
ENDBRANCH  14  15
ENDBRANCH  13  14
ENDBRANCH  12  13
ENDBRANCH   1  12
TORSDOF 14
ENDMDL
MODEL 3
REMARK VINA RESULT:    -5.001      1.483      2.580
REMARK INTER + INTRA:         -10.705
REMARK INTER:                  -8.880
REMARK INTRA:                  -1.826
REMARK UNBOUND:                -1.611
REMARK SMILES CCCCCCCCCCCCCC[C@@H](C)C(=O)[O-]
REMARK SMILES IDX 9 1 10 2 11 3 12 4 13 5 14 6 15 7 16 8 17 9 18 10 19 11 8 12
REMARK SMILES IDX 7 13 6 14 5 15 4 16 3 17 2 18 1 19
REMARK H PARENT
REMARK Flexibility Score: inf
ROOT
ATOM      1  C   UNL     1      19.633  27.002  34.287  1.00  0.00     0.000 C 
ENDROOT
BRANCH   1   2
ATOM      2  C   UNL     1      20.089  28.042  35.326  1.00  0.00     0.000 C 
BRANCH   2   3
ATOM      3  C   UNL     1      19.091  29.201  35.494  1.00  0.00     0.000 C 
BRANCH   3   4
ATOM      4  C   UNL     1      17.706  28.876  34.911  1.00  0.00     0.000 C 
BRANCH   4   5
ATOM      5  C   UNL     1      16.777  30.098  34.872  1.00  0.00     0.001 C 
BRANCH   5   6
ATOM      6  C   UNL     1      16.652  30.647  33.441  1.00  0.00     0.009 C 
BRANCH   6   7
ATOM      7  C   UNL     1      17.040  32.138  33.354  1.00  0.00     0.032 C 
ATOM      8  C   UNL     1      16.110  32.988  34.226  1.00  0.00     0.014 C 
BRANCH   7   9
ATOM      9  C   UNL     1      18.468  32.357  33.774  1.00  0.00     0.044 C 
ATOM     10  O   UNL     1      19.411  31.969  33.033  1.00  0.00    -0.550 OA
ATOM     11  O   UNL     1      18.760  32.988  34.978  1.00  0.00    -0.550 OA
ENDBRANCH   7   9
ENDBRANCH   6   7
ENDBRANCH   5   6
ENDBRANCH   4   5
ENDBRANCH   3   4
ENDBRANCH   2   3
ENDBRANCH   1   2
BRANCH   1  12
ATOM     12  C   UNL     1      20.385  27.042  32.943  1.00  0.00     0.000 C 
BRANCH  12  13
ATOM     13  C   UNL     1      19.466  27.364  31.751  1.00  0.00    -0.000 C 
BRANCH  13  14
ATOM     14  C   UNL     1      19.318  28.875  31.513  1.00  0.00    -0.000 C 
BRANCH  14  15
ATOM     15  C   UNL     1      18.095  29.218  30.642  1.00  0.00    -0.000 C 
BRANCH  15  16
ATOM     16  C   UNL     1      18.437  30.167  29.482  1.00  0.00    -0.000 C 
BRANCH  16  17
ATOM     17  C   UNL     1      18.255  29.569  28.074  1.00  0.00    -0.000 C 
BRANCH  17  18
ATOM     18  C   UNL     1      18.491  28.045  28.009  1.00  0.00    -0.003 C 
ATOM     19  C   UNL     1      17.529  27.345  27.050  1.00  0.00     0.004 C 
ENDBRANCH  17  18
ENDBRANCH  16  17
ENDBRANCH  15  16
ENDBRANCH  14  15
ENDBRANCH  13  14
ENDBRANCH  12  13
ENDBRANCH   1  12
TORSDOF 14
ENDMDL
MODEL 4
REMARK VINA RESULT:    -4.989      2.810      6.928
REMARK INTER + INTRA:         -10.682
REMARK INTER:                  -8.390
REMARK INTRA:                  -2.293
REMARK UNBOUND:                -1.611
REMARK SMILES CCCCCCCCCCCCCC[C@@H](C)C(=O)[O-]
REMARK SMILES IDX 9 1 10 2 11 3 12 4 13 5 14 6 15 7 16 8 17 9 18 10 19 11 8 12
REMARK SMILES IDX 7 13 6 14 5 15 4 16 3 17 2 18 1 19
REMARK H PARENT
REMARK Flexibility Score: inf
ROOT
ATOM      1  C   UNL     1      18.229  30.214  35.493  1.00  0.00     0.000 C 
ENDROOT
BRANCH   1   2
ATOM      2  C   UNL     1      19.237  29.050  35.469  1.00  0.00     0.000 C 
BRANCH   2   3
ATOM      3  C   UNL     1      18.763  27.863  34.612  1.00  0.00     0.000 C 
BRANCH   3   4
ATOM      4  C   UNL     1      19.880  27.297  33.720  1.00  0.00     0.000 C 
BRANCH   4   5
ATOM      5  C   UNL     1      19.527  27.340  32.226  1.00  0.00     0.001 C 
BRANCH   5   6
ATOM      6  C   UNL     1      19.380  28.791  31.738  1.00  0.00     0.009 C 
BRANCH   6   7
ATOM      7  C   UNL     1      18.324  28.927  30.623  1.00  0.00     0.032 C 
ATOM      8  C   UNL     1      18.333  30.344  30.041  1.00  0.00     0.014 C 
BRANCH   7   9
ATOM      9  C   UNL     1      18.559  27.926  29.523  1.00  0.00     0.044 C 
ATOM     10  O   UNL     1      17.645  27.124  29.193  1.00  0.00    -0.550 OA
ATOM     11  O   UNL     1      19.782  27.880  28.863  1.00  0.00    -0.550 OA
ENDBRANCH   7   9
ENDBRANCH   6   7
ENDBRANCH   5   6
ENDBRANCH   4   5
ENDBRANCH   3   4
ENDBRANCH   2   3
ENDBRANCH   1   2
BRANCH   1  12
ATOM     12  C   UNL     1      16.900  29.948  34.760  1.00  0.00     0.000 C 
BRANCH  12  13
ATOM     13  C   UNL     1      16.741  30.791  33.483  1.00  0.00    -0.000 C 
BRANCH  13  14
ATOM     14  C   UNL     1      17.839  31.858  33.340  1.00  0.00    -0.000 C 
BRANCH  14  15
ATOM     15  C   UNL     1      17.268  33.286  33.274  1.00  0.00    -0.000 C 
BRANCH  15  16
ATOM     16  C   UNL     1      15.876  33.400  33.916  1.00  0.00    -0.000 C 
BRANCH  16  17
ATOM     17  C   UNL     1      15.835  34.162  35.255  1.00  0.00    -0.000 C 
BRANCH  17  18
ATOM     18  C   UNL     1      16.495  33.401  36.425  1.00  0.00    -0.003 C 
ATOM     19  C   UNL     1      15.481  32.623  37.262  1.00  0.00     0.004 C 
ENDBRANCH  17  18
ENDBRANCH  16  17
ENDBRANCH  15  16
ENDBRANCH  14  15
ENDBRANCH  13  14
ENDBRANCH  12  13
ENDBRANCH   1  12
TORSDOF 14
ENDMDL
MODEL 5
REMARK VINA RESULT:    -4.960      1.379      2.336
REMARK INTER + INTRA:         -10.630
REMARK INTER:                  -8.627
REMARK INTRA:                  -2.002
REMARK UNBOUND:                -1.611
REMARK SMILES CCCCCCCCCCCCCC[C@@H](C)C(=O)[O-]
REMARK SMILES IDX 9 1 10 2 11 3 12 4 13 5 14 6 15 7 16 8 17 9 18 10 19 11 8 12
REMARK SMILES IDX 7 13 6 14 5 15 4 16 3 17 2 18 1 19
REMARK H PARENT
REMARK Flexibility Score: inf
ROOT
ATOM      1  C   UNL     1      19.848  27.208  33.794  1.00  0.00     0.000 C 
ENDROOT
BRANCH   1   2
ATOM      2  C   UNL     1      20.257  28.515  34.499  1.00  0.00     0.000 C 
BRANCH   2   3
ATOM      3  C   UNL     1      19.391  28.828  35.731  1.00  0.00     0.000 C 
BRANCH   3   4
ATOM      4  C   UNL     1      18.429  30.004  35.493  1.00  0.00     0.000 C 
BRANCH   4   5
ATOM      5  C   UNL     1      17.071  29.556  34.934  1.00  0.00     0.001 C 
BRANCH   5   6
ATOM      6  C   UNL     1      16.600  30.499  33.814  1.00  0.00     0.009 C 
BRANCH   6   7
ATOM      7  C   UNL     1      17.236  31.900  33.928  1.00  0.00     0.032 C 
ATOM      8  C   UNL     1      17.818  32.338  32.580  1.00  0.00     0.014 C 
BRANCH   7   9
ATOM      9  C   UNL     1      16.235  32.918  34.403  1.00  0.00     0.044 C 
ATOM     10  O   UNL     1      15.889  32.947  35.614  1.00  0.00    -0.550 OA
ATOM     11  O   UNL     1      15.687  33.835  33.513  1.00  0.00    -0.550 OA
ENDBRANCH   7   9
ENDBRANCH   6   7
ENDBRANCH   5   6
ENDBRANCH   4   5
ENDBRANCH   3   4
ENDBRANCH   2   3
ENDBRANCH   1   2
BRANCH   1  12
ATOM     12  C   UNL     1      19.424  27.360  32.321  1.00  0.00     0.000 C 
BRANCH  12  13
ATOM     13  C   UNL     1      19.088  28.812  31.940  1.00  0.00    -0.000 C 
BRANCH  13  14
ATOM     14  C   UNL     1      17.950  28.903  30.910  1.00  0.00    -0.000 C 
BRANCH  14  15
ATOM     15  C   UNL     1      18.264  29.891  29.771  1.00  0.00    -0.000 C 
BRANCH  15  16
ATOM     16  C   UNL     1      18.918  29.210  28.558  1.00  0.00    -0.000 C 
BRANCH  16  17
ATOM     17  C   UNL     1      17.942  28.781  27.445  1.00  0.00    -0.000 C 
BRANCH  17  18
ATOM     18  C   UNL     1      17.591  27.278  27.470  1.00  0.00    -0.003 C 
ATOM     19  C   UNL     1      18.599  26.455  28.272  1.00  0.00     0.004 C 
ENDBRANCH  17  18
ENDBRANCH  16  17
ENDBRANCH  15  16
ENDBRANCH  14  15
ENDBRANCH  13  14
ENDBRANCH  12  13
ENDBRANCH   1  12
TORSDOF 14
ENDMDL
MODEL 6
REMARK VINA RESULT:    -4.929      2.719      7.393
REMARK INTER + INTRA:         -10.574
REMARK INTER:                  -8.967
REMARK INTRA:                  -1.608
REMARK UNBOUND:                -1.611
REMARK SMILES CCCCCCCCCCCCCC[C@@H](C)C(=O)[O-]
REMARK SMILES IDX 9 1 10 2 11 3 12 4 13 5 14 6 15 7 16 8 17 9 18 10 19 11 8 12
REMARK SMILES IDX 7 13 6 14 5 15 4 16 3 17 2 18 1 19
REMARK H PARENT
REMARK Flexibility Score: inf
ROOT
ATOM      1  C   UNL     1      19.366  28.943  32.193  1.00  0.00     0.000 C 
ENDROOT
BRANCH   1   2
ATOM      2  C   UNL     1      18.197  29.151  31.213  1.00  0.00     0.000 C 
BRANCH   2   3
ATOM      3  C   UNL     1      18.298  30.472  30.429  1.00  0.00     0.000 C 
BRANCH   3   4
ATOM      4  C   UNL     1      19.093  30.322  29.121  1.00  0.00     0.000 C 
BRANCH   4   5
ATOM      5  C   UNL     1      18.275  29.658  28.003  1.00  0.00     0.001 C 
BRANCH   5   6
ATOM      6  C   UNL     1      18.946  28.358  27.530  1.00  0.00     0.009 C 
BRANCH   6   7
ATOM      7  C   UNL     1      18.047  27.125  27.755  1.00  0.00     0.032 C 
ATOM      8  C   UNL     1      17.549  26.571  26.417  1.00  0.00     0.014 C 
BRANCH   7   9
ATOM      9  C   UNL     1      18.777  26.046  28.509  1.00  0.00     0.044 C 
ATOM     10  O   UNL     1      19.465  26.340  29.524  1.00  0.00    -0.550 OA
ATOM     11  O   UNL     1      18.698  24.721  28.096  1.00  0.00    -0.550 OA
ENDBRANCH   7   9
ENDBRANCH   6   7
ENDBRANCH   5   6
ENDBRANCH   4   5
ENDBRANCH   3   4
ENDBRANCH   2   3
ENDBRANCH   1   2
BRANCH   1  12
ATOM     12  C   UNL     1      19.446  27.545  32.835  1.00  0.00     0.000 C 
BRANCH  12  13
ATOM     13  C   UNL     1      19.468  27.593  34.373  1.00  0.00    -0.000 C 
BRANCH  13  14
ATOM     14  C   UNL     1      18.345  28.470  34.951  1.00  0.00    -0.000 C 
BRANCH  14  15
ATOM     15  C   UNL     1      18.887  29.655  35.772  1.00  0.00    -0.000 C 
BRANCH  15  16
ATOM     16  C   UNL     1      18.140  30.968  35.485  1.00  0.00    -0.000 C 
BRANCH  16  17
ATOM     17  C   UNL     1      16.875  30.822  34.617  1.00  0.00    -0.000 C 
BRANCH  17  18
ATOM     18  C   UNL     1      16.813  31.811  33.434  1.00  0.00    -0.003 C 
ATOM     19  C   UNL     1      16.033  33.081  33.774  1.00  0.00     0.004 C 
ENDBRANCH  17  18
ENDBRANCH  16  17
ENDBRANCH  15  16
ENDBRANCH  14  15
ENDBRANCH  13  14
ENDBRANCH  12  13
ENDBRANCH   1  12
TORSDOF 14
ENDMDL
MODEL 7
REMARK VINA RESULT:    -4.912      2.576      4.290
REMARK INTER + INTRA:         -10.542
REMARK INTER:                  -8.810
REMARK INTRA:                  -1.733
REMARK UNBOUND:                -1.611
REMARK SMILES CCCCCCCCCCCCCC[C@@H](C)C(=O)[O-]
REMARK SMILES IDX 9 1 10 2 11 3 12 4 13 5 14 6 15 7 16 8 17 9 18 10 19 11 8 12
REMARK SMILES IDX 7 13 6 14 5 15 4 16 3 17 2 18 1 19
REMARK H PARENT
REMARK Flexibility Score: inf
ROOT
ATOM      1  C   UNL     1      18.727  30.724  27.833  1.00  0.00     0.000 C 
ENDROOT
BRANCH   1   2
ATOM      2  C   UNL     1      18.545  31.421  29.193  1.00  0.00     0.000 C 
BRANCH   2   3
ATOM      3  C   UNL     1      19.062  30.579  30.373  1.00  0.00     0.000 C 
BRANCH   3   4
ATOM      4  C   UNL     1      18.003  30.391  31.472  1.00  0.00     0.000 C 
BRANCH   4   5
ATOM      5  C   UNL     1      18.008  28.975  32.065  1.00  0.00     0.001 C 
BRANCH   5   6
ATOM      6  C   UNL     1      19.427  28.563  32.491  1.00  0.00     0.009 C 
BRANCH   6   7
ATOM      7  C   UNL     1      19.418  27.364  33.461  1.00  0.00     0.032 C 
ATOM      8  C   UNL     1      20.526  26.369  33.099  1.00  0.00     0.014 C 
BRANCH   7   9
ATOM      9  C   UNL     1      19.588  27.813  34.887  1.00  0.00     0.044 C 
ATOM     10  O   UNL     1      20.478  27.293  35.612  1.00  0.00    -0.550 OA
ATOM     11  O   UNL     1      18.770  28.805  35.415  1.00  0.00    -0.550 OA
ENDBRANCH   7   9
ENDBRANCH   6   7
ENDBRANCH   5   6
ENDBRANCH   4   5
ENDBRANCH   3   4
ENDBRANCH   2   3
ENDBRANCH   1   2
BRANCH   1  12
ATOM     12  C   UNL     1      19.079  29.225  27.903  1.00  0.00     0.000 C 
BRANCH  12  13
ATOM     13  C   UNL     1      17.858  28.313  27.696  1.00  0.00    -0.000 C 
BRANCH  13  14
ATOM     14  C   UNL     1      17.812  27.152  28.704  1.00  0.00    -0.000 C 
BRANCH  14  15
ATOM     15  C   UNL     1      19.201  26.810  29.273  1.00  0.00    -0.000 C 
BRANCH  15  16
ATOM     16  C   UNL     1      19.772  25.502  28.701  1.00  0.00    -0.000 C 
BRANCH  16  17
ATOM     17  C   UNL     1      18.719  24.501  28.187  1.00  0.00    -0.000 C 
BRANCH  17  18
ATOM     18  C   UNL     1      19.276  23.083  27.938  1.00  0.00    -0.003 C 
ATOM     19  C   UNL     1      18.764  22.066  28.957  1.00  0.00     0.004 C 
ENDBRANCH  17  18
ENDBRANCH  16  17
ENDBRANCH  15  16
ENDBRANCH  14  15
ENDBRANCH  13  14
ENDBRANCH  12  13
ENDBRANCH   1  12
TORSDOF 14
ENDMDL
MODEL 8
REMARK VINA RESULT:    -4.890      1.753      2.074
REMARK INTER + INTRA:         -10.503
REMARK INTER:                  -8.411
REMARK INTRA:                  -2.092
REMARK UNBOUND:                -1.611
REMARK SMILES CCCCCCCCCCCCCC[C@@H](C)C(=O)[O-]
REMARK SMILES IDX 9 1 10 2 11 3 12 4 13 5 14 6 15 7 16 8 17 9 18 10 19 11 8 12
REMARK SMILES IDX 7 13 6 14 5 15 4 16 3 17 2 18 1 19
REMARK H PARENT
REMARK Flexibility Score: inf
ROOT
ATOM      1  C   UNL     1      19.306  28.231  31.778  1.00  0.00     0.000 C 
ENDROOT
BRANCH   1   2
ATOM      2  C   UNL     1      19.243  27.533  33.149  1.00  0.00     0.000 C 
BRANCH   2   3
ATOM      3  C   UNL     1      19.971  28.316  34.256  1.00  0.00     0.000 C 
BRANCH   3   4
ATOM      4  C   UNL     1      19.092  29.412  34.879  1.00  0.00     0.000 C 
BRANCH   4   5
ATOM      5  C   UNL     1      17.631  28.972  35.059  1.00  0.00     0.001 C 
BRANCH   5   6
ATOM      6  C   UNL     1      16.668  30.005  34.452  1.00  0.00     0.009 C 
BRANCH   6   7
ATOM      7  C   UNL     1      17.142  31.453  34.691  1.00  0.00     0.032 C 
ATOM      8  C   UNL     1      16.474  32.409  33.698  1.00  0.00     0.014 C 
BRANCH   7   9
ATOM      9  C   UNL     1      16.849  31.899  36.098  1.00  0.00     0.044 C 
ATOM     10  O   UNL     1      17.786  32.291  36.844  1.00  0.00    -0.550 OA
ATOM     11  O   UNL     1      15.547  31.884  36.585  1.00  0.00    -0.550 OA
ENDBRANCH   7   9
ENDBRANCH   6   7
ENDBRANCH   5   6
ENDBRANCH   4   5
ENDBRANCH   3   4
ENDBRANCH   2   3
ENDBRANCH   1   2
BRANCH   1  12
ATOM     12  C   UNL     1      17.998  28.904  31.321  1.00  0.00     0.000 C 
BRANCH  12  13
ATOM     13  C   UNL     1      18.237  30.187  30.507  1.00  0.00    -0.000 C 
BRANCH  13  14
ATOM     14  C   UNL     1      19.163  29.957  29.301  1.00  0.00    -0.000 C 
BRANCH  14  15
ATOM     15  C   UNL     1      18.389  29.849  27.975  1.00  0.00    -0.000 C 
BRANCH  15  16
ATOM     16  C   UNL     1      18.521  28.465  27.319  1.00  0.00    -0.000 C 
BRANCH  16  17
ATOM     17  C   UNL     1      17.599  27.377  27.902  1.00  0.00    -0.000 C 
BRANCH  17  18
ATOM     18  C   UNL     1      18.345  26.293  28.708  1.00  0.00    -0.003 C 
ATOM     19  C   UNL     1      19.859  26.350  28.503  1.00  0.00     0.004 C 
ENDBRANCH  17  18
ENDBRANCH  16  17
ENDBRANCH  15  16
ENDBRANCH  14  15
ENDBRANCH  13  14
ENDBRANCH  12  13
ENDBRANCH   1  12
TORSDOF 14
ENDMDL
MODEL 9
REMARK VINA RESULT:    -4.867      1.649      2.293
REMARK INTER + INTRA:         -10.461
REMARK INTER:                  -8.808
REMARK INTRA:                  -1.653
REMARK UNBOUND:                -1.611
REMARK SMILES CCCCCCCCCCCCCC[C@@H](C)C(=O)[O-]
REMARK SMILES IDX 9 1 10 2 11 3 12 4 13 5 14 6 15 7 16 8 17 9 18 10 19 11 8 12
REMARK SMILES IDX 7 13 6 14 5 15 4 16 3 17 2 18 1 19
REMARK H PARENT
REMARK Flexibility Score: inf
ROOT
ATOM      1  C   UNL     1      18.579  28.182  31.141  1.00  0.00     0.000 C 
ENDROOT
BRANCH   1   2
ATOM      2  C   UNL     1      19.938  28.095  31.861  1.00  0.00     0.000 C 
BRANCH   2   3
ATOM      3  C   UNL     1      20.196  26.714  32.490  1.00  0.00     0.000 C 
BRANCH   3   4
ATOM      4  C   UNL     1      19.898  26.689  33.998  1.00  0.00     0.000 C 
BRANCH   4   5
ATOM      5  C   UNL     1      19.833  28.094  34.615  1.00  0.00     0.001 C 
BRANCH   5   6
ATOM      6  C   UNL     1      18.401  28.434  35.058  1.00  0.00     0.009 C 
BRANCH   6   7
ATOM      7  C   UNL     1      17.995  29.869  34.664  1.00  0.00     0.032 C 
ATOM      8  C   UNL     1      16.477  30.046  34.762  1.00  0.00     0.014 C 
BRANCH   7   9
ATOM      9  C   UNL     1      18.681  30.889  35.534  1.00  0.00     0.044 C 
ATOM     10  O   UNL     1      18.304  31.060  36.724  1.00  0.00    -0.550 OA
ATOM     11  O   UNL     1      19.734  31.646  35.034  1.00  0.00    -0.550 OA
ENDBRANCH   7   9
ENDBRANCH   6   7
ENDBRANCH   5   6
ENDBRANCH   4   5
ENDBRANCH   3   4
ENDBRANCH   2   3
ENDBRANCH   1   2
BRANCH   1  12
ATOM     12  C   UNL     1      18.015  29.605  30.971  1.00  0.00     0.000 C 
BRANCH  12  13
ATOM     13  C   UNL     1      18.380  30.237  29.617  1.00  0.00    -0.000 C 
BRANCH  13  14
ATOM     14  C   UNL     1      18.917  29.205  28.611  1.00  0.00    -0.000 C 
BRANCH  14  15
ATOM     15  C   UNL     1      17.884  28.847  27.526  1.00  0.00    -0.000 C 
BRANCH  15  16
ATOM     16  C   UNL     1      17.642  27.332  27.414  1.00  0.00    -0.000 C 
BRANCH  16  17
ATOM     17  C   UNL     1      18.901  26.457  27.568  1.00  0.00    -0.000 C 
BRANCH  17  18
ATOM     18  C   UNL     1      18.745  25.317  28.596  1.00  0.00    -0.003 C 
ATOM     19  C   UNL     1      18.945  23.936  27.973  1.00  0.00     0.004 C 
ENDBRANCH  17  18
ENDBRANCH  16  17
ENDBRANCH  15  16
ENDBRANCH  14  15
ENDBRANCH  13  14
ENDBRANCH  12  13
ENDBRANCH   1  12
TORSDOF 14
ENDMDL
