MODEL 1
REMARK VINA RESULT:    -4.877      0.000      0.000
REMARK INTER + INTRA:          -7.053
REMARK INTER:                  -6.587
REMARK INTRA:                  -0.466
REMARK UNBOUND:                -0.466
REMARK SMILES CCCCCCC=CC(=O)[O-]
REMARK SMILES IDX 5 1 6 2 7 3 8 4 9 5 10 6 11 7 4 8 3 9 2 10 1 11
REMARK H PARENT
REMARK Flexibility Score: inf
ROOT
ATOM      1  C   UNL     1      78.672  56.365  10.309  1.00  0.00     0.004 C 
ENDROOT
BRANCH   1   2
ATOM      2  C   UNL     1      79.890  57.249  10.608  1.00  0.00     0.027 C 
BRANCH   2   3
ATOM      3  C   UNL     1      79.623  58.686  10.249  1.00  0.00    -0.025 C 
ATOM      4  C   UNL     1      80.507  59.695  10.325  1.00  0.00     0.020 C 
BRANCH   4   5
ATOM      5  C   UNL     1      81.900  59.614  10.809  1.00  0.00     0.064 C 
ATOM      6  O   UNL     1      82.832  59.156  10.097  1.00  0.00    -0.545 OA
ATOM      7  O   UNL     1      82.187  60.038  12.100  1.00  0.00    -0.545 OA
ENDBRANCH   4   5
ENDBRANCH   2   3
ENDBRANCH   1   2
BRANCH   1   8
ATOM      8  C   UNL     1      79.021  55.277   9.287  1.00  0.00     0.000 C 
BRANCH   8   9
ATOM      9  C   UNL     1      78.023  55.279   8.119  1.00  0.00    -0.000 C 
BRANCH   9  10
ATOM     10  C   UNL     1      77.479  56.682   7.811  1.00  0.00    -0.003 C 
ATOM     11  C   UNL     1      77.786  57.137   6.385  1.00  0.00     0.004 C 
ENDBRANCH   9  10
ENDBRANCH   8   9
ENDBRANCH   1   8
TORSDOF 6
ENDMDL
MODEL 2
REMARK VINA RESULT:    -4.428      2.938      4.339
REMARK INTER + INTRA:          -6.447
REMARK INTER:                  -5.636
REMARK INTRA:                  -0.812
REMARK UNBOUND:                -0.466
REMARK SMILES CCCCCCC=CC(=O)[O-]
REMARK SMILES IDX 5 1 6 2 7 3 8 4 9 5 10 6 11 7 4 8 3 9 2 10 1 11
REMARK H PARENT
REMARK Flexibility Score: inf
ROOT
ATOM      1  C   UNL     1      78.308  54.364   8.500  1.00  0.00     0.004 C 
ENDROOT
BRANCH   1   2
ATOM      2  C   UNL     1      79.603  53.628   8.135  1.00  0.00     0.027 C 
BRANCH   2   3
ATOM      3  C   UNL     1      80.807  54.506   8.345  1.00  0.00    -0.025 C 
ATOM      4  C   UNL     1      81.406  54.755   9.523  1.00  0.00     0.020 C 
BRANCH   4   5
ATOM      5  C   UNL     1      80.988  54.257  10.849  1.00  0.00     0.064 C 
ATOM      6  O   UNL     1      80.239  54.924  11.610  1.00  0.00    -0.545 OA
ATOM      7  O   UNL     1      81.452  53.020  11.278  1.00  0.00    -0.545 OA
ENDBRANCH   4   5
ENDBRANCH   2   3
ENDBRANCH   1   2
BRANCH   1   8
ATOM      8  C   UNL     1      77.913  55.359   7.403  1.00  0.00     0.000 C 
BRANCH   8   9
ATOM      9  C   UNL     1      77.756  56.776   7.975  1.00  0.00    -0.000 C 
BRANCH   9  10
ATOM     10  C   UNL     1      77.844  56.805   9.509  1.00  0.00    -0.003 C 
ATOM     11  C   UNL     1      78.923  57.757  10.023  1.00  0.00     0.004 C 
ENDBRANCH   9  10
ENDBRANCH   8   9
ENDBRANCH   1   8
TORSDOF 6
ENDMDL
MODEL 3
REMARK VINA RESULT:    -4.408      3.769      4.552
REMARK INTER + INTRA:          -6.421
REMARK INTER:                  -5.836
REMARK INTRA:                  -0.585
REMARK UNBOUND:                -0.466
REMARK SMILES CCCCCCC=CC(=O)[O-]
REMARK SMILES IDX 5 1 6 2 7 3 8 4 9 5 10 6 11 7 4 8 3 9 2 10 1 11
REMARK H PARENT
REMARK Flexibility Score: inf
ROOT
ATOM      1  C   UNL     1      78.917  56.057  11.397  1.00  0.00     0.004 C 
ENDROOT
BRANCH   1   2
ATOM      2  C   UNL     1      80.190  55.201  11.418  1.00  0.00     0.027 C 
BRANCH   2   3
ATOM      3  C   UNL     1      80.979  55.365  10.147  1.00  0.00    -0.025 C 
ATOM      4  C   UNL     1      81.086  54.457   9.162  1.00  0.00     0.020 C 
BRANCH   4   5
ATOM      5  C   UNL     1      80.490  53.106   9.138  1.00  0.00     0.064 C 
ATOM      6  O   UNL     1      79.459  52.840   8.467  1.00  0.00    -0.545 OA
ATOM      7  O   UNL     1      81.075  52.101   9.898  1.00  0.00    -0.545 OA
ENDBRANCH   4   5
ENDBRANCH   2   3
ENDBRANCH   1   2
BRANCH   1   8
ATOM      8  C   UNL     1      78.955  57.070  10.247  1.00  0.00     0.000 C 
BRANCH   8   9
ATOM      9  C   UNL     1      77.697  56.957   9.373  1.00  0.00    -0.000 C 
BRANCH   9  10
ATOM     10  C   UNL     1      77.924  56.099   8.120  1.00  0.00    -0.003 C 
ATOM     11  C   UNL     1      77.770  56.892   6.822  1.00  0.00     0.004 C 
ENDBRANCH   9  10
ENDBRANCH   8   9
ENDBRANCH   1   8
TORSDOF 6
ENDMDL
MODEL 4
REMARK VINA RESULT:    -4.393      3.044      5.153
REMARK INTER + INTRA:          -6.400
REMARK INTER:                  -5.564
REMARK INTRA:                  -0.836
REMARK UNBOUND:                -0.466
REMARK SMILES CCCCCCC=CC(=O)[O-]
REMARK SMILES IDX 5 1 6 2 7 3 8 4 9 5 10 6 11 7 4 8 3 9 2 10 1 11
REMARK H PARENT
REMARK Flexibility Score: inf
ROOT
ATOM      1  C   UNL     1      77.601  56.774   8.071  1.00  0.00     0.004 C 
ENDROOT
BRANCH   1   2
ATOM      2  C   UNL     1      78.371  55.677   7.324  1.00  0.00     0.027 C 
BRANCH   2   3
ATOM      3  C   UNL     1      78.298  54.365   8.056  1.00  0.00    -0.025 C 
ATOM      4  C   UNL     1      79.320  53.514   8.254  1.00  0.00     0.020 C 
BRANCH   4   5
ATOM      5  C   UNL     1      80.705  53.669   7.765  1.00  0.00     0.064 C 
ATOM      6  O   UNL     1      81.066  53.257   6.631  1.00  0.00    -0.545 OA
ATOM      7  O   UNL     1      81.645  54.271   8.591  1.00  0.00    -0.545 OA
ENDBRANCH   4   5
ENDBRANCH   2   3
ENDBRANCH   1   2
BRANCH   1   8
ATOM      8  C   UNL     1      77.802  56.652   9.586  1.00  0.00     0.000 C 
BRANCH   8   9
ATOM      9  C   UNL     1      78.941  57.563  10.065  1.00  0.00    -0.000 C 
BRANCH   9  10
ATOM     10  C   UNL     1      80.165  56.771  10.550  1.00  0.00    -0.003 C 
ATOM     11  C   UNL     1      79.786  55.523  11.346  1.00  0.00     0.004 C 
ENDBRANCH   9  10
ENDBRANCH   8   9
ENDBRANCH   1   8
TORSDOF 6
ENDMDL
MODEL 5
REMARK VINA RESULT:    -4.354      2.952      5.445
REMARK INTER + INTRA:          -6.348
REMARK INTER:                  -5.944
REMARK INTRA:                  -0.404
REMARK UNBOUND:                -0.466
REMARK SMILES CCCCCCC=CC(=O)[O-]
REMARK SMILES IDX 5 1 6 2 7 3 8 4 9 5 10 6 11 7 4 8 3 9 2 10 1 11
REMARK H PARENT
REMARK Flexibility Score: inf
ROOT
ATOM      1  C   UNL     1      79.572  57.340  10.380  1.00  0.00     0.004 C 
ENDROOT
BRANCH   1   2
ATOM      2  C   UNL     1      78.247  56.590  10.191  1.00  0.00     0.027 C 
BRANCH   2   3
ATOM      3  C   UNL     1      77.742  56.721   8.779  1.00  0.00    -0.025 C 
ATOM      4  C   UNL     1      77.995  55.871   7.769  1.00  0.00     0.020 C 
BRANCH   4   5
ATOM      5  C   UNL     1      78.845  54.664   7.822  1.00  0.00     0.064 C 
ATOM      6  O   UNL     1      78.409  53.555   8.228  1.00  0.00    -0.545 OA
ATOM      7  O   UNL     1      80.174  54.762   7.431  1.00  0.00    -0.545 OA
ENDBRANCH   4   5
ENDBRANCH   2   3
ENDBRANCH   1   2
BRANCH   1   8
ATOM      8  C   UNL     1      79.420  58.822  10.019  1.00  0.00     0.000 C 
BRANCH   8   9
ATOM      9  C   UNL     1      80.552  59.657  10.638  1.00  0.00    -0.000 C 
BRANCH   9  10
ATOM     10  C   UNL     1      81.875  58.882  10.729  1.00  0.00    -0.003 C 
ATOM     11  C   UNL     1      83.091  59.798  10.860  1.00  0.00     0.004 C 
ENDBRANCH   9  10
ENDBRANCH   8   9
ENDBRANCH   1   8
TORSDOF 6
ENDMDL
MODEL 6
REMARK VINA RESULT:    -4.343      7.006      9.801
REMARK INTER + INTRA:          -6.333
REMARK INTER:                  -6.095
REMARK INTRA:                  -0.238
REMARK UNBOUND:                -0.466
REMARK SMILES CCCCCCC=CC(=O)[O-]
REMARK SMILES IDX 5 1 6 2 7 3 8 4 9 5 10 6 11 7 4 8 3 9 2 10 1 11
REMARK H PARENT
REMARK Flexibility Score: inf
ROOT
ATOM      1  C   UNL     1      85.637  63.284  15.324  1.00  0.00     0.004 C 
ENDROOT
BRANCH   1   2
ATOM      2  C   UNL     1      85.756  61.798  15.686  1.00  0.00     0.027 C 
BRANCH   2   3
ATOM      3  C   UNL     1      84.411  61.124  15.673  1.00  0.00    -0.025 C 
ATOM      4  C   UNL     1      83.905  60.391  14.666  1.00  0.00     0.020 C 
BRANCH   4   5
ATOM      5  C   UNL     1      84.541  60.130  13.359  1.00  0.00     0.064 C 
ATOM      6  O   UNL     1      85.742  59.767  13.258  1.00  0.00    -0.545 OA
ATOM      7  O   UNL     1      83.794  60.310  12.202  1.00  0.00    -0.545 OA
ENDBRANCH   4   5
ENDBRANCH   2   3
ENDBRANCH   1   2
BRANCH   1   8
ATOM      8  C   UNL     1      84.902  64.060  16.422  1.00  0.00     0.000 C 
BRANCH   8   9
ATOM      9  C   UNL     1      84.186  65.289  15.843  1.00  0.00    -0.000 C 
BRANCH   9  10
ATOM     10  C   UNL     1      84.783  65.741  14.501  1.00  0.00    -0.003 C 
ATOM     11  C   UNL     1      83.989  66.874  13.851  1.00  0.00     0.004 C 
ENDBRANCH   9  10
ENDBRANCH   8   9
ENDBRANCH   1   8
TORSDOF 6
ENDMDL
MODEL 7
REMARK VINA RESULT:    -4.321      1.813      2.798
REMARK INTER + INTRA:          -6.303
REMARK INTER:                  -5.693
REMARK INTRA:                  -0.610
REMARK UNBOUND:                -0.466
REMARK SMILES CCCCCCC=CC(=O)[O-]
REMARK SMILES IDX 5 1 6 2 7 3 8 4 9 5 10 6 11 7 4 8 3 9 2 10 1 11
REMARK H PARENT
REMARK Flexibility Score: inf
ROOT
ATOM      1  C   UNL     1      80.239  54.352   7.723  1.00  0.00     0.004 C 
ENDROOT
BRANCH   1   2
ATOM      2  C   UNL     1      81.087  54.846   8.902  1.00  0.00     0.027 C 
BRANCH   2   3
ATOM      3  C   UNL     1      80.302  54.824  10.186  1.00  0.00    -0.025 C 
ATOM      4  C   UNL     1      79.930  55.900  10.901  1.00  0.00     0.020 C 
BRANCH   4   5
ATOM      5  C   UNL     1      80.245  57.312  10.601  1.00  0.00     0.064 C 
ATOM      6  O   UNL     1      81.417  57.766  10.670  1.00  0.00    -0.545 OA
ATOM      7  O   UNL     1      79.211  58.170  10.252  1.00  0.00    -0.545 OA
ENDBRANCH   4   5
ENDBRANCH   2   3
ENDBRANCH   1   2
BRANCH   1   8
ATOM      8  C   UNL     1      78.843  53.926   8.190  1.00  0.00     0.000 C 
BRANCH   8   9
ATOM      9  C   UNL     1      77.750  54.700   7.438  1.00  0.00    -0.000 C 
BRANCH   9  10
ATOM     10  C   UNL     1      77.761  56.202   7.764  1.00  0.00    -0.003 C 
ATOM     11  C   UNL     1      77.792  57.080   6.513  1.00  0.00     0.004 C 
ENDBRANCH   9  10
ENDBRANCH   8   9
ENDBRANCH   1   8
TORSDOF 6
ENDMDL
MODEL 8
REMARK VINA RESULT:    -4.319      2.624      3.665
REMARK INTER + INTRA:          -6.301
REMARK INTER:                  -5.567
REMARK INTRA:                  -0.734
REMARK UNBOUND:                -0.466
REMARK SMILES CCCCCCC=CC(=O)[O-]
REMARK SMILES IDX 5 1 6 2 7 3 8 4 9 5 10 6 11 7 4 8 3 9 2 10 1 11
REMARK H PARENT
REMARK Flexibility Score: inf
ROOT
ATOM      1  C   UNL     1      78.872  57.750  10.134  1.00  0.00     0.004 C 
ENDROOT
BRANCH   1   2
ATOM      2  C   UNL     1      80.158  57.088  10.644  1.00  0.00     0.027 C 
BRANCH   2   3
ATOM      3  C   UNL     1      79.888  55.706  11.175  1.00  0.00    -0.025 C 
ATOM      4  C   UNL     1      80.641  54.615  10.954  1.00  0.00     0.020 C 
BRANCH   4   5
ATOM      5  C   UNL     1      81.858  54.536  10.121  1.00  0.00     0.064 C 
ATOM      6  O   UNL     1      83.004  54.772  10.584  1.00  0.00    -0.545 OA
ATOM      7  O   UNL     1      81.730  54.211   8.777  1.00  0.00    -0.545 OA
ENDBRANCH   4   5
ENDBRANCH   2   3
ENDBRANCH   1   2
BRANCH   1   8
ATOM      8  C   UNL     1      77.885  56.702   9.607  1.00  0.00     0.000 C 
BRANCH   8   9
ATOM      9  C   UNL     1      77.655  56.873   8.098  1.00  0.00    -0.000 C 
BRANCH   9  10
ATOM     10  C   UNL     1      78.120  55.653   7.289  1.00  0.00    -0.003 C 
ATOM     11  C   UNL     1      78.189  54.377   8.126  1.00  0.00     0.004 C 
ENDBRANCH   9  10
ENDBRANCH   8   9
ENDBRANCH   1   8
TORSDOF 6
ENDMDL
MODEL 9
REMARK VINA RESULT:    -4.284      2.979      5.553
REMARK INTER + INTRA:          -6.254
REMARK INTER:                  -5.868
REMARK INTRA:                  -0.386
REMARK UNBOUND:                -0.466
REMARK SMILES CCCCCCC=CC(=O)[O-]
REMARK SMILES IDX 5 1 6 2 7 3 8 4 9 5 10 6 11 7 4 8 3 9 2 10 1 11
REMARK H PARENT
REMARK Flexibility Score: inf
ROOT
ATOM      1  C   UNL     1      79.783  59.306  10.241  1.00  0.00     0.004 C 
ENDROOT
BRANCH   1   2
ATOM      2  C   UNL     1      80.016  57.793  10.334  1.00  0.00     0.027 C 
BRANCH   2   3
ATOM      3  C   UNL     1      78.749  57.068  10.703  1.00  0.00    -0.025 C 
ATOM      4  C   UNL     1      77.997  56.324   9.874  1.00  0.00     0.020 C 
BRANCH   4   5
ATOM      5  C   UNL     1      78.231  56.096   8.434  1.00  0.00     0.064 C 
ATOM      6  O   UNL     1      78.979  55.174   8.013  1.00  0.00    -0.545 OA
ATOM      7  O   UNL     1      77.622  56.939   7.513  1.00  0.00    -0.545 OA
ENDBRANCH   4   5
ENDBRANCH   2   3
ENDBRANCH   1   2
BRANCH   1   8
ATOM      8  C   UNL     1      81.105  60.074  10.361  1.00  0.00     0.000 C 
BRANCH   8   9
ATOM      9  C   UNL     1      82.261  59.127  10.717  1.00  0.00    -0.000 C 
BRANCH   9  10
ATOM     10  C   UNL     1      83.614  59.850  10.794  1.00  0.00    -0.003 C 
ATOM     11  C   UNL     1      83.572  61.251  10.185  1.00  0.00     0.004 C 
ENDBRANCH   9  10
ENDBRANCH   8   9
ENDBRANCH   1   8
TORSDOF 6
ENDMDL
