MODEL 1
REMARK VINA RESULT:    -3.801      0.000      0.000
REMARK INTER + INTRA:          -8.159
REMARK INTER:                  -6.912
REMARK INTRA:                  -1.247
REMARK UNBOUND:                -1.247
REMARK SMILES CCCCCCCCCCCCCCCC(=O)[O-]
REMARK SMILES IDX 9 1 10 2 11 3 12 4 13 5 14 6 15 7 16 8 17 9 18 10 8 11 7 12
REMARK SMILES IDX 6 13 5 14 4 15 3 16 2 17 1 18
REMARK H PARENT
REMARK Flexibility Score: inf
ROOT
ATOM      1  C   UNL     1     -43.112 -21.446  27.236  1.00  0.00     0.000 C 
ENDROOT
BRANCH   1   2
ATOM      2  C   UNL     1     -44.395 -22.076  27.810  1.00  0.00     0.000 C 
BRANCH   2   3
ATOM      3  C   UNL     1     -45.701 -21.665  27.105  1.00  0.00     0.000 C 
BRANCH   3   4
ATOM      4  C   UNL     1     -46.870 -21.452  28.079  1.00  0.00     0.000 C 
BRANCH   4   5
ATOM      5  C   UNL     1     -47.685 -20.212  27.696  1.00  0.00     0.000 C 
BRANCH   5   6
ATOM      6  C   UNL     1     -46.995 -19.424  26.573  1.00  0.00     0.006 C 
BRANCH   6   7
ATOM      7  C   UNL     1     -46.758 -17.956  26.952  1.00  0.00     0.053 C 
BRANCH   7   8
ATOM      8  C   UNL     1     -45.425 -17.467  26.474  1.00  0.00     0.041 C 
ATOM      9  O   UNL     1     -45.131 -16.246  26.558  1.00  0.00    -0.550 OA
ATOM     10  O   UNL     1     -44.520 -18.355  25.907  1.00  0.00    -0.550 OA
ENDBRANCH   7   8
ENDBRANCH   6   7
ENDBRANCH   5   6
ENDBRANCH   4   5
ENDBRANCH   3   4
ENDBRANCH   2   3
ENDBRANCH   1   2
BRANCH   1  11
ATOM     11  C   UNL     1     -41.841 -22.223  27.614  1.00  0.00     0.000 C 
BRANCH  11  12
ATOM     12  C   UNL     1     -41.338 -21.900  29.033  1.00  0.00    -0.000 C 
BRANCH  12  13
ATOM     13  C   UNL     1     -40.333 -20.737  29.125  1.00  0.00    -0.000 C 
BRANCH  13  14
ATOM     14  C   UNL     1     -38.915 -21.133  28.688  1.00  0.00    -0.000 C 
BRANCH  14  15
ATOM     15  C   UNL     1     -38.514 -20.405  27.399  1.00  0.00    -0.000 C 
BRANCH  15  16
ATOM     16  C   UNL     1     -39.424 -19.194  27.145  1.00  0.00    -0.000 C 
BRANCH  16  17
ATOM     17  C   UNL     1     -39.891 -19.103  25.685  1.00  0.00    -0.003 C 
ATOM     18  C   UNL     1     -38.904 -18.351  24.793  1.00  0.00     0.004 C 
ENDBRANCH  16  17
ENDBRANCH  15  16
ENDBRANCH  14  15
ENDBRANCH  13  14
ENDBRANCH  12  13
ENDBRANCH  11  12
ENDBRANCH   1  11
TORSDOF 14
ENDMDL
MODEL 2
REMARK VINA RESULT:    -3.800      2.841      6.518
REMARK INTER + INTRA:          -8.158
REMARK INTER:                  -6.781
REMARK INTRA:                  -1.377
REMARK UNBOUND:                -1.247
REMARK SMILES CCCCCCCCCCCCCCCC(=O)[O-]
REMARK SMILES IDX 9 1 10 2 11 3 12 4 13 5 14 6 15 7 16 8 17 9 18 10 8 11 7 12
REMARK SMILES IDX 6 13 5 14 4 15 3 16 2 17 1 18
REMARK H PARENT
REMARK Flexibility Score: inf
ROOT
ATOM      1  C   UNL     1     -44.835 -21.826  27.532  1.00  0.00     0.000 C 
ENDROOT
BRANCH   1   2
ATOM      2  C   UNL     1     -43.638 -22.510  28.219  1.00  0.00     0.000 C 
BRANCH   2   3
ATOM      3  C   UNL     1     -42.252 -21.997  27.786  1.00  0.00     0.000 C 
BRANCH   3   4
ATOM      4  C   UNL     1     -41.203 -22.080  28.905  1.00  0.00     0.000 C 
BRANCH   4   5
ATOM      5  C   UNL     1     -40.446 -20.755  29.048  1.00  0.00     0.000 C 
BRANCH   5   6
ATOM      6  C   UNL     1     -40.414 -19.992  27.716  1.00  0.00     0.006 C 
BRANCH   6   7
ATOM      7  C   UNL     1     -38.983 -19.719  27.236  1.00  0.00     0.053 C 
BRANCH   7   8
ATOM      8  C   UNL     1     -38.189 -20.983  27.106  1.00  0.00     0.041 C 
ATOM      9  O   UNL     1     -37.312 -21.271  27.962  1.00  0.00    -0.550 OA
ATOM     10  O   UNL     1     -38.395 -21.827  26.022  1.00  0.00    -0.550 OA
ENDBRANCH   7   8
ENDBRANCH   6   7
ENDBRANCH   5   6
ENDBRANCH   4   5
ENDBRANCH   3   4
ENDBRANCH   2   3
ENDBRANCH   1   2
BRANCH   1  11
ATOM     11  C   UNL     1     -46.176 -22.130  28.220  1.00  0.00     0.000 C 
BRANCH  11  12
ATOM     12  C   UNL     1     -47.382 -21.514  27.487  1.00  0.00    -0.000 C 
BRANCH  12  13
ATOM     13  C   UNL     1     -47.595 -20.007  27.724  1.00  0.00    -0.000 C 
BRANCH  13  14
ATOM     14  C   UNL     1     -47.242 -19.150  26.499  1.00  0.00    -0.000 C 
BRANCH  14  15
ATOM     15  C   UNL     1     -46.720 -17.772  26.924  1.00  0.00    -0.000 C 
BRANCH  15  16
ATOM     16  C   UNL     1     -45.314 -17.519  26.360  1.00  0.00    -0.000 C 
BRANCH  16  17
ATOM     17  C   UNL     1     -44.789 -18.700  25.529  1.00  0.00    -0.003 C 
ATOM     18  C   UNL     1     -43.295 -18.950  25.732  1.00  0.00     0.004 C 
ENDBRANCH  16  17
ENDBRANCH  15  16
ENDBRANCH  14  15
ENDBRANCH  13  14
ENDBRANCH  12  13
ENDBRANCH  11  12
ENDBRANCH   1  11
TORSDOF 14
ENDMDL
MODEL 3
REMARK VINA RESULT:    -3.781      2.783      6.783
REMARK INTER + INTRA:          -8.122
REMARK INTER:                  -6.359
REMARK INTRA:                  -1.763
REMARK UNBOUND:                -1.247
REMARK SMILES CCCCCCCCCCCCCCCC(=O)[O-]
REMARK SMILES IDX 9 1 10 2 11 3 12 4 13 5 14 6 15 7 16 8 17 9 18 10 8 11 7 12
REMARK SMILES IDX 6 13 5 14 4 15 3 16 2 17 1 18
REMARK H PARENT
REMARK Flexibility Score: inf
ROOT
ATOM      1  C   UNL     1     -43.744 -20.907  26.221  1.00  0.00     0.000 C 
ENDROOT
BRANCH   1   2
ATOM      2  C   UNL     1     -42.913 -22.011  26.902  1.00  0.00     0.000 C 
BRANCH   2   3
ATOM      3  C   UNL     1     -43.265 -22.283  28.376  1.00  0.00     0.000 C 
BRANCH   3   4
ATOM      4  C   UNL     1     -42.030 -22.357  29.286  1.00  0.00     0.000 C 
BRANCH   4   5
ATOM      5  C   UNL     1     -40.763 -21.946  28.527  1.00  0.00     0.000 C 
BRANCH   5   6
ATOM      6  C   UNL     1     -40.242 -20.588  29.019  1.00  0.00     0.006 C 
BRANCH   6   7
ATOM      7  C   UNL     1     -39.546 -19.793  27.907  1.00  0.00     0.053 C 
BRANCH   7   8
ATOM      8  C   UNL     1     -38.460 -20.589  27.251  1.00  0.00     0.041 C 
ATOM      9  O   UNL     1     -38.478 -20.782  26.007  1.00  0.00    -0.550 OA
ATOM     10  O   UNL     1     -37.444 -21.146  28.017  1.00  0.00    -0.550 OA
ENDBRANCH   7   8
ENDBRANCH   6   7
ENDBRANCH   5   6
ENDBRANCH   4   5
ENDBRANCH   3   4
ENDBRANCH   2   3
ENDBRANCH   1   2
BRANCH   1  11
ATOM     11  C   UNL     1     -42.942 -19.620  25.972  1.00  0.00     0.000 C 
BRANCH  11  12
ATOM     12  C   UNL     1     -43.807 -18.470  25.421  1.00  0.00    -0.000 C 
BRANCH  12  13
ATOM     13  C   UNL     1     -45.106 -18.193  26.200  1.00  0.00    -0.000 C 
BRANCH  13  14
ATOM     14  C   UNL     1     -46.370 -18.405  25.354  1.00  0.00    -0.000 C 
BRANCH  14  15
ATOM     15  C   UNL     1     -47.194 -19.585  25.882  1.00  0.00    -0.000 C 
BRANCH  15  16
ATOM     16  C   UNL     1     -47.144 -19.647  27.416  1.00  0.00    -0.000 C 
BRANCH  16  17
ATOM     17  C   UNL     1     -47.345 -21.071  27.956  1.00  0.00    -0.003 C 
ATOM     18  C   UNL     1     -47.116 -22.145  26.893  1.00  0.00     0.004 C 
ENDBRANCH  16  17
ENDBRANCH  15  16
ENDBRANCH  14  15
ENDBRANCH  13  14
ENDBRANCH  12  13
ENDBRANCH  11  12
ENDBRANCH   1  11
TORSDOF 14
ENDMDL
MODEL 4
REMARK VINA RESULT:    -3.742      3.316      7.450
REMARK INTER + INTRA:          -8.052
REMARK INTER:                  -6.953
REMARK INTRA:                  -1.099
REMARK UNBOUND:                -1.247
REMARK SMILES CCCCCCCCCCCCCCCC(=O)[O-]
REMARK SMILES IDX 9 1 10 2 11 3 12 4 13 5 14 6 15 7 16 8 17 9 18 10 8 11 7 12
REMARK SMILES IDX 6 13 5 14 4 15 3 16 2 17 1 18
REMARK H PARENT
REMARK Flexibility Score: inf
ROOT
ATOM      1  C   UNL     1     -43.067 -22.083  27.223  1.00  0.00     0.000 C 
ENDROOT
BRANCH   1   2
ATOM      2  C   UNL     1     -41.643 -21.514  27.370  1.00  0.00     0.000 C 
BRANCH   2   3
ATOM      3  C   UNL     1     -41.037 -21.616  28.782  1.00  0.00     0.000 C 
BRANCH   3   4
ATOM      4  C   UNL     1     -39.986 -20.532  29.066  1.00  0.00     0.000 C 
BRANCH   4   5
ATOM      5  C   UNL     1     -39.014 -20.387  27.889  1.00  0.00     0.000 C 
BRANCH   5   6
ATOM      6  C   UNL     1     -37.788 -21.294  28.072  1.00  0.00     0.006 C 
BRANCH   6   7
ATOM      7  C   UNL     1     -37.695 -22.373  26.985  1.00  0.00     0.053 C 
BRANCH   7   8
ATOM      8  C   UNL     1     -38.318 -23.662  27.427  1.00  0.00     0.041 C 
ATOM      9  O   UNL     1     -39.085 -24.292  26.653  1.00  0.00    -0.550 OA
ATOM     10  O   UNL     1     -38.077 -24.150  28.705  1.00  0.00    -0.550 OA
ENDBRANCH   7   8
ENDBRANCH   6   7
ENDBRANCH   5   6
ENDBRANCH   4   5
ENDBRANCH   3   4
ENDBRANCH   2   3
ENDBRANCH   1   2
BRANCH   1  11
ATOM     11  C   UNL     1     -43.751 -22.344  28.574  1.00  0.00     0.000 C 
BRANCH  11  12
ATOM     12  C   UNL     1     -45.258 -22.636  28.439  1.00  0.00    -0.000 C 
BRANCH  12  13
ATOM     13  C   UNL     1     -45.976 -21.873  27.310  1.00  0.00    -0.000 C 
BRANCH  13  14
ATOM     14  C   UNL     1     -47.293 -21.228  27.765  1.00  0.00    -0.000 C 
BRANCH  14  15
ATOM     15  C   UNL     1     -47.289 -19.719  27.493  1.00  0.00    -0.000 C 
BRANCH  15  16
ATOM     16  C   UNL     1     -46.893 -19.424  26.039  1.00  0.00    -0.000 C 
BRANCH  16  17
ATOM     17  C   UNL     1     -46.596 -17.936  25.798  1.00  0.00    -0.003 C 
ATOM     18  C   UNL     1     -46.608 -17.114  27.087  1.00  0.00     0.004 C 
ENDBRANCH  16  17
ENDBRANCH  15  16
ENDBRANCH  14  15
ENDBRANCH  13  14
ENDBRANCH  12  13
ENDBRANCH  11  12
ENDBRANCH   1  11
TORSDOF 14
ENDMDL
MODEL 5
REMARK VINA RESULT:    -3.731      2.553      6.136
REMARK INTER + INTRA:          -8.033
REMARK INTER:                  -5.949
REMARK INTRA:                  -2.084
REMARK UNBOUND:                -1.247
REMARK SMILES CCCCCCCCCCCCCCCC(=O)[O-]
REMARK SMILES IDX 9 1 10 2 11 3 12 4 13 5 14 6 15 7 16 8 17 9 18 10 8 11 7 12
REMARK SMILES IDX 6 13 5 14 4 15 3 16 2 17 1 18
REMARK H PARENT
REMARK Flexibility Score: inf
ROOT
ATOM      1  C   UNL     1     -46.588 -23.096  25.983  1.00  0.00     0.000 C 
ENDROOT
BRANCH   1   2
ATOM      2  C   UNL     1     -46.284 -23.923  27.246  1.00  0.00     0.000 C 
BRANCH   2   3
ATOM      3  C   UNL     1     -45.805 -23.112  28.463  1.00  0.00     0.000 C 
BRANCH   3   4
ATOM      4  C   UNL     1     -44.675 -22.128  28.124  1.00  0.00     0.000 C 
BRANCH   4   5
ATOM      5  C   UNL     1     -43.306 -22.814  28.203  1.00  0.00     0.000 C 
BRANCH   5   6
ATOM      6  C   UNL     1     -42.183 -21.849  27.797  1.00  0.00     0.006 C 
BRANCH   6   7
ATOM      7  C   UNL     1     -41.125 -21.690  28.897  1.00  0.00     0.053 C 
BRANCH   7   8
ATOM      8  C   UNL     1     -39.996 -20.810  28.459  1.00  0.00     0.041 C 
ATOM      9  O   UNL     1     -38.806 -21.126  28.723  1.00  0.00    -0.550 OA
ATOM     10  O   UNL     1     -40.258 -19.622  27.788  1.00  0.00    -0.550 OA
ENDBRANCH   7   8
ENDBRANCH   6   7
ENDBRANCH   5   6
ENDBRANCH   4   5
ENDBRANCH   3   4
ENDBRANCH   2   3
ENDBRANCH   1   2
BRANCH   1  11
ATOM     11  C   UNL     1     -48.078 -22.742  25.841  1.00  0.00     0.000 C 
BRANCH  11  12
ATOM     12  C   UNL     1     -48.340 -21.225  25.865  1.00  0.00    -0.000 C 
BRANCH  12  13
ATOM     13  C   UNL     1     -48.348 -20.582  27.264  1.00  0.00    -0.000 C 
BRANCH  13  14
ATOM     14  C   UNL     1     -47.296 -19.473  27.422  1.00  0.00    -0.000 C 
BRANCH  14  15
ATOM     15  C   UNL     1     -46.645 -19.138  26.074  1.00  0.00    -0.000 C 
BRANCH  15  16
ATOM     16  C   UNL     1     -45.308 -18.408  26.276  1.00  0.00    -0.000 C 
BRANCH  16  17
ATOM     17  C   UNL     1     -44.100 -19.266  25.871  1.00  0.00    -0.003 C 
ATOM     18  C   UNL     1     -44.454 -20.337  24.839  1.00  0.00     0.004 C 
ENDBRANCH  16  17
ENDBRANCH  15  16
ENDBRANCH  14  15
ENDBRANCH  13  14
ENDBRANCH  12  13
ENDBRANCH  11  12
ENDBRANCH   1  11
TORSDOF 14
ENDMDL
MODEL 6
REMARK VINA RESULT:    -3.699      2.030      3.121
REMARK INTER + INTRA:          -7.974
REMARK INTER:                  -6.194
REMARK INTRA:                  -1.780
REMARK UNBOUND:                -1.247
REMARK SMILES CCCCCCCCCCCCCCCC(=O)[O-]
REMARK SMILES IDX 9 1 10 2 11 3 12 4 13 5 14 6 15 7 16 8 17 9 18 10 8 11 7 12
REMARK SMILES IDX 6 13 5 14 4 15 3 16 2 17 1 18
REMARK H PARENT
REMARK Flexibility Score: inf
ROOT
ATOM      1  C   UNL     1     -42.891 -20.685  25.443  1.00  0.00     0.000 C 
ENDROOT
BRANCH   1   2
ATOM      2  C   UNL     1     -43.361 -19.311  25.956  1.00  0.00     0.000 C 
BRANCH   2   3
ATOM      3  C   UNL     1     -44.788 -18.907  25.540  1.00  0.00     0.000 C 
BRANCH   3   4
ATOM      4  C   UNL     1     -45.345 -17.735  26.361  1.00  0.00     0.000 C 
BRANCH   4   5
ATOM      5  C   UNL     1     -46.722 -18.077  26.942  1.00  0.00     0.000 C 
BRANCH   5   6
ATOM      6  C   UNL     1     -47.134 -19.510  26.576  1.00  0.00     0.006 C 
BRANCH   6   7
ATOM      7  C   UNL     1     -47.496 -20.345  27.812  1.00  0.00     0.053 C 
BRANCH   7   8
ATOM      8  C   UNL     1     -46.940 -21.733  27.727  1.00  0.00     0.041 C 
ATOM      9  O   UNL     1     -47.013 -22.381  26.649  1.00  0.00    -0.550 OA
ATOM     10  O   UNL     1     -46.369 -22.325  28.846  1.00  0.00    -0.550 OA
ENDBRANCH   7   8
ENDBRANCH   6   7
ENDBRANCH   5   6
ENDBRANCH   4   5
ENDBRANCH   3   4
ENDBRANCH   2   3
ENDBRANCH   1   2
BRANCH   1  11
ATOM     11  C   UNL     1     -43.495 -21.858  26.233  1.00  0.00     0.000 C 
BRANCH  11  12
ATOM     12  C   UNL     1     -42.962 -21.950  27.675  1.00  0.00    -0.000 C 
BRANCH  12  13
ATOM     13  C   UNL     1     -41.429 -22.024  27.806  1.00  0.00    -0.000 C 
BRANCH  13  14
ATOM     14  C   UNL     1     -40.900 -21.332  29.071  1.00  0.00    -0.000 C 
BRANCH  14  15
ATOM     15  C   UNL     1     -39.595 -20.581  28.783  1.00  0.00    -0.000 C 
BRANCH  15  16
ATOM     16  C   UNL     1     -39.472 -20.245  27.289  1.00  0.00    -0.000 C 
BRANCH  16  17
ATOM     17  C   UNL     1     -39.672 -18.749  27.002  1.00  0.00    -0.003 C 
ATOM     18  C   UNL     1     -39.667 -18.426  25.508  1.00  0.00     0.004 C 
ENDBRANCH  16  17
ENDBRANCH  15  16
ENDBRANCH  14  15
ENDBRANCH  13  14
ENDBRANCH  12  13
ENDBRANCH  11  12
ENDBRANCH   1  11
TORSDOF 14
ENDMDL
MODEL 7
REMARK VINA RESULT:    -3.689      1.353      2.312
REMARK INTER + INTRA:          -7.955
REMARK INTER:                  -6.904
REMARK INTRA:                  -1.051
REMARK UNBOUND:                -1.247
REMARK SMILES CCCCCCCCCCCCCCCC(=O)[O-]
REMARK SMILES IDX 9 1 10 2 11 3 12 4 13 5 14 6 15 7 16 8 17 9 18 10 8 11 7 12
REMARK SMILES IDX 6 13 5 14 4 15 3 16 2 17 1 18
REMARK H PARENT
REMARK Flexibility Score: inf
ROOT
ATOM      1  C   UNL     1     -43.403 -22.380  28.133  1.00  0.00     0.000 C 
ENDROOT
BRANCH   1   2
ATOM      2  C   UNL     1     -44.920 -22.498  28.372  1.00  0.00     0.000 C 
BRANCH   2   3
ATOM      3  C   UNL     1     -45.791 -21.522  27.560  1.00  0.00     0.000 C 
BRANCH   3   4
ATOM      4  C   UNL     1     -47.229 -21.417  28.088  1.00  0.00     0.000 C 
BRANCH   4   5
ATOM      5  C   UNL     1     -47.829 -20.040  27.781  1.00  0.00     0.000 C 
BRANCH   5   6
ATOM      6  C   UNL     1     -47.085 -19.362  26.620  1.00  0.00     0.006 C 
BRANCH   6   7
ATOM      7  C   UNL     1     -46.785 -17.885  26.905  1.00  0.00     0.053 C 
BRANCH   7   8
ATOM      8  C   UNL     1     -45.405 -17.503  26.466  1.00  0.00     0.041 C 
ATOM      9  O   UNL     1     -45.061 -16.293  26.435  1.00  0.00    -0.550 OA
ATOM     10  O   UNL     1     -44.507 -18.483  26.060  1.00  0.00    -0.550 OA
ENDBRANCH   7   8
ENDBRANCH   6   7
ENDBRANCH   5   6
ENDBRANCH   4   5
ENDBRANCH   3   4
ENDBRANCH   2   3
ENDBRANCH   1   2
BRANCH   1  11
ATOM     11  C   UNL     1     -43.057 -21.690  26.803  1.00  0.00     0.000 C 
BRANCH  11  12
ATOM     12  C   UNL     1     -41.795 -20.812  26.893  1.00  0.00    -0.000 C 
BRANCH  12  13
ATOM     13  C   UNL     1     -40.862 -21.120  28.079  1.00  0.00    -0.000 C 
BRANCH  13  14
ATOM     14  C   UNL     1     -39.543 -20.334  28.026  1.00  0.00    -0.000 C 
BRANCH  14  15
ATOM     15  C   UNL     1     -38.389 -21.158  28.610  1.00  0.00    -0.000 C 
BRANCH  15  16
ATOM     16  C   UNL     1     -37.529 -21.767  27.493  1.00  0.00    -0.000 C 
BRANCH  16  17
ATOM     17  C   UNL     1     -37.888 -23.232  27.204  1.00  0.00    -0.003 C 
ATOM     18  C   UNL     1     -38.237 -24.017  28.469  1.00  0.00     0.004 C 
ENDBRANCH  16  17
ENDBRANCH  15  16
ENDBRANCH  14  15
ENDBRANCH  13  14
ENDBRANCH  12  13
ENDBRANCH  11  12
ENDBRANCH   1  11
TORSDOF 14
ENDMDL
MODEL 8
REMARK VINA RESULT:    -3.683      2.442      4.080
REMARK INTER + INTRA:          -7.945
REMARK INTER:                  -6.029
REMARK INTRA:                  -1.916
REMARK UNBOUND:                -1.247
REMARK SMILES CCCCCCCCCCCCCCCC(=O)[O-]
REMARK SMILES IDX 9 1 10 2 11 3 12 4 13 5 14 6 15 7 16 8 17 9 18 10 8 11 7 12
REMARK SMILES IDX 6 13 5 14 4 15 3 16 2 17 1 18
REMARK H PARENT
REMARK Flexibility Score: inf
ROOT
ATOM      1  C   UNL     1     -39.268 -20.764  28.908  1.00  0.00     0.000 C 
ENDROOT
BRANCH   1   2
ATOM      2  C   UNL     1     -40.763 -21.061  28.692  1.00  0.00     0.000 C 
BRANCH   2   3
ATOM      3  C   UNL     1     -41.076 -22.428  28.056  1.00  0.00     0.000 C 
BRANCH   3   4
ATOM      4  C   UNL     1     -42.469 -22.487  27.411  1.00  0.00     0.000 C 
BRANCH   4   5
ATOM      5  C   UNL     1     -43.571 -22.379  28.471  1.00  0.00     0.000 C 
BRANCH   5   6
ATOM      6  C   UNL     1     -44.795 -23.220  28.080  1.00  0.00     0.006 C 
BRANCH   6   7
ATOM      7  C   UNL     1     -46.084 -22.713  28.739  1.00  0.00     0.053 C 
BRANCH   7   8
ATOM      8  C   UNL     1     -46.796 -21.718  27.875  1.00  0.00     0.041 C 
ATOM      9  O   UNL     1     -47.529 -20.836  28.396  1.00  0.00    -0.550 OA
ATOM     10  O   UNL     1     -46.676 -21.783  26.493  1.00  0.00    -0.550 OA
ENDBRANCH   7   8
ENDBRANCH   6   7
ENDBRANCH   5   6
ENDBRANCH   4   5
ENDBRANCH   3   4
ENDBRANCH   2   3
ENDBRANCH   1   2
BRANCH   1  11
ATOM     11  C   UNL     1     -38.362 -21.958  28.564  1.00  0.00     0.000 C 
BRANCH  11  12
ATOM     12  C   UNL     1     -37.377 -21.654  27.420  1.00  0.00    -0.000 C 
BRANCH  12  13
ATOM     13  C   UNL     1     -37.762 -22.238  26.048  1.00  0.00    -0.000 C 
BRANCH  13  14
ATOM     14  C   UNL     1     -38.214 -21.166  25.044  1.00  0.00    -0.000 C 
BRANCH  14  15
ATOM     15  C   UNL     1     -39.738 -21.175  24.880  1.00  0.00    -0.000 C 
BRANCH  15  16
ATOM     16  C   UNL     1     -40.298 -19.744  24.863  1.00  0.00    -0.000 C 
BRANCH  16  17
ATOM     17  C   UNL     1     -39.389 -18.746  25.597  1.00  0.00    -0.003 C 
ATOM     18  C   UNL     1     -40.105 -18.020  26.735  1.00  0.00     0.004 C 
ENDBRANCH  16  17
ENDBRANCH  15  16
ENDBRANCH  14  15
ENDBRANCH  13  14
ENDBRANCH  12  13
ENDBRANCH  11  12
ENDBRANCH   1  11
TORSDOF 14
ENDMDL
MODEL 9
REMARK VINA RESULT:    -3.661      1.971      3.300
REMARK INTER + INTRA:          -7.905
REMARK INTER:                  -5.954
REMARK INTRA:                  -1.951
REMARK UNBOUND:                -1.247
REMARK SMILES CCCCCCCCCCCCCCCC(=O)[O-]
REMARK SMILES IDX 9 1 10 2 11 3 12 4 13 5 14 6 15 7 16 8 17 9 18 10 8 11 7 12
REMARK SMILES IDX 6 13 5 14 4 15 3 16 2 17 1 18
REMARK H PARENT
REMARK Flexibility Score: inf
ROOT
ATOM      1  C   UNL     1     -40.608 -23.592  27.236  1.00  0.00     0.000 C 
ENDROOT
BRANCH   1   2
ATOM      2  C   UNL     1     -41.117 -23.399  28.676  1.00  0.00     0.000 C 
BRANCH   2   3
ATOM      3  C   UNL     1     -42.377 -22.525  28.816  1.00  0.00     0.000 C 
BRANCH   3   4
ATOM      4  C   UNL     1     -43.555 -23.028  27.969  1.00  0.00     0.000 C 
BRANCH   4   5
ATOM      5  C   UNL     1     -44.548 -21.895  27.681  1.00  0.00     0.000 C 
BRANCH   5   6
ATOM      6  C   UNL     1     -45.970 -22.288  28.111  1.00  0.00     0.006 C 
BRANCH   6   7
ATOM      7  C   UNL     1     -47.034 -21.795  27.121  1.00  0.00     0.053 C 
BRANCH   7   8
ATOM      8  C   UNL     1     -47.612 -20.477  27.537  1.00  0.00     0.041 C 
ATOM      9  O   UNL     1     -47.376 -19.440  26.864  1.00  0.00    -0.550 OA
ATOM     10  O   UNL     1     -48.386 -20.388  28.688  1.00  0.00    -0.550 OA
ENDBRANCH   7   8
ENDBRANCH   6   7
ENDBRANCH   5   6
ENDBRANCH   4   5
ENDBRANCH   3   4
ENDBRANCH   2   3
ENDBRANCH   1   2
BRANCH   1  11
ATOM     11  C   UNL     1     -39.346 -22.769  26.930  1.00  0.00     0.000 C 
BRANCH  11  12
ATOM     12  C   UNL     1     -38.587 -22.339  28.199  1.00  0.00    -0.000 C 
BRANCH  12  13
ATOM     13  C   UNL     1     -38.444 -20.818  28.396  1.00  0.00    -0.000 C 
BRANCH  13  14
ATOM     14  C   UNL     1     -39.744 -20.051  28.111  1.00  0.00    -0.000 C 
BRANCH  14  15
ATOM     15  C   UNL     1     -39.494 -18.883  27.149  1.00  0.00    -0.000 C 
BRANCH  15  16
ATOM     16  C   UNL     1     -40.599 -18.800  26.086  1.00  0.00    -0.000 C 
BRANCH  16  17
ATOM     17  C   UNL     1     -41.747 -19.786  26.349  1.00  0.00    -0.003 C 
ATOM     18  C   UNL     1     -41.961 -20.767  25.196  1.00  0.00     0.004 C 
ENDBRANCH  16  17
ENDBRANCH  15  16
ENDBRANCH  14  15
ENDBRANCH  13  14
ENDBRANCH  12  13
ENDBRANCH  11  12
ENDBRANCH   1  11
TORSDOF 14
ENDMDL
