MODEL 1
REMARK VINA RESULT:    -2.938      0.000      0.000
REMARK INTER + INTRA:          -4.376
REMARK INTER:                  -4.569
REMARK INTRA:                   0.193
REMARK UNBOUND:                 0.193
REMARK SMILES COc1cc(CNC(=O)CCCCC=CC(C)C)ccc1O
REMARK SMILES IDX 11 1 12 2 13 3 14 4 15 5 16 6 17 7 18 8 10 9 8 10 9 11 7 12
REMARK SMILES IDX 6 14 5 15 4 16 19 17 3 18 20 19 21 20 2 21 1 22 22 23
REMARK H PARENT 7 13 22 24
REMARK Flexibility Score: inf
ROOT
ATOM      1  C   UNL     1      27.985  30.057  24.626  1.00  0.00     0.010 C 
ENDROOT
BRANCH   1   2
ATOM      2  C   UNL     1      29.125  30.107  23.600  1.00  0.00     0.005 C 
BRANCH   2   3
ATOM      3  C   UNL     1      28.965  31.296  22.649  1.00  0.00     0.027 C 
BRANCH   3   4
ATOM      4  C   UNL     1      28.615  32.541  23.422  1.00  0.00    -0.031 C 
ATOM      5  C   UNL     1      28.606  33.810  22.961  1.00  0.00    -0.028 C 
BRANCH   5   6
ATOM      6  C   UNL     1      29.038  34.314  21.593  1.00  0.00     0.005 C 
ATOM      7  C   UNL     1      29.122  33.192  20.552  1.00  0.00     0.012 C 
ATOM      8  C   UNL     1      28.229  35.521  21.097  1.00  0.00     0.012 C 
ENDBRANCH   5   6
ENDBRANCH   3   4
ENDBRANCH   2   3
ENDBRANCH   1   2
BRANCH   1   9
ATOM      9  C   UNL     1      27.177  28.758  24.533  1.00  0.00     0.100 C 
BRANCH   9  10
ATOM     10  C   UNL     1      27.671  27.721  25.500  1.00  0.00     0.220 C 
ATOM     11  O   UNL     1      27.978  28.061  26.674  1.00  0.00    -0.275 OA
ATOM     12  N   UNL     1      27.747  26.345  25.102  1.00  0.00    -0.352 N 
ATOM     13  H   UNL     1      27.568  26.098  24.103  1.00  0.00     0.163 HD
BRANCH  12  14
ATOM     14  C   UNL     1      27.808  25.253  26.073  1.00  0.00     0.151 C 
BRANCH  14  15
ATOM     15  C   UNL     1      26.427  24.698  26.291  1.00  0.00    -0.025 A 
ATOM     16  C   UNL     1      25.544  25.350  27.168  1.00  0.00     0.056 A 
ATOM     17  C   UNL     1      26.043  23.483  25.704  1.00  0.00     0.009 A 
ATOM     18  C   UNL     1      24.282  24.792  27.459  1.00  0.00     0.160 A 
ATOM     19  C   UNL     1      24.794  22.928  25.986  1.00  0.00     0.050 A 
ATOM     20  C   UNL     1      23.914  23.572  26.860  1.00  0.00     0.157 A 
BRANCH  18  21
ATOM     21  O   UNL     1      23.383  25.418  28.335  1.00  0.00    -0.493 OA
ATOM     22  C   UNL     1      22.179  26.063  27.931  1.00  0.00     0.278 C 
ENDBRANCH  18  21
BRANCH  20  23
ATOM     23  O   UNL     1      22.680  22.981  27.130  1.00  0.00    -0.504 OA
ATOM     24  H   UNL     1      21.994  22.813  26.403  1.00  0.00     0.293 HD
ENDBRANCH  20  23
ENDBRANCH  14  15
ENDBRANCH  12  14
ENDBRANCH   9  10
ENDBRANCH   1   9
TORSDOF 10
ENDMDL
MODEL 2
REMARK VINA RESULT:    -2.804      2.201      3.356
REMARK INTER + INTRA:          -4.168
REMARK INTER:                  -3.618
REMARK INTRA:                  -0.550
REMARK UNBOUND:                 0.193
REMARK SMILES COc1cc(CNC(=O)CCCCC=CC(C)C)ccc1O
REMARK SMILES IDX 11 1 12 2 13 3 14 4 15 5 16 6 17 7 18 8 10 9 8 10 9 11 7 12
REMARK SMILES IDX 6 14 5 15 4 16 19 17 3 18 20 19 21 20 2 21 1 22 22 23
REMARK H PARENT 7 13 22 24
REMARK Flexibility Score: inf
ROOT
ATOM      1  C   UNL     1      29.103  31.328  25.009  1.00  0.00     0.010 C 
ENDROOT
BRANCH   1   2
ATOM      2  C   UNL     1      28.351  32.616  24.648  1.00  0.00     0.005 C 
BRANCH   2   3
ATOM      3  C   UNL     1      29.090  33.407  23.566  1.00  0.00     0.027 C 
BRANCH   3   4
ATOM      4  C   UNL     1      28.918  32.744  22.223  1.00  0.00    -0.031 C 
ATOM      5  C   UNL     1      28.871  33.348  21.017  1.00  0.00    -0.028 C 
BRANCH   5   6
ATOM      6  C   UNL     1      28.877  34.838  20.713  1.00  0.00     0.005 C 
ATOM      7  C   UNL     1      29.125  35.135  19.229  1.00  0.00     0.012 C 
ATOM      8  C   UNL     1      27.656  35.585  21.268  1.00  0.00     0.012 C 
ENDBRANCH   5   6
ENDBRANCH   3   4
ENDBRANCH   2   3
ENDBRANCH   1   2
BRANCH   1   9
ATOM      9  C   UNL     1      29.112  31.065  26.519  1.00  0.00     0.100 C 
BRANCH   9  10
ATOM     10  C   UNL     1      28.647  29.675  26.847  1.00  0.00     0.220 C 
ATOM     11  O   UNL     1      29.084  29.101  27.880  1.00  0.00    -0.275 OA
ATOM     12  N   UNL     1      27.675  29.027  26.015  1.00  0.00    -0.352 N 
ATOM     13  H   UNL     1      27.390  29.486  25.121  1.00  0.00     0.163 HD
BRANCH  12  14
ATOM     14  C   UNL     1      26.882  27.891  26.480  1.00  0.00     0.151 C 
BRANCH  14  15
ATOM     15  C   UNL     1      27.374  26.631  25.821  1.00  0.00    -0.025 A 
ATOM     16  C   UNL     1      26.610  25.455  25.907  1.00  0.00     0.056 A 
ATOM     17  C   UNL     1      28.633  26.591  25.205  1.00  0.00     0.009 A 
ATOM     18  C   UNL     1      27.100  24.243  25.379  1.00  0.00     0.160 A 
ATOM     19  C   UNL     1      29.123  25.395  24.678  1.00  0.00     0.050 A 
ATOM     20  C   UNL     1      28.367  24.222  24.763  1.00  0.00     0.157 A 
BRANCH  18  21
ATOM     21  O   UNL     1      26.362  23.053  25.455  1.00  0.00    -0.493 OA
ATOM     22  C   UNL     1      24.988  22.977  25.824  1.00  0.00     0.278 C 
ENDBRANCH  18  21
BRANCH  20  23
ATOM     23  O   UNL     1      28.893  23.042  24.239  1.00  0.00    -0.504 OA
ATOM     24  H   UNL     1      28.848  22.163  24.742  1.00  0.00     0.293 HD
ENDBRANCH  20  23
ENDBRANCH  14  15
ENDBRANCH  12  14
ENDBRANCH   9  10
ENDBRANCH   1   9
TORSDOF 10
ENDMDL
MODEL 3
REMARK VINA RESULT:    -2.056      1.352      2.027
REMARK INTER + INTRA:          -3.004
REMARK INTER:                  -3.012
REMARK INTRA:                   0.008
REMARK UNBOUND:                 0.193
REMARK SMILES COc1cc(CNC(=O)CCCCC=CC(C)C)ccc1O
REMARK SMILES IDX 11 1 12 2 13 3 14 4 15 5 16 6 17 7 18 8 10 9 8 10 9 11 7 12
REMARK SMILES IDX 6 14 5 15 4 16 19 17 3 18 20 19 21 20 2 21 1 22 22 23
REMARK H PARENT 7 13 22 24
REMARK Flexibility Score: inf
ROOT
ATOM      1  C   UNL     1      27.715  29.563  24.339  1.00  0.00     0.010 C 
ENDROOT
BRANCH   1   2
ATOM      2  C   UNL     1      29.124  30.077  24.015  1.00  0.00     0.005 C 
BRANCH   2   3
ATOM      3  C   UNL     1      29.074  31.280  23.070  1.00  0.00     0.027 C 
BRANCH   3   4
ATOM      4  C   UNL     1      28.621  32.510  23.813  1.00  0.00    -0.031 C 
ATOM      5  C   UNL     1      28.526  33.767  23.328  1.00  0.00    -0.028 C 
BRANCH   5   6
ATOM      6  C   UNL     1      28.943  34.276  21.957  1.00  0.00     0.005 C 
ATOM      7  C   UNL     1      29.124  33.144  20.939  1.00  0.00     0.012 C 
ATOM      8  C   UNL     1      28.057  35.412  21.426  1.00  0.00     0.012 C 
ENDBRANCH   5   6
ENDBRANCH   3   4
ENDBRANCH   2   3
ENDBRANCH   1   2
BRANCH   1   9
ATOM      9  C   UNL     1      27.583  29.110  25.797  1.00  0.00     0.100 C 
BRANCH   9  10
ATOM     10  C   UNL     1      28.331  27.834  26.056  1.00  0.00     0.220 C 
ATOM     11  O   UNL     1      28.937  27.680  27.150  1.00  0.00    -0.275 OA
ATOM     12  N   UNL     1      28.315  26.781  25.082  1.00  0.00    -0.352 N 
ATOM     13  H   UNL     1      27.879  26.961  24.151  1.00  0.00     0.163 HD
BRANCH  12  14
ATOM     14  C   UNL     1      28.648  25.398  25.422  1.00  0.00     0.151 C 
BRANCH  14  15
ATOM     15  C   UNL     1      27.396  24.664  25.818  1.00  0.00    -0.025 A 
ATOM     16  C   UNL     1      26.591  24.075  24.829  1.00  0.00     0.056 A 
ATOM     17  C   UNL     1      26.971  24.644  27.155  1.00  0.00     0.009 A 
ATOM     18  C   UNL     1      25.366  23.466  25.171  1.00  0.00     0.160 A 
ATOM     19  C   UNL     1      25.760  24.041  27.500  1.00  0.00     0.050 A 
ATOM     20  C   UNL     1      24.955  23.455  26.518  1.00  0.00     0.157 A 
BRANCH  18  21
ATOM     21  O   UNL     1      24.540  22.875  24.204  1.00  0.00    -0.493 OA
ATOM     22  C   UNL     1      23.692  23.598  23.316  1.00  0.00     0.278 C 
ENDBRANCH  18  21
BRANCH  20  23
ATOM     23  O   UNL     1      23.745  22.875  26.897  1.00  0.00    -0.504 OA
ATOM     24  H   UNL     1      23.487  21.937  26.614  1.00  0.00     0.293 HD
ENDBRANCH  20  23
ENDBRANCH  14  15
ENDBRANCH  12  14
ENDBRANCH   9  10
ENDBRANCH   1   9
TORSDOF 10
ENDMDL
MODEL 4
REMARK VINA RESULT:    -1.320      2.687      4.955
REMARK INTER + INTRA:          -1.859
REMARK INTER:                  -1.236
REMARK INTRA:                  -0.623
REMARK UNBOUND:                 0.193
REMARK SMILES COc1cc(CNC(=O)CCCCC=CC(C)C)ccc1O
REMARK SMILES IDX 11 1 12 2 13 3 14 4 15 5 16 6 17 7 18 8 10 9 8 10 9 11 7 12
REMARK SMILES IDX 6 14 5 15 4 16 19 17 3 18 20 19 21 20 2 21 1 22 22 23
REMARK H PARENT 7 13 22 24
REMARK Flexibility Score: inf
ROOT
ATOM      1  C   UNL     1      24.670  28.502  27.457  1.00  0.00     0.010 C 
ENDROOT
BRANCH   1   2
ATOM      2  C   UNL     1      25.935  28.854  28.251  1.00  0.00     0.005 C 
BRANCH   2   3
ATOM      3  C   UNL     1      27.176  28.838  27.356  1.00  0.00     0.027 C 
BRANCH   3   4
ATOM      4  C   UNL     1      26.791  28.522  25.933  1.00  0.00    -0.031 C 
ATOM      5  C   UNL     1      27.513  28.772  24.820  1.00  0.00    -0.028 C 
BRANCH   5   6
ATOM      6  C   UNL     1      28.834  29.515  24.706  1.00  0.00     0.005 C 
ATOM      7  C   UNL     1      29.123  29.986  23.275  1.00  0.00     0.012 C 
ATOM      8  C   UNL     1      29.001  30.637  25.741  1.00  0.00     0.012 C 
ENDBRANCH   5   6
ENDBRANCH   3   4
ENDBRANCH   2   3
ENDBRANCH   1   2
BRANCH   1   9
ATOM      9  C   UNL     1      23.512  28.076  28.367  1.00  0.00     0.100 C 
BRANCH   9  10
ATOM     10  C   UNL     1      23.211  26.611  28.241  1.00  0.00     0.220 C 
ATOM     11  O   UNL     1      22.020  26.211  28.332  1.00  0.00    -0.275 OA
ATOM     12  N   UNL     1      24.269  25.680  27.971  1.00  0.00    -0.352 N 
ATOM     13  H   UNL     1      25.256  26.021  27.983  1.00  0.00     0.163 HD
BRANCH  12  14
ATOM     14  C   UNL     1      24.015  24.345  27.432  1.00  0.00     0.151 C 
BRANCH  14  15
ATOM     15  C   UNL     1      25.142  23.952  26.516  1.00  0.00    -0.025 A 
ATOM     16  C   UNL     1      26.440  24.433  26.761  1.00  0.00     0.056 A 
ATOM     17  C   UNL     1      24.896  23.190  25.364  1.00  0.00     0.009 A 
ATOM     18  C   UNL     1      27.488  24.154  25.860  1.00  0.00     0.160 A 
ATOM     19  C   UNL     1      25.931  22.908  24.470  1.00  0.00     0.050 A 
ATOM     20  C   UNL     1      27.222  23.387  24.710  1.00  0.00     0.157 A 
BRANCH  18  21
ATOM     21  O   UNL     1      28.792  24.625  26.076  1.00  0.00    -0.493 OA
ATOM     22  C   UNL     1      29.110  25.933  26.544  1.00  0.00     0.278 C 
ENDBRANCH  18  21
BRANCH  20  23
ATOM     23  O   UNL     1      28.228  23.099  23.788  1.00  0.00    -0.504 OA
ATOM     24  H   UNL     1      28.715  23.828  23.278  1.00  0.00     0.293 HD
ENDBRANCH  20  23
ENDBRANCH  14  15
ENDBRANCH  12  14
ENDBRANCH   9  10
ENDBRANCH   1   9
TORSDOF 10
ENDMDL
MODEL 5
REMARK VINA RESULT:    -1.164      2.936      9.922
REMARK INTER + INTRA:          -1.616
REMARK INTER:                  -2.297
REMARK INTRA:                   0.680
REMARK UNBOUND:                 0.193
REMARK SMILES COc1cc(CNC(=O)CCCCC=CC(C)C)ccc1O
REMARK SMILES IDX 11 1 12 2 13 3 14 4 15 5 16 6 17 7 18 8 10 9 8 10 9 11 7 12
REMARK SMILES IDX 6 14 5 15 4 16 19 17 3 18 20 19 21 20 2 21 1 22 22 23
REMARK H PARENT 7 13 22 24
REMARK Flexibility Score: inf
ROOT
ATOM      1  C   UNL     1      28.079  26.345  25.154  1.00  0.00     0.010 C 
ENDROOT
BRANCH   1   2
ATOM      2  C   UNL     1      28.828  25.366  26.069  1.00  0.00     0.005 C 
BRANCH   2   3
ATOM      3  C   UNL     1      28.170  23.984  26.063  1.00  0.00     0.027 C 
BRANCH   3   4
ATOM      4  C   UNL     1      26.914  24.006  25.230  1.00  0.00    -0.031 C 
ATOM      5  C   UNL     1      25.679  23.612  25.607  1.00  0.00    -0.028 C 
BRANCH   5   6
ATOM      6  C   UNL     1      25.262  22.960  26.915  1.00  0.00     0.005 C 
ATOM      7  C   UNL     1      25.990  23.554  28.127  1.00  0.00     0.012 C 
ATOM      8  C   UNL     1      23.741  22.895  27.114  1.00  0.00     0.012 C 
ENDBRANCH   5   6
ENDBRANCH   3   4
ENDBRANCH   2   3
ENDBRANCH   1   2
BRANCH   1   9
ATOM      9  C   UNL     1      28.986  27.466  24.636  1.00  0.00     0.100 C 
BRANCH   9  10
ATOM     10  C   UNL     1      28.771  28.750  25.384  1.00  0.00     0.220 C 
ATOM     11  O   UNL     1      28.643  28.725  26.637  1.00  0.00    -0.275 OA
ATOM     12  N   UNL     1      28.760  30.000  24.680  1.00  0.00    -0.352 N 
ATOM     13  H   UNL     1      28.784  29.990  23.636  1.00  0.00     0.163 HD
BRANCH  12  14
ATOM     14  C   UNL     1      28.976  31.278  25.355  1.00  0.00     0.151 C 
BRANCH  14  15
ATOM     15  C   UNL     1      28.862  32.398  24.356  1.00  0.00    -0.025 A 
ATOM     16  C   UNL     1      28.996  32.126  22.985  1.00  0.00     0.056 A 
ATOM     17  C   UNL     1      28.721  33.727  24.784  1.00  0.00     0.009 A 
ATOM     18  C   UNL     1      28.988  33.174  22.042  1.00  0.00     0.160 A 
ATOM     19  C   UNL     1      28.709  34.769  23.855  1.00  0.00     0.050 A 
ATOM     20  C   UNL     1      28.845  34.502  22.490  1.00  0.00     0.157 A 
BRANCH  18  21
ATOM     21  O   UNL     1      29.125  32.932  20.667  1.00  0.00    -0.493 OA
ATOM     22  C   UNL     1      28.794  33.869  19.646  1.00  0.00     0.278 C 
ENDBRANCH  18  21
BRANCH  20  23
ATOM     23  O   UNL     1      28.844  35.569  21.592  1.00  0.00    -0.504 OA
ATOM     24  H   UNL     1      28.204  35.610  20.807  1.00  0.00     0.293 HD
ENDBRANCH  20  23
ENDBRANCH  14  15
ENDBRANCH  12  14
ENDBRANCH   9  10
ENDBRANCH   1   9
TORSDOF 10
ENDMDL
MODEL 6
REMARK VINA RESULT:    -0.727      3.172      8.645
REMARK INTER + INTRA:          -0.937
REMARK INTER:                  -0.586
REMARK INTRA:                  -0.351
REMARK UNBOUND:                 0.193
REMARK SMILES COc1cc(CNC(=O)CCCCC=CC(C)C)ccc1O
REMARK SMILES IDX 11 1 12 2 13 3 14 4 15 5 16 6 17 7 18 8 10 9 8 10 9 11 7 12
REMARK SMILES IDX 6 14 5 15 4 16 19 17 3 18 20 19 21 20 2 21 1 22 22 23
REMARK H PARENT 7 13 22 24
REMARK Flexibility Score: inf
ROOT
ATOM      1  C   UNL     1      23.533  28.317  28.077  1.00  0.00     0.010 C 
ENDROOT
BRANCH   1   2
ATOM      2  C   UNL     1      22.747  27.021  28.320  1.00  0.00     0.005 C 
BRANCH   2   3
ATOM      3  C   UNL     1      23.610  25.788  28.043  1.00  0.00     0.027 C 
BRANCH   3   4
ATOM      4  C   UNL     1      22.749  24.642  27.575  1.00  0.00    -0.031 C 
ATOM      5  C   UNL     1      23.160  23.403  27.230  1.00  0.00    -0.028 C 
BRANCH   5   6
ATOM      6  C   UNL     1      24.584  22.882  27.127  1.00  0.00     0.005 C 
ATOM      7  C   UNL     1      25.198  23.116  25.741  1.00  0.00     0.012 C 
ATOM      8  C   UNL     1      25.499  23.358  28.265  1.00  0.00     0.012 C 
ENDBRANCH   5   6
ENDBRANCH   3   4
ENDBRANCH   2   3
ENDBRANCH   1   2
BRANCH   1   9
ATOM      9  C   UNL     1      24.191  28.846  29.356  1.00  0.00     0.100 C 
BRANCH   9  10
ATOM     10  C   UNL     1      25.604  29.292  29.114  1.00  0.00     0.220 C 
ATOM     11  O   UNL     1      26.157  30.075  29.931  1.00  0.00    -0.275 OA
ATOM     12  N   UNL     1      26.333  28.791  27.985  1.00  0.00    -0.352 N 
ATOM     13  H   UNL     1      25.830  28.211  27.276  1.00  0.00     0.163 HD
BRANCH  12  14
ATOM     14  C   UNL     1      27.793  28.838  27.914  1.00  0.00     0.151 C 
BRANCH  14  15
ATOM     15  C   UNL     1      28.221  28.990  26.480  1.00  0.00    -0.025 A 
ATOM     16  C   UNL     1      28.311  30.272  25.912  1.00  0.00     0.056 A 
ATOM     17  C   UNL     1      28.437  27.862  25.674  1.00  0.00     0.009 A 
ATOM     18  C   UNL     1      28.617  30.429  24.545  1.00  0.00     0.160 A 
ATOM     19  C   UNL     1      28.743  28.012  24.320  1.00  0.00     0.050 A 
ATOM     20  C   UNL     1      28.832  29.285  23.751  1.00  0.00     0.157 A 
BRANCH  18  21
ATOM     21  O   UNL     1      28.709  31.696  23.949  1.00  0.00    -0.493 OA
ATOM     22  C   UNL     1      28.871  32.915  24.667  1.00  0.00     0.278 C 
ENDBRANCH  18  21
BRANCH  20  23
ATOM     23  O   UNL     1      29.124  29.396  22.392  1.00  0.00    -0.504 OA
ATOM     24  H   UNL     1      29.624  28.672  21.889  1.00  0.00     0.293 HD
ENDBRANCH  20  23
ENDBRANCH  14  15
ENDBRANCH  12  14
ENDBRANCH   9  10
ENDBRANCH   1   9
TORSDOF 10
ENDMDL
MODEL 7
REMARK VINA RESULT:    -0.389      1.513      2.135
REMARK INTER + INTRA:          -0.411
REMARK INTER:                  -0.720
REMARK INTRA:                   0.309
REMARK UNBOUND:                 0.193
REMARK SMILES COc1cc(CNC(=O)CCCCC=CC(C)C)ccc1O
REMARK SMILES IDX 11 1 12 2 13 3 14 4 15 5 16 6 17 7 18 8 10 9 8 10 9 11 7 12
REMARK SMILES IDX 6 14 5 15 4 16 19 17 3 18 20 19 21 20 2 21 1 22 22 23
REMARK H PARENT 7 13 22 24
REMARK Flexibility Score: inf
ROOT
ATOM      1  C   UNL     1      27.308  28.037  24.526  1.00  0.00     0.010 C 
ENDROOT
BRANCH   1   2
ATOM      2  C   UNL     1      28.820  28.289  24.446  1.00  0.00     0.005 C 
BRANCH   2   3
ATOM      3  C   UNL     1      29.123  29.736  24.051  1.00  0.00     0.027 C 
BRANCH   3   4
ATOM      4  C   UNL     1      28.063  30.660  24.596  1.00  0.00    -0.031 C 
ATOM      5  C   UNL     1      27.999  32.001  24.450  1.00  0.00    -0.028 C 
BRANCH   5   6
ATOM      6  C   UNL     1      29.016  32.923  23.798  1.00  0.00     0.005 C 
ATOM      7  C   UNL     1      29.056  32.770  22.272  1.00  0.00     0.012 C 
ATOM      8  C   UNL     1      28.892  34.388  24.240  1.00  0.00     0.012 C 
ENDBRANCH   5   6
ENDBRANCH   3   4
ENDBRANCH   2   3
ENDBRANCH   1   2
BRANCH   1   9
ATOM      9  C   UNL     1      26.968  26.543  24.530  1.00  0.00     0.100 C 
BRANCH   9  10
ATOM     10  C   UNL     1      26.799  26.012  25.924  1.00  0.00     0.220 C 
ATOM     11  O   UNL     1      26.408  26.783  26.840  1.00  0.00    -0.275 OA
ATOM     12  N   UNL     1      27.035  24.624  26.199  1.00  0.00    -0.352 N 
ATOM     13  H   UNL     1      27.438  24.022  25.446  1.00  0.00     0.163 HD
BRANCH  12  14
ATOM     14  C   UNL     1      26.503  23.961  27.388  1.00  0.00     0.151 C 
BRANCH  14  15
ATOM     15  C   UNL     1      25.000  24.017  27.364  1.00  0.00    -0.025 A 
ATOM     16  C   UNL     1      24.338  25.177  27.802  1.00  0.00     0.056 A 
ATOM     17  C   UNL     1      24.247  22.890  27.001  1.00  0.00     0.009 A 
ATOM     18  C   UNL     1      22.931  25.213  27.876  1.00  0.00     0.160 A 
ATOM     19  C   UNL     1      22.853  22.921  27.070  1.00  0.00     0.050 A 
ATOM     20  C   UNL     1      22.192  24.073  27.508  1.00  0.00     0.157 A 
BRANCH  18  21
ATOM     21  O   UNL     1      22.244  26.355  28.315  1.00  0.00    -0.493 OA
ATOM     22  C   UNL     1      22.828  27.648  28.446  1.00  0.00     0.278 C 
ENDBRANCH  18  21
BRANCH  20  23
ATOM     23  O   UNL     1      20.799  24.063  27.579  1.00  0.00    -0.504 OA
ATOM     24  H   UNL     1      20.218  24.188  26.757  1.00  0.00     0.293 HD
ENDBRANCH  20  23
ENDBRANCH  14  15
ENDBRANCH  12  14
ENDBRANCH   9  10
ENDBRANCH   1   9
TORSDOF 10
ENDMDL
MODEL 8
REMARK VINA RESULT:    -0.142      3.593      8.028
REMARK INTER + INTRA:          -0.027
REMARK INTER:                   1.286
REMARK INTRA:                  -1.314
REMARK UNBOUND:                 0.193
REMARK SMILES COc1cc(CNC(=O)CCCCC=CC(C)C)ccc1O
REMARK SMILES IDX 11 1 12 2 13 3 14 4 15 5 16 6 17 7 18 8 10 9 8 10 9 11 7 12
REMARK SMILES IDX 6 14 5 15 4 16 19 17 3 18 20 19 21 20 2 21 1 22 22 23
REMARK H PARENT 7 13 22 24
REMARK Flexibility Score: inf
ROOT
ATOM      1  C   UNL     1      23.361  24.129  26.968  1.00  0.00     0.010 C 
ENDROOT
BRANCH   1   2
ATOM      2  C   UNL     1      24.064  22.879  27.515  1.00  0.00     0.005 C 
BRANCH   2   3
ATOM      3  C   UNL     1      25.559  23.130  27.730  1.00  0.00     0.027 C 
BRANCH   3   4
ATOM      4  C   UNL     1      25.957  24.458  27.137  1.00  0.00    -0.031 C 
ATOM      5  C   UNL     1      26.532  24.673  25.935  1.00  0.00    -0.028 C 
BRANCH   5   6
ATOM      6  C   UNL     1      27.014  23.642  24.928  1.00  0.00     0.005 C 
ATOM      7  C   UNL     1      26.154  23.613  23.658  1.00  0.00     0.012 C 
ATOM      8  C   UNL     1      28.516  23.734  24.621  1.00  0.00     0.012 C 
ENDBRANCH   5   6
ENDBRANCH   3   4
ENDBRANCH   2   3
ENDBRANCH   1   2
BRANCH   1   9
ATOM      9  C   UNL     1      22.011  24.381  27.647  1.00  0.00     0.100 C 
BRANCH   9  10
ATOM     10  C   UNL     1      21.866  25.808  28.091  1.00  0.00     0.220 C 
ATOM     11  O   UNL     1      20.829  26.163  28.714  1.00  0.00    -0.275 OA
ATOM     12  N   UNL     1      22.922  26.748  27.849  1.00  0.00    -0.352 N 
ATOM     13  H   UNL     1      23.734  26.454  27.260  1.00  0.00     0.163 HD
BRANCH  12  14
ATOM     14  C   UNL     1      23.040  28.000  28.595  1.00  0.00     0.151 C 
BRANCH  14  15
ATOM     15  C   UNL     1      24.442  28.530  28.467  1.00  0.00    -0.025 A 
ATOM     16  C   UNL     1      25.237  28.142  27.375  1.00  0.00     0.056 A 
ATOM     17  C   UNL     1      25.000  29.329  29.476  1.00  0.00     0.009 A 
ATOM     18  C   UNL     1      26.583  28.552  27.289  1.00  0.00     0.160 A 
ATOM     19  C   UNL     1      26.332  29.740  29.394  1.00  0.00     0.050 A 
ATOM     20  C   UNL     1      27.126  29.355  28.311  1.00  0.00     0.157 A 
BRANCH  18  21
ATOM     21  O   UNL     1      27.402  28.176  26.214  1.00  0.00    -0.493 OA
ATOM     22  C   UNL     1      27.382  28.793  24.929  1.00  0.00     0.278 C 
ENDBRANCH  18  21
BRANCH  20  23
ATOM     23  O   UNL     1      28.457  29.771  28.270  1.00  0.00    -0.504 OA
ATOM     24  H   UNL     1      28.994  29.770  27.410  1.00  0.00     0.293 HD
ENDBRANCH  20  23
ENDBRANCH  14  15
ENDBRANCH  12  14
ENDBRANCH   9  10
ENDBRANCH   1   9
TORSDOF 10
ENDMDL
