MODEL 1
REMARK VINA RESULT:    -5.091      0.000      0.000
REMARK INTER + INTRA:         -11.146
REMARK INTER:                  -9.258
REMARK INTRA:                  -1.888
REMARK UNBOUND:                -1.888
REMARK SMILES CCCCCCCCCCCCCC[C@H](C)C(=O)[O-]
REMARK SMILES IDX 9 1 10 2 11 3 12 4 13 5 14 6 15 7 16 8 17 9 18 10 19 11 8 12
REMARK SMILES IDX 7 13 6 14 5 15 4 16 3 17 2 18 1 19
REMARK H PARENT
REMARK Flexibility Score: inf
ROOT
ATOM      1  C   UNL     1     -21.159  -5.056  16.662  1.00  0.00     0.000 C 
ENDROOT
BRANCH   1   2
ATOM      2  C   UNL     1     -22.333  -5.898  17.195  1.00  0.00     0.000 C 
BRANCH   2   3
ATOM      3  C   UNL     1     -21.866  -7.088  18.047  1.00  0.00     0.000 C 
BRANCH   3   4
ATOM      4  C   UNL     1     -22.062  -8.436  17.337  1.00  0.00     0.000 C 
BRANCH   4   5
ATOM      5  C   UNL     1     -23.504  -8.582  16.827  1.00  0.00     0.001 C 
BRANCH   5   6
ATOM      6  C   UNL     1     -24.554  -8.423  17.942  1.00  0.00     0.009 C 
BRANCH   6   7
ATOM      7  C   UNL     1     -25.755  -7.529  17.562  1.00  0.00     0.032 C 
ATOM      8  C   UNL     1     -25.651  -7.086  16.099  1.00  0.00     0.014 C 
BRANCH   7   9
ATOM      9  C   UNL     1     -25.845  -6.319  18.452  1.00  0.00     0.044 C 
ATOM     10  O   UNL     1     -26.716  -5.436  18.231  1.00  0.00    -0.550 OA
ATOM     11  O   UNL     1     -24.970  -6.166  19.521  1.00  0.00    -0.550 OA
ENDBRANCH   7   9
ENDBRANCH   6   7
ENDBRANCH   5   6
ENDBRANCH   4   5
ENDBRANCH   3   4
ENDBRANCH   2   3
ENDBRANCH   1   2
BRANCH   1  12
ATOM     12  C   UNL     1     -21.049  -5.103  15.129  1.00  0.00     0.000 C 
BRANCH  12  13
ATOM     13  C   UNL     1     -20.614  -6.484  14.612  1.00  0.00    -0.000 C 
BRANCH  13  14
ATOM     14  C   UNL     1     -19.122  -6.771  14.890  1.00  0.00    -0.000 C 
BRANCH  14  15
ATOM     15  C   UNL     1     -18.850  -8.201  15.395  1.00  0.00    -0.000 C 
BRANCH  15  16
ATOM     16  C   UNL     1     -18.278  -8.289  16.820  1.00  0.00    -0.000 C 
BRANCH  16  17
ATOM     17  C   UNL     1     -18.724  -9.527  17.623  1.00  0.00    -0.000 C 
BRANCH  17  18
ATOM     18  C   UNL     1     -17.728  -9.943  18.726  1.00  0.00    -0.003 C 
ATOM     19  C   UNL     1     -16.474  -9.068  18.742  1.00  0.00     0.004 C 
ENDBRANCH  17  18
ENDBRANCH  16  17
ENDBRANCH  15  16
ENDBRANCH  14  15
ENDBRANCH  13  14
ENDBRANCH  12  13
ENDBRANCH   1  12
TORSDOF 14
ENDMDL
MODEL 2
REMARK VINA RESULT:    -5.054      1.591      2.593
REMARK INTER + INTRA:         -11.078
REMARK INTER:                  -9.020
REMARK INTRA:                  -2.058
REMARK UNBOUND:                -1.888
REMARK SMILES CCCCCCCCCCCCCC[C@H](C)C(=O)[O-]
REMARK SMILES IDX 9 1 10 2 11 3 12 4 13 5 14 6 15 7 16 8 17 9 18 10 19 11 8 12
REMARK SMILES IDX 7 13 6 14 5 15 4 16 3 17 2 18 1 19
REMARK H PARENT
REMARK Flexibility Score: inf
ROOT
ATOM      1  C   UNL     1     -21.093  -5.142  16.447  1.00  0.00     0.000 C 
ENDROOT
BRANCH   1   2
ATOM      2  C   UNL     1     -22.348  -5.702  17.142  1.00  0.00     0.000 C 
BRANCH   2   3
ATOM      3  C   UNL     1     -22.008  -6.676  18.280  1.00  0.00     0.000 C 
BRANCH   3   4
ATOM      4  C   UNL     1     -22.098  -8.147  17.846  1.00  0.00     0.000 C 
BRANCH   4   5
ATOM      5  C   UNL     1     -23.420  -8.422  17.113  1.00  0.00     0.001 C 
BRANCH   5   6
ATOM      6  C   UNL     1     -24.643  -8.384  18.049  1.00  0.00     0.009 C 
BRANCH   6   7
ATOM      7  C   UNL     1     -25.807  -7.505  17.539  1.00  0.00     0.032 C 
ATOM      8  C   UNL     1     -25.598  -7.144  16.065  1.00  0.00     0.014 C 
BRANCH   7   9
ATOM      9  C   UNL     1     -25.945  -6.247  18.353  1.00  0.00     0.044 C 
ATOM     10  O   UNL     1     -25.181  -6.043  19.335  1.00  0.00    -0.550 OA
ATOM     11  O   UNL     1     -26.913  -5.303  18.030  1.00  0.00    -0.550 OA
ENDBRANCH   7   9
ENDBRANCH   6   7
ENDBRANCH   5   6
ENDBRANCH   4   5
ENDBRANCH   3   4
ENDBRANCH   2   3
ENDBRANCH   1   2
BRANCH   1  12
ATOM     12  C   UNL     1     -21.105  -5.382  14.928  1.00  0.00     0.000 C 
BRANCH  12  13
ATOM     13  C   UNL     1     -21.663  -6.765  14.553  1.00  0.00    -0.000 C 
BRANCH  13  14
ATOM     14  C   UNL     1     -20.547  -7.767  14.186  1.00  0.00    -0.000 C 
BRANCH  14  15
ATOM     15  C   UNL     1     -19.681  -8.198  15.386  1.00  0.00    -0.000 C 
BRANCH  15  16
ATOM     16  C   UNL     1     -18.261  -7.608  15.407  1.00  0.00    -0.000 C 
BRANCH  16  17
ATOM     17  C   UNL     1     -17.846  -6.868  14.120  1.00  0.00    -0.000 C 
BRANCH  17  18
ATOM     18  C   UNL     1     -17.599  -5.358  14.325  1.00  0.00    -0.003 C 
ATOM     19  C   UNL     1     -16.594  -4.789  13.323  1.00  0.00     0.004 C 
ENDBRANCH  17  18
ENDBRANCH  16  17
ENDBRANCH  15  16
ENDBRANCH  14  15
ENDBRANCH  13  14
ENDBRANCH  12  13
ENDBRANCH   1  12
TORSDOF 14
ENDMDL
MODEL 3
REMARK VINA RESULT:    -4.933      3.230      6.238
REMARK INTER + INTRA:         -10.859
REMARK INTER:                  -8.997
REMARK INTRA:                  -1.862
REMARK UNBOUND:                -1.888
REMARK SMILES CCCCCCCCCCCCCC[C@H](C)C(=O)[O-]
REMARK SMILES IDX 9 1 10 2 11 3 12 4 13 5 14 6 15 7 16 8 17 9 18 10 19 11 8 12
REMARK SMILES IDX 7 13 6 14 5 15 4 16 3 17 2 18 1 19
REMARK H PARENT
REMARK Flexibility Score: inf
ROOT
ATOM      1  C   UNL     1     -21.383  -4.825  16.761  1.00  0.00     0.000 C 
ENDROOT
BRANCH   1   2
ATOM      2  C   UNL     1     -20.995  -4.852  15.271  1.00  0.00     0.000 C 
BRANCH   2   3
ATOM      3  C   UNL     1     -20.559  -6.248  14.800  1.00  0.00     0.000 C 
BRANCH   3   4
ATOM      4  C   UNL     1     -19.033  -6.429  14.820  1.00  0.00     0.000 C 
BRANCH   4   5
ATOM      5  C   UNL     1     -18.659  -7.893  15.101  1.00  0.00     0.001 C 
BRANCH   5   6
ATOM      6  C   UNL     1     -18.048  -8.098  16.499  1.00  0.00     0.009 C 
BRANCH   6   7
ATOM      7  C   UNL     1     -18.690  -9.244  17.312  1.00  0.00     0.032 C 
ATOM      8  C   UNL     1     -19.974  -8.761  17.995  1.00  0.00     0.014 C 
BRANCH   7   9
ATOM      9  C   UNL     1     -17.740  -9.786  18.346  1.00  0.00     0.044 C 
ATOM     10  O   UNL     1     -16.683  -9.159  18.623  1.00  0.00    -0.550 OA
ATOM     11  O   UNL     1     -18.021 -10.979  19.002  1.00  0.00    -0.550 OA
ENDBRANCH   7   9
ENDBRANCH   6   7
ENDBRANCH   5   6
ENDBRANCH   4   5
ENDBRANCH   3   4
ENDBRANCH   2   3
ENDBRANCH   1   2
BRANCH   1  12
ATOM     12  C   UNL     1     -21.872  -6.192  17.266  1.00  0.00     0.000 C 
BRANCH  12  13
ATOM     13  C   UNL     1     -22.951  -6.067  18.355  1.00  0.00    -0.000 C 
BRANCH  13  14
ATOM     14  C   UNL     1     -24.305  -6.661  17.909  1.00  0.00    -0.000 C 
BRANCH  14  15
ATOM     15  C   UNL     1     -24.488  -8.143  18.293  1.00  0.00    -0.000 C 
BRANCH  15  16
ATOM     16  C   UNL     1     -24.457  -9.128  17.112  1.00  0.00    -0.000 C 
BRANCH  16  17
ATOM     17  C   UNL     1     -23.053  -9.418  16.545  1.00  0.00    -0.000 C 
BRANCH  17  18
ATOM     18  C   UNL     1     -22.916  -9.106  15.040  1.00  0.00    -0.003 C 
ATOM     19  C   UNL     1     -23.713  -7.869  14.624  1.00  0.00     0.004 C 
ENDBRANCH  17  18
ENDBRANCH  16  17
ENDBRANCH  15  16
ENDBRANCH  14  15
ENDBRANCH  13  14
ENDBRANCH  12  13
ENDBRANCH   1  12
TORSDOF 14
ENDMDL
MODEL 4
REMARK VINA RESULT:    -4.880      1.886      2.651
REMARK INTER + INTRA:         -10.761
REMARK INTER:                  -9.214
REMARK INTRA:                  -1.548
REMARK UNBOUND:                -1.888
REMARK SMILES CCCCCCCCCCCCCC[C@H](C)C(=O)[O-]
REMARK SMILES IDX 9 1 10 2 11 3 12 4 13 5 14 6 15 7 16 8 17 9 18 10 19 11 8 12
REMARK SMILES IDX 7 13 6 14 5 15 4 16 3 17 2 18 1 19
REMARK H PARENT
REMARK Flexibility Score: inf
ROOT
ATOM      1  C   UNL     1     -20.738  -5.582  14.879  1.00  0.00     0.000 C 
ENDROOT
BRANCH   1   2
ATOM      2  C   UNL     1     -21.398  -4.807  16.035  1.00  0.00     0.000 C 
BRANCH   2   3
ATOM      3  C   UNL     1     -21.322  -5.563  17.371  1.00  0.00     0.000 C 
BRANCH   3   4
ATOM      4  C   UNL     1     -22.694  -6.068  17.843  1.00  0.00     0.000 C 
BRANCH   4   5
ATOM      5  C   UNL     1     -22.650  -7.575  18.140  1.00  0.00     0.001 C 
BRANCH   5   6
ATOM      6  C   UNL     1     -23.972  -8.291  17.806  1.00  0.00     0.009 C 
BRANCH   6   7
ATOM      7  C   UNL     1     -23.934  -9.120  16.503  1.00  0.00     0.032 C 
ATOM      8  C   UNL     1     -22.805 -10.155  16.560  1.00  0.00     0.014 C 
BRANCH   7   9
ATOM      9  C   UNL     1     -23.753  -8.241  15.295  1.00  0.00     0.044 C 
ATOM     10  O   UNL     1     -22.789  -8.438  14.509  1.00  0.00    -0.550 OA
ATOM     11  O   UNL     1     -24.646  -7.207  15.038  1.00  0.00    -0.550 OA
ENDBRANCH   7   9
ENDBRANCH   6   7
ENDBRANCH   5   6
ENDBRANCH   4   5
ENDBRANCH   3   4
ENDBRANCH   2   3
ENDBRANCH   1   2
BRANCH   1  12
ATOM     12  C   UNL     1     -19.247  -5.243  14.719  1.00  0.00     0.000 C 
BRANCH  12  13
ATOM     13  C   UNL     1     -18.355  -6.496  14.712  1.00  0.00    -0.000 C 
BRANCH  13  14
ATOM     14  C   UNL     1     -19.173  -7.797  14.556  1.00  0.00    -0.000 C 
BRANCH  14  15
ATOM     15  C   UNL     1     -19.607  -8.420  15.897  1.00  0.00    -0.000 C 
BRANCH  15  16
ATOM     16  C   UNL     1     -18.475  -8.605  16.924  1.00  0.00    -0.000 C 
BRANCH  16  17
ATOM     17  C   UNL     1     -18.628  -9.834  17.843  1.00  0.00    -0.000 C 
BRANCH  17  18
ATOM     18  C   UNL     1     -17.516  -9.954  18.906  1.00  0.00    -0.003 C 
ATOM     19  C   UNL     1     -16.386  -8.948  18.687  1.00  0.00     0.004 C 
ENDBRANCH  17  18
ENDBRANCH  16  17
ENDBRANCH  15  16
ENDBRANCH  14  15
ENDBRANCH  13  14
ENDBRANCH  12  13
ENDBRANCH   1  12
TORSDOF 14
ENDMDL
MODEL 5
REMARK VINA RESULT:    -4.872      3.263      6.950
REMARK INTER + INTRA:         -10.747
REMARK INTER:                  -9.132
REMARK INTRA:                  -1.614
REMARK UNBOUND:                -1.888
REMARK SMILES CCCCCCCCCCCCCC[C@H](C)C(=O)[O-]
REMARK SMILES IDX 9 1 10 2 11 3 12 4 13 5 14 6 15 7 16 8 17 9 18 10 19 11 8 12
REMARK SMILES IDX 7 13 6 14 5 15 4 16 3 17 2 18 1 19
REMARK H PARENT
REMARK Flexibility Score: inf
ROOT
ATOM      1  C   UNL     1     -21.617  -8.164  17.558  1.00  0.00     0.000 C 
ENDROOT
BRANCH   1   2
ATOM      2  C   UNL     1     -21.698  -6.786  18.240  1.00  0.00     0.000 C 
BRANCH   2   3
ATOM      3  C   UNL     1     -22.247  -5.697  17.306  1.00  0.00     0.000 C 
BRANCH   3   4
ATOM      4  C   UNL     1     -21.134  -4.917  16.588  1.00  0.00     0.000 C 
BRANCH   4   5
ATOM      5  C   UNL     1     -20.847  -5.521  15.205  1.00  0.00     0.001 C 
BRANCH   5   6
ATOM      6  C   UNL     1     -19.508  -5.047  14.611  1.00  0.00     0.009 C 
BRANCH   6   7
ATOM      7  C   UNL     1     -18.338  -6.036  14.810  1.00  0.00     0.032 C 
ATOM      8  C   UNL     1     -17.257  -5.807  13.748  1.00  0.00     0.014 C 
BRANCH   7   9
ATOM      9  C   UNL     1     -18.808  -7.464  14.754  1.00  0.00     0.044 C 
ATOM     10  O   UNL     1     -18.662  -8.216  15.754  1.00  0.00    -0.550 OA
ATOM     11  O   UNL     1     -19.404  -7.964  13.602  1.00  0.00    -0.550 OA
ENDBRANCH   7   9
ENDBRANCH   6   7
ENDBRANCH   5   6
ENDBRANCH   4   5
ENDBRANCH   3   4
ENDBRANCH   2   3
ENDBRANCH   1   2
BRANCH   1  12
ATOM     12  C   UNL     1     -22.731  -8.372  16.519  1.00  0.00     0.000 C 
BRANCH  12  13
ATOM     13  C   UNL     1     -23.802  -9.369  16.993  1.00  0.00    -0.000 C 
BRANCH  13  14
ATOM     14  C   UNL     1     -24.862  -8.704  17.897  1.00  0.00    -0.000 C 
BRANCH  14  15
ATOM     15  C   UNL     1     -25.521  -7.461  17.267  1.00  0.00    -0.000 C 
BRANCH  15  16
ATOM     16  C   UNL     1     -25.856  -6.331  18.256  1.00  0.00    -0.000 C 
BRANCH  16  17
ATOM     17  C   UNL     1     -25.019  -6.334  19.551  1.00  0.00    -0.000 C 
BRANCH  17  18
ATOM     18  C   UNL     1     -25.711  -5.631  20.737  1.00  0.00    -0.003 C 
ATOM     19  C   UNL     1     -26.865  -4.731  20.292  1.00  0.00     0.004 C 
ENDBRANCH  17  18
ENDBRANCH  16  17
ENDBRANCH  15  16
ENDBRANCH  14  15
ENDBRANCH  13  14
ENDBRANCH  12  13
ENDBRANCH   1  12
TORSDOF 14
ENDMDL
MODEL 6
REMARK VINA RESULT:    -4.793      3.375      6.851
REMARK INTER + INTRA:         -10.604
REMARK INTER:                  -8.909
REMARK INTRA:                  -1.696
REMARK UNBOUND:                -1.888
REMARK SMILES CCCCCCCCCCCCCC[C@H](C)C(=O)[O-]
REMARK SMILES IDX 9 1 10 2 11 3 12 4 13 5 14 6 15 7 16 8 17 9 18 10 19 11 8 12
REMARK SMILES IDX 7 13 6 14 5 15 4 16 3 17 2 18 1 19
REMARK H PARENT
REMARK Flexibility Score: inf
ROOT
ATOM      1  C   UNL     1     -22.812  -8.412  17.344  1.00  0.00     0.000 C 
ENDROOT
BRANCH   1   2
ATOM      2  C   UNL     1     -21.544  -7.566  17.564  1.00  0.00     0.000 C 
BRANCH   2   3
ATOM      3  C   UNL     1     -21.864  -6.103  17.907  1.00  0.00     0.000 C 
BRANCH   3   4
ATOM      4  C   UNL     1     -21.490  -5.135  16.774  1.00  0.00     0.000 C 
BRANCH   4   5
ATOM      5  C   UNL     1     -20.871  -5.892  15.589  1.00  0.00     0.001 C 
BRANCH   5   6
ATOM      6  C   UNL     1     -19.682  -5.145  14.955  1.00  0.00     0.009 C 
BRANCH   6   7
ATOM      7  C   UNL     1     -18.349  -5.925  14.993  1.00  0.00     0.032 C 
ATOM      8  C   UNL     1     -17.419  -5.449  13.872  1.00  0.00     0.014 C 
BRANCH   7   9
ATOM      9  C   UNL     1     -18.574  -7.408  14.867  1.00  0.00     0.044 C 
ATOM     10  O   UNL     1     -18.918  -7.903  13.761  1.00  0.00    -0.550 OA
ATOM     11  O   UNL     1     -18.404  -8.241  15.967  1.00  0.00    -0.550 OA
ENDBRANCH   7   9
ENDBRANCH   6   7
ENDBRANCH   5   6
ENDBRANCH   4   5
ENDBRANCH   3   4
ENDBRANCH   2   3
ENDBRANCH   1   2
BRANCH   1  12
ATOM     12  C   UNL     1     -22.846  -9.072  15.956  1.00  0.00     0.000 C 
BRANCH  12  13
ATOM     13  C   UNL     1     -23.557  -8.201  14.906  1.00  0.00    -0.000 C 
BRANCH  13  14
ATOM     14  C   UNL     1     -24.498  -7.159  15.549  1.00  0.00    -0.000 C 
BRANCH  14  15
ATOM     15  C   UNL     1     -25.851  -7.015  14.825  1.00  0.00    -0.000 C 
BRANCH  15  16
ATOM     16  C   UNL     1     -27.029  -6.609  15.727  1.00  0.00    -0.000 C 
BRANCH  16  17
ATOM     17  C   UNL     1     -26.889  -7.024  17.205  1.00  0.00    -0.000 C 
BRANCH  17  18
ATOM     18  C   UNL     1     -26.586  -5.845  18.153  1.00  0.00    -0.003 C 
ATOM     19  C   UNL     1     -25.377  -6.112  19.051  1.00  0.00     0.004 C 
ENDBRANCH  17  18
ENDBRANCH  16  17
ENDBRANCH  15  16
ENDBRANCH  14  15
ENDBRANCH  13  14
ENDBRANCH  12  13
ENDBRANCH   1  12
TORSDOF 14
ENDMDL
MODEL 7
REMARK VINA RESULT:    -4.759      2.217      3.158
REMARK INTER + INTRA:         -10.542
REMARK INTER:                  -9.164
REMARK INTRA:                  -1.378
REMARK UNBOUND:                -1.888
REMARK SMILES CCCCCCCCCCCCCC[C@H](C)C(=O)[O-]
REMARK SMILES IDX 9 1 10 2 11 3 12 4 13 5 14 6 15 7 16 8 17 9 18 10 19 11 8 12
REMARK SMILES IDX 7 13 6 14 5 15 4 16 3 17 2 18 1 19
REMARK H PARENT
REMARK Flexibility Score: inf
ROOT
ATOM      1  C   UNL     1     -21.737  -5.238  17.136  1.00  0.00     0.000 C 
ENDROOT
BRANCH   1   2
ATOM      2  C   UNL     1     -21.807  -6.547  17.945  1.00  0.00     0.000 C 
BRANCH   2   3
ATOM      3  C   UNL     1     -23.250  -6.965  18.266  1.00  0.00     0.000 C 
BRANCH   3   4
ATOM      4  C   UNL     1     -23.759  -8.088  17.349  1.00  0.00     0.000 C 
BRANCH   4   5
ATOM      5  C   UNL     1     -25.137  -8.589  17.808  1.00  0.00     0.001 C 
BRANCH   5   6
ATOM      6  C   UNL     1     -26.286  -8.084  16.917  1.00  0.00     0.009 C 
BRANCH   6   7
ATOM      7  C   UNL     1     -26.209  -6.579  16.572  1.00  0.00     0.032 C 
ATOM      8  C   UNL     1     -26.914  -5.748  17.649  1.00  0.00     0.014 C 
BRANCH   7   9
ATOM      9  C   UNL     1     -26.821  -6.289  15.228  1.00  0.00     0.044 C 
ATOM     10  O   UNL     1     -26.470  -6.955  14.218  1.00  0.00    -0.550 OA
ATOM     11  O   UNL     1     -27.775  -5.287  15.091  1.00  0.00    -0.550 OA
ENDBRANCH   7   9
ENDBRANCH   6   7
ENDBRANCH   5   6
ENDBRANCH   4   5
ENDBRANCH   3   4
ENDBRANCH   2   3
ENDBRANCH   1   2
BRANCH   1  12
ATOM     12  C   UNL     1     -21.004  -5.413  15.796  1.00  0.00     0.000 C 
BRANCH  12  13
ATOM     13  C   UNL     1     -21.719  -6.398  14.856  1.00  0.00    -0.000 C 
BRANCH  13  14
ATOM     14  C   UNL     1     -20.810  -7.576  14.440  1.00  0.00    -0.000 C 
BRANCH  14  15
ATOM     15  C   UNL     1     -19.960  -8.140  15.595  1.00  0.00    -0.000 C 
BRANCH  15  16
ATOM     16  C   UNL     1     -18.445  -7.908  15.461  1.00  0.00    -0.000 C 
BRANCH  16  17
ATOM     17  C   UNL     1     -18.022  -7.090  14.224  1.00  0.00    -0.000 C 
BRANCH  17  18
ATOM     18  C   UNL     1     -17.545  -5.662  14.559  1.00  0.00    -0.003 C 
ATOM     19  C   UNL     1     -16.947  -4.945  13.348  1.00  0.00     0.004 C 
ENDBRANCH  17  18
ENDBRANCH  16  17
ENDBRANCH  15  16
ENDBRANCH  14  15
ENDBRANCH  13  14
ENDBRANCH  12  13
ENDBRANCH   1  12
TORSDOF 14
ENDMDL
MODEL 8
REMARK VINA RESULT:    -4.630      3.516      7.123
REMARK INTER + INTRA:         -10.308
REMARK INTER:                  -8.127
REMARK INTRA:                  -2.181
REMARK UNBOUND:                -1.888
REMARK SMILES CCCCCCCCCCCCCC[C@H](C)C(=O)[O-]
REMARK SMILES IDX 9 1 10 2 11 3 12 4 13 5 14 6 15 7 16 8 17 9 18 10 19 11 8 12
REMARK SMILES IDX 7 13 6 14 5 15 4 16 3 17 2 18 1 19
REMARK H PARENT
REMARK Flexibility Score: inf
ROOT
ATOM      1  C   UNL     1     -23.775  -7.775  18.329  1.00  0.00     0.000 C 
ENDROOT
BRANCH   1   2
ATOM      2  C   UNL     1     -24.571  -8.857  17.575  1.00  0.00     0.000 C 
BRANCH   2   3
ATOM      3  C   UNL     1     -23.663  -9.815  16.788  1.00  0.00     0.000 C 
BRANCH   3   4
ATOM      4  C   UNL     1     -22.401  -9.125  16.249  1.00  0.00     0.000 C 
BRANCH   4   5
ATOM      5  C   UNL     1     -22.650  -8.545  14.848  1.00  0.00     0.001 C 
BRANCH   5   6
ATOM      6  C   UNL     1     -22.090  -7.121  14.680  1.00  0.00     0.009 C 
BRANCH   6   7
ATOM      7  C   UNL     1     -20.944  -6.770  15.655  1.00  0.00     0.032 C 
ATOM      8  C   UNL     1     -21.156  -5.373  16.249  1.00  0.00     0.014 C 
BRANCH   7   9
ATOM      9  C   UNL     1     -19.603  -6.832  14.975  1.00  0.00     0.044 C 
ATOM     10  O   UNL     1     -19.259  -7.872  14.352  1.00  0.00    -0.550 OA
ATOM     11  O   UNL     1     -18.736  -5.746  15.028  1.00  0.00    -0.550 OA
ENDBRANCH   7   9
ENDBRANCH   6   7
ENDBRANCH   5   6
ENDBRANCH   4   5
ENDBRANCH   3   4
ENDBRANCH   2   3
ENDBRANCH   1   2
BRANCH   1  12
ATOM     12  C   UNL     1     -24.457  -6.398  18.273  1.00  0.00     0.000 C 
BRANCH  12  13
ATOM     13  C   UNL     1     -25.107  -6.007  19.611  1.00  0.00    -0.000 C 
BRANCH  13  14
ATOM     14  C   UNL     1     -26.492  -5.351  19.418  1.00  0.00    -0.000 C 
BRANCH  14  15
ATOM     15  C   UNL     1     -27.254  -5.864  18.181  1.00  0.00    -0.000 C 
BRANCH  15  16
ATOM     16  C   UNL     1     -27.686  -4.773  17.185  1.00  0.00    -0.000 C 
BRANCH  16  17
ATOM     17  C   UNL     1     -27.716  -5.218  15.710  1.00  0.00    -0.000 C 
BRANCH  17  18
ATOM     18  C   UNL     1     -27.370  -6.707  15.504  1.00  0.00    -0.003 C 
ATOM     19  C   UNL     1     -26.016  -6.905  14.822  1.00  0.00     0.004 C 
ENDBRANCH  17  18
ENDBRANCH  16  17
ENDBRANCH  15  16
ENDBRANCH  14  15
ENDBRANCH  13  14
ENDBRANCH  12  13
ENDBRANCH   1  12
TORSDOF 14
ENDMDL
MODEL 9
REMARK VINA RESULT:    -4.627      1.149      1.815
REMARK INTER + INTRA:         -10.302
REMARK INTER:                  -8.348
REMARK INTRA:                  -1.955
REMARK UNBOUND:                -1.888
REMARK SMILES CCCCCCCCCCCCCC[C@H](C)C(=O)[O-]
REMARK SMILES IDX 9 1 10 2 11 3 12 4 13 5 14 6 15 7 16 8 17 9 18 10 19 11 8 12
REMARK SMILES IDX 7 13 6 14 5 15 4 16 3 17 2 18 1 19
REMARK H PARENT
REMARK Flexibility Score: inf
ROOT
ATOM      1  C   UNL     1     -21.437  -6.003  17.392  1.00  0.00     0.000 C 
ENDROOT
BRANCH   1   2
ATOM      2  C   UNL     1     -22.810  -6.032  18.087  1.00  0.00     0.000 C 
BRANCH   2   3
ATOM      3  C   UNL     1     -23.287  -7.461  18.390  1.00  0.00     0.000 C 
BRANCH   3   4
ATOM      4  C   UNL     1     -23.391  -8.330  17.128  1.00  0.00     0.000 C 
BRANCH   4   5
ATOM      5  C   UNL     1     -24.627  -7.948  16.300  1.00  0.00     0.001 C 
BRANCH   5   6
ATOM      6  C   UNL     1     -25.932  -7.992  17.116  1.00  0.00     0.009 C 
BRANCH   6   7
ATOM      7  C   UNL     1     -26.995  -6.963  16.671  1.00  0.00     0.032 C 
ATOM      8  C   UNL     1     -26.828  -6.629  15.185  1.00  0.00     0.014 C 
BRANCH   7   9
ATOM      9  C   UNL     1     -26.914  -5.700  17.486  1.00  0.00     0.044 C 
ATOM     10  O   UNL     1     -27.355  -4.617  17.017  1.00  0.00    -0.550 OA
ATOM     11  O   UNL     1     -26.354  -5.719  18.758  1.00  0.00    -0.550 OA
ENDBRANCH   7   9
ENDBRANCH   6   7
ENDBRANCH   5   6
ENDBRANCH   4   5
ENDBRANCH   3   4
ENDBRANCH   2   3
ENDBRANCH   1   2
BRANCH   1  12
ATOM     12  C   UNL     1     -21.337  -4.891  16.334  1.00  0.00     0.000 C 
BRANCH  12  13
ATOM     13  C   UNL     1     -20.877  -5.419  14.965  1.00  0.00    -0.000 C 
BRANCH  13  14
ATOM     14  C   UNL     1     -21.499  -6.792  14.627  1.00  0.00    -0.000 C 
BRANCH  14  15
ATOM     15  C   UNL     1     -20.458  -7.878  14.292  1.00  0.00    -0.000 C 
BRANCH  15  16
ATOM     16  C   UNL     1     -18.991  -7.451  14.475  1.00  0.00    -0.000 C 
BRANCH  16  17
ATOM     17  C   UNL     1     -18.342  -7.911  15.795  1.00  0.00    -0.000 C 
BRANCH  17  18
ATOM     18  C   UNL     1     -19.272  -8.769  16.678  1.00  0.00    -0.003 C 
ATOM     19  C   UNL     1     -18.541  -9.389  17.869  1.00  0.00     0.004 C 
ENDBRANCH  17  18
ENDBRANCH  16  17
ENDBRANCH  15  16
ENDBRANCH  14  15
ENDBRANCH  13  14
ENDBRANCH  12  13
ENDBRANCH   1  12
TORSDOF 14
ENDMDL
