MODEL 1
REMARK VINA RESULT:    -2.215      0.000      0.000
REMARK INTER + INTRA:          -2.486
REMARK INTER:                  -2.345
REMARK INTRA:                  -0.141
REMARK UNBOUND:                -0.141
REMARK SMILES CC1=CCC(C(C)C)=CC1
REMARK SMILES IDX 1 1 2 2 3 3 4 4 5 5 9 6 10 7 6 8 7 9 8 10
REMARK H PARENT
REMARK Flexibility Score: inf
ROOT
ATOM      1  C   UNL     1     162.905 158.953 137.253  1.00  0.00     0.039 C 
ATOM      2  C   UNL     1     164.012 158.105 137.814  1.00  0.00    -0.073 C 
ATOM      3  C   UNL     1     163.820 156.784 137.993  1.00  0.00    -0.023 C 
ATOM      4  C   UNL     1     164.929 155.903 138.509  1.00  0.00     0.058 C 
ATOM      5  C   UNL     1     165.852 156.658 139.447  1.00  0.00    -0.068 C 
ATOM      6  C   UNL     1     166.041 157.985 139.262  1.00  0.00    -0.023 C 
ATOM      7  C   UNL     1     165.356 158.720 138.137  1.00  0.00     0.057 C 
ENDROOT
BRANCH   5   8
ATOM      8  C   UNL     1     166.576 155.903 140.550  1.00  0.00     0.009 C 
ATOM      9  C   UNL     1     168.097 155.971 140.370  1.00  0.00     0.012 C 
ATOM     10  C   UNL     1     166.159 156.410 141.935  1.00  0.00     0.012 C 
ENDBRANCH   5   8
TORSDOF 1
ENDMDL
MODEL 2
REMARK VINA RESULT:    -2.193      1.665      4.679
REMARK INTER + INTRA:          -2.462
REMARK INTER:                  -2.310
REMARK INTRA:                  -0.153
REMARK UNBOUND:                -0.141
REMARK SMILES CC1=CCC(C(C)C)=CC1
REMARK SMILES IDX 1 1 2 2 3 3 4 4 5 5 9 6 10 7 6 8 7 9 8 10
REMARK H PARENT
REMARK Flexibility Score: inf
ROOT
ATOM      1  C   UNL     1     166.703 156.093 139.420  1.00  0.00     0.039 C 
ATOM      2  C   UNL     1     165.378 156.675 139.017  1.00  0.00    -0.073 C 
ATOM      3  C   UNL     1     165.325 157.898 138.455  1.00  0.00    -0.023 C 
ATOM      4  C   UNL     1     164.014 158.485 137.998  1.00  0.00     0.058 C 
ATOM      5  C   UNL     1     162.858 158.007 138.857  1.00  0.00    -0.068 C 
ATOM      6  C   UNL     1     162.916 156.778 139.418  1.00  0.00    -0.023 C 
ATOM      7  C   UNL     1     164.106 155.876 139.199  1.00  0.00     0.057 C 
ENDROOT
BRANCH   5   8
ATOM      8  C   UNL     1     161.642 158.901 139.037  1.00  0.00     0.009 C 
ATOM      9  C   UNL     1     161.814 159.847 140.230  1.00  0.00     0.012 C 
ATOM     10  C   UNL     1     161.331 159.678 137.752  1.00  0.00     0.012 C 
ENDBRANCH   5   8
TORSDOF 1
ENDMDL
MODEL 3
REMARK VINA RESULT:    -2.183     16.414     17.514
REMARK INTER + INTRA:          -2.452
REMARK INTER:                  -2.315
REMARK INTRA:                  -0.137
REMARK UNBOUND:                -0.141
REMARK SMILES CC1=CCC(C(C)C)=CC1
REMARK SMILES IDX 1 1 2 2 3 3 4 4 5 5 9 6 10 7 6 8 7 9 8 10
REMARK H PARENT
REMARK Flexibility Score: inf
ROOT
ATOM      1  C   UNL     1     165.610 175.936 139.684  1.00  0.00     0.039 C 
ATOM      2  C   UNL     1     166.867 175.312 139.147  1.00  0.00    -0.073 C 
ATOM      3  C   UNL     1     166.797 174.183 138.418  1.00  0.00    -0.023 C 
ATOM      4  C   UNL     1     168.038 173.563 137.826  1.00  0.00     0.058 C 
ATOM      5  C   UNL     1     169.256 173.818 138.694  1.00  0.00    -0.068 C 
ATOM      6  C   UNL     1     169.322 174.955 139.423  1.00  0.00    -0.023 C 
ATOM      7  C   UNL     1     168.208 175.971 139.384  1.00  0.00     0.057 C 
ENDROOT
BRANCH   5   8
ATOM      8  C   UNL     1     170.396 172.812 138.693  1.00  0.00     0.009 C 
ATOM      9  C   UNL     1     170.751 172.368 137.269  1.00  0.00     0.012 C 
ATOM     10  C   UNL     1     171.625 173.366 139.424  1.00  0.00     0.012 C 
ENDBRANCH   5   8
TORSDOF 1
ENDMDL
MODEL 4
REMARK VINA RESULT:    -2.154      1.705      3.110
REMARK INTER + INTRA:          -2.421
REMARK INTER:                  -2.255
REMARK INTRA:                  -0.166
REMARK UNBOUND:                -0.141
REMARK SMILES CC1=CCC(C(C)C)=CC1
REMARK SMILES IDX 1 1 2 2 3 3 4 4 5 5 9 6 10 7 6 8 7 9 8 10
REMARK H PARENT
REMARK Flexibility Score: inf
ROOT
ATOM      1  C   UNL     1     164.044 162.362 138.117  1.00  0.00     0.039 C 
ATOM      2  C   UNL     1     164.108 160.886 137.839  1.00  0.00    -0.073 C 
ATOM      3  C   UNL     1     162.976 160.200 137.594  1.00  0.00    -0.023 C 
ATOM      4  C   UNL     1     163.017 158.729 137.265  1.00  0.00     0.058 C 
ATOM      5  C   UNL     1     164.177 158.035 137.954  1.00  0.00    -0.068 C 
ATOM      6  C   UNL     1     165.312 158.730 138.197  1.00  0.00    -0.023 C 
ATOM      7  C   UNL     1     165.443 160.176 137.790  1.00  0.00     0.057 C 
ENDROOT
BRANCH   5   8
ATOM      8  C   UNL     1     164.057 156.565 138.320  1.00  0.00     0.009 C 
ATOM      9  C   UNL     1     165.404 155.988 138.772  1.00  0.00     0.012 C 
ATOM     10  C   UNL     1     162.975 156.345 139.384  1.00  0.00     0.012 C 
ENDBRANCH   5   8
TORSDOF 1
ENDMDL
MODEL 5
REMARK VINA RESULT:    -2.150      2.371      5.583
REMARK INTER + INTRA:          -2.417
REMARK INTER:                  -2.258
REMARK INTRA:                  -0.159
REMARK UNBOUND:                -0.141
REMARK SMILES CC1=CCC(C(C)C)=CC1
REMARK SMILES IDX 1 1 2 2 3 3 4 4 5 5 9 6 10 7 6 8 7 9 8 10
REMARK H PARENT
REMARK Flexibility Score: inf
ROOT
ATOM      1  C   UNL     1     164.396 155.989 138.479  1.00  0.00     0.039 C 
ATOM      2  C   UNL     1     163.587 157.256 138.490  1.00  0.00    -0.073 C 
ATOM      3  C   UNL     1     162.652 157.447 139.439  1.00  0.00    -0.023 C 
ATOM      4  C   UNL     1     161.861 158.729 139.501  1.00  0.00     0.058 C 
ATOM      5  C   UNL     1     161.659 159.328 138.122  1.00  0.00    -0.068 C 
ATOM      6  C   UNL     1     162.603 159.133 137.172  1.00  0.00    -0.023 C 
ATOM      7  C   UNL     1     163.850 158.338 137.465  1.00  0.00     0.057 C 
ENDROOT
BRANCH   5   8
ATOM      8  C   UNL     1     160.423 160.168 137.846  1.00  0.00     0.009 C 
ATOM      9  C   UNL     1     159.469 159.459 136.877  1.00  0.00     0.012 C 
ATOM     10  C   UNL     1     159.708 160.547 139.149  1.00  0.00     0.012 C 
ENDBRANCH   5   8
TORSDOF 1
ENDMDL
MODEL 6
REMARK VINA RESULT:    -2.117     15.883     16.957
REMARK INTER + INTRA:          -2.381
REMARK INTER:                  -2.226
REMARK INTRA:                  -0.156
REMARK UNBOUND:                -0.141
REMARK SMILES CC1=CCC(C(C)C)=CC1
REMARK SMILES IDX 1 1 2 2 3 3 4 4 5 5 9 6 10 7 6 8 7 9 8 10
REMARK H PARENT
REMARK Flexibility Score: inf
ROOT
ATOM      1  C   UNL     1     167.620 175.744 138.404  1.00  0.00     0.039 C 
ATOM      2  C   UNL     1     168.496 174.523 138.360  1.00  0.00    -0.073 C 
ATOM      3  C   UNL     1     169.436 174.338 139.305  1.00  0.00    -0.023 C 
ATOM      4  C   UNL     1     170.295 173.099 139.312  1.00  0.00     0.058 C 
ATOM      5  C   UNL     1     170.535 172.579 137.907  1.00  0.00    -0.068 C 
ATOM      6  C   UNL     1     169.587 172.767 136.962  1.00  0.00    -0.023 C 
ATOM      7  C   UNL     1     168.297 173.479 137.283  1.00  0.00     0.057 C 
ENDROOT
BRANCH   5   8
ATOM      8  C   UNL     1     171.817 171.822 137.601  1.00  0.00     0.009 C 
ATOM      9  C   UNL     1     172.835 172.711 136.877  1.00  0.00     0.012 C 
ATOM     10  C   UNL     1     172.419 171.213 138.873  1.00  0.00     0.012 C 
ENDBRANCH   5   8
TORSDOF 1
ENDMDL
MODEL 7
REMARK VINA RESULT:    -2.109     16.313     17.329
REMARK INTER + INTRA:          -2.373
REMARK INTER:                  -2.237
REMARK INTRA:                  -0.136
REMARK UNBOUND:                -0.141
REMARK SMILES CC1=CCC(C(C)C)=CC1
REMARK SMILES IDX 1 1 2 2 3 3 4 4 5 5 9 6 10 7 6 8 7 9 8 10
REMARK H PARENT
REMARK Flexibility Score: inf
ROOT
ATOM      1  C   UNL     1     172.923 171.976 138.073  1.00  0.00     0.039 C 
ATOM      2  C   UNL     1     171.471 172.357 138.123  1.00  0.00    -0.073 C 
ATOM      3  C   UNL     1     170.750 172.406 136.987  1.00  0.00    -0.023 C 
ATOM      4  C   UNL     1     169.280 172.738 137.015  1.00  0.00     0.058 C 
ATOM      5  C   UNL     1     168.943 173.682 138.154  1.00  0.00    -0.068 C 
ATOM      6  C   UNL     1     169.670 173.629 139.294  1.00  0.00    -0.023 C 
ATOM      7  C   UNL     1     170.802 172.645 139.450  1.00  0.00     0.057 C 
ENDROOT
BRANCH   5   8
ATOM      8  C   UNL     1     167.771 174.639 138.009  1.00  0.00     0.009 C 
ATOM      9  C   UNL     1     166.499 174.070 138.649  1.00  0.00     0.012 C 
ATOM     10  C   UNL     1     168.109 176.021 138.580  1.00  0.00     0.012 C 
ENDBRANCH   5   8
TORSDOF 1
ENDMDL
MODEL 8
REMARK VINA RESULT:    -2.085      0.925      4.696
REMARK INTER + INTRA:          -2.348
REMARK INTER:                  -2.187
REMARK INTRA:                  -0.162
REMARK UNBOUND:                -0.141
REMARK SMILES CC1=CCC(C(C)C)=CC1
REMARK SMILES IDX 1 1 2 2 3 3 4 4 5 5 9 6 10 7 6 8 7 9 8 10
REMARK H PARENT
REMARK Flexibility Score: inf
ROOT
ATOM      1  C   UNL     1     165.829 155.902 141.027  1.00  0.00     0.039 C 
ATOM      2  C   UNL     1     165.424 156.648 139.786  1.00  0.00    -0.073 C 
ATOM      3  C   UNL     1     165.801 157.929 139.620  1.00  0.00    -0.023 C 
ATOM      4  C   UNL     1     165.449 158.684 138.363  1.00  0.00     0.058 C 
ATOM      5  C   UNL     1     164.131 158.211 137.779  1.00  0.00    -0.068 C 
ATOM      6  C   UNL     1     163.758 156.922 137.948  1.00  0.00    -0.023 C 
ATOM      7  C   UNL     1     164.631 155.951 138.702  1.00  0.00     0.057 C 
ENDROOT
BRANCH   5   8
ATOM      8  C   UNL     1     163.278 159.182 136.980  1.00  0.00     0.009 C 
ATOM      9  C   UNL     1     161.866 159.300 137.566  1.00  0.00     0.012 C 
ATOM     10  C   UNL     1     163.951 160.556 136.875  1.00  0.00     0.012 C 
ENDBRANCH   5   8
TORSDOF 1
ENDMDL
