MODEL 1
REMARK VINA RESULT:    -3.938      0.000      0.000
REMARK INTER + INTRA:          -7.422
REMARK INTER:                  -6.011
REMARK INTRA:                  -1.412
REMARK UNBOUND:                -1.412
REMARK SMILES CCCCCCCCCCC(=O)[O-]
REMARK SMILES IDX 7 1 8 2 9 3 10 4 11 5 12 6 13 7 6 8 5 9 4 10 3 11 2 12 1 13
REMARK H PARENT
REMARK Flexibility Score: inf
ROOT
ATOM      1  C   UNL     1      -8.005 -13.362  15.759  1.00  0.00     0.000 C 
ENDROOT
BRANCH   1   2
ATOM      2  C   UNL     1      -7.880 -11.835  15.695  1.00  0.00     0.000 C 
BRANCH   2   3
ATOM      3  C   UNL     1      -9.245 -11.182  15.429  1.00  0.00     0.006 C 
BRANCH   3   4
ATOM      4  C   UNL     1      -9.555 -10.056  16.424  1.00  0.00     0.053 C 
BRANCH   4   5
ATOM      5  C   UNL     1      -9.842 -10.588  17.795  1.00  0.00     0.041 C 
ATOM      6  O   UNL     1     -10.952 -11.127  18.045  1.00  0.00    -0.550 OA
ATOM      7  O   UNL     1      -8.871 -10.521  18.785  1.00  0.00    -0.550 OA
ENDBRANCH   4   5
ENDBRANCH   3   4
ENDBRANCH   2   3
ENDBRANCH   1   2
BRANCH   1   8
ATOM      8  C   UNL     1      -8.049 -13.850  17.212  1.00  0.00     0.000 C 
BRANCH   8   9
ATOM      9  C   UNL     1      -9.449 -14.354  17.581  1.00  0.00    -0.000 C 
BRANCH   9  10
ATOM     10  C   UNL     1     -10.250 -14.721  16.326  1.00  0.00    -0.000 C 
BRANCH  10  11
ATOM     11  C   UNL     1     -11.690 -14.201  16.420  1.00  0.00    -0.000 C 
BRANCH  11  12
ATOM     12  C   UNL     1     -12.120 -13.534  15.109  1.00  0.00    -0.003 C 
ATOM     13  C   UNL     1     -11.188 -13.920  13.963  1.00  0.00     0.004 C 
ENDBRANCH  11  12
ENDBRANCH  10  11
ENDBRANCH   9  10
ENDBRANCH   8   9
ENDBRANCH   1   8
TORSDOF 9
ENDMDL
MODEL 2
REMARK VINA RESULT:    -3.707      1.583      4.164
REMARK INTER + INTRA:          -7.070
REMARK INTER:                  -6.039
REMARK INTRA:                  -1.031
REMARK UNBOUND:                -1.412
REMARK SMILES CCCCCCCCCCC(=O)[O-]
REMARK SMILES IDX 7 1 8 2 9 3 10 4 11 5 12 6 13 7 6 8 5 9 4 10 3 11 2 12 1 13
REMARK H PARENT
REMARK Flexibility Score: inf
ROOT
ATOM      1  C   UNL     1      -9.943 -13.076  13.771  1.00  0.00     0.000 C 
ENDROOT
BRANCH   1   2
ATOM      2  C   UNL     1     -11.046 -14.110  14.034  1.00  0.00     0.000 C 
BRANCH   2   3
ATOM      3  C   UNL     1     -12.072 -13.575  15.043  1.00  0.00     0.006 C 
BRANCH   3   4
ATOM      4  C   UNL     1     -12.004 -14.312  16.387  1.00  0.00     0.053 C 
BRANCH   4   5
ATOM      5  C   UNL     1     -11.309 -13.496  17.435  1.00  0.00     0.041 C 
ATOM      6  O   UNL     1     -10.170 -13.836  17.850  1.00  0.00    -0.550 OA
ATOM      7  O   UNL     1     -11.904 -12.341  17.926  1.00  0.00    -0.550 OA
ENDBRANCH   4   5
ENDBRANCH   3   4
ENDBRANCH   2   3
ENDBRANCH   1   2
BRANCH   1   8
ATOM      8  C   UNL     1      -8.751 -13.292  14.710  1.00  0.00     0.000 C 
BRANCH   8   9
ATOM      9  C   UNL     1      -8.429 -12.014  15.494  1.00  0.00    -0.000 C 
BRANCH   9  10
ATOM     10  C   UNL     1      -9.529 -10.962  15.307  1.00  0.00    -0.000 C 
BRANCH  10  11
ATOM     11  C   UNL     1      -9.368  -9.812  16.308  1.00  0.00    -0.000 C 
BRANCH  11  12
ATOM     12  C   UNL     1      -9.160 -10.346  17.730  1.00  0.00    -0.003 C 
ATOM     13  C   UNL     1      -9.749  -9.394  18.768  1.00  0.00     0.004 C 
ENDBRANCH  11  12
ENDBRANCH  10  11
ENDBRANCH   9  10
ENDBRANCH   8   9
ENDBRANCH   1   8
TORSDOF 9
ENDMDL
MODEL 3
REMARK VINA RESULT:    -3.690      1.424      2.331
REMARK INTER + INTRA:          -7.043
REMARK INTER:                  -5.730
REMARK INTRA:                  -1.313
REMARK UNBOUND:                -1.412
REMARK SMILES CCCCCCCCCCC(=O)[O-]
REMARK SMILES IDX 7 1 8 2 9 3 10 4 11 5 12 6 13 7 6 8 5 9 4 10 3 11 2 12 1 13
REMARK H PARENT
REMARK Flexibility Score: inf
ROOT
ATOM      1  C   UNL     1      -9.884 -13.108  17.783  1.00  0.00     0.000 C 
ENDROOT
BRANCH   1   2
ATOM      2  C   UNL     1      -8.970 -11.952  17.359  1.00  0.00     0.000 C 
BRANCH   2   3
ATOM      3  C   UNL     1      -9.777 -10.829  16.692  1.00  0.00     0.006 C 
BRANCH   3   4
ATOM      4  C   UNL     1      -9.465  -9.452  17.293  1.00  0.00     0.053 C 
BRANCH   4   5
ATOM      5  C   UNL     1      -9.738  -9.412  18.766  1.00  0.00     0.041 C 
ATOM      6  O   UNL     1      -8.858  -8.989  19.561  1.00  0.00    -0.550 OA
ATOM      7  O   UNL     1     -10.975  -9.809  19.255  1.00  0.00    -0.550 OA
ENDBRANCH   4   5
ENDBRANCH   3   4
ENDBRANCH   2   3
ENDBRANCH   1   2
BRANCH   1   8
ATOM      8  C   UNL     1     -11.324 -12.873  17.313  1.00  0.00     0.000 C 
BRANCH   8   9
ATOM      9  C   UNL     1     -11.907 -14.137  16.670  1.00  0.00    -0.000 C 
BRANCH   9  10
ATOM     10  C   UNL     1     -11.007 -14.643  15.537  1.00  0.00    -0.000 C 
BRANCH  10  11
ATOM     11  C   UNL     1     -11.288 -13.889  14.232  1.00  0.00    -0.000 C 
BRANCH  11  12
ATOM     12  C   UNL     1     -10.045 -13.126  13.760  1.00  0.00    -0.003 C 
ATOM     13  C   UNL     1      -8.765 -13.831  14.201  1.00  0.00     0.004 C 
ENDBRANCH  11  12
ENDBRANCH  10  11
ENDBRANCH   9  10
ENDBRANCH   8   9
ENDBRANCH   1   8
TORSDOF 9
ENDMDL
MODEL 4
REMARK VINA RESULT:    -3.662      1.052      2.637
REMARK INTER + INTRA:          -7.000
REMARK INTER:                  -5.881
REMARK INTRA:                  -1.119
REMARK UNBOUND:                -1.412
REMARK SMILES CCCCCCCCCCC(=O)[O-]
REMARK SMILES IDX 7 1 8 2 9 3 10 4 11 5 12 6 13 7 6 8 5 9 4 10 3 11 2 12 1 13
REMARK H PARENT
REMARK Flexibility Score: inf
ROOT
ATOM      1  C   UNL     1     -10.153 -11.619  15.133  1.00  0.00     0.000 C 
ENDROOT
BRANCH   1   2
ATOM      2  C   UNL     1      -8.693 -11.205  15.349  1.00  0.00     0.000 C 
BRANCH   2   3
ATOM      3  C   UNL     1      -8.467 -10.709  16.784  1.00  0.00     0.006 C 
BRANCH   3   4
ATOM      4  C   UNL     1      -9.445  -9.592  17.174  1.00  0.00     0.053 C 
BRANCH   4   5
ATOM      5  C   UNL     1     -10.203  -9.927  18.423  1.00  0.00     0.041 C 
ATOM      6  O   UNL     1     -11.006 -10.896  18.435  1.00  0.00    -0.550 OA
ATOM      7  O   UNL     1      -9.995  -9.190  19.581  1.00  0.00    -0.550 OA
ENDBRANCH   4   5
ENDBRANCH   3   4
ENDBRANCH   2   3
ENDBRANCH   1   2
BRANCH   1   8
ATOM      8  C   UNL     1     -10.243 -12.948  14.373  1.00  0.00     0.000 C 
BRANCH   8   9
ATOM      9  C   UNL     1     -11.334 -13.848  14.965  1.00  0.00    -0.000 C 
BRANCH   9  10
ATOM     10  C   UNL     1     -11.170 -13.986  16.483  1.00  0.00    -0.000 C 
BRANCH  10  11
ATOM     11  C   UNL     1      -9.926 -14.812  16.830  1.00  0.00    -0.000 C 
BRANCH  11  12
ATOM     12  C   UNL     1      -9.122 -14.150  17.955  1.00  0.00    -0.003 C 
ATOM     13  C   UNL     1      -7.634 -14.105  17.617  1.00  0.00     0.004 C 
ENDBRANCH  11  12
ENDBRANCH  10  11
ENDBRANCH   9  10
ENDBRANCH   8   9
ENDBRANCH   1   8
TORSDOF 9
ENDMDL
MODEL 5
REMARK VINA RESULT:    -3.623      2.763      3.331
REMARK INTER + INTRA:          -6.940
REMARK INTER:                  -6.169
REMARK INTRA:                  -0.772
REMARK UNBOUND:                -1.412
REMARK SMILES CCCCCCCCCCC(=O)[O-]
REMARK SMILES IDX 7 1 8 2 9 3 10 4 11 5 12 6 13 7 6 8 5 9 4 10 3 11 2 12 1 13
REMARK H PARENT
REMARK Flexibility Score: inf
ROOT
ATOM      1  C   UNL     1      -9.408 -11.551  16.750  1.00  0.00     0.000 C 
ENDROOT
BRANCH   1   2
ATOM      2  C   UNL     1      -9.498 -10.601  15.549  1.00  0.00     0.000 C 
BRANCH   2   3
ATOM      3  C   UNL     1      -8.853  -9.245  15.869  1.00  0.00     0.006 C 
BRANCH   3   4
ATOM      4  C   UNL     1      -7.472  -9.088  15.219  1.00  0.00     0.053 C 
BRANCH   4   5
ATOM      5  C   UNL     1      -7.218  -7.677  14.785  1.00  0.00     0.041 C 
ATOM      6  O   UNL     1      -7.372  -7.348  13.579  1.00  0.00    -0.550 OA
ATOM      7  O   UNL     1      -6.847  -6.718  15.718  1.00  0.00    -0.550 OA
ENDBRANCH   4   5
ENDBRANCH   3   4
ENDBRANCH   2   3
ENDBRANCH   1   2
BRANCH   1   8
ATOM      8  C   UNL     1     -10.536 -11.280  17.752  1.00  0.00     0.000 C 
BRANCH   8   9
ATOM      9  C   UNL     1     -11.533 -12.445  17.786  1.00  0.00    -0.000 C 
BRANCH   9  10
ATOM     10  C   UNL     1     -10.961 -13.679  17.080  1.00  0.00    -0.000 C 
BRANCH  10  11
ATOM     11  C   UNL     1     -12.022 -14.353  16.201  1.00  0.00    -0.000 C 
BRANCH  11  12
ATOM     12  C   UNL     1     -12.201 -13.598  14.879  1.00  0.00    -0.003 C 
ATOM     13  C   UNL     1     -10.959 -13.723  14.001  1.00  0.00     0.004 C 
ENDBRANCH  11  12
ENDBRANCH  10  11
ENDBRANCH   9  10
ENDBRANCH   8   9
ENDBRANCH   1   8
TORSDOF 9
ENDMDL
MODEL 6
REMARK VINA RESULT:    -3.615      1.826      2.660
REMARK INTER + INTRA:          -6.929
REMARK INTER:                  -5.591
REMARK INTRA:                  -1.338
REMARK UNBOUND:                -1.412
REMARK SMILES CCCCCCCCCCC(=O)[O-]
REMARK SMILES IDX 7 1 8 2 9 3 10 4 11 5 12 6 13 7 6 8 5 9 4 10 3 11 2 12 1 13
REMARK H PARENT
REMARK Flexibility Score: inf
ROOT
ATOM      1  C   UNL     1      -9.975 -13.192  17.871  1.00  0.00     0.000 C 
ENDROOT
BRANCH   1   2
ATOM      2  C   UNL     1      -9.152 -11.922  17.626  1.00  0.00     0.000 C 
BRANCH   2   3
ATOM      3  C   UNL     1     -10.017 -10.816  17.004  1.00  0.00     0.006 C 
BRANCH   3   4
ATOM      4  C   UNL     1      -9.259 -10.014  15.938  1.00  0.00     0.053 C 
BRANCH   4   5
ATOM      5  C   UNL     1      -8.333  -9.008  16.552  1.00  0.00     0.041 C 
ATOM      6  O   UNL     1      -7.092  -9.087  16.353  1.00  0.00    -0.550 OA
ATOM      7  O   UNL     1      -8.843  -7.966  17.314  1.00  0.00    -0.550 OA
ENDBRANCH   4   5
ENDBRANCH   3   4
ENDBRANCH   2   3
ENDBRANCH   1   2
BRANCH   1   8
ATOM      8  C   UNL     1     -11.430 -12.999  17.428  1.00  0.00     0.000 C 
BRANCH   8   9
ATOM      9  C   UNL     1     -11.943 -14.230  16.671  1.00  0.00    -0.000 C 
BRANCH   9  10
ATOM     10  C   UNL     1     -10.947 -14.665  15.590  1.00  0.00    -0.000 C 
BRANCH  10  11
ATOM     11  C   UNL     1     -11.217 -13.937  14.268  1.00  0.00    -0.000 C 
BRANCH  11  12
ATOM     12  C   UNL     1     -10.016 -13.077  13.859  1.00  0.00    -0.003 C 
ATOM     13  C   UNL     1      -8.709 -13.677  14.370  1.00  0.00     0.004 C 
ENDBRANCH  11  12
ENDBRANCH  10  11
ENDBRANCH   9  10
ENDBRANCH   8   9
ENDBRANCH   1   8
TORSDOF 9
ENDMDL
MODEL 7
REMARK VINA RESULT:    -3.579      1.307      2.380
REMARK INTER + INTRA:          -6.874
REMARK INTER:                  -5.781
REMARK INTRA:                  -1.093
REMARK UNBOUND:                -1.412
REMARK SMILES CCCCCCCCCCC(=O)[O-]
REMARK SMILES IDX 7 1 8 2 9 3 10 4 11 5 12 6 13 7 6 8 5 9 4 10 3 11 2 12 1 13
REMARK H PARENT
REMARK Flexibility Score: inf
ROOT
ATOM      1  C   UNL     1      -7.734 -13.694  16.540  1.00  0.00     0.000 C 
ENDROOT
BRANCH   1   2
ATOM      2  C   UNL     1      -8.776 -14.250  17.519  1.00  0.00     0.000 C 
BRANCH   2   3
ATOM      3  C   UNL     1      -9.535 -13.114  18.219  1.00  0.00     0.006 C 
BRANCH   3   4
ATOM      4  C   UNL     1      -8.728 -11.810  18.254  1.00  0.00     0.053 C 
BRANCH   4   5
ATOM      5  C   UNL     1      -9.576 -10.621  17.919  1.00  0.00     0.041 C 
ATOM      6  O   UNL     1      -9.939 -10.417  16.730  1.00  0.00    -0.550 OA
ATOM      7  O   UNL     1      -9.996  -9.760  18.923  1.00  0.00    -0.550 OA
ENDBRANCH   4   5
ENDBRANCH   3   4
ENDBRANCH   2   3
ENDBRANCH   1   2
BRANCH   1   8
ATOM      8  C   UNL     1      -8.137 -13.977  15.088  1.00  0.00     0.000 C 
BRANCH   8   9
ATOM      9  C   UNL     1      -9.173 -12.960  14.596  1.00  0.00    -0.000 C 
BRANCH   9  10
ATOM     10  C   UNL     1      -9.939 -13.498  13.382  1.00  0.00    -0.000 C 
BRANCH  10  11
ATOM     11  C   UNL     1     -11.380 -13.864  13.758  1.00  0.00    -0.000 C 
BRANCH  11  12
ATOM     12  C   UNL     1     -11.719 -13.380  15.172  1.00  0.00    -0.003 C 
ATOM     13  C   UNL     1     -12.199 -14.533  16.049  1.00  0.00     0.004 C 
ENDBRANCH  11  12
ENDBRANCH  10  11
ENDBRANCH   9  10
ENDBRANCH   8   9
ENDBRANCH   1   8
TORSDOF 9
ENDMDL
MODEL 8
REMARK VINA RESULT:    -3.559      1.680      2.069
REMARK INTER + INTRA:          -6.844
REMARK INTER:                  -5.623
REMARK INTRA:                  -1.220
REMARK UNBOUND:                -1.412
REMARK SMILES CCCCCCCCCCC(=O)[O-]
REMARK SMILES IDX 7 1 8 2 9 3 10 4 11 5 12 6 13 7 6 8 5 9 4 10 3 11 2 12 1 13
REMARK H PARENT
REMARK Flexibility Score: inf
ROOT
ATOM      1  C   UNL     1      -8.076 -12.481  17.165  1.00  0.00     0.000 C 
ENDROOT
BRANCH   1   2
ATOM      2  C   UNL     1      -9.053 -11.665  18.020  1.00  0.00     0.000 C 
BRANCH   2   3
ATOM      3  C   UNL     1      -9.991 -10.829  17.138  1.00  0.00     0.006 C 
BRANCH   3   4
ATOM      4  C   UNL     1      -9.392 -10.547  15.755  1.00  0.00     0.053 C 
BRANCH   4   5
ATOM      5  C   UNL     1      -8.584  -9.285  15.745  1.00  0.00     0.041 C 
ATOM      6  O   UNL     1      -8.912  -8.318  16.481  1.00  0.00    -0.550 OA
ATOM      7  O   UNL     1      -7.449  -9.191  14.950  1.00  0.00    -0.550 OA
ENDBRANCH   4   5
ENDBRANCH   3   4
ENDBRANCH   2   3
ENDBRANCH   1   2
BRANCH   1   8
ATOM      8  C   UNL     1      -7.982 -13.927  17.664  1.00  0.00     0.000 C 
BRANCH   8   9
ATOM      9  C   UNL     1      -9.364 -14.591  17.689  1.00  0.00    -0.000 C 
BRANCH   9  10
ATOM     10  C   UNL     1      -9.888 -14.826  16.267  1.00  0.00    -0.000 C 
BRANCH  10  11
ATOM     11  C   UNL     1     -11.383 -14.500  16.170  1.00  0.00    -0.000 C 
BRANCH  11  12
ATOM     12  C   UNL     1     -11.647 -13.447  15.087  1.00  0.00    -0.003 C 
ATOM     13  C   UNL     1     -10.669 -13.595  13.925  1.00  0.00     0.004 C 
ENDBRANCH  11  12
ENDBRANCH  10  11
ENDBRANCH   9  10
ENDBRANCH   8   9
ENDBRANCH   1   8
TORSDOF 9
ENDMDL
MODEL 9
REMARK VINA RESULT:    -3.489      1.688      4.474
REMARK INTER + INTRA:          -6.736
REMARK INTER:                  -5.519
REMARK INTRA:                  -1.217
REMARK UNBOUND:                -1.412
REMARK SMILES CCCCCCCCCCC(=O)[O-]
REMARK SMILES IDX 7 1 8 2 9 3 10 4 11 5 12 6 13 7 6 8 5 9 4 10 3 11 2 12 1 13
REMARK H PARENT
REMARK Flexibility Score: inf
ROOT
ATOM      1  C   UNL     1      -7.787 -13.421  16.020  1.00  0.00     0.000 C 
ENDROOT
BRANCH   1   2
ATOM      2  C   UNL     1      -7.957 -13.841  17.485  1.00  0.00     0.000 C 
BRANCH   2   3
ATOM      3  C   UNL     1      -9.378 -14.359  17.748  1.00  0.00     0.006 C 
BRANCH   3   4
ATOM      4  C   UNL     1     -10.139 -14.656  16.450  1.00  0.00     0.053 C 
BRANCH   4   5
ATOM      5  C   UNL     1     -11.562 -14.190  16.519  1.00  0.00     0.041 C 
ATOM      6  O   UNL     1     -11.823 -12.996  16.822  1.00  0.00    -0.550 OA
ATOM      7  O   UNL     1     -12.596 -15.066  16.216  1.00  0.00    -0.550 OA
ENDBRANCH   4   5
ENDBRANCH   3   4
ENDBRANCH   2   3
ENDBRANCH   1   2
BRANCH   1   8
ATOM      8  C   UNL     1      -7.681 -11.897  15.893  1.00  0.00     0.000 C 
BRANCH   8   9
ATOM      9  C   UNL     1      -9.034 -11.281  15.513  1.00  0.00    -0.000 C 
BRANCH   9  10
ATOM     10  C   UNL     1      -9.349 -10.063  16.390  1.00  0.00    -0.000 C 
BRANCH  10  11
ATOM     11  C   UNL     1      -9.777 -10.494  17.798  1.00  0.00    -0.000 C 
BRANCH  11  12
ATOM     12  C   UNL     1      -8.967  -9.755  18.869  1.00  0.00    -0.003 C 
ATOM     13  C   UNL     1      -7.847 -10.636  19.418  1.00  0.00     0.004 C 
ENDBRANCH  11  12
ENDBRANCH  10  11
ENDBRANCH   9  10
ENDBRANCH   8   9
ENDBRANCH   1   8
TORSDOF 9
ENDMDL
