MODEL 1
REMARK VINA RESULT:    -6.773      0.000      0.000
REMARK INTER + INTRA:          -7.433
REMARK INTER:                  -7.169
REMARK INTRA:                  -0.263
REMARK UNBOUND:                -0.263
REMARK SMILES O=c1cc(-c2ccccc2)oc2ccccc12
REMARK SMILES IDX 4 1 3 2 2 3 1 4 17 5 16 6 15 7 14 8 13 9 12 10 11 11 5 12
REMARK SMILES IDX 8 13 7 14 9 15 6 16 10 17
REMARK H PARENT
REMARK Flexibility Score: inf
ROOT
ATOM      1  C   UNL     1     106.360 102.569 112.096  1.00  0.00     0.138 A 
ATOM      2  C   UNL     1     106.006 103.879 112.482  1.00  0.00     0.100 A 
ATOM      3  C   UNL     1     105.472 104.754 111.535  1.00  0.00     0.193 A 
ATOM      4  O   UNL     1     105.154 105.926 111.880  1.00  0.00    -0.289 OA
ATOM      5  C   UNL     1     105.295 104.319 110.214  1.00  0.00     0.065 A 
ATOM      6  C   UNL     1     104.761 105.150 109.212  1.00  0.00     0.016 A 
ATOM      7  C   UNL     1     104.606 104.665 107.909  1.00  0.00     0.001 A 
ATOM      8  C   UNL     1     104.979 103.354 107.599  1.00  0.00     0.004 A 
ATOM      9  C   UNL     1     105.510 102.521 108.588  1.00  0.00     0.048 A 
ATOM     10  C   UNL     1     105.669 102.997 109.894  1.00  0.00     0.138 A 
ATOM     11  O   UNL     1     106.175 102.197 110.829  1.00  0.00    -0.456 OA
ENDROOT
BRANCH   1  12
ATOM     12  C   UNL     1     106.939 101.569 113.047  1.00  0.00     0.017 A 
ATOM     13  C   UNL     1     108.001  99.741 114.916  1.00  0.00     0.000 A 
ATOM     14  C   UNL     1     107.385 100.910 115.357  1.00  0.00     0.001 A 
ATOM     15  C   UNL     1     108.093  99.476 113.550  1.00  0.00     0.001 A 
ATOM     16  C   UNL     1     106.858 101.818 114.434  1.00  0.00     0.012 A 
ATOM     17  C   UNL     1     107.568 100.378 112.619  1.00  0.00     0.012 A 
ENDBRANCH   1  12
TORSDOF 1
ENDMDL
MODEL 2
REMARK VINA RESULT:    -6.752      4.959      7.009
REMARK INTER + INTRA:          -7.410
REMARK INTER:                  -7.147
REMARK INTRA:                  -0.263
REMARK UNBOUND:                -0.263
REMARK SMILES O=c1cc(-c2ccccc2)oc2ccccc12
REMARK SMILES IDX 4 1 3 2 2 3 1 4 17 5 16 6 15 7 14 8 13 9 12 10 11 11 5 12
REMARK SMILES IDX 8 13 7 14 9 15 6 16 10 17
REMARK H PARENT
REMARK Flexibility Score: inf
ROOT
ATOM      1  C   UNL     1     100.905 105.003 112.163  1.00  0.00     0.138 A 
ATOM      2  C   UNL     1     101.249 103.697 112.572  1.00  0.00     0.100 A 
ATOM      3  C   UNL     1     101.813 102.813 111.651  1.00  0.00     0.193 A 
ATOM      4  O   UNL     1     102.120 101.645 112.017  1.00  0.00    -0.289 OA
ATOM      5  C   UNL     1     102.029 103.235 110.332  1.00  0.00     0.065 A 
ATOM      6  C   UNL     1     102.594 102.395 109.355  1.00  0.00     0.016 A 
ATOM      7  C   UNL     1     102.788 102.867 108.053  1.00  0.00     0.001 A 
ATOM      8  C   UNL     1     102.423 104.175 107.718  1.00  0.00     0.004 A 
ATOM      9  C   UNL     1     101.862 105.016 108.682  1.00  0.00     0.048 A 
ATOM     10  C   UNL     1     101.663 104.554 109.988  1.00  0.00     0.138 A 
ATOM     11  O   UNL     1     101.129 105.362 110.898  1.00  0.00    -0.456 OA
ENDROOT
BRANCH   1  12
ATOM     12  C   UNL     1     100.298 106.012 113.086  1.00  0.00     0.017 A 
ATOM     13  C   UNL     1      99.177 107.858 114.903  1.00  0.00     0.000 A 
ATOM     14  C   UNL     1      99.780 106.693 115.374  1.00  0.00     0.001 A 
ATOM     15  C   UNL     1      99.129 108.110 113.532  1.00  0.00     0.001 A 
ATOM     16  C   UNL     1     100.336 105.776 114.477  1.00  0.00     0.012 A 
ATOM     17  C   UNL     1      99.682 107.199 112.627  1.00  0.00     0.012 A 
ENDBRANCH   1  12
TORSDOF 1
ENDMDL
MODEL 3
REMARK VINA RESULT:    -6.566      5.152      7.575
REMARK INTER + INTRA:          -7.213
REMARK INTER:                  -6.951
REMARK INTRA:                  -0.262
REMARK UNBOUND:                -0.263
REMARK SMILES O=c1cc(-c2ccccc2)oc2ccccc12
REMARK SMILES IDX 4 1 3 2 2 3 1 4 17 5 16 6 15 7 14 8 13 9 12 10 11 11 5 12
REMARK SMILES IDX 8 13 7 14 9 15 6 16 10 17
REMARK H PARENT
REMARK Flexibility Score: inf
ROOT
ATOM      1  C   UNL     1     101.327 104.920 111.703  1.00  0.00     0.138 A 
ATOM      2  C   UNL     1     101.708 104.359 112.940  1.00  0.00     0.100 A 
ATOM      3  C   UNL     1     101.260 104.941 114.127  1.00  0.00     0.193 A 
ATOM      4  O   UNL     1     101.601 104.438 115.234  1.00  0.00    -0.289 OA
ATOM      5  C   UNL     1     100.437 106.075 114.073  1.00  0.00     0.065 A 
ATOM      6  C   UNL     1      99.951 106.709 115.231  1.00  0.00     0.016 A 
ATOM      7  C   UNL     1      99.134 107.838 115.120  1.00  0.00     0.001 A 
ATOM      8  C   UNL     1      98.797 108.340 113.859  1.00  0.00     0.004 A 
ATOM      9  C   UNL     1      99.275 107.716 112.704  1.00  0.00     0.048 A 
ATOM     10  C   UNL     1     100.093 106.586 112.804  1.00  0.00     0.138 A 
ATOM     11  O   UNL     1     100.543 106.000 111.698  1.00  0.00    -0.456 OA
ENDROOT
BRANCH   1  12
ATOM     12  C   UNL     1     101.762 104.359 110.386  1.00  0.00     0.017 A 
ATOM     13  C   UNL     1     102.604 103.216 107.947  1.00  0.00     0.000 A 
ATOM     14  C   UNL     1     102.639 102.463 109.119  1.00  0.00     0.001 A 
ATOM     15  C   UNL     1     102.153 104.535 107.981  1.00  0.00     0.001 A 
ATOM     16  C   UNL     1     102.222 103.026 110.329  1.00  0.00     0.012 A 
ATOM     17  C   UNL     1     101.734 105.107 109.186  1.00  0.00     0.012 A 
ENDBRANCH   1  12
TORSDOF 1
ENDMDL
MODEL 4
REMARK VINA RESULT:    -6.541      4.597      6.832
REMARK INTER + INTRA:          -7.186
REMARK INTER:                  -6.948
REMARK INTRA:                  -0.239
REMARK UNBOUND:                -0.263
REMARK SMILES O=c1cc(-c2ccccc2)oc2ccccc12
REMARK SMILES IDX 4 1 3 2 2 3 1 4 17 5 16 6 15 7 14 8 13 9 12 10 11 11 5 12
REMARK SMILES IDX 8 13 7 14 9 15 6 16 10 17
REMARK H PARENT
REMARK Flexibility Score: inf
ROOT
ATOM      1  C   UNL     1     101.762 106.325 112.296  1.00  0.00     0.138 A 
ATOM      2  C   UNL     1     103.139 106.323 112.600  1.00  0.00     0.100 A 
ATOM      3  C   UNL     1     104.052 105.850 111.656  1.00  0.00     0.193 A 
ATOM      4  O   UNL     1     105.285 105.849 111.928  1.00  0.00    -0.289 OA
ATOM      5  C   UNL     1     103.587 105.383 110.419  1.00  0.00     0.065 A 
ATOM      6  C   UNL     1     104.453 104.894 109.424  1.00  0.00     0.016 A 
ATOM      7  C   UNL     1     103.935 104.440 108.206  1.00  0.00     0.001 A 
ATOM      8  C   UNL     1     102.557 104.471 107.974  1.00  0.00     0.004 A 
ATOM      9  C   UNL     1     101.689 104.955 108.957  1.00  0.00     0.048 A 
ATOM     10  C   UNL     1     102.197 105.412 110.178  1.00  0.00     0.138 A 
ATOM     11  O   UNL     1     101.363 105.871 111.107  1.00  0.00    -0.456 OA
ENDROOT
BRANCH   1  12
ATOM     12  C   UNL     1     100.718 106.813 113.250  1.00  0.00     0.017 A 
ATOM     13  C   UNL     1      98.715 107.795 114.979  1.00  0.00     0.000 A 
ATOM     14  C   UNL     1      98.815 108.285 113.678  1.00  0.00     0.001 A 
ATOM     15  C   UNL     1      99.607 106.820 115.425  1.00  0.00     0.001 A 
ATOM     16  C   UNL     1      99.806 107.800 112.819  1.00  0.00     0.012 A 
ATOM     17  C   UNL     1     100.601 106.330 114.574  1.00  0.00     0.012 A 
ENDBRANCH   1  12
TORSDOF 1
ENDMDL
MODEL 5
REMARK VINA RESULT:    -6.531      1.272      5.844
REMARK INTER + INTRA:          -7.176
REMARK INTER:                  -6.914
REMARK INTRA:                  -0.262
REMARK UNBOUND:                -0.263
REMARK SMILES O=c1cc(-c2ccccc2)oc2ccccc12
REMARK SMILES IDX 4 1 3 2 2 3 1 4 17 5 16 6 15 7 14 8 13 9 12 10 11 11 5 12
REMARK SMILES IDX 8 13 7 14 9 15 6 16 10 17
REMARK H PARENT
REMARK Flexibility Score: inf
ROOT
ATOM      1  C   UNL     1     106.026 102.505 111.578  1.00  0.00     0.138 A 
ATOM      2  C   UNL     1     105.617 103.066 112.806  1.00  0.00     0.100 A 
ATOM      3  C   UNL     1     106.042 102.486 114.003  1.00  0.00     0.193 A 
ATOM      4  O   UNL     1     105.676 102.988 115.102  1.00  0.00    -0.289 OA
ATOM      5  C   UNL     1     106.869 101.354 113.968  1.00  0.00     0.065 A 
ATOM      6  C   UNL     1     107.332 100.723 115.136  1.00  0.00     0.016 A 
ATOM      7  C   UNL     1     108.156  99.596 115.044  1.00  0.00     0.001 A 
ATOM      8  C   UNL     1     108.522  99.095 113.791  1.00  0.00     0.004 A 
ATOM      9  C   UNL     1     108.066  99.716 112.625  1.00  0.00     0.048 A 
ATOM     10  C   UNL     1     107.242 100.843 112.706  1.00  0.00     0.138 A 
ATOM     11  O   UNL     1     106.813 101.428 111.591  1.00  0.00    -0.456 OA
ENDROOT
BRANCH   1  12
ATOM     12  C   UNL     1     105.617 103.063 110.252  1.00  0.00     0.017 A 
ATOM     13  C   UNL     1     104.821 104.200 107.795  1.00  0.00     0.000 A 
ATOM     14  C   UNL     1     104.729 104.944 108.970  1.00  0.00     0.001 A 
ATOM     15  C   UNL     1     105.307 102.894 107.835  1.00  0.00     0.001 A 
ATOM     16  C   UNL     1     105.123 104.383 110.189  1.00  0.00     0.012 A 
ATOM     17  C   UNL     1     105.703 102.325 109.049  1.00  0.00     0.012 A 
ENDBRANCH   1  12
TORSDOF 1
ENDMDL
MODEL 6
REMARK VINA RESULT:    -6.507      1.840      2.402
REMARK INTER + INTRA:          -7.151
REMARK INTER:                  -6.911
REMARK INTRA:                  -0.240
REMARK UNBOUND:                -0.263
REMARK SMILES O=c1cc(-c2ccccc2)oc2ccccc12
REMARK SMILES IDX 4 1 3 2 2 3 1 4 17 5 16 6 15 7 14 8 13 9 12 10 11 11 5 12
REMARK SMILES IDX 8 13 7 14 9 15 6 16 10 17
REMARK H PARENT
REMARK Flexibility Score: inf
ROOT
ATOM      1  C   UNL     1     105.616 101.186 112.099  1.00  0.00     0.138 A 
ATOM      2  C   UNL     1     104.231 101.239 112.362  1.00  0.00     0.100 A 
ATOM      3  C   UNL     1     103.367 101.755 111.395  1.00  0.00     0.193 A 
ATOM      4  O   UNL     1     102.127 101.802 111.630  1.00  0.00    -0.289 OA
ATOM      5  C   UNL     1     103.887 102.215 110.177  1.00  0.00     0.065 A 
ATOM      6  C   UNL     1     103.071 102.746 109.162  1.00  0.00     0.016 A 
ATOM      7  C   UNL     1     103.643 103.190 107.965  1.00  0.00     0.001 A 
ATOM      8  C   UNL     1     105.025 103.107 107.774  1.00  0.00     0.004 A 
ATOM      9  C   UNL     1     105.843 102.580 108.777  1.00  0.00     0.048 A 
ATOM     10  C   UNL     1     105.282 102.134 109.978  1.00  0.00     0.138 A 
ATOM     11  O   UNL     1     106.068 101.634 110.927  1.00  0.00    -0.456 OA
ENDROOT
BRANCH   1  12
ATOM     12  C   UNL     1     106.611 100.648 113.079  1.00  0.00     0.017 A 
ATOM     13  C   UNL     1     108.522  99.574 114.856  1.00  0.00     0.000 A 
ATOM     14  C   UNL     1     108.457  99.117 113.542  1.00  0.00     0.001 A 
ATOM     15  C   UNL     1     107.641 100.564 115.292  1.00  0.00     0.001 A 
ATOM     16  C   UNL     1     107.512  99.646 112.659  1.00  0.00     0.012 A 
ATOM     17  C   UNL     1     106.692 101.100 114.416  1.00  0.00     0.012 A 
ENDBRANCH   1  12
TORSDOF 1
ENDMDL
MODEL 7
REMARK VINA RESULT:    -6.414      9.346     11.383
REMARK INTER + INTRA:          -7.052
REMARK INTER:                  -6.794
REMARK INTRA:                  -0.258
REMARK UNBOUND:                -0.263
REMARK SMILES O=c1cc(-c2ccccc2)oc2ccccc12
REMARK SMILES IDX 4 1 3 2 2 3 1 4 17 5 16 6 15 7 14 8 13 9 12 10 11 11 5 12
REMARK SMILES IDX 8 13 7 14 9 15 6 16 10 17
REMARK H PARENT
REMARK Flexibility Score: inf
ROOT
ATOM      1  C   UNL     1      97.653 104.399 116.325  1.00  0.00     0.138 A 
ATOM      2  C   UNL     1      96.341 103.884 116.391  1.00  0.00     0.100 A 
ATOM      3  C   UNL     1      96.124 102.622 116.946  1.00  0.00     0.193 A 
ATOM      4  O   UNL     1      94.950 102.161 117.006  1.00  0.00    -0.289 OA
ATOM      5  C   UNL     1      97.213 101.884 117.431  1.00  0.00     0.065 A 
ATOM      6  C   UNL     1      97.064 100.608 118.003  1.00  0.00     0.016 A 
ATOM      7  C   UNL     1      98.184  99.915 118.472  1.00  0.00     0.001 A 
ATOM      8  C   UNL     1      99.456 100.488 118.374  1.00  0.00     0.004 A 
ATOM      9  C   UNL     1      99.614 101.755 117.807  1.00  0.00     0.048 A 
ATOM     10  C   UNL     1      98.499 102.457 117.335  1.00  0.00     0.138 A 
ATOM     11  O   UNL     1      98.659 103.662 116.798  1.00  0.00    -0.456 OA
ENDROOT
BRANCH   1  12
ATOM     12  C   UNL     1      97.972 105.741 115.745  1.00  0.00     0.017 A 
ATOM     13  C   UNL     1      98.493 108.266 114.597  1.00  0.00     0.000 A 
ATOM     14  C   UNL     1      97.359 107.548 114.219  1.00  0.00     0.001 A 
ATOM     15  C   UNL     1      99.369 107.734 115.543  1.00  0.00     0.001 A 
ATOM     16  C   UNL     1      97.099 106.297 114.786  1.00  0.00     0.012 A 
ATOM     17  C   UNL     1      99.117 106.484 116.115  1.00  0.00     0.012 A 
ENDBRANCH   1  12
TORSDOF 1
ENDMDL
MODEL 8
REMARK VINA RESULT:    -6.292      3.854      5.919
REMARK INTER + INTRA:          -6.923
REMARK INTER:                  -6.668
REMARK INTRA:                  -0.254
REMARK UNBOUND:                -0.263
REMARK SMILES O=c1cc(-c2ccccc2)oc2ccccc12
REMARK SMILES IDX 4 1 3 2 2 3 1 4 17 5 16 6 15 7 14 8 13 9 12 10 11 11 5 12
REMARK SMILES IDX 8 13 7 14 9 15 6 16 10 17
REMARK H PARENT
REMARK Flexibility Score: inf
ROOT
ATOM      1  C   UNL     1     102.044 104.898 111.229  1.00  0.00     0.138 A 
ATOM      2  C   UNL     1     101.469 105.096 109.956  1.00  0.00     0.100 A 
ATOM      3  C   UNL     1     102.101 104.575 108.826  1.00  0.00     0.193 A 
ATOM      4  O   UNL     1     101.586 104.753 107.687  1.00  0.00    -0.289 OA
ATOM      5  C   UNL     1     103.300 103.862 108.972  1.00  0.00     0.065 A 
ATOM      6  C   UNL     1     103.987 103.311 107.875  1.00  0.00     0.016 A 
ATOM      7  C   UNL     1     105.178 102.608 108.076  1.00  0.00     0.001 A 
ATOM      8  C   UNL     1     105.691 102.450 109.368  1.00  0.00     0.004 A 
ATOM      9  C   UNL     1     105.015 102.994 110.463  1.00  0.00     0.048 A 
ATOM     10  C   UNL     1     103.822 103.699 110.272  1.00  0.00     0.138 A 
ATOM     11  O   UNL     1     103.186 104.213 111.321  1.00  0.00    -0.456 OA
ENDROOT
BRANCH   1  12
ATOM     12  C   UNL     1     101.433 105.422 112.489  1.00  0.00     0.017 A 
ATOM     13  C   UNL     1     100.316 106.332 114.916  1.00  0.00     0.000 A 
ATOM     14  C   UNL     1     101.039 105.141 114.884  1.00  0.00     0.001 A 
ATOM     15  C   UNL     1     100.146 107.073 113.747  1.00  0.00     0.001 A 
ATOM     16  C   UNL     1     101.593 104.687 113.684  1.00  0.00     0.012 A 
ATOM     17  C   UNL     1     100.697 106.628 112.542  1.00  0.00     0.012 A 
ENDBRANCH   1  12
TORSDOF 1
ENDMDL
MODEL 9
REMARK VINA RESULT:    -6.271      8.076      8.825
REMARK INTER + INTRA:          -6.901
REMARK INTER:                  -6.640
REMARK INTRA:                  -0.261
REMARK UNBOUND:                -0.263
REMARK SMILES O=c1cc(-c2ccccc2)oc2ccccc12
REMARK SMILES IDX 4 1 3 2 2 3 1 4 17 5 16 6 15 7 14 8 13 9 12 10 11 11 5 12
REMARK SMILES IDX 8 13 7 14 9 15 6 16 10 17
REMARK H PARENT
REMARK Flexibility Score: inf
ROOT
ATOM      1  C   UNL     1     113.088 102.104 107.246  1.00  0.00     0.138 A 
ATOM      2  C   UNL     1     112.982 102.678 105.962  1.00  0.00     0.100 A 
ATOM      3  C   UNL     1     113.123 104.058 105.811  1.00  0.00     0.193 A 
ATOM      4  O   UNL     1     113.029 104.572 104.662  1.00  0.00    -0.289 OA
ATOM      5  C   UNL     1     113.367 104.855 106.939  1.00  0.00     0.065 A 
ATOM      6  C   UNL     1     113.520 106.251 106.857  1.00  0.00     0.016 A 
ATOM      7  C   UNL     1     113.763 106.998 108.014  1.00  0.00     0.001 A 
ATOM      8  C   UNL     1     113.855 106.361 109.255  1.00  0.00     0.004 A 
ATOM      9  C   UNL     1     113.705 104.975 109.346  1.00  0.00     0.048 A 
ATOM     10  C   UNL     1     113.462 104.218 108.194  1.00  0.00     0.138 A 
ATOM     11  O   UNL     1     113.321 102.899 108.291  1.00  0.00    -0.456 OA
ENDROOT
BRANCH   1  12
ATOM     12  C   UNL     1     112.949 100.635 107.495  1.00  0.00     0.017 A 
ATOM     13  C   UNL     1     112.667  97.884 108.059  1.00  0.00     0.000 A 
ATOM     14  C   UNL     1     112.494  98.826 109.072  1.00  0.00     0.001 A 
ATOM     15  C   UNL     1     112.981  98.304 106.766  1.00  0.00     0.001 A 
ATOM     16  C   UNL     1     112.633 100.189 108.796  1.00  0.00     0.012 A 
ATOM     17  C   UNL     1     113.122  99.665 106.480  1.00  0.00     0.012 A 
ENDBRANCH   1  12
TORSDOF 1
ENDMDL
