MODEL 1
REMARK VINA RESULT:    -5.465      0.000      0.000
REMARK INTER + INTRA:          -5.465
REMARK INTER:                  -5.465
REMARK INTRA:                   0.000
REMARK UNBOUND:                 0.000
REMARK SMILES O=c1ccc2ccccc2o1
REMARK SMILES IDX 7 1 8 2 9 3 10 4 5 5 6 6 4 7 3 8 2 9 1 10 11 11
REMARK H PARENT
REMARK Flexibility Score: inf
ROOT
ATOM      1  C   UNL     1     204.833 211.228 279.519  1.00  0.00     0.001 A 
ATOM      2  C   UNL     1     204.867 210.863 278.168  1.00  0.00     0.004 A 
ATOM      3  C   UNL     1     204.236 209.692 277.739  1.00  0.00     0.048 A 
ATOM      4  C   UNL     1     203.567 208.878 278.661  1.00  0.00     0.138 A 
ATOM      5  C   UNL     1     203.532 209.246 280.025  1.00  0.00     0.018 A 
ATOM      6  C   UNL     1     204.167 210.422 280.449  1.00  0.00     0.012 A 
ATOM      7  C   UNL     1     202.856 208.415 280.922  1.00  0.00     0.019 A 
ATOM      8  C   UNL     1     202.241 207.255 280.451  1.00  0.00     0.094 A 
ATOM      9  C   UNL     1     202.317 206.953 279.086  1.00  0.00     0.336 A 
ATOM     10  O   UNL     1     201.768 205.912 278.641  1.00  0.00    -0.246 OA
ATOM     11  O   UNL     1     202.967 207.763 278.253  1.00  0.00    -0.423 OA
ENDROOT
TORSDOF 0
ENDMDL
MODEL 2
REMARK VINA RESULT:    -5.438      1.230      2.149
REMARK INTER + INTRA:          -5.438
REMARK INTER:                  -5.438
REMARK INTRA:                   0.000
REMARK UNBOUND:                 0.000
REMARK SMILES O=c1ccc2ccccc2o1
REMARK SMILES IDX 7 1 8 2 9 3 10 4 5 5 6 6 4 7 3 8 2 9 1 10 11 11
REMARK H PARENT
REMARK Flexibility Score: inf
ROOT
ATOM      1  C   UNL     1     204.508 210.833 278.597  1.00  0.00     0.001 A 
ATOM      2  C   UNL     1     204.531 210.887 279.996  1.00  0.00     0.004 A 
ATOM      3  C   UNL     1     204.033 209.820 280.749  1.00  0.00     0.048 A 
ATOM      4  C   UNL     1     203.510 208.692 280.107  1.00  0.00     0.138 A 
ATOM      5  C   UNL     1     203.486 208.637 278.695  1.00  0.00     0.018 A 
ATOM      6  C   UNL     1     203.987 209.711 277.944  1.00  0.00     0.012 A 
ATOM      7  C   UNL     1     202.958 207.498 278.081  1.00  0.00     0.019 A 
ATOM      8  C   UNL     1     202.472 206.457 278.872  1.00  0.00     0.094 A 
ATOM      9  C   UNL     1     202.527 206.581 280.266  1.00  0.00     0.336 A 
ATOM     10  O   UNL     1     202.094 205.652 280.996  1.00  0.00    -0.246 OA
ATOM     11  O   UNL     1     203.036 207.677 280.824  1.00  0.00    -0.423 OA
ENDROOT
TORSDOF 0
ENDMDL
MODEL 3
REMARK VINA RESULT:    -5.423      1.779      4.392
REMARK INTER + INTRA:          -5.423
REMARK INTER:                  -5.423
REMARK INTRA:                   0.000
REMARK UNBOUND:                 0.000
REMARK SMILES O=c1ccc2ccccc2o1
REMARK SMILES IDX 7 1 8 2 9 3 10 4 5 5 6 6 4 7 3 8 2 9 1 10 11 11
REMARK H PARENT
REMARK Flexibility Score: inf
ROOT
ATOM      1  C   UNL     1     202.036 205.631 279.381  1.00  0.00     0.001 A 
ATOM      2  C   UNL     1     201.833 206.069 280.695  1.00  0.00     0.004 A 
ATOM      3  C   UNL     1     202.302 207.323 281.098  1.00  0.00     0.048 A 
ATOM      4  C   UNL     1     202.977 208.146 280.189  1.00  0.00     0.138 A 
ATOM      5  C   UNL     1     203.182 207.703 278.862  1.00  0.00     0.018 A 
ATOM      6  C   UNL     1     202.709 206.445 278.463  1.00  0.00     0.012 A 
ATOM      7  C   UNL     1     203.858 208.547 277.976  1.00  0.00     0.019 A 
ATOM      8  C   UNL     1     204.308 209.788 278.422  1.00  0.00     0.094 A 
ATOM      9  C   UNL     1     204.070 210.160 279.750  1.00  0.00     0.336 A 
ATOM     10  O   UNL     1     204.468 211.277 280.171  1.00  0.00    -0.246 OA
ATOM     11  O   UNL     1     203.422 209.339 280.573  1.00  0.00    -0.423 OA
ENDROOT
TORSDOF 0
ENDMDL
MODEL 4
REMARK VINA RESULT:    -5.413     10.348     10.824
REMARK INTER + INTRA:          -5.413
REMARK INTER:                  -5.413
REMARK INTRA:                   0.000
REMARK UNBOUND:                 0.000
REMARK SMILES O=c1ccc2ccccc2o1
REMARK SMILES IDX 7 1 8 2 9 3 10 4 5 5 6 6 4 7 3 8 2 9 1 10 11 11
REMARK H PARENT
REMARK Flexibility Score: inf
ROOT
ATOM      1  C   UNL     1     213.459 202.543 284.524  1.00  0.00     0.001 A 
ATOM      2  C   UNL     1     212.733 202.232 283.368  1.00  0.00     0.004 A 
ATOM      3  C   UNL     1     211.642 203.020 282.990  1.00  0.00     0.048 A 
ATOM      4  C   UNL     1     211.272 204.124 283.767  1.00  0.00     0.138 A 
ATOM      5  C   UNL     1     212.005 204.438 284.933  1.00  0.00     0.018 A 
ATOM      6  C   UNL     1     213.099 203.644 285.307  1.00  0.00     0.012 A 
ATOM      7  C   UNL     1     211.613 205.547 285.689  1.00  0.00     0.019 A 
ATOM      8  C   UNL     1     210.518 206.305 285.274  1.00  0.00     0.094 A 
ATOM      9  C   UNL     1     209.838 205.934 284.108  1.00  0.00     0.336 A 
ATOM     10  O   UNL     1     208.848 206.606 283.718  1.00  0.00    -0.246 OA
ATOM     11  O   UNL     1     210.233 204.874 283.407  1.00  0.00    -0.423 OA
ENDROOT
TORSDOF 0
ENDMDL
MODEL 5
REMARK VINA RESULT:    -5.386      1.660      3.856
REMARK INTER + INTRA:          -5.386
REMARK INTER:                  -5.386
REMARK INTRA:                   0.000
REMARK UNBOUND:                 0.000
REMARK SMILES O=c1ccc2ccccc2o1
REMARK SMILES IDX 7 1 8 2 9 3 10 4 5 5 6 6 4 7 3 8 2 9 1 10 11 11
REMARK H PARENT
REMARK Flexibility Score: inf
ROOT
ATOM      1  C   UNL     1     202.382 207.165 280.320  1.00  0.00     0.001 A 
ATOM      2  C   UNL     1     202.580 206.792 278.985  1.00  0.00     0.004 A 
ATOM      3  C   UNL     1     203.293 207.627 278.120  1.00  0.00     0.048 A 
ATOM      4  C   UNL     1     203.812 208.840 278.585  1.00  0.00     0.138 A 
ATOM      5  C   UNL     1     203.613 209.217 279.933  1.00  0.00     0.018 A 
ATOM      6  C   UNL     1     202.897 208.375 280.796  1.00  0.00     0.012 A 
ATOM      7  C   UNL     1     204.144 210.434 280.370  1.00  0.00     0.019 A 
ATOM      8  C   UNL     1     204.848 211.235 279.472  1.00  0.00     0.094 A 
ATOM      9  C   UNL     1     205.006 210.799 278.151  1.00  0.00     0.336 A 
ATOM     10  O   UNL     1     205.638 211.507 277.327  1.00  0.00    -0.246 OA
ATOM     11  O   UNL     1     204.491 209.634 277.762  1.00  0.00    -0.423 OA
ENDROOT
TORSDOF 0
ENDMDL
MODEL 6
REMARK VINA RESULT:    -5.346      2.158      4.102
REMARK INTER + INTRA:          -5.346
REMARK INTER:                  -5.346
REMARK INTRA:                   0.000
REMARK UNBOUND:                 0.000
REMARK SMILES O=c1ccc2ccccc2o1
REMARK SMILES IDX 7 1 8 2 9 3 10 4 5 5 6 6 4 7 3 8 2 9 1 10 11 11
REMARK H PARENT
REMARK Flexibility Score: inf
ROOT
ATOM      1  C   UNL     1     201.882 206.224 280.872  1.00  0.00     0.001 A 
ATOM      2  C   UNL     1     201.953 207.608 281.071  1.00  0.00     0.004 A 
ATOM      3  C   UNL     1     202.729 208.401 280.221  1.00  0.00     0.048 A 
ATOM      4  C   UNL     1     203.439 207.814 279.167  1.00  0.00     0.138 A 
ATOM      5  C   UNL     1     203.368 206.417 278.966  1.00  0.00     0.018 A 
ATOM      6  C   UNL     1     202.587 205.626 279.822  1.00  0.00     0.012 A 
ATOM      7  C   UNL     1     204.086 205.859 277.905  1.00  0.00     0.019 A 
ATOM      8  C   UNL     1     204.848 206.688 277.083  1.00  0.00     0.094 A 
ATOM      9  C   UNL     1     204.873 208.064 277.342  1.00  0.00     0.336 A 
ATOM     10  O   UNL     1     205.553 208.829 276.611  1.00  0.00    -0.246 OA
ATOM     11  O   UNL     1     204.178 208.570 278.358  1.00  0.00    -0.423 OA
ENDROOT
TORSDOF 0
ENDMDL
MODEL 7
REMARK VINA RESULT:    -5.274      3.401      4.710
REMARK INTER + INTRA:          -5.274
REMARK INTER:                  -5.274
REMARK INTRA:                   0.000
REMARK UNBOUND:                 0.000
REMARK SMILES O=c1ccc2ccccc2o1
REMARK SMILES IDX 7 1 8 2 9 3 10 4 5 5 6 6 4 7 3 8 2 9 1 10 11 11
REMARK H PARENT
REMARK Flexibility Score: inf
ROOT
ATOM      1  C   UNL     1     203.806 205.281 274.583  1.00  0.00     0.001 A 
ATOM      2  C   UNL     1     202.465 205.680 274.544  1.00  0.00     0.004 A 
ATOM      3  C   UNL     1     201.803 206.035 275.723  1.00  0.00     0.048 A 
ATOM      4  C   UNL     1     202.479 205.993 276.947  1.00  0.00     0.138 A 
ATOM      5  C   UNL     1     203.833 205.591 276.987  1.00  0.00     0.018 A 
ATOM      6  C   UNL     1     204.493 205.236 275.801  1.00  0.00     0.012 A 
ATOM      7  C   UNL     1     204.483 205.560 278.224  1.00  0.00     0.019 A 
ATOM      8  C   UNL     1     203.783 205.922 279.374  1.00  0.00     0.094 A 
ATOM      9  C   UNL     1     202.443 206.309 279.260  1.00  0.00     0.336 A 
ATOM     10  O   UNL     1     201.794 206.640 280.286  1.00  0.00    -0.246 OA
ATOM     11  O   UNL     1     201.848 206.331 278.069  1.00  0.00    -0.423 OA
ENDROOT
TORSDOF 0
ENDMDL
MODEL 8
REMARK VINA RESULT:    -5.268      1.887      2.164
REMARK INTER + INTRA:          -5.268
REMARK INTER:                  -5.268
REMARK INTRA:                   0.000
REMARK UNBOUND:                 0.000
REMARK SMILES O=c1ccc2ccccc2o1
REMARK SMILES IDX 7 1 8 2 9 3 10 4 5 5 6 6 4 7 3 8 2 9 1 10 11 11
REMARK H PARENT
REMARK Flexibility Score: inf
ROOT
ATOM      1  C   UNL     1     201.527 210.404 279.247  1.00  0.00     0.001 A 
ATOM      2  C   UNL     1     202.273 210.496 278.065  1.00  0.00     0.004 A 
ATOM      3  C   UNL     1     203.099 209.439 277.671  1.00  0.00     0.048 A 
ATOM      4  C   UNL     1     203.184 208.285 278.457  1.00  0.00     0.138 A 
ATOM      5  C   UNL     1     202.431 208.191 279.649  1.00  0.00     0.018 A 
ATOM      6  C   UNL     1     201.604 209.255 280.040  1.00  0.00     0.012 A 
ATOM      7  C   UNL     1     202.535 207.025 280.414  1.00  0.00     0.019 A 
ATOM      8  C   UNL     1     203.372 205.997 279.982  1.00  0.00     0.094 A 
ATOM      9  C   UNL     1     204.088 206.159 278.791  1.00  0.00     0.336 A 
ATOM     10  O   UNL     1     204.848 205.242 278.384  1.00  0.00    -0.246 OA
ATOM     11  O   UNL     1     203.970 207.279 278.081  1.00  0.00    -0.423 OA
ENDROOT
TORSDOF 0
ENDMDL
MODEL 9
REMARK VINA RESULT:    -5.207      1.877      3.820
REMARK INTER + INTRA:          -5.207
REMARK INTER:                  -5.207
REMARK INTRA:                   0.000
REMARK UNBOUND:                 0.000
REMARK SMILES O=c1ccc2ccccc2o1
REMARK SMILES IDX 7 1 8 2 9 3 10 4 5 5 6 6 4 7 3 8 2 9 1 10 11 11
REMARK H PARENT
REMARK Flexibility Score: inf
ROOT
ATOM      1  C   UNL     1     202.016 207.565 281.093  1.00  0.00     0.001 A 
ATOM      2  C   UNL     1     201.877 206.198 280.826  1.00  0.00     0.004 A 
ATOM      3  C   UNL     1     202.523 205.627 279.725  1.00  0.00     0.048 A 
ATOM      4  C   UNL     1     203.312 206.421 278.886  1.00  0.00     0.138 A 
ATOM      5  C   UNL     1     203.453 207.802 279.155  1.00  0.00     0.018 A 
ATOM      6  C   UNL     1     202.803 208.369 280.261  1.00  0.00     0.012 A 
ATOM      7  C   UNL     1     204.249 208.570 278.300  1.00  0.00     0.019 A 
ATOM      8  C   UNL     1     204.874 207.959 277.215  1.00  0.00     0.094 A 
ATOM      9  C   UNL     1     204.690 206.587 277.008  1.00  0.00     0.336 A 
ATOM     10  O   UNL     1     205.246 206.017 276.034  1.00  0.00    -0.246 OA
ATOM     11  O   UNL     1     203.928 205.878 277.839  1.00  0.00    -0.423 OA
ENDROOT
TORSDOF 0
ENDMDL
