MODEL 1
REMARK VINA RESULT:    -5.308      0.000      0.000
REMARK INTER + INTRA:          -6.479
REMARK INTER:                  -6.084
REMARK INTRA:                  -0.395
REMARK UNBOUND:                -0.395
REMARK SMILES C=C(C)[C@H]1CC[C@@]2(C(=O)[O-])CC[C@@]3(C)[C@@H](CC[C@@H]4[C@@]5(C)CC[C@@H](O)C(C)(C)[C@@H]5CC[C@]43C)[C@H]12
REMARK SMILES IDX 7 1 6 2 33 3 11 4 5 5 15 6 4 7 12 8 16 9 13 10 17 11 31 12
REMARK SMILES IDX 14 13 18 14 30 15 32 16 19 17 29 18 21 19 20 20 28 21 22 22
REMARK SMILES IDX 25 23 23 24 26 25 27 26 8 27 9 28 10 29 2 30 3 31 1 32 24 33
REMARK H PARENT 24 34
REMARK Flexibility Score: inf
ROOT
ATOM      1  C   UNL     1     118.595  10.096 -37.325  1.00  0.00     0.014 C 
ATOM      2  C   UNL     1     120.117  10.208 -37.226  1.00  0.00     0.014 C 
ATOM      3  C   UNL     1     118.356  10.560 -38.773  1.00  0.00     0.012 C 
ATOM      4  C   UNL     1     117.798  11.042 -36.399  1.00  0.00     0.014 C 
ATOM      5  C   UNL     1     120.628   9.696 -38.585  1.00  0.00     0.009 C 
ATOM      6  C   UNL     1     116.863  10.418 -39.177  1.00  0.00     0.000 C 
ATOM      7  C   UNL     1     119.460   9.857 -39.591  1.00  0.00     0.018 C 
ATOM      8  C   UNL     1     116.280  10.945 -36.717  1.00  0.00     0.008 C 
ATOM      9  C   UNL     1     116.610  10.775 -40.670  1.00  0.00     0.005 C 
ATOM     10  C   UNL     1     115.895  11.234 -38.222  1.00  0.00    -0.024 C 
ATOM     11  C   UNL     1     115.107  10.922 -41.026  1.00  0.00     0.005 C 
ATOM     12  C   UNL     1     114.327  10.843 -38.561  1.00  0.00    -0.024 C 
ATOM     13  C   UNL     1     116.166  12.775 -38.433  1.00  0.00     0.012 C 
ATOM     14  C   UNL     1     114.226  10.170 -40.001  1.00  0.00     0.002 C 
ATOM     15  C   UNL     1     113.729   9.781 -37.580  1.00  0.00     0.008 C 
ATOM     16  C   UNL     1     113.439  12.123 -38.423  1.00  0.00     0.012 C 
ATOM     17  C   UNL     1     112.800   9.679 -40.496  1.00  0.00    -0.026 C 
ATOM     18  C   UNL     1     112.307   9.295 -37.955  1.00  0.00     0.005 C 
ATOM     19  C   UNL     1     112.979   8.840 -41.818  1.00  0.00     0.010 C 
ATOM     20  C   UNL     1     111.869  10.890 -40.810  1.00  0.00     0.012 C 
ATOM     21  C   UNL     1     112.230   8.706 -39.387  1.00  0.00     0.003 C 
ATOM     22  C   UNL     1     111.977   7.684 -42.021  1.00  0.00     0.033 C 
ATOM     23  C   UNL     1     110.852   7.988 -39.733  1.00  0.00    -0.006 C 
ATOM     24  C   UNL     1     110.647   7.891 -41.284  1.00  0.00     0.120 C 
ATOM     25  C   UNL     1     109.622   8.716 -39.131  1.00  0.00     0.014 C 
ATOM     26  C   UNL     1     110.871   6.559 -39.115  1.00  0.00     0.014 C 
ENDROOT
BRANCH   1  27
ATOM     27  C   UNL     1     118.223   8.639 -37.015  1.00  0.00     0.048 C 
ATOM     28  O   UNL     1     118.356   8.198 -35.841  1.00  0.00    -0.550 OA
ATOM     29  O   UNL     1     117.840   7.749 -38.013  1.00  0.00    -0.550 OA
ENDBRANCH   1  27
BRANCH   7  30
ATOM     30  C   UNL     1     119.878  10.617 -40.849  1.00  0.00    -0.077 C 
ATOM     31  C   UNL     1     120.002  12.119 -40.818  1.00  0.00     0.039 C 
ATOM     32  C   UNL     1     120.111   9.982 -42.011  1.00  0.00     0.008 C 
ENDBRANCH   7  30
BRANCH  24  33
ATOM     33  O   UNL     1     109.762   6.844 -41.608  1.00  0.00    -0.393 OA
ATOM     34  H   UNL     1     109.057   7.225 -42.193  1.00  0.00     0.210 HD
ENDBRANCH  24  33
TORSDOF 3
ENDMDL
MODEL 2
REMARK VINA RESULT:    -4.734      8.977     11.396
REMARK INTER + INTRA:          -5.821
REMARK INTER:                  -5.386
REMARK INTRA:                  -0.435
REMARK UNBOUND:                -0.395
REMARK SMILES C=C(C)[C@H]1CC[C@@]2(C(=O)[O-])CC[C@@]3(C)[C@@H](CC[C@@H]4[C@@]5(C)CC[C@@H](O)C(C)(C)[C@@H]5CC[C@]43C)[C@H]12
REMARK SMILES IDX 7 1 6 2 33 3 11 4 5 5 15 6 4 7 12 8 16 9 13 10 17 11 31 12
REMARK SMILES IDX 14 13 18 14 30 15 32 16 19 17 29 18 21 19 20 20 28 21 22 22
REMARK SMILES IDX 25 23 23 24 26 25 27 26 8 27 9 28 10 29 2 30 3 31 1 32 24 33
REMARK H PARENT 24 34
REMARK Flexibility Score: inf
ROOT
ATOM      1  C   UNL     1     116.510   7.765 -31.780  1.00  0.00     0.014 C 
ATOM      2  C   UNL     1     117.015   7.228 -33.120  1.00  0.00     0.014 C 
ATOM      3  C   UNL     1     114.995   7.838 -32.041  1.00  0.00     0.012 C 
ATOM      4  C   UNL     1     116.985   9.190 -31.415  1.00  0.00     0.014 C 
ATOM      5  C   UNL     1     115.972   6.170 -33.526  1.00  0.00     0.009 C 
ATOM      6  C   UNL     1     114.216   8.248 -30.761  1.00  0.00     0.000 C 
ATOM      7  C   UNL     1     114.664   6.519 -32.771  1.00  0.00     0.018 C 
ATOM      8  C   UNL     1     116.273   9.673 -30.121  1.00  0.00     0.008 C 
ATOM      9  C   UNL     1     112.674   8.222 -30.964  1.00  0.00     0.005 C 
ATOM     10  C   UNL     1     114.694   9.644 -30.180  1.00  0.00    -0.024 C 
ATOM     11  C   UNL     1     111.886   8.896 -29.810  1.00  0.00     0.005 C 
ATOM     12  C   UNL     1     114.001   9.893 -28.703  1.00  0.00    -0.024 C 
ATOM     13  C   UNL     1     114.294  10.776 -31.206  1.00  0.00     0.012 C 
ATOM     14  C   UNL     1     112.737   8.941 -28.519  1.00  0.00     0.002 C 
ATOM     15  C   UNL     1     114.947   9.538 -27.508  1.00  0.00     0.008 C 
ATOM     16  C   UNL     1     113.648  11.409 -28.552  1.00  0.00     0.012 C 
ATOM     17  C   UNL     1     111.955   8.998 -27.139  1.00  0.00    -0.026 C 
ATOM     18  C   UNL     1     114.278   9.633 -26.115  1.00  0.00     0.005 C 
ATOM     19  C   UNL     1     110.912   7.817 -27.094  1.00  0.00     0.010 C 
ATOM     20  C   UNL     1     111.177  10.341 -26.991  1.00  0.00     0.012 C 
ATOM     21  C   UNL     1     113.013   8.744 -25.992  1.00  0.00     0.003 C 
ATOM     22  C   UNL     1     110.646   7.209 -25.701  1.00  0.00     0.033 C 
ATOM     23  C   UNL     1     112.427   8.629 -24.517  1.00  0.00    -0.006 C 
ATOM     24  C   UNL     1     110.925   8.180 -24.546  1.00  0.00     0.120 C 
ATOM     25  C   UNL     1     112.513   9.961 -23.726  1.00  0.00     0.014 C 
ATOM     26  C   UNL     1     113.272   7.587 -23.727  1.00  0.00     0.014 C 
ENDROOT
BRANCH   1  27
ATOM     27  C   UNL     1     116.959   6.778 -30.694  1.00  0.00     0.048 C 
ATOM     28  O   UNL     1     118.190   6.563 -30.517  1.00  0.00    -0.550 OA
ATOM     29  O   UNL     1     116.048   6.026 -29.961  1.00  0.00    -0.550 OA
ENDBRANCH   1  27
BRANCH   7  30
ATOM     30  C   UNL     1     113.462   6.614 -33.708  1.00  0.00    -0.077 C 
ATOM     31  C   UNL     1     113.323   7.789 -34.643  1.00  0.00     0.039 C 
ATOM     32  C   UNL     1     112.489   5.685 -33.703  1.00  0.00     0.008 C 
ENDBRANCH   7  30
BRANCH  24  33
ATOM     33  O   UNL     1     110.558   7.578 -23.327  1.00  0.00    -0.393 OA
ATOM     34  H   UNL     1     109.613   7.824 -23.150  1.00  0.00     0.210 HD
ENDBRANCH  24  33
TORSDOF 3
ENDMDL
MODEL 3
REMARK VINA RESULT:    -4.704      2.203      8.163
REMARK INTER + INTRA:          -5.787
REMARK INTER:                  -5.345
REMARK INTRA:                  -0.441
REMARK UNBOUND:                -0.395
REMARK SMILES C=C(C)[C@H]1CC[C@@]2(C(=O)[O-])CC[C@@]3(C)[C@@H](CC[C@@H]4[C@@]5(C)CC[C@@H](O)C(C)(C)[C@@H]5CC[C@]43C)[C@H]12
REMARK SMILES IDX 7 1 6 2 33 3 11 4 5 5 15 6 4 7 12 8 16 9 13 10 17 11 31 12
REMARK SMILES IDX 14 13 18 14 30 15 32 16 19 17 29 18 21 19 20 20 28 21 22 22
REMARK SMILES IDX 25 23 23 24 26 25 27 26 8 27 9 28 10 29 2 30 3 31 1 32 24 33
REMARK H PARENT 24 34
REMARK Flexibility Score: inf
ROOT
ATOM      1  C   UNL     1     109.589   6.607 -40.190  1.00  0.00     0.014 C 
ATOM      2  C   UNL     1     108.739   5.378 -40.520  1.00  0.00     0.014 C 
ATOM      3  C   UNL     1     110.295   6.142 -38.904  1.00  0.00     0.012 C 
ATOM      4  C   UNL     1     108.797   7.889 -39.846  1.00  0.00     0.014 C 
ATOM      5  C   UNL     1     109.656   4.182 -40.204  1.00  0.00     0.009 C 
ATOM      6  C   UNL     1     111.337   7.188 -38.418  1.00  0.00     0.000 C 
ATOM      7  C   UNL     1     110.722   4.690 -39.198  1.00  0.00     0.018 C 
ATOM      8  C   UNL     1     109.770   9.005 -39.374  1.00  0.00     0.008 C 
ATOM      9  C   UNL     1     112.146   6.698 -37.182  1.00  0.00     0.005 C 
ATOM     10  C   UNL     1     110.691   8.612 -38.152  1.00  0.00    -0.024 C 
ATOM     11  C   UNL     1     112.980   7.817 -36.505  1.00  0.00     0.005 C 
ATOM     12  C   UNL     1     111.886   9.717 -37.879  1.00  0.00    -0.024 C 
ATOM     13  C   UNL     1     109.716   8.495 -36.915  1.00  0.00     0.012 C 
ATOM     14  C   UNL     1     113.244   8.978 -37.492  1.00  0.00     0.002 C 
ATOM     15  C   UNL     1     112.240  10.570 -39.141  1.00  0.00     0.008 C 
ATOM     16  C   UNL     1     111.410  10.725 -36.782  1.00  0.00     0.012 C 
ATOM     17  C   UNL     1     114.531   9.870 -37.233  1.00  0.00    -0.026 C 
ATOM     18  C   UNL     1     113.448  11.520 -38.952  1.00  0.00     0.005 C 
ATOM     19  C   UNL     1     115.789   8.928 -37.111  1.00  0.00     0.010 C 
ATOM     20  C   UNL     1     114.395  10.676 -35.906  1.00  0.00     0.012 C 
ATOM     21  C   UNL     1     114.737  10.776 -38.512  1.00  0.00     0.003 C 
ATOM     22  C   UNL     1     117.118   9.512 -37.634  1.00  0.00     0.033 C 
ATOM     23  C   UNL     1     116.053  11.670 -38.528  1.00  0.00    -0.006 C 
ATOM     24  C   UNL     1     117.162  11.045 -37.613  1.00  0.00     0.120 C 
ATOM     25  C   UNL     1     115.803  13.125 -38.053  1.00  0.00     0.014 C 
ATOM     26  C   UNL     1     116.571  11.762 -39.994  1.00  0.00     0.014 C 
ENDROOT
BRANCH   1  27
ATOM     27  C   UNL     1     110.498   6.871 -41.399  1.00  0.00     0.048 C 
ATOM     28  O   UNL     1     109.983   7.111 -42.525  1.00  0.00    -0.550 OA
ATOM     29  O   UNL     1     111.881   6.751 -41.320  1.00  0.00    -0.550 OA
ENDBRANCH   1  27
BRANCH   7  30
ATOM     30  C   UNL     1     110.814   3.806 -37.956  1.00  0.00    -0.077 C 
ATOM     31  C   UNL     1     109.732   3.862 -36.908  1.00  0.00     0.039 C 
ATOM     32  C   UNL     1     111.863   2.991 -37.747  1.00  0.00     0.008 C 
ENDBRANCH   7  30
BRANCH  24  33
ATOM     33  O   UNL     1     118.442  11.484 -38.007  1.00  0.00    -0.393 OA
ATOM     34  H   UNL     1     118.628  11.086 -38.896  1.00  0.00     0.210 HD
ENDBRANCH  24  33
TORSDOF 3
ENDMDL
MODEL 4
REMARK VINA RESULT:    -4.425      4.897      7.762
REMARK INTER + INTRA:          -5.466
REMARK INTER:                  -5.020
REMARK INTRA:                  -0.447
REMARK UNBOUND:                -0.395
REMARK SMILES C=C(C)[C@H]1CC[C@@]2(C(=O)[O-])CC[C@@]3(C)[C@@H](CC[C@@H]4[C@@]5(C)CC[C@@H](O)C(C)(C)[C@@H]5CC[C@]43C)[C@H]12
REMARK SMILES IDX 7 1 6 2 33 3 11 4 5 5 15 6 4 7 12 8 16 9 13 10 17 11 31 12
REMARK SMILES IDX 14 13 18 14 30 15 32 16 19 17 29 18 21 19 20 20 28 21 22 22
REMARK SMILES IDX 25 23 23 24 26 25 27 26 8 27 9 28 10 29 2 30 3 31 1 32 24 33
REMARK H PARENT 24 34
REMARK Flexibility Score: inf
ROOT
ATOM      1  C   UNL     1     111.957   3.685 -34.219  1.00  0.00     0.014 C 
ATOM      2  C   UNL     1     112.473   3.235 -32.851  1.00  0.00     0.014 C 
ATOM      3  C   UNL     1     111.842   5.205 -34.008  1.00  0.00     0.012 C 
ATOM      4  C   UNL     1     110.555   3.163 -34.605  1.00  0.00     0.014 C 
ATOM      5  C   UNL     1     113.495   4.317 -32.453  1.00  0.00     0.009 C 
ATOM      6  C   UNL     1     111.445   5.934 -35.323  1.00  0.00     0.000 C 
ATOM      7  C   UNL     1     113.133   5.591 -33.257  1.00  0.00     0.018 C 
ATOM      8  C   UNL     1     110.087   3.823 -35.932  1.00  0.00     0.008 C 
ATOM      9  C   UNL     1     111.428   7.481 -35.168  1.00  0.00     0.005 C 
ATOM     10  C   UNL     1     110.076   5.403 -35.922  1.00  0.00    -0.024 C 
ATOM     11  C   UNL     1     110.765   8.216 -36.363  1.00  0.00     0.005 C 
ATOM     12  C   UNL     1     109.848   6.043 -37.426  1.00  0.00    -0.024 C 
ATOM     13  C   UNL     1     108.909   5.806 -34.937  1.00  0.00     0.012 C 
ATOM     14  C   UNL     1     110.773   7.324 -37.626  1.00  0.00     0.002 C 
ATOM     15  C   UNL     1     110.256   5.070 -38.581  1.00  0.00     0.008 C 
ATOM     16  C   UNL     1     108.328   6.354 -37.625  1.00  0.00     0.012 C 
ATOM     17  C   UNL     1     110.733   8.061 -39.031  1.00  0.00    -0.026 C 
ATOM     18  C   UNL     1     110.180   5.693 -39.997  1.00  0.00     0.005 C 
ATOM     19  C   UNL     1     111.888   9.132 -39.081  1.00  0.00     0.010 C 
ATOM     20  C   UNL     1     109.375   8.801 -39.237  1.00  0.00     0.012 C 
ATOM     21  C   UNL     1     111.041   6.975 -40.138  1.00  0.00     0.003 C 
ATOM     22  C   UNL     1     112.525   9.370 -40.466  1.00  0.00     0.033 C 
ATOM     23  C   UNL     1     111.179   7.518 -41.628  1.00  0.00    -0.006 C 
ATOM     24  C   UNL     1     111.590   9.031 -41.635  1.00  0.00     0.120 C 
ATOM     25  C   UNL     1     109.870   7.374 -42.448  1.00  0.00     0.014 C 
ATOM     26  C   UNL     1     112.261   6.675 -42.364  1.00  0.00     0.014 C 
ENDROOT
BRANCH   1  27
ATOM     27  C   UNL     1     112.983   3.227 -35.267  1.00  0.00     0.048 C 
ATOM     28  O   UNL     1     113.417   2.043 -35.237  1.00  0.00    -0.550 OA
ATOM     29  O   UNL     1     113.533   4.107 -36.191  1.00  0.00    -0.550 OA
ENDBRANCH   1  27
BRANCH   7  30
ATOM     30  C   UNL     1     112.985   6.820 -32.361  1.00  0.00    -0.077 C 
ATOM     31  C   UNL     1     111.768   6.974 -31.485  1.00  0.00     0.039 C 
ATOM     32  C   UNL     1     113.905   7.801 -32.353  1.00  0.00     0.008 C 
ENDBRANCH   7  30
BRANCH  24  33
ATOM     33  O   UNL     1     112.214   9.374 -42.850  1.00  0.00    -0.393 OA
ATOM     34  H   UNL     1     112.894   8.677 -43.040  1.00  0.00     0.210 HD
ENDBRANCH  24  33
TORSDOF 3
ENDMDL
MODEL 5
REMARK VINA RESULT:    -4.395      4.411      6.979
REMARK INTER + INTRA:          -5.433
REMARK INTER:                  -4.990
REMARK INTRA:                  -0.443
REMARK UNBOUND:                -0.395
REMARK SMILES C=C(C)[C@H]1CC[C@@]2(C(=O)[O-])CC[C@@]3(C)[C@@H](CC[C@@H]4[C@@]5(C)CC[C@@H](O)C(C)(C)[C@@H]5CC[C@]43C)[C@H]12
REMARK SMILES IDX 7 1 6 2 33 3 11 4 5 5 15 6 4 7 12 8 16 9 13 10 17 11 31 12
REMARK SMILES IDX 14 13 18 14 30 15 32 16 19 17 29 18 21 19 20 20 28 21 22 22
REMARK SMILES IDX 25 23 23 24 26 25 27 26 8 27 9 28 10 29 2 30 3 31 1 32 24 33
REMARK H PARENT 24 34
REMARK Flexibility Score: inf
ROOT
ATOM      1  C   UNL     1     113.394   3.960 -34.119  1.00  0.00     0.014 C 
ATOM      2  C   UNL     1     114.152   3.535 -32.860  1.00  0.00     0.014 C 
ATOM      3  C   UNL     1     113.329   5.486 -33.925  1.00  0.00     0.012 C 
ATOM      4  C   UNL     1     111.941   3.445 -34.224  1.00  0.00     0.014 C 
ATOM      5  C   UNL     1     115.237   4.614 -32.684  1.00  0.00     0.009 C 
ATOM      6  C   UNL     1     112.699   6.189 -35.160  1.00  0.00     0.000 C 
ATOM      7  C   UNL     1     114.739   5.875 -33.436  1.00  0.00     0.018 C 
ATOM      8  C   UNL     1     111.239   4.080 -35.456  1.00  0.00     0.008 C 
ATOM      9  C   UNL     1     112.721   7.740 -35.041  1.00  0.00     0.005 C 
ATOM     10  C   UNL     1     111.239   5.660 -35.481  1.00  0.00    -0.024 C 
ATOM     11  C   UNL     1     111.851   8.455 -36.108  1.00  0.00     0.005 C 
ATOM     12  C   UNL     1     110.739   6.269 -36.932  1.00  0.00    -0.024 C 
ATOM     13  C   UNL     1     110.279   6.097 -34.307  1.00  0.00     0.012 C 
ATOM     14  C   UNL     1     111.619   7.536 -37.330  1.00  0.00     0.002 C 
ATOM     15  C   UNL     1     110.920   5.267 -38.120  1.00  0.00     0.008 C 
ATOM     16  C   UNL     1     109.211   6.592 -36.852  1.00  0.00     0.012 C 
ATOM     17  C   UNL     1     111.322   8.243 -38.720  1.00  0.00    -0.026 C 
ATOM     18  C   UNL     1     110.586   5.859 -39.511  1.00  0.00     0.005 C 
ATOM     19  C   UNL     1     112.455   9.300 -39.008  1.00  0.00     0.010 C 
ATOM     20  C   UNL     1     109.955   8.992 -38.687  1.00  0.00     0.012 C 
ATOM     21  C   UNL     1     111.413   7.130 -39.839  1.00  0.00     0.003 C 
ATOM     22  C   UNL     1     112.825   9.501 -40.493  1.00  0.00     0.033 C 
ATOM     23  C   UNL     1     111.274   7.638 -41.341  1.00  0.00    -0.006 C 
ATOM     24  C   UNL     1     111.687   9.146 -41.459  1.00  0.00     0.120 C 
ATOM     25  C   UNL     1     109.835   7.490 -41.900  1.00  0.00     0.014 C 
ATOM     26  C   UNL     1     112.196   6.768 -42.246  1.00  0.00     0.014 C 
ENDROOT
BRANCH   1  27
ATOM     27  C   UNL     1     114.204   3.469 -35.327  1.00  0.00     0.048 C 
ATOM     28  O   UNL     1     114.567   2.263 -35.384  1.00  0.00    -0.550 OA
ATOM     29  O   UNL     1     114.644   4.337 -36.320  1.00  0.00    -0.550 OA
ENDBRANCH   1  27
BRANCH   7  30
ATOM     30  C   UNL     1     114.768   7.124 -32.558  1.00  0.00    -0.077 C 
ATOM     31  C   UNL     1     113.730   7.315 -31.482  1.00  0.00     0.039 C 
ATOM     32  C   UNL     1     115.686   8.091 -32.737  1.00  0.00     0.008 C 
ENDBRANCH   7  30
BRANCH  24  33
ATOM     33  O   UNL     1     112.075   9.457 -42.777  1.00  0.00    -0.393 OA
ATOM     34  H   UNL     1     112.735   8.771 -43.059  1.00  0.00     0.210 HD
ENDBRANCH  24  33
TORSDOF 3
ENDMDL
MODEL 6
REMARK VINA RESULT:    -4.270      1.752      2.992
REMARK INTER + INTRA:          -5.290
REMARK INTER:                  -4.858
REMARK INTRA:                  -0.431
REMARK UNBOUND:                -0.395
REMARK SMILES C=C(C)[C@H]1CC[C@@]2(C(=O)[O-])CC[C@@]3(C)[C@@H](CC[C@@H]4[C@@]5(C)CC[C@@H](O)C(C)(C)[C@@H]5CC[C@]43C)[C@H]12
REMARK SMILES IDX 7 1 6 2 33 3 11 4 5 5 15 6 4 7 12 8 16 9 13 10 17 11 31 12
REMARK SMILES IDX 14 13 18 14 30 15 32 16 19 17 29 18 21 19 20 20 28 21 22 22
REMARK SMILES IDX 25 23 23 24 26 25 27 26 8 27 9 28 10 29 2 30 3 31 1 32 24 33
REMARK H PARENT 24 34
REMARK Flexibility Score: inf
ROOT
ATOM      1  C   UNL     1     116.165   9.872 -35.453  1.00  0.00     0.014 C 
ATOM      2  C   UNL     1     117.493  10.525 -35.065  1.00  0.00     0.014 C 
ATOM      3  C   UNL     1     115.837  10.618 -36.758  1.00  0.00     0.012 C 
ATOM      4  C   UNL     1     114.995  10.115 -34.474  1.00  0.00     0.014 C 
ATOM      5  C   UNL     1     118.247  10.680 -36.399  1.00  0.00     0.009 C 
ATOM      6  C   UNL     1     114.564  10.041 -37.439  1.00  0.00     0.000 C 
ATOM      7  C   UNL     1     117.176  10.673 -37.521  1.00  0.00     0.018 C 
ATOM      8  C   UNL     1     113.677   9.541 -35.065  1.00  0.00     0.008 C 
ATOM      9  C   UNL     1     114.270  10.702 -38.816  1.00  0.00     0.005 C 
ATOM     10  C   UNL     1     113.292  10.096 -36.494  1.00  0.00    -0.024 C 
ATOM     11  C   UNL     1     112.866  10.359 -39.380  1.00  0.00     0.005 C 
ATOM     12  C   UNL     1     112.053   9.253 -37.187  1.00  0.00    -0.024 C 
ATOM     13  C   UNL     1     112.905  11.609 -36.263  1.00  0.00     0.012 C 
ATOM     14  C   UNL     1     112.324   9.057 -38.745  1.00  0.00     0.002 C 
ATOM     15  C   UNL     1     111.900   7.802 -36.622  1.00  0.00     0.008 C 
ATOM     16  C   UNL     1     110.705   9.988 -36.891  1.00  0.00     0.012 C 
ATOM     17  C   UNL     1     111.264   8.228 -39.587  1.00  0.00    -0.026 C 
ATOM     18  C   UNL     1     110.835   6.944 -37.347  1.00  0.00     0.005 C 
ATOM     19  C   UNL     1     111.851   7.960 -41.025  1.00  0.00     0.010 C 
ATOM     20  C   UNL     1     109.931   9.021 -39.746  1.00  0.00     0.012 C 
ATOM     21  C   UNL     1     111.092   6.828 -38.873  1.00  0.00     0.003 C 
ATOM     22  C   UNL     1     111.439   6.625 -41.680  1.00  0.00     0.033 C 
ATOM     23  C   UNL     1     110.163   5.774 -39.621  1.00  0.00    -0.006 C 
ATOM     24  C   UNL     1     110.105   6.074 -41.158  1.00  0.00     0.120 C 
ATOM     25  C   UNL     1     108.710   5.757 -39.080  1.00  0.00     0.014 C 
ATOM     26  C   UNL     1     110.743   4.348 -39.386  1.00  0.00     0.014 C 
ENDROOT
BRANCH   1  27
ATOM     27  C   UNL     1     116.420   8.363 -35.586  1.00  0.00     0.048 C 
ATOM     28  O   UNL     1     117.008   7.747 -34.656  1.00  0.00    -0.550 OA
ATOM     29  O   UNL     1     116.117   7.666 -36.750  1.00  0.00    -0.550 OA
ENDBRANCH   1  27
BRANCH   7  30
ATOM     30  C   UNL     1     117.309  11.874 -38.456  1.00  0.00    -0.077 C 
ATOM     31  C   UNL     1     117.779  11.677 -39.875  1.00  0.00     0.039 C 
ATOM     32  C   UNL     1     117.047  13.125 -38.039  1.00  0.00     0.008 C 
ENDBRANCH   7  30
BRANCH  24  33
ATOM     33  O   UNL     1     109.758   4.917 -41.882  1.00  0.00    -0.393 OA
ATOM     34  H   UNL     1     110.597   4.546 -42.263  1.00  0.00     0.210 HD
ENDBRANCH  24  33
TORSDOF 3
ENDMDL
MODEL 7
REMARK VINA RESULT:    -3.996      9.703     11.997
REMARK INTER + INTRA:          -4.976
REMARK INTER:                  -4.544
REMARK INTRA:                  -0.431
REMARK UNBOUND:                -0.395
REMARK SMILES C=C(C)[C@H]1CC[C@@]2(C(=O)[O-])CC[C@@]3(C)[C@@H](CC[C@@H]4[C@@]5(C)CC[C@@H](O)C(C)(C)[C@@H]5CC[C@]43C)[C@H]12
REMARK SMILES IDX 7 1 6 2 33 3 11 4 5 5 15 6 4 7 12 8 16 9 13 10 17 11 31 12
REMARK SMILES IDX 14 13 18 14 30 15 32 16 19 17 29 18 21 19 20 20 28 21 22 22
REMARK SMILES IDX 25 23 23 24 26 25 27 26 8 27 9 28 10 29 2 30 3 31 1 32 24 33
REMARK H PARENT 24 34
REMARK Flexibility Score: inf
ROOT
ATOM      1  C   UNL     1     120.404   8.702 -27.837  1.00  0.00     0.014 C 
ATOM      2  C   UNL     1     121.679   8.137 -28.464  1.00  0.00     0.014 C 
ATOM      3  C   UNL     1     119.440   8.662 -29.036  1.00  0.00     0.012 C 
ATOM      4  C   UNL     1     120.491  10.170 -27.362  1.00  0.00     0.014 C 
ATOM      5  C   UNL     1     121.186   6.995 -29.371  1.00  0.00     0.009 C 
ATOM      6  C   UNL     1     118.001   9.080 -28.624  1.00  0.00     0.000 C 
ATOM      7  C   UNL     1     119.700   7.293 -29.696  1.00  0.00     0.018 C 
ATOM      8  C   UNL     1     119.092  10.666 -26.902  1.00  0.00     0.008 C 
ATOM      9  C   UNL     1     116.981   8.944 -29.790  1.00  0.00     0.005 C 
ATOM     10  C   UNL     1     117.949  10.531 -27.985  1.00  0.00    -0.024 C 
ATOM     11  C   UNL     1     115.614   9.617 -29.499  1.00  0.00     0.005 C 
ATOM     12  C   UNL     1     116.447  10.802 -27.356  1.00  0.00    -0.024 C 
ATOM     13  C   UNL     1     118.307  11.584 -29.105  1.00  0.00     0.012 C 
ATOM     14  C   UNL     1     115.396   9.779 -27.977  1.00  0.00     0.002 C 
ATOM     15  C   UNL     1     116.371  10.566 -25.811  1.00  0.00     0.008 C 
ATOM     16  C   UNL     1     116.055  12.297 -27.596  1.00  0.00     0.012 C 
ATOM     17  C   UNL     1     113.895   9.848 -27.465  1.00  0.00    -0.026 C 
ATOM     18  C   UNL     1     114.946  10.682 -25.217  1.00  0.00     0.005 C 
ATOM     19  C   UNL     1     113.106   8.605 -28.025  1.00  0.00     0.010 C 
ATOM     20  C   UNL     1     113.190  11.142 -27.972  1.00  0.00     0.012 C 
ATOM     21  C   UNL     1     113.933   9.718 -25.889  1.00  0.00     0.003 C 
ATOM     22  C   UNL     1     111.995   8.046 -27.111  1.00  0.00     0.033 C 
ATOM     23  C   UNL     1     112.519   9.635 -25.163  1.00  0.00    -0.006 C 
ATOM     24  C   UNL     1     111.422   9.087 -26.140  1.00  0.00     0.120 C 
ATOM     25  C   UNL     1     112.036  11.005 -24.620  1.00  0.00     0.014 C 
ATOM     26  C   UNL     1     112.649   8.688 -23.934  1.00  0.00     0.014 C 
ENDROOT
BRANCH   1  27
ATOM     27  C   UNL     1     120.039   7.798 -26.650  1.00  0.00     0.048 C 
ATOM     28  O   UNL     1     120.883   7.604 -25.734  1.00  0.00    -0.550 OA
ATOM     29  O   UNL     1     118.839   7.097 -26.601  1.00  0.00    -0.550 OA
ENDBRANCH   1  27
BRANCH   7  30
ATOM     30  C   UNL     1     119.417   7.264 -31.198  1.00  0.00    -0.077 C 
ATOM     31  C   UNL     1     118.591   6.151 -31.790  1.00  0.00     0.039 C 
ATOM     32  C   UNL     1     119.918   8.197 -32.027  1.00  0.00     0.008 C 
ENDBRANCH   7  30
BRANCH  24  33
ATOM     33  O   UNL     1     110.351   8.520 -25.422  1.00  0.00    -0.393 OA
ATOM     34  H   UNL     1     110.559   8.618 -24.457  1.00  0.00     0.210 HD
ENDBRANCH  24  33
TORSDOF 3
ENDMDL
MODEL 8
REMARK VINA RESULT:    -3.995      8.903     11.358
REMARK INTER + INTRA:          -4.974
REMARK INTER:                  -4.601
REMARK INTRA:                  -0.374
REMARK UNBOUND:                -0.395
REMARK SMILES C=C(C)[C@H]1CC[C@@]2(C(=O)[O-])CC[C@@]3(C)[C@@H](CC[C@@H]4[C@@]5(C)CC[C@@H](O)C(C)(C)[C@@H]5CC[C@]43C)[C@H]12
REMARK SMILES IDX 7 1 6 2 33 3 11 4 5 5 15 6 4 7 12 8 16 9 13 10 17 11 31 12
REMARK SMILES IDX 14 13 18 14 30 15 32 16 19 17 29 18 21 19 20 20 28 21 22 22
REMARK SMILES IDX 25 23 23 24 26 25 27 26 8 27 9 28 10 29 2 30 3 31 1 32 24 33
REMARK H PARENT 24 34
REMARK Flexibility Score: inf
ROOT
ATOM      1  C   UNL     1     113.386  10.879 -27.389  1.00  0.00     0.014 C 
ATOM      2  C   UNL     1     113.782  11.348 -25.988  1.00  0.00     0.014 C 
ATOM      3  C   UNL     1     112.846   9.469 -27.089  1.00  0.00     0.012 C 
ATOM      4  C   UNL     1     114.552  10.724 -28.392  1.00  0.00     0.014 C 
ATOM      5  C   UNL     1     112.651  10.833 -25.078  1.00  0.00     0.009 C 
ATOM      6  C   UNL     1     112.249   8.806 -28.361  1.00  0.00     0.000 C 
ATOM      7  C   UNL     1     111.986   9.646 -25.820  1.00  0.00     0.018 C 
ATOM      8  C   UNL     1     114.037  10.089 -29.713  1.00  0.00     0.008 C 
ATOM      9  C   UNL     1     111.596   7.425 -28.066  1.00  0.00     0.005 C 
ATOM     10  C   UNL     1     113.302   8.700 -29.542  1.00  0.00    -0.024 C 
ATOM     11  C   UNL     1     111.252   6.617 -29.345  1.00  0.00     0.005 C 
ATOM     12  C   UNL     1     112.536   8.216 -30.922  1.00  0.00    -0.024 C 
ATOM     13  C   UNL     1     114.430   7.681 -29.117  1.00  0.00     0.012 C 
ATOM     14  C   UNL     1     111.130   7.554 -30.569  1.00  0.00     0.002 C 
ATOM     15  C   UNL     1     112.190   9.399 -31.886  1.00  0.00     0.008 C 
ATOM     16  C   UNL     1     113.478   7.256 -31.720  1.00  0.00     0.012 C 
ATOM     17  C   UNL     1     110.216   7.061 -31.769  1.00  0.00    -0.026 C 
ATOM     18  C   UNL     1     111.353   8.992 -33.122  1.00  0.00     0.005 C 
ATOM     19  C   UNL     1     108.797   6.673 -31.205  1.00  0.00     0.010 C 
ATOM     20  C   UNL     1     110.827   5.803 -32.458  1.00  0.00     0.012 C 
ATOM     21  C   UNL     1     110.022   8.291 -32.745  1.00  0.00     0.003 C 
ATOM     22  C   UNL     1     107.604   6.932 -32.149  1.00  0.00     0.033 C 
ATOM     23  C   UNL     1     109.026   8.062 -33.965  1.00  0.00    -0.006 C 
ATOM     24  C   UNL     1     107.990   6.932 -33.634  1.00  0.00     0.120 C 
ATOM     25  C   UNL     1     109.756   7.673 -35.277  1.00  0.00     0.014 C 
ATOM     26  C   UNL     1     108.276   9.396 -34.250  1.00  0.00     0.014 C 
ENDROOT
BRANCH   1  27
ATOM     27  C   UNL     1     112.366  11.888 -27.937  1.00  0.00     0.048 C 
ATOM     28  O   UNL     1     112.602  13.123 -27.846  1.00  0.00    -0.550 OA
ATOM     29  O   UNL     1     111.133  11.488 -28.440  1.00  0.00    -0.550 OA
ENDBRANCH   1  27
BRANCH   7  30
ATOM     30  C   UNL     1     111.899   8.393 -24.950  1.00  0.00    -0.077 C 
ATOM     31  C   UNL     1     110.559   7.772 -24.652  1.00  0.00     0.039 C 
ATOM     32  C   UNL     1     112.996   7.836 -24.406  1.00  0.00     0.008 C 
ENDBRANCH   7  30
BRANCH  24  33
ATOM     33  O   UNL     1     106.830   7.072 -34.421  1.00  0.00    -0.393 OA
ATOM     34  H   UNL     1     106.066   7.197 -33.800  1.00  0.00     0.210 HD
ENDBRANCH  24  33
TORSDOF 3
ENDMDL
MODEL 9
REMARK VINA RESULT:    -3.966     15.615     18.605
REMARK INTER + INTRA:          -4.940
REMARK INTER:                  -4.508
REMARK INTRA:                  -0.432
REMARK UNBOUND:                -0.395
REMARK SMILES C=C(C)[C@H]1CC[C@@]2(C(=O)[O-])CC[C@@]3(C)[C@@H](CC[C@@H]4[C@@]5(C)CC[C@@H](O)C(C)(C)[C@@H]5CC[C@]43C)[C@H]12
REMARK SMILES IDX 7 1 6 2 33 3 11 4 5 5 15 6 4 7 12 8 16 9 13 10 17 11 31 12
REMARK SMILES IDX 14 13 18 14 30 15 32 16 19 17 29 18 21 19 20 20 28 21 22 22
REMARK SMILES IDX 25 23 23 24 26 25 27 26 8 27 9 28 10 29 2 30 3 31 1 32 24 33
REMARK H PARENT 24 34
REMARK Flexibility Score: inf
ROOT
ATOM      1  C   UNL     1     108.594  -3.942 -25.501  1.00  0.00     0.014 C 
ATOM      2  C   UNL     1     109.219  -5.336 -25.404  1.00  0.00     0.014 C 
ATOM      3  C   UNL     1     109.816  -3.049 -25.225  1.00  0.00     0.012 C 
ATOM      4  C   UNL     1     107.530  -3.616 -24.428  1.00  0.00     0.014 C 
ATOM      5  C   UNL     1     110.586  -5.191 -26.097  1.00  0.00     0.009 C 
ATOM      6  C   UNL     1     109.470  -1.543 -25.390  1.00  0.00     0.000 C 
ATOM      7  C   UNL     1     110.956  -3.686 -26.047  1.00  0.00     0.018 C 
ATOM      8  C   UNL     1     107.102  -2.127 -24.539  1.00  0.00     0.008 C 
ATOM      9  C   UNL     1     110.712  -0.621 -25.226  1.00  0.00     0.005 C 
ATOM     10  C   UNL     1     108.286  -1.084 -24.440  1.00  0.00    -0.024 C 
ATOM     11  C   UNL     1     110.354   0.883 -25.100  1.00  0.00     0.005 C 
ATOM     12  C   UNL     1     107.817   0.446 -24.844  1.00  0.00    -0.024 C 
ATOM     13  C   UNL     1     108.786  -1.161 -22.945  1.00  0.00     0.012 C 
ATOM     14  C   UNL     1     108.955   1.165 -25.696  1.00  0.00     0.002 C 
ATOM     15  C   UNL     1     106.548   0.483 -25.760  1.00  0.00     0.008 C 
ATOM     16  C   UNL     1     107.447   1.228 -23.542  1.00  0.00     0.012 C 
ATOM     17  C   UNL     1     108.676   2.636 -26.222  1.00  0.00    -0.026 C 
ATOM     18  C   UNL     1     106.166   1.896 -26.264  1.00  0.00     0.005 C 
ATOM     19  C   UNL     1     109.819   3.045 -27.228  1.00  0.00     0.010 C 
ATOM     20  C   UNL     1     108.675   3.660 -25.045  1.00  0.00     0.012 C 
ATOM     21  C   UNL     1     107.319   2.594 -27.032  1.00  0.00     0.003 C 
ATOM     22  C   UNL     1     109.395   3.976 -28.383  1.00  0.00     0.033 C 
ATOM     23  C   UNL     1     106.903   3.944 -27.765  1.00  0.00    -0.006 C 
ATOM     24  C   UNL     1     108.162   4.831 -28.058  1.00  0.00     0.120 C 
ATOM     25  C   UNL     1     105.899   4.794 -26.943  1.00  0.00     0.014 C 
ATOM     26  C   UNL     1     106.191   3.583 -29.102  1.00  0.00     0.014 C 
ENDROOT
BRANCH   1  27
ATOM     27  C   UNL     1     107.971  -3.817 -26.899  1.00  0.00     0.048 C 
ATOM     28  O   UNL     1     107.310  -4.780 -27.374  1.00  0.00    -0.550 OA
ATOM     29  O   UNL     1     108.200  -2.711 -27.710  1.00  0.00    -0.550 OA
ENDBRANCH   1  27
BRANCH   7  30
ATOM     30  C   UNL     1     112.348  -3.450 -25.464  1.00  0.00    -0.077 C 
ATOM     31  C   UNL     1     112.582  -3.601 -23.983  1.00  0.00     0.039 C 
ATOM     32  C   UNL     1     113.381  -3.074 -26.238  1.00  0.00     0.008 C 
ENDBRANCH   7  30
BRANCH  24  33
ATOM     33  O   UNL     1     107.912   5.719 -29.122  1.00  0.00    -0.393 OA
ATOM     34  H   UNL     1     106.981   5.559 -29.427  1.00  0.00     0.210 HD
ENDBRANCH  24  33
TORSDOF 3
ENDMDL
