MODEL 1
REMARK VINA RESULT:    -2.404      0.000      0.000
REMARK INTER + INTRA:          -3.229
REMARK INTER:                  -3.037
REMARK INTRA:                  -0.193
REMARK UNBOUND:                -0.193
REMARK SMILES CCCCCCO
REMARK SMILES IDX 4 1 3 2 2 3 1 4 5 5 6 6 7 7
REMARK H PARENT 7 8
REMARK Flexibility Score: inf
ROOT
ATOM      1  C   UNL     1     124.641 122.013 116.980  1.00  0.00     0.002 C 
ENDROOT
BRANCH   1   2
ATOM      2  C   UNL     1     125.407 121.432 118.175  1.00  0.00    -0.000 C 
BRANCH   2   3
ATOM      3  C   UNL     1     124.455 120.730 119.151  1.00  0.00    -0.003 C 
ATOM      4  C   UNL     1     123.785 119.525 118.497  1.00  0.00     0.004 C 
ENDBRANCH   2   3
ENDBRANCH   1   2
BRANCH   1   5
ATOM      5  C   UNL     1     125.341 121.671 115.658  1.00  0.00     0.028 C 
BRANCH   5   6
ATOM      6  C   UNL     1     124.756 120.408 115.016  1.00  0.00     0.156 C 
BRANCH   6   7
ATOM      7  O   UNL     1     123.357 120.403 115.106  1.00  0.00    -0.396 OA
ATOM      8  H   UNL     1     123.025 121.032 114.413  1.00  0.00     0.210 HD
ENDBRANCH   6   7
ENDBRANCH   5   6
ENDBRANCH   1   5
TORSDOF 5
ENDMDL
MODEL 2
REMARK VINA RESULT:    -2.389     12.876     13.191
REMARK INTER + INTRA:          -3.210
REMARK INTER:                  -3.047
REMARK INTRA:                  -0.163
REMARK UNBOUND:                -0.193
REMARK SMILES CCCCCCO
REMARK SMILES IDX 4 1 3 2 2 3 1 4 5 5 6 6 7 7
REMARK H PARENT 7 8
REMARK Flexibility Score: inf
ROOT
ATOM      1  C   UNL     1     111.007 125.007 116.673  1.00  0.00     0.002 C 
ENDROOT
BRANCH   1   2
ATOM      2  C   UNL     1     111.426 125.941 117.814  1.00  0.00    -0.000 C 
BRANCH   2   3
ATOM      3  C   UNL     1     111.982 125.145 119.001  1.00  0.00    -0.003 C 
ATOM      4  C   UNL     1     113.215 124.343 118.598  1.00  0.00     0.004 C 
ENDBRANCH   2   3
ENDBRANCH   1   2
BRANCH   1   5
ATOM      5  C   UNL     1     111.349 125.618 115.308  1.00  0.00     0.028 C 
BRANCH   5   6
ATOM      6  C   UNL     1     112.513 124.884 114.633  1.00  0.00     0.156 C 
BRANCH   6   7
ATOM      7  O   UNL     1     113.726 125.172 115.275  1.00  0.00    -0.396 OA
ATOM      8  H   UNL     1     113.651 126.098 115.624  1.00  0.00     0.210 HD
ENDBRANCH   6   7
ENDBRANCH   5   6
ENDBRANCH   1   5
TORSDOF 5
ENDMDL
MODEL 3
REMARK VINA RESULT:    -2.384     13.187     13.586
REMARK INTER + INTRA:          -3.204
REMARK INTER:                  -3.085
REMARK INTRA:                  -0.119
REMARK UNBOUND:                -0.193
REMARK SMILES CCCCCCO
REMARK SMILES IDX 4 1 3 2 2 3 1 4 5 5 6 6 7 7
REMARK H PARENT 7 8
REMARK Flexibility Score: inf
ROOT
ATOM      1  C   UNL     1     122.392 107.229 115.709  1.00  0.00     0.002 C 
ENDROOT
BRANCH   1   2
ATOM      2  C   UNL     1     121.522 107.923 116.763  1.00  0.00    -0.000 C 
BRANCH   2   3
ATOM      3  C   UNL     1     120.397 108.730 116.104  1.00  0.00    -0.003 C 
ATOM      4  C   UNL     1     120.237 108.354 114.634  1.00  0.00     0.004 C 
ENDBRANCH   2   3
ENDBRANCH   1   2
BRANCH   1   5
ATOM      5  C   UNL     1     123.819 107.792 115.715  1.00  0.00     0.028 C 
BRANCH   5   6
ATOM      6  C   UNL     1     124.615 107.334 114.488  1.00  0.00     0.156 C 
BRANCH   6   7
ATOM      7  O   UNL     1     123.770 107.138 113.387  1.00  0.00    -0.396 OA
ATOM      8  H   UNL     1     124.349 106.857 112.631  1.00  0.00     0.210 HD
ENDBRANCH   6   7
ENDBRANCH   5   6
ENDBRANCH   1   5
TORSDOF 5
ENDMDL
MODEL 4
REMARK VINA RESULT:    -2.352      1.929      2.471
REMARK INTER + INTRA:          -3.164
REMARK INTER:                  -3.054
REMARK INTRA:                  -0.110
REMARK UNBOUND:                -0.193
REMARK SMILES CCCCCCO
REMARK SMILES IDX 4 1 3 2 2 3 1 4 5 5 6 6 7 7
REMARK H PARENT 7 8
REMARK Flexibility Score: inf
ROOT
ATOM      1  C   UNL     1     125.202 121.376 115.294  1.00  0.00     0.002 C 
ENDROOT
BRANCH   1   2
ATOM      2  C   UNL     1     124.529 120.334 116.196  1.00  0.00    -0.000 C 
BRANCH   2   3
ATOM      3  C   UNL     1     124.598 120.755 117.669  1.00  0.00    -0.003 C 
ATOM      4  C   UNL     1     123.852 119.766 118.560  1.00  0.00     0.004 C 
ENDBRANCH   2   3
ENDBRANCH   1   2
BRANCH   1   5
ATOM      5  C   UNL     1     125.877 122.472 116.129  1.00  0.00     0.028 C 
BRANCH   5   6
ATOM      6  C   UNL     1     126.006 123.784 115.346  1.00  0.00     0.156 C 
BRANCH   6   7
ATOM      7  O   UNL     1     125.670 123.597 113.997  1.00  0.00    -0.396 OA
ATOM      8  H   UNL     1     126.070 122.731 113.722  1.00  0.00     0.210 HD
ENDBRANCH   6   7
ENDBRANCH   5   6
ENDBRANCH   1   5
TORSDOF 5
ENDMDL
MODEL 5
REMARK VINA RESULT:    -2.347     13.010     13.334
REMARK INTER + INTRA:          -3.157
REMARK INTER:                  -3.063
REMARK INTRA:                  -0.094
REMARK UNBOUND:                -0.193
REMARK SMILES CCCCCCO
REMARK SMILES IDX 4 1 3 2 2 3 1 4 5 5 6 6 7 7
REMARK H PARENT 7 8
REMARK Flexibility Score: inf
ROOT
ATOM      1  C   UNL     1     112.618 124.629 116.423  1.00  0.00     0.002 C 
ENDROOT
BRANCH   1   2
ATOM      2  C   UNL     1     111.987 125.327 117.633  1.00  0.00    -0.000 C 
BRANCH   2   3
ATOM      3  C   UNL     1     112.561 124.779 118.946  1.00  0.00    -0.003 C 
ATOM      4  C   UNL     1     113.748 123.856 118.686  1.00  0.00     0.004 C 
ENDBRANCH   2   3
ENDBRANCH   1   2
BRANCH   1   5
ATOM      5  C   UNL     1     112.133 125.258 115.110  1.00  0.00     0.028 C 
BRANCH   5   6
ATOM      6  C   UNL     1     110.671 125.708 115.202  1.00  0.00     0.156 C 
BRANCH   6   7
ATOM      7  O   UNL     1     110.025 125.568 113.965  1.00  0.00    -0.396 OA
ATOM      8  H   UNL     1     109.126 125.191 114.155  1.00  0.00     0.210 HD
ENDBRANCH   6   7
ENDBRANCH   5   6
ENDBRANCH   1   5
TORSDOF 5
ENDMDL
MODEL 6
REMARK VINA RESULT:    -2.294     17.413     18.618
REMARK INTER + INTRA:          -3.091
REMARK INTER:                  -2.991
REMARK INTRA:                  -0.100
REMARK UNBOUND:                -0.193
REMARK SMILES CCCCCCO
REMARK SMILES IDX 4 1 3 2 2 3 1 4 5 5 6 6 7 7
REMARK H PARENT 7 8
REMARK Flexibility Score: inf
ROOT
ATOM      1  C   UNL     1     108.821 112.536 116.639  1.00  0.00     0.002 C 
ENDROOT
BRANCH   1   2
ATOM      2  C   UNL     1     108.047 111.838 117.763  1.00  0.00    -0.000 C 
BRANCH   2   3
ATOM      3  C   UNL     1     108.381 112.453 119.127  1.00  0.00    -0.003 C 
ATOM      4  C   UNL     1     109.457 113.528 118.998  1.00  0.00     0.004 C 
ENDBRANCH   2   3
ENDBRANCH   1   2
BRANCH   1   5
ATOM      5  C   UNL     1     108.150 112.300 115.279  1.00  0.00     0.028 C 
BRANCH   5   6
ATOM      6  C   UNL     1     107.428 110.949 115.230  1.00  0.00     0.156 C 
BRANCH   6   7
ATOM      7  O   UNL     1     107.599 110.334 113.981  1.00  0.00    -0.396 OA
ATOM      8  H   UNL     1     108.497 109.912 113.992  1.00  0.00     0.210 HD
ENDBRANCH   6   7
ENDBRANCH   5   6
ENDBRANCH   1   5
TORSDOF 5
ENDMDL
MODEL 7
REMARK VINA RESULT:    -2.285      1.606      2.400
REMARK INTER + INTRA:          -3.079
REMARK INTER:                  -2.957
REMARK INTRA:                  -0.122
REMARK UNBOUND:                -0.193
REMARK SMILES CCCCCCO
REMARK SMILES IDX 4 1 3 2 2 3 1 4 5 5 6 6 7 7
REMARK H PARENT 7 8
REMARK Flexibility Score: inf
ROOT
ATOM      1  C   UNL     1     124.868 120.985 118.536  1.00  0.00     0.002 C 
ENDROOT
BRANCH   1   2
ATOM      2  C   UNL     1     125.895 122.002 118.023  1.00  0.00    -0.000 C 
BRANCH   2   3
ATOM      3  C   UNL     1     127.045 122.175 119.023  1.00  0.00    -0.003 C 
ATOM      4  C   UNL     1     126.613 121.785 120.433  1.00  0.00     0.004 C 
ENDBRANCH   2   3
ENDBRANCH   1   2
BRANCH   1   5
ATOM      5  C   UNL     1     124.195 120.247 117.371  1.00  0.00     0.028 C 
BRANCH   5   6
ATOM      6  C   UNL     1     124.734 120.715 116.015  1.00  0.00     0.156 C 
BRANCH   6   7
ATOM      7  O   UNL     1     124.957 119.626 115.160  1.00  0.00    -0.396 OA
ATOM      8  H   UNL     1     124.405 118.876 115.506  1.00  0.00     0.210 HD
ENDBRANCH   6   7
ENDBRANCH   5   6
ENDBRANCH   1   5
TORSDOF 5
ENDMDL
MODEL 8
REMARK VINA RESULT:    -2.267      1.862      3.014
REMARK INTER + INTRA:          -3.056
REMARK INTER:                  -2.925
REMARK INTRA:                  -0.131
REMARK UNBOUND:                -0.193
REMARK SMILES CCCCCCO
REMARK SMILES IDX 4 1 3 2 2 3 1 4 5 5 6 6 7 7
REMARK H PARENT 7 8
REMARK Flexibility Score: inf
ROOT
ATOM      1  C   UNL     1     123.579 120.532 117.370  1.00  0.00     0.002 C 
ENDROOT
BRANCH   1   2
ATOM      2  C   UNL     1     124.951 121.197 117.211  1.00  0.00    -0.000 C 
BRANCH   2   3
ATOM      3  C   UNL     1     125.233 121.532 115.741  1.00  0.00    -0.003 C 
ATOM      4  C   UNL     1     124.810 120.389 114.824  1.00  0.00     0.004 C 
ENDBRANCH   2   3
ENDBRANCH   1   2
BRANCH   1   5
ATOM      5  C   UNL     1     122.463 121.583 117.442  1.00  0.00     0.028 C 
BRANCH   5   6
ATOM      6  C   UNL     1     121.211 121.135 116.680  1.00  0.00     0.156 C 
BRANCH   6   7
ATOM      7  O   UNL     1     121.551 120.581 115.437  1.00  0.00    -0.396 OA
ATOM      8  H   UNL     1     120.759 120.692 114.850  1.00  0.00     0.210 HD
ENDBRANCH   6   7
ENDBRANCH   5   6
ENDBRANCH   1   5
TORSDOF 5
ENDMDL
MODEL 9
REMARK VINA RESULT:    -2.245     15.414     15.812
REMARK INTER + INTRA:          -3.029
REMARK INTER:                  -2.977
REMARK INTRA:                  -0.052
REMARK UNBOUND:                -0.193
REMARK SMILES CCCCCCO
REMARK SMILES IDX 4 1 3 2 2 3 1 4 5 5 6 6 7 7
REMARK H PARENT 7 8
REMARK Flexibility Score: inf
ROOT
ATOM      1  C   UNL     1     109.294 125.198 115.459  1.00  0.00     0.002 C 
ENDROOT
BRANCH   1   2
ATOM      2  C   UNL     1     110.587 126.008 115.312  1.00  0.00    -0.000 C 
BRANCH   2   3
ATOM      3  C   UNL     1     111.797 125.209 115.811  1.00  0.00    -0.003 C 
ATOM      4  C   UNL     1     112.781 124.931 114.678  1.00  0.00     0.004 C 
ENDBRANCH   2   3
ENDBRANCH   1   2
BRANCH   1   5
ATOM      5  C   UNL     1     108.258 125.618 114.408  1.00  0.00     0.028 C 
BRANCH   5   6
ATOM      6  C   UNL     1     107.101 124.617 114.319  1.00  0.00     0.156 C 
BRANCH   6   7
ATOM      7  O   UNL     1     107.581 123.311 114.141  1.00  0.00    -0.396 OA
ATOM      8  H   UNL     1     108.356 123.375 113.524  1.00  0.00     0.210 HD
ENDBRANCH   6   7
ENDBRANCH   5   6
ENDBRANCH   1   5
TORSDOF 5
ENDMDL
