MODEL 1
REMARK VINA RESULT:    -7.890      0.000      0.000
REMARK INTER + INTRA:         -10.013
REMARK INTER:                  -9.735
REMARK INTRA:                  -0.277
REMARK UNBOUND:                -0.277
REMARK SMILES O=C1c2c(O)cc(O)cc2O[C@@H](c2cc(O)c(O)c(O)c2)[C@@H]1O
REMARK SMILES IDX 12 1 22 2 2 3 1 4 3 5 4 6 6 7 7 8 9 9 10 10 11 11 13 12
REMARK SMILES IDX 14 13 15 14 21 15 17 16 19 17 16 18 18 20 20 22 23 24 5 26
REMARK SMILES IDX 8 28
REMARK H PARENT 16 19 18 21 20 23 23 25 5 27 8 29
REMARK Flexibility Score: inf
ROOT
ATOM      1  C   UNL     1      13.078  44.494   7.186  1.00  0.00     0.240 C 
ATOM      2  C   UNL     1      12.755  44.454   8.690  1.00  0.00     0.231 C 
ATOM      3  C   UNL     1      11.331  44.895   8.937  1.00  0.00     0.202 C 
ATOM      4  O   UNL     1      10.785  44.565  10.022  1.00  0.00    -0.291 OA
ATOM      5  C   UNL     1      10.660  45.834   7.992  1.00  0.00     0.105 A 
ATOM      6  C   UNL     1       9.346  46.351   8.174  1.00  0.00     0.133 A 
ATOM      7  C   UNL     1       8.887  47.378   7.340  1.00  0.00     0.093 A 
ATOM      8  C   UNL     1       9.681  47.866   6.298  1.00  0.00     0.123 A 
ATOM      9  C   UNL     1      10.942  47.317   6.074  1.00  0.00     0.093 A 
ATOM     10  C   UNL     1      11.423  46.298   6.898  1.00  0.00     0.138 A 
ATOM     11  O   UNL     1      12.678  45.744   6.629  1.00  0.00    -0.481 OA
ENDROOT
BRANCH   1  12
ATOM     12  C   UNL     1      14.553  44.272   6.941  1.00  0.00     0.003 A 
ATOM     13  C   UNL     1      14.981  43.542   5.820  1.00  0.00     0.058 A 
ATOM     14  C   UNL     1      16.346  43.309   5.603  1.00  0.00     0.161 A 
ATOM     15  C   UNL     1      15.508  44.747   7.855  1.00  0.00     0.058 A 
ATOM     16  C   UNL     1      17.294  43.796   6.511  1.00  0.00     0.200 A 
ATOM     17  C   UNL     1      16.874  44.517   7.642  1.00  0.00     0.161 A 
BRANCH  14  18
ATOM     18  O   UNL     1      16.767  42.589   4.486  1.00  0.00    -0.504 OA
ATOM     19  H   UNL     1      17.115  41.641   4.567  1.00  0.00     0.293 HD
ENDBRANCH  14  18
BRANCH  16  20
ATOM     20  O   UNL     1      18.648  43.556   6.276  1.00  0.00    -0.502 OA
ATOM     21  H   UNL     1      19.373  43.912   6.888  1.00  0.00     0.293 HD
ENDBRANCH  16  20
BRANCH  17  22
ATOM     22  O   UNL     1      17.814  44.998   8.552  1.00  0.00    -0.504 OA
ATOM     23  H   UNL     1      17.584  45.727   9.218  1.00  0.00     0.293 HD
ENDBRANCH  17  22
ENDBRANCH   1  12
BRANCH   2  24
ATOM     24  O   UNL     1      12.947  43.148   9.170  1.00  0.00    -0.381 OA
ATOM     25  H   UNL     1      13.858  42.869   8.892  1.00  0.00     0.211 HD
ENDBRANCH   2  24
BRANCH   6  26
ATOM     26  O   UNL     1       8.459  45.871   9.138  1.00  0.00    -0.507 OA
ATOM     27  H   UNL     1       8.015  44.966   9.099  1.00  0.00     0.293 HD
ENDBRANCH   6  26
BRANCH   8  28
ATOM     28  O   UNL     1       9.219  48.887   5.470  1.00  0.00    -0.508 OA
ATOM     29  H   UNL     1       8.231  49.006   5.275  1.00  0.00     0.293 HD
ENDBRANCH   8  28
TORSDOF 7
ENDMDL
MODEL 2
REMARK VINA RESULT:    -7.763      1.375      7.338
REMARK INTER + INTRA:          -9.856
REMARK INTER:                  -9.783
REMARK INTRA:                  -0.074
REMARK UNBOUND:                -0.277
REMARK SMILES O=C1c2c(O)cc(O)cc2O[C@@H](c2cc(O)c(O)c(O)c2)[C@@H]1O
REMARK SMILES IDX 12 1 22 2 2 3 1 4 3 5 4 6 6 7 7 8 9 9 10 10 11 11 13 12
REMARK SMILES IDX 14 13 15 14 21 15 17 16 19 17 16 18 18 20 20 22 23 24 5 26
REMARK SMILES IDX 8 28
REMARK H PARENT 16 19 18 21 20 23 23 25 5 27 8 29
REMARK Flexibility Score: inf
ROOT
ATOM      1  C   UNL     1      12.745  44.890   6.193  1.00  0.00     0.240 C 
ATOM      2  C   UNL     1      13.247  45.295   4.797  1.00  0.00     0.231 C 
ATOM      3  C   UNL     1      14.589  44.662   4.513  1.00  0.00     0.202 C 
ATOM      4  O   UNL     1      14.961  44.564   3.313  1.00  0.00    -0.291 OA
ATOM      5  C   UNL     1      15.512  44.319   5.634  1.00  0.00     0.105 A 
ATOM      6  C   UNL     1      16.816  43.778   5.461  1.00  0.00     0.133 A 
ATOM      7  C   UNL     1      17.676  43.682   6.563  1.00  0.00     0.093 A 
ATOM      8  C   UNL     1      17.251  44.061   7.840  1.00  0.00     0.123 A 
ATOM      9  C   UNL     1      15.951  44.529   8.025  1.00  0.00     0.093 A 
ATOM     10  C   UNL     1      15.081  44.641   6.940  1.00  0.00     0.138 A 
ATOM     11  O   UNL     1      13.773  45.082   7.162  1.00  0.00    -0.481 OA
ENDROOT
BRANCH   1  12
ATOM     12  C   UNL     1      11.519  45.684   6.582  1.00  0.00     0.003 A 
ATOM     13  C   UNL     1      11.166  46.836   5.862  1.00  0.00     0.058 A 
ATOM     14  C   UNL     1      10.047  47.593   6.236  1.00  0.00     0.161 A 
ATOM     15  C   UNL     1      10.750  45.309   7.697  1.00  0.00     0.058 A 
ATOM     16  C   UNL     1       9.276  47.207   7.340  1.00  0.00     0.200 A 
ATOM     17  C   UNL     1       9.629  46.062   8.075  1.00  0.00     0.161 A 
BRANCH  14  18
ATOM     18  O   UNL     1       9.696  48.733   5.515  1.00  0.00    -0.504 OA
ATOM     19  H   UNL     1       9.534  49.622   5.974  1.00  0.00     0.293 HD
ENDBRANCH  14  18
BRANCH  16  20
ATOM     20  O   UNL     1       8.165  47.971   7.695  1.00  0.00    -0.502 OA
ATOM     21  H   UNL     1       7.689  47.852   8.582  1.00  0.00     0.293 HD
ENDBRANCH  16  20
BRANCH  17  22
ATOM     22  O   UNL     1       8.869  45.678   9.177  1.00  0.00    -0.504 OA
ATOM     23  H   UNL     1       9.205  44.990   9.841  1.00  0.00     0.293 HD
ENDBRANCH  17  22
ENDBRANCH   1  12
BRANCH   2  24
ATOM     24  O   UNL     1      12.308  44.892   3.832  1.00  0.00    -0.381 OA
ATOM     25  H   UNL     1      12.649  45.198   2.952  1.00  0.00     0.211 HD
ENDBRANCH   2  24
BRANCH   6  26
ATOM     26  O   UNL     1      17.296  43.304   4.239  1.00  0.00    -0.507 OA
ATOM     27  H   UNL     1      16.858  43.489   3.349  1.00  0.00     0.293 HD
ENDBRANCH   6  26
BRANCH   8  28
ATOM     28  O   UNL     1      18.109  43.962   8.933  1.00  0.00    -0.508 OA
ATOM     29  H   UNL     1      19.084  44.231   8.868  1.00  0.00     0.293 HD
ENDBRANCH   8  28
TORSDOF 7
ENDMDL
MODEL 3
REMARK VINA RESULT:    -7.753      1.369      7.409
REMARK INTER + INTRA:          -9.843
REMARK INTER:                  -9.821
REMARK INTRA:                  -0.022
REMARK UNBOUND:                -0.277
REMARK SMILES O=C1c2c(O)cc(O)cc2O[C@@H](c2cc(O)c(O)c(O)c2)[C@@H]1O
REMARK SMILES IDX 12 1 22 2 2 3 1 4 3 5 4 6 6 7 7 8 9 9 10 10 11 11 13 12
REMARK SMILES IDX 14 13 15 14 21 15 17 16 19 17 16 18 18 20 20 22 23 24 5 26
REMARK SMILES IDX 8 28
REMARK H PARENT 16 19 18 21 20 23 23 25 5 27 8 29
REMARK Flexibility Score: inf
ROOT
ATOM      1  C   UNL     1      12.798  44.941   6.244  1.00  0.00     0.240 C 
ATOM      2  C   UNL     1      13.301  45.374   4.857  1.00  0.00     0.231 C 
ATOM      3  C   UNL     1      14.642  44.743   4.559  1.00  0.00     0.202 C 
ATOM      4  O   UNL     1      15.013  44.670   3.358  1.00  0.00    -0.291 OA
ATOM      5  C   UNL     1      15.564  44.374   5.673  1.00  0.00     0.105 A 
ATOM      6  C   UNL     1      16.867  43.833   5.488  1.00  0.00     0.133 A 
ATOM      7  C   UNL     1      17.726  43.712   6.588  1.00  0.00     0.093 A 
ATOM      8  C   UNL     1      17.302  44.065   7.872  1.00  0.00     0.123 A 
ATOM      9  C   UNL     1      16.004  44.533   8.068  1.00  0.00     0.093 A 
ATOM     10  C   UNL     1      15.134  44.670   6.985  1.00  0.00     0.138 A 
ATOM     11  O   UNL     1      13.827  45.110   7.217  1.00  0.00    -0.481 OA
ENDROOT
BRANCH   1  12
ATOM     12  C   UNL     1      11.575  45.730   6.650  1.00  0.00     0.003 A 
ATOM     13  C   UNL     1      10.805  45.324   7.752  1.00  0.00     0.058 A 
ATOM     14  C   UNL     1       9.654  46.035   8.116  1.00  0.00     0.161 A 
ATOM     15  C   UNL     1      11.164  46.845   5.900  1.00  0.00     0.058 A 
ATOM     16  C   UNL     1       9.257  47.155   7.372  1.00  0.00     0.200 A 
ATOM     17  C   UNL     1      10.013  47.561   6.260  1.00  0.00     0.161 A 
BRANCH  14  18
ATOM     18  O   UNL     1       8.896  45.634   9.214  1.00  0.00    -0.504 OA
ATOM     19  H   UNL     1       9.301  45.088   9.966  1.00  0.00     0.293 HD
ENDBRANCH  14  18
BRANCH  16  20
ATOM     20  O   UNL     1       8.109  47.851   7.751  1.00  0.00    -0.502 OA
ATOM     21  H   UNL     1       7.912  48.788   7.418  1.00  0.00     0.293 HD
ENDBRANCH  16  20
BRANCH  17  22
ATOM     22  O   UNL     1       9.619  48.670   5.514  1.00  0.00    -0.504 OA
ATOM     23  H   UNL     1       8.641  48.876   5.346  1.00  0.00     0.293 HD
ENDBRANCH  17  22
ENDBRANCH   1  12
BRANCH   2  24
ATOM     24  O   UNL     1      12.361  44.994   3.884  1.00  0.00    -0.381 OA
ATOM     25  H   UNL     1      12.211  45.784   3.303  1.00  0.00     0.211 HD
ENDBRANCH   2  24
BRANCH   6  26
ATOM     26  O   UNL     1      17.345  43.384   4.256  1.00  0.00    -0.507 OA
ATOM     27  H   UNL     1      17.801  43.974   3.576  1.00  0.00     0.293 HD
ENDBRANCH   6  26
BRANCH   8  28
ATOM     28  O   UNL     1      18.160  43.941   8.963  1.00  0.00    -0.508 OA
ATOM     29  H   UNL     1      17.844  43.550   9.844  1.00  0.00     0.293 HD
ENDBRANCH   8  28
TORSDOF 7
ENDMDL
MODEL 4
REMARK VINA RESULT:    -7.733      1.815      3.127
REMARK INTER + INTRA:          -9.818
REMARK INTER:                  -9.471
REMARK INTRA:                  -0.347
REMARK UNBOUND:                -0.277
REMARK SMILES O=C1c2c(O)cc(O)cc2O[C@@H](c2cc(O)c(O)c(O)c2)[C@@H]1O
REMARK SMILES IDX 12 1 22 2 2 3 1 4 3 5 4 6 6 7 7 8 9 9 10 10 11 11 13 12
REMARK SMILES IDX 14 13 15 14 21 15 17 16 19 17 16 18 18 20 20 22 23 24 5 26
REMARK SMILES IDX 8 28
REMARK H PARENT 16 19 18 21 20 23 23 25 5 27 8 29
REMARK Flexibility Score: inf
ROOT
ATOM      1  C   UNL     1      13.734  45.464   7.488  1.00  0.00     0.240 C 
ATOM      2  C   UNL     1      13.594  45.485   5.957  1.00  0.00     0.231 C 
ATOM      3  C   UNL     1      12.419  46.342   5.544  1.00  0.00     0.202 C 
ATOM      4  O   UNL     1      12.386  46.780   4.364  1.00  0.00    -0.291 OA
ATOM      5  C   UNL     1      11.257  46.518   6.464  1.00  0.00     0.105 A 
ATOM      6  C   UNL     1      10.084  47.254   6.139  1.00  0.00     0.133 A 
ATOM      7  C   UNL     1       8.972  47.190   6.988  1.00  0.00     0.093 A 
ATOM      8  C   UNL     1       9.017  46.455   8.177  1.00  0.00     0.123 A 
ATOM      9  C   UNL     1      10.188  45.787   8.531  1.00  0.00     0.093 A 
ATOM     10  C   UNL     1      11.305  45.831   7.696  1.00  0.00     0.138 A 
ATOM     11  O   UNL     1      12.476  45.178   8.095  1.00  0.00    -0.481 OA
ENDROOT
BRANCH   1  12
ATOM     12  C   UNL     1      14.758  44.442   7.927  1.00  0.00     0.003 A 
ATOM     13  C   UNL     1      14.427  43.078   7.956  1.00  0.00     0.058 A 
ATOM     14  C   UNL     1      15.364  42.129   8.389  1.00  0.00     0.161 A 
ATOM     15  C   UNL     1      16.033  44.848   8.357  1.00  0.00     0.058 A 
ATOM     16  C   UNL     1      16.637  42.539   8.805  1.00  0.00     0.200 A 
ATOM     17  C   UNL     1      16.973  43.903   8.790  1.00  0.00     0.161 A 
BRANCH  14  18
ATOM     18  O   UNL     1      15.034  40.775   8.412  1.00  0.00    -0.504 OA
ATOM     19  H   UNL     1      14.086  40.457   8.243  1.00  0.00     0.293 HD
ENDBRANCH  14  18
BRANCH  16  20
ATOM     20  O   UNL     1      17.556  41.579   9.230  1.00  0.00    -0.502 OA
ATOM     21  H   UNL     1      18.445  41.831   9.646  1.00  0.00     0.293 HD
ENDBRANCH  16  20
BRANCH  17  22
ATOM     22  O   UNL     1      18.237  44.316   9.209  1.00  0.00    -0.504 OA
ATOM     23  H   UNL     1      18.400  44.655  10.149  1.00  0.00     0.293 HD
ENDBRANCH  17  22
ENDBRANCH   1  12
BRANCH   2  24
ATOM     24  O   UNL     1      14.779  45.984   5.390  1.00  0.00    -0.381 OA
ATOM     25  H   UNL     1      15.094  45.307   4.737  1.00  0.00     0.211 HD
ENDBRANCH   2  24
BRANCH   6  26
ATOM     26  O   UNL     1       9.978  48.074   5.014  1.00  0.00    -0.507 OA
ATOM     27  H   UNL     1       9.521  47.802   4.156  1.00  0.00     0.293 HD
ENDBRANCH   6  26
BRANCH   8  28
ATOM     28  O   UNL     1       7.909  46.396   9.019  1.00  0.00    -0.508 OA
ATOM     29  H   UNL     1       7.621  47.194   9.573  1.00  0.00     0.293 HD
ENDBRANCH   8  28
TORSDOF 7
ENDMDL
MODEL 5
REMARK VINA RESULT:    -7.713      2.441      6.840
REMARK INTER + INTRA:          -9.795
REMARK INTER:                  -9.573
REMARK INTRA:                  -0.222
REMARK UNBOUND:                -0.277
REMARK SMILES O=C1c2c(O)cc(O)cc2O[C@@H](c2cc(O)c(O)c(O)c2)[C@@H]1O
REMARK SMILES IDX 12 1 22 2 2 3 1 4 3 5 4 6 6 7 7 8 9 9 10 10 11 11 13 12
REMARK SMILES IDX 14 13 15 14 21 15 17 16 19 17 16 18 18 20 20 22 23 24 5 26
REMARK SMILES IDX 8 28
REMARK H PARENT 16 19 18 21 20 23 23 25 5 27 8 29
REMARK Flexibility Score: inf
ROOT
ATOM      1  C   UNL     1      11.755  45.113   7.347  1.00  0.00     0.240 C 
ATOM      2  C   UNL     1      13.215  45.119   7.831  1.00  0.00     0.231 C 
ATOM      3  C   UNL     1      14.162  45.001   6.659  1.00  0.00     0.202 C 
ATOM      4  O   UNL     1      15.355  45.370   6.817  1.00  0.00    -0.291 OA
ATOM      5  C   UNL     1      13.729  44.309   5.410  1.00  0.00     0.105 A 
ATOM      6  C   UNL     1      14.568  44.096   4.281  1.00  0.00     0.133 A 
ATOM      7  C   UNL     1      14.132  43.263   3.243  1.00  0.00     0.093 A 
ATOM      8  C   UNL     1      12.861  42.680   3.277  1.00  0.00     0.123 A 
ATOM      9  C   UNL     1      12.010  42.940   4.350  1.00  0.00     0.093 A 
ATOM     10  C   UNL     1      12.428  43.761   5.398  1.00  0.00     0.138 A 
ATOM     11  O   UNL     1      11.540  44.030   6.444  1.00  0.00    -0.481 OA
ENDROOT
BRANCH   1  12
ATOM     12  C   UNL     1      10.796  45.007   8.511  1.00  0.00     0.003 A 
ATOM     13  C   UNL     1      11.190  44.363   9.694  1.00  0.00     0.058 A 
ATOM     14  C   UNL     1      10.296  44.237  10.767  1.00  0.00     0.161 A 
ATOM     15  C   UNL     1       9.487  45.506   8.404  1.00  0.00     0.058 A 
ATOM     16  C   UNL     1       8.996  44.748  10.659  1.00  0.00     0.200 A 
ATOM     17  C   UNL     1       8.589  45.383   9.474  1.00  0.00     0.161 A 
BRANCH  14  18
ATOM     18  O   UNL     1      10.692  43.603  11.942  1.00  0.00    -0.504 OA
ATOM     19  H   UNL     1      10.258  42.741  12.252  1.00  0.00     0.293 HD
ENDBRANCH  14  18
BRANCH  16  20
ATOM     20  O   UNL     1       8.122  44.615  11.738  1.00  0.00    -0.502 OA
ATOM     21  H   UNL     1       8.152  45.237  12.537  1.00  0.00     0.293 HD
ENDBRANCH  16  20
BRANCH  17  22
ATOM     22  O   UNL     1       7.295  45.887   9.361  1.00  0.00    -0.504 OA
ATOM     23  H   UNL     1       7.052  46.810   9.703  1.00  0.00     0.293 HD
ENDBRANCH  17  22
ENDBRANCH   1  12
BRANCH   2  24
ATOM     24  O   UNL     1      13.463  46.310   8.535  1.00  0.00    -0.381 OA
ATOM     25  H   UNL     1      13.589  46.062   9.487  1.00  0.00     0.211 HD
ENDBRANCH   2  24
BRANCH   6  26
ATOM     26  O   UNL     1      15.819  44.698   4.128  1.00  0.00    -0.507 OA
ATOM     27  H   UNL     1      16.087  45.252   3.329  1.00  0.00     0.293 HD
ENDBRANCH   6  26
BRANCH   8  28
ATOM     28  O   UNL     1      12.430  41.853   2.242  1.00  0.00    -0.508 OA
ATOM     29  H   UNL     1      12.186  40.883   2.405  1.00  0.00     0.293 HD
ENDBRANCH   8  28
TORSDOF 7
ENDMDL
MODEL 6
REMARK VINA RESULT:    -7.596      1.429      3.489
REMARK INTER + INTRA:          -9.649
REMARK INTER:                  -9.323
REMARK INTRA:                  -0.326
REMARK UNBOUND:                -0.277
REMARK SMILES O=C1c2c(O)cc(O)cc2O[C@@H](c2cc(O)c(O)c(O)c2)[C@@H]1O
REMARK SMILES IDX 12 1 22 2 2 3 1 4 3 5 4 6 6 7 7 8 9 9 10 10 11 11 13 12
REMARK SMILES IDX 14 13 15 14 21 15 17 16 19 17 16 18 18 20 20 22 23 24 5 26
REMARK SMILES IDX 8 28
REMARK H PARENT 16 19 18 21 20 23 23 25 5 27 8 29
REMARK Flexibility Score: inf
ROOT
ATOM      1  C   UNL     1      13.060  45.846   7.020  1.00  0.00     0.240 C 
ATOM      2  C   UNL     1      12.181  46.405   5.888  1.00  0.00     0.231 C 
ATOM      3  C   UNL     1      10.856  46.885   6.434  1.00  0.00     0.202 C 
ATOM      4  O   UNL     1      10.189  47.702   5.747  1.00  0.00    -0.291 OA
ATOM      5  C   UNL     1      10.287  46.273   7.670  1.00  0.00     0.105 A 
ATOM      6  C   UNL     1       9.021  46.616   8.223  1.00  0.00     0.133 A 
ATOM      7  C   UNL     1       8.491  45.843   9.265  1.00  0.00     0.093 A 
ATOM      8  C   UNL     1       9.212  44.774   9.804  1.00  0.00     0.123 A 
ATOM      9  C   UNL     1      10.481  44.476   9.310  1.00  0.00     0.093 A 
ATOM     10  C   UNL     1      11.025  45.228   8.267  1.00  0.00     0.138 A 
ATOM     11  O   UNL     1      12.313  44.926   7.815  1.00  0.00    -0.481 OA
ENDROOT
BRANCH   1  12
ATOM     12  C   UNL     1      14.290  45.163   6.467  1.00  0.00     0.003 A 
ATOM     13  C   UNL     1      15.540  45.358   7.075  1.00  0.00     0.058 A 
ATOM     14  C   UNL     1      16.689  44.751   6.550  1.00  0.00     0.161 A 
ATOM     15  C   UNL     1      14.206  44.369   5.310  1.00  0.00     0.058 A 
ATOM     16  C   UNL     1      16.597  43.950   5.404  1.00  0.00     0.200 A 
ATOM     17  C   UNL     1      15.352  43.759   4.781  1.00  0.00     0.161 A 
BRANCH  14  18
ATOM     18  O   UNL     1      17.927  44.941   7.160  1.00  0.00    -0.504 OA
ATOM     19  H   UNL     1      18.368  45.853   7.190  1.00  0.00     0.293 HD
ENDBRANCH  14  18
BRANCH  16  20
ATOM     20  O   UNL     1      17.751  43.352   4.898  1.00  0.00    -0.502 OA
ATOM     21  H   UNL     1      17.770  42.897   3.992  1.00  0.00     0.293 HD
ENDBRANCH  16  20
BRANCH  17  22
ATOM     22  O   UNL     1      15.257  42.968   3.638  1.00  0.00    -0.504 OA
ATOM     23  H   UNL     1      14.402  42.479   3.399  1.00  0.00     0.293 HD
ENDBRANCH  17  22
ENDBRANCH   1  12
BRANCH   2  24
ATOM     24  O   UNL     1      12.857  47.465   5.259  1.00  0.00    -0.381 OA
ATOM     25  H   UNL     1      13.404  47.913   5.956  1.00  0.00     0.211 HD
ENDBRANCH   2  24
BRANCH   6  26
ATOM     26  O   UNL     1       8.269  47.712   7.798  1.00  0.00    -0.507 OA
ATOM     27  H   UNL     1       7.669  47.708   6.987  1.00  0.00     0.293 HD
ENDBRANCH   6  26
BRANCH   8  28
ATOM     28  O   UNL     1       8.681  44.010  10.841  1.00  0.00    -0.508 OA
ATOM     29  H   UNL     1       8.598  44.378  11.782  1.00  0.00     0.293 HD
ENDBRANCH   8  28
TORSDOF 7
ENDMDL
MODEL 7
REMARK VINA RESULT:    -7.539      1.421      3.050
REMARK INTER + INTRA:          -9.580
REMARK INTER:                  -9.260
REMARK INTRA:                  -0.320
REMARK UNBOUND:                -0.277
REMARK SMILES O=C1c2c(O)cc(O)cc2O[C@@H](c2cc(O)c(O)c(O)c2)[C@@H]1O
REMARK SMILES IDX 12 1 22 2 2 3 1 4 3 5 4 6 6 7 7 8 9 9 10 10 11 11 13 12
REMARK SMILES IDX 14 13 15 14 21 15 17 16 19 17 16 18 18 20 20 22 23 24 5 26
REMARK SMILES IDX 8 28
REMARK H PARENT 16 19 18 21 20 23 23 25 5 27 8 29
REMARK Flexibility Score: inf
ROOT
ATOM      1  C   UNL     1      13.047  45.890   6.961  1.00  0.00     0.240 C 
ATOM      2  C   UNL     1      12.172  46.435   5.819  1.00  0.00     0.231 C 
ATOM      3  C   UNL     1      10.836  46.901   6.351  1.00  0.00     0.202 C 
ATOM      4  O   UNL     1      10.166  47.708   5.655  1.00  0.00    -0.291 OA
ATOM      5  C   UNL     1      10.263  46.287   7.585  1.00  0.00     0.105 A 
ATOM      6  C   UNL     1       8.989  46.617   8.125  1.00  0.00     0.133 A 
ATOM      7  C   UNL     1       8.458  45.843   9.165  1.00  0.00     0.093 A 
ATOM      8  C   UNL     1       9.187  44.785   9.715  1.00  0.00     0.123 A 
ATOM      9  C   UNL     1      10.464  44.500   9.234  1.00  0.00     0.093 A 
ATOM     10  C   UNL     1      11.008  45.253   8.192  1.00  0.00     0.138 A 
ATOM     11  O   UNL     1      12.304  44.966   7.753  1.00  0.00    -0.481 OA
ENDROOT
BRANCH   1  12
ATOM     12  C   UNL     1      14.290  45.220   6.422  1.00  0.00     0.003 A 
ATOM     13  C   UNL     1      14.220  44.428   5.265  1.00  0.00     0.058 A 
ATOM     14  C   UNL     1      15.364  43.781   4.777  1.00  0.00     0.161 A 
ATOM     15  C   UNL     1      15.516  45.340   7.099  1.00  0.00     0.058 A 
ATOM     16  C   UNL     1      16.586  43.914   5.449  1.00  0.00     0.200 A 
ATOM     17  C   UNL     1      16.662  44.695   6.615  1.00  0.00     0.161 A 
BRANCH  14  18
ATOM     18  O   UNL     1      15.292  43.000   3.625  1.00  0.00    -0.504 OA
ATOM     19  H   UNL     1      14.515  42.371   3.458  1.00  0.00     0.293 HD
ENDBRANCH  14  18
BRANCH  16  20
ATOM     20  O   UNL     1      17.713  43.265   4.946  1.00  0.00    -0.502 OA
ATOM     21  H   UNL     1      18.104  43.487   4.038  1.00  0.00     0.293 HD
ENDBRANCH  16  20
BRANCH  17  22
ATOM     22  O   UNL     1      17.875  44.826   7.289  1.00  0.00    -0.504 OA
ATOM     23  H   UNL     1      17.921  45.193   8.233  1.00  0.00     0.293 HD
ENDBRANCH  17  22
ENDBRANCH   1  12
BRANCH   2  24
ATOM     24  O   UNL     1      12.841  47.500   5.192  1.00  0.00    -0.381 OA
ATOM     25  H   UNL     1      13.000  48.190   5.887  1.00  0.00     0.211 HD
ENDBRANCH   2  24
BRANCH   6  26
ATOM     26  O   UNL     1       8.227  47.703   7.689  1.00  0.00    -0.507 OA
ATOM     27  H   UNL     1       8.185  48.017   6.731  1.00  0.00     0.293 HD
ENDBRANCH   6  26
BRANCH   8  28
ATOM     28  O   UNL     1       8.656  44.018  10.751  1.00  0.00    -0.508 OA
ATOM     29  H   UNL     1       8.413  43.043  10.618  1.00  0.00     0.293 HD
ENDBRANCH   8  28
TORSDOF 7
ENDMDL
MODEL 8
REMARK VINA RESULT:    -7.537      2.552      6.941
REMARK INTER + INTRA:          -9.577
REMARK INTER:                  -9.222
REMARK INTRA:                  -0.355
REMARK UNBOUND:                -0.277
REMARK SMILES O=C1c2c(O)cc(O)cc2O[C@@H](c2cc(O)c(O)c(O)c2)[C@@H]1O
REMARK SMILES IDX 12 1 22 2 2 3 1 4 3 5 4 6 6 7 7 8 9 9 10 10 11 11 13 12
REMARK SMILES IDX 14 13 15 14 21 15 17 16 19 17 16 18 18 20 20 22 23 24 5 26
REMARK SMILES IDX 8 28
REMARK H PARENT 16 19 18 21 20 23 23 25 5 27 8 29
REMARK Flexibility Score: inf
ROOT
ATOM      1  C   UNL     1      14.194  44.322   6.631  1.00  0.00     0.240 C 
ATOM      2  C   UNL     1      15.209  45.126   7.462  1.00  0.00     0.231 C 
ATOM      3  C   UNL     1      16.243  44.205   8.070  1.00  0.00     0.202 C 
ATOM      4  O   UNL     1      17.337  44.702   8.444  1.00  0.00    -0.291 OA
ATOM      5  C   UNL     1      15.901  42.783   8.368  1.00  0.00     0.105 A 
ATOM      6  C   UNL     1      16.786  41.861   8.994  1.00  0.00     0.133 A 
ATOM      7  C   UNL     1      16.302  40.615   9.411  1.00  0.00     0.093 A 
ATOM      8  C   UNL     1      14.975  40.243   9.173  1.00  0.00     0.123 A 
ATOM      9  C   UNL     1      14.123  41.118   8.501  1.00  0.00     0.093 A 
ATOM     10  C   UNL     1      14.582  42.368   8.084  1.00  0.00     0.138 A 
ATOM     11  O   UNL     1      13.713  43.210   7.382  1.00  0.00    -0.481 OA
ENDROOT
BRANCH   1  12
ATOM     12  C   UNL     1      13.035  45.191   6.201  1.00  0.00     0.003 A 
ATOM     13  C   UNL     1      12.917  45.602   4.864  1.00  0.00     0.058 A 
ATOM     14  C   UNL     1      11.860  46.431   4.465  1.00  0.00     0.161 A 
ATOM     15  C   UNL     1      12.091  45.638   7.142  1.00  0.00     0.058 A 
ATOM     16  C   UNL     1      10.915  46.863   5.405  1.00  0.00     0.200 A 
ATOM     17  C   UNL     1      11.032  46.467   6.748  1.00  0.00     0.161 A 
BRANCH  14  18
ATOM     18  O   UNL     1      11.743  46.831   3.136  1.00  0.00    -0.504 OA
ATOM     19  H   UNL     1      11.503  46.174   2.403  1.00  0.00     0.293 HD
ENDBRANCH  14  18
BRANCH  16  20
ATOM     20  O   UNL     1       9.869  47.686   4.989  1.00  0.00    -0.502 OA
ATOM     21  H   UNL     1       8.966  47.314   4.715  1.00  0.00     0.293 HD
ENDBRANCH  16  20
BRANCH  17  22
ATOM     22  O   UNL     1      10.097  46.900   7.687  1.00  0.00    -0.504 OA
ATOM     23  H   UNL     1       9.815  46.314   8.465  1.00  0.00     0.293 HD
ENDBRANCH  17  22
ENDBRANCH   1  12
BRANCH   2  24
ATOM     24  O   UNL     1      15.834  46.076   6.637  1.00  0.00    -0.381 OA
ATOM     25  H   UNL     1      16.222  45.581   5.869  1.00  0.00     0.211 HD
ENDBRANCH   2  24
BRANCH   6  26
ATOM     26  O   UNL     1      18.142  42.119   9.201  1.00  0.00    -0.507 OA
ATOM     27  H   UNL     1      18.862  41.955   8.514  1.00  0.00     0.293 HD
ENDBRANCH   6  26
BRANCH   8  28
ATOM     28  O   UNL     1      14.499  39.002   9.589  1.00  0.00    -0.508 OA
ATOM     29  H   UNL     1      13.861  38.460   9.017  1.00  0.00     0.293 HD
ENDBRANCH   8  28
TORSDOF 7
ENDMDL
MODEL 9
REMARK VINA RESULT:    -7.391      2.036      3.589
REMARK INTER + INTRA:          -9.397
REMARK INTER:                  -9.024
REMARK INTRA:                  -0.373
REMARK UNBOUND:                -0.277
REMARK SMILES O=C1c2c(O)cc(O)cc2O[C@@H](c2cc(O)c(O)c(O)c2)[C@@H]1O
REMARK SMILES IDX 12 1 22 2 2 3 1 4 3 5 4 6 6 7 7 8 9 9 10 10 11 11 13 12
REMARK SMILES IDX 14 13 15 14 21 15 17 16 19 17 16 18 18 20 20 22 23 24 5 26
REMARK SMILES IDX 8 28
REMARK H PARENT 16 19 18 21 20 23 23 25 5 27 8 29
REMARK Flexibility Score: inf
ROOT
ATOM      1  C   UNL     1      11.175  45.460   7.561  1.00  0.00     0.240 C 
ATOM      2  C   UNL     1      11.252  46.581   6.510  1.00  0.00     0.231 C 
ATOM      3  C   UNL     1       9.953  47.351   6.462  1.00  0.00     0.202 C 
ATOM      4  O   UNL     1       9.963  48.507   5.962  1.00  0.00    -0.291 OA
ATOM      5  C   UNL     1       8.671  46.688   6.843  1.00  0.00     0.105 A 
ATOM      6  C   UNL     1       7.395  47.313   6.771  1.00  0.00     0.133 A 
ATOM      7  C   UNL     1       6.238  46.544   6.957  1.00  0.00     0.093 A 
ATOM      8  C   UNL     1       6.323  45.183   7.265  1.00  0.00     0.123 A 
ATOM      9  C   UNL     1       7.574  44.582   7.402  1.00  0.00     0.093 A 
ATOM     10  C   UNL     1       8.738  45.327   7.213  1.00  0.00     0.138 A 
ATOM     11  O   UNL     1       9.978  44.705   7.390  1.00  0.00    -0.481 OA
ENDROOT
BRANCH   1  12
ATOM     12  C   UNL     1      12.375  44.545   7.469  1.00  0.00     0.003 A 
ATOM     13  C   UNL     1      12.730  43.966   6.241  1.00  0.00     0.058 A 
ATOM     14  C   UNL     1      13.825  43.095   6.155  1.00  0.00     0.161 A 
ATOM     15  C   UNL     1      13.117  44.224   8.619  1.00  0.00     0.058 A 
ATOM     16  C   UNL     1      14.568  42.788   7.303  1.00  0.00     0.200 A 
ATOM     17  C   UNL     1      14.213  43.353   8.539  1.00  0.00     0.161 A 
BRANCH  14  18
ATOM     18  O   UNL     1      14.178  42.527   4.933  1.00  0.00    -0.504 OA
ATOM     19  H   UNL     1      14.334  43.096   4.109  1.00  0.00     0.293 HD
ENDBRANCH  14  18
BRANCH  16  20
ATOM     20  O   UNL     1      15.655  41.921   7.197  1.00  0.00    -0.502 OA
ATOM     21  H   UNL     1      15.681  41.028   7.675  1.00  0.00     0.293 HD
ENDBRANCH  16  20
BRANCH  17  22
ATOM     22  O   UNL     1      14.946  43.047   9.684  1.00  0.00    -0.504 OA
ATOM     23  H   UNL     1      15.079  43.723  10.427  1.00  0.00     0.293 HD
ENDBRANCH  17  22
ENDBRANCH   1  12
BRANCH   2  24
ATOM     24  O   UNL     1      12.314  47.444   6.831  1.00  0.00    -0.381 OA
ATOM     25  H   UNL     1      11.973  48.079   7.513  1.00  0.00     0.211 HD
ENDBRANCH   2  24
BRANCH   6  26
ATOM     26  O   UNL     1       7.220  48.679   6.545  1.00  0.00    -0.507 OA
ATOM     27  H   UNL     1       6.324  49.118   6.388  1.00  0.00     0.293 HD
ENDBRANCH   6  26
BRANCH   8  28
ATOM     28  O   UNL     1       5.171  44.423   7.450  1.00  0.00    -0.508 OA
ATOM     29  H   UNL     1       4.257  44.856   7.526  1.00  0.00     0.293 HD
ENDBRANCH   8  28
TORSDOF 7
ENDMDL
