MODEL 1
REMARK VINA RESULT:    -4.204      0.000      0.000
REMARK INTER + INTRA:         -10.410
REMARK INTER:                  -8.137
REMARK INTRA:                  -2.273
REMARK UNBOUND:                -2.273
REMARK SMILES CCCCCCCCCCCCCCCCCC(=O)[O-]
REMARK SMILES IDX 10 1 11 2 12 3 13 4 14 5 15 6 16 7 17 8 18 9 19 10 20 11
REMARK SMILES IDX 9 12 8 13 7 14 6 15 5 16 4 17 3 18 2 19 1 20
REMARK H PARENT
REMARK Flexibility Score: inf
ROOT
ATOM      1  C   UNL     1      -2.280  59.041  48.871  1.00  0.00     0.000 C 
ENDROOT
BRANCH   1   2
ATOM      2  C   UNL     1      -3.452  60.009  48.631  1.00  0.00     0.000 C 
BRANCH   2   3
ATOM      3  C   UNL     1      -3.366  60.720  47.269  1.00  0.00     0.000 C 
BRANCH   3   4
ATOM      4  C   UNL     1      -3.700  62.226  47.300  1.00  0.00     0.000 C 
BRANCH   4   5
ATOM      5  C   UNL     1      -3.778  62.906  45.919  1.00  0.00     0.000 C 
BRANCH   5   6
ATOM      6  C   UNL     1      -3.280  62.046  44.741  1.00  0.00     0.000 C 
BRANCH   6   7
ATOM      7  C   UNL     1      -1.988  62.548  44.066  1.00  0.00     0.006 C 
BRANCH   7   8
ATOM      8  C   UNL     1      -0.747  62.529  44.973  1.00  0.00     0.053 C 
BRANCH   8   9
ATOM      9  C   UNL     1      -0.240  63.908  45.257  1.00  0.00     0.041 C 
ATOM     10  O   UNL     1      -0.758  64.906  44.689  1.00  0.00    -0.550 OA
ATOM     11  O   UNL     1       0.829  64.090  46.126  1.00  0.00    -0.550 OA
ENDBRANCH   8   9
ENDBRANCH   7   8
ENDBRANCH   6   7
ENDBRANCH   5   6
ENDBRANCH   4   5
ENDBRANCH   3   4
ENDBRANCH   2   3
ENDBRANCH   1   2
BRANCH   1  12
ATOM     12  C   UNL     1      -2.730  57.575  48.935  1.00  0.00     0.000 C 
BRANCH  12  13
ATOM     13  C   UNL     1      -1.880  56.655  48.041  1.00  0.00    -0.000 C 
BRANCH  13  14
ATOM     14  C   UNL     1      -2.696  56.075  46.864  1.00  0.00    -0.000 C 
BRANCH  14  15
ATOM     15  C   UNL     1      -3.961  56.884  46.532  1.00  0.00    -0.000 C 
BRANCH  15  16
ATOM     16  C   UNL     1      -3.749  57.878  45.379  1.00  0.00    -0.000 C 
BRANCH  16  17
ATOM     17  C   UNL     1      -2.356  57.758  44.732  1.00  0.00    -0.000 C 
BRANCH  17  18
ATOM     18  C   UNL     1      -1.361  58.878  45.096  1.00  0.00    -0.000 C 
BRANCH  18  19
ATOM     19  C   UNL     1       0.026  58.758  44.440  1.00  0.00    -0.003 C 
ATOM     20  C   UNL     1       0.060  57.736  43.304  1.00  0.00     0.004 C 
ENDBRANCH  18  19
ENDBRANCH  17  18
ENDBRANCH  16  17
ENDBRANCH  15  16
ENDBRANCH  14  15
ENDBRANCH  13  14
ENDBRANCH  12  13
ENDBRANCH   1  12
TORSDOF 16
ENDMDL
MODEL 2
REMARK VINA RESULT:    -4.124     13.924     15.621
REMARK INTER + INTRA:         -10.254
REMARK INTER:                  -8.696
REMARK INTRA:                  -1.558
REMARK UNBOUND:                -2.273
REMARK SMILES CCCCCCCCCCCCCCCCCC(=O)[O-]
REMARK SMILES IDX 10 1 11 2 12 3 13 4 14 5 15 6 16 7 17 8 18 9 19 10 20 11
REMARK SMILES IDX 9 12 8 13 7 14 6 15 5 16 4 17 3 18 2 19 1 20
REMARK H PARENT
REMARK Flexibility Score: inf
ROOT
ATOM      1  C   UNL     1       8.011  62.294  59.339  1.00  0.00     0.000 C 
ENDROOT
BRANCH   1   2
ATOM      2  C   UNL     1       9.487  62.388  59.765  1.00  0.00     0.000 C 
BRANCH   2   3
ATOM      3  C   UNL     1      10.251  63.496  59.021  1.00  0.00     0.000 C 
BRANCH   3   4
ATOM      4  C   UNL     1       9.443  64.218  57.923  1.00  0.00     0.000 C 
BRANCH   4   5
ATOM      5  C   UNL     1      10.145  64.315  56.554  1.00  0.00     0.000 C 
BRANCH   5   6
ATOM      6  C   UNL     1      11.039  65.557  56.367  1.00  0.00     0.000 C 
BRANCH   6   7
ATOM      7  C   UNL     1      11.639  65.723  54.956  1.00  0.00     0.006 C 
BRANCH   7   8
ATOM      8  C   UNL     1      11.612  64.448  54.099  1.00  0.00     0.053 C 
BRANCH   8   9
ATOM      9  C   UNL     1      10.971  64.683  52.767  1.00  0.00     0.041 C 
ATOM     10  O   UNL     1      10.122  63.867  52.318  1.00  0.00    -0.550 OA
ATOM     11  O   UNL     1      11.334  65.786  52.004  1.00  0.00    -0.550 OA
ENDBRANCH   8   9
ENDBRANCH   7   8
ENDBRANCH   6   7
ENDBRANCH   5   6
ENDBRANCH   4   5
ENDBRANCH   3   4
ENDBRANCH   2   3
ENDBRANCH   1   2
BRANCH   1  12
ATOM     12  C   UNL     1       7.144  61.561  60.373  1.00  0.00     0.000 C 
BRANCH  12  13
ATOM     13  C   UNL     1       5.649  61.898  60.237  1.00  0.00    -0.000 C 
BRANCH  13  14
ATOM     14  C   UNL     1       5.314  62.500  58.854  1.00  0.00    -0.000 C 
BRANCH  14  15
ATOM     15  C   UNL     1       4.514  61.550  57.946  1.00  0.00    -0.000 C 
BRANCH  15  16
ATOM     16  C   UNL     1       5.351  60.988  56.785  1.00  0.00    -0.000 C 
BRANCH  16  17
ATOM     17  C   UNL     1       6.118  59.707  57.164  1.00  0.00    -0.000 C 
BRANCH  17  18
ATOM     18  C   UNL     1       7.624  59.720  56.840  1.00  0.00    -0.000 C 
BRANCH  18  19
ATOM     19  C   UNL     1       7.974  59.542  55.352  1.00  0.00    -0.003 C 
ATOM     20  C   UNL     1       8.353  60.856  54.669  1.00  0.00     0.004 C 
ENDBRANCH  18  19
ENDBRANCH  17  18
ENDBRANCH  16  17
ENDBRANCH  15  16
ENDBRANCH  14  15
ENDBRANCH  13  14
ENDBRANCH  12  13
ENDBRANCH   1  12
TORSDOF 16
ENDMDL
MODEL 3
REMARK VINA RESULT:    -4.062      2.029      5.119
REMARK INTER + INTRA:         -10.135
REMARK INTER:                  -7.889
REMARK INTRA:                  -2.246
REMARK UNBOUND:                -2.273
REMARK SMILES CCCCCCCCCCCCCCCCCC(=O)[O-]
REMARK SMILES IDX 10 1 11 2 12 3 13 4 14 5 15 6 16 7 17 8 18 9 19 10 20 11
REMARK SMILES IDX 9 12 8 13 7 14 6 15 5 16 4 17 3 18 2 19 1 20
REMARK H PARENT
REMARK Flexibility Score: inf
ROOT
ATOM      1  C   UNL     1      -2.222  58.964  48.875  1.00  0.00     0.000 C 
ENDROOT
BRANCH   1   2
ATOM      2  C   UNL     1      -2.745  57.517  48.858  1.00  0.00     0.000 C 
BRANCH   2   3
ATOM      3  C   UNL     1      -1.922  56.598  47.938  1.00  0.00     0.000 C 
BRANCH   3   4
ATOM      4  C   UNL     1      -2.680  56.066  46.705  1.00  0.00     0.000 C 
BRANCH   4   5
ATOM      5  C   UNL     1      -3.710  57.040  46.101  1.00  0.00     0.000 C 
BRANCH   5   6
ATOM      6  C   UNL     1      -3.166  57.956  44.986  1.00  0.00     0.000 C 
BRANCH   6   7
ATOM      7  C   UNL     1      -1.681  57.739  44.631  1.00  0.00     0.006 C 
BRANCH   7   8
ATOM      8  C   UNL     1      -0.731  58.812  45.187  1.00  0.00     0.053 C 
BRANCH   8   9
ATOM      9  C   UNL     1       0.337  59.179  44.203  1.00  0.00     0.041 C 
ATOM     10  O   UNL     1       0.413  60.355  43.757  1.00  0.00    -0.550 OA
ATOM     11  O   UNL     1       1.228  58.214  43.752  1.00  0.00    -0.550 OA
ENDBRANCH   8   9
ENDBRANCH   7   8
ENDBRANCH   6   7
ENDBRANCH   5   6
ENDBRANCH   4   5
ENDBRANCH   3   4
ENDBRANCH   2   3
ENDBRANCH   1   2
BRANCH   1  12
ATOM     12  C   UNL     1      -3.355  60.000  48.903  1.00  0.00     0.000 C 
BRANCH  12  13
ATOM     13  C   UNL     1      -4.057  60.146  47.541  1.00  0.00    -0.000 C 
BRANCH  13  14
ATOM     14  C   UNL     1      -3.871  61.557  46.941  1.00  0.00    -0.000 C 
BRANCH  14  15
ATOM     15  C   UNL     1      -2.622  61.690  46.054  1.00  0.00    -0.000 C 
BRANCH  15  16
ATOM     16  C   UNL     1      -2.961  61.815  44.560  1.00  0.00    -0.000 C 
BRANCH  16  17
ATOM     17  C   UNL     1      -2.191  62.952  43.863  1.00  0.00    -0.000 C 
BRANCH  17  18
ATOM     18  C   UNL     1      -1.846  64.159  44.757  1.00  0.00    -0.000 C 
BRANCH  18  19
ATOM     19  C   UNL     1      -2.942  65.235  44.856  1.00  0.00    -0.003 C 
ATOM     20  C   UNL     1      -3.605  65.284  46.232  1.00  0.00     0.004 C 
ENDBRANCH  18  19
ENDBRANCH  17  18
ENDBRANCH  16  17
ENDBRANCH  15  16
ENDBRANCH  14  15
ENDBRANCH  13  14
ENDBRANCH  12  13
ENDBRANCH   1  12
TORSDOF 16
ENDMDL
MODEL 4
REMARK VINA RESULT:    -4.034      1.549      4.401
REMARK INTER + INTRA:         -10.081
REMARK INTER:                  -7.701
REMARK INTRA:                  -2.379
REMARK UNBOUND:                -2.273
REMARK SMILES CCCCCCCCCCCCCCCCCC(=O)[O-]
REMARK SMILES IDX 10 1 11 2 12 3 13 4 14 5 15 6 16 7 17 8 18 9 19 10 20 11
REMARK SMILES IDX 9 12 8 13 7 14 6 15 5 16 4 17 3 18 2 19 1 20
REMARK H PARENT
REMARK Flexibility Score: inf
ROOT
ATOM      1  C   UNL     1      -0.894  58.269  45.168  1.00  0.00     0.000 C 
ENDROOT
BRANCH   1   2
ATOM      2  C   UNL     1       0.186  57.817  44.169  1.00  0.00     0.000 C 
BRANCH   2   3
ATOM      3  C   UNL     1       0.839  58.995  43.426  1.00  0.00     0.000 C 
BRANCH   3   4
ATOM      4  C   UNL     1       1.390  60.112  44.336  1.00  0.00     0.000 C 
BRANCH   4   5
ATOM      5  C   UNL     1       0.874  61.529  44.015  1.00  0.00     0.000 C 
BRANCH   5   6
ATOM      6  C   UNL     1      -0.473  61.895  44.668  1.00  0.00     0.000 C 
BRANCH   6   7
ATOM      7  C   UNL     1      -0.667  63.396  44.968  1.00  0.00     0.006 C 
BRANCH   7   8
ATOM      8  C   UNL     1      -1.998  63.978  44.464  1.00  0.00     0.053 C 
BRANCH   8   9
ATOM      9  C   UNL     1      -3.165  63.471  45.253  1.00  0.00     0.041 C 
ATOM     10  O   UNL     1      -3.267  63.739  46.480  1.00  0.00    -0.550 OA
ATOM     11  O   UNL     1      -4.125  62.675  44.641  1.00  0.00    -0.550 OA
ENDBRANCH   8   9
ENDBRANCH   7   8
ENDBRANCH   6   7
ENDBRANCH   5   6
ENDBRANCH   4   5
ENDBRANCH   3   4
ENDBRANCH   2   3
ENDBRANCH   1   2
BRANCH   1  12
ATOM     12  C   UNL     1      -2.317  58.096  44.616  1.00  0.00     0.000 C 
BRANCH  12  13
ATOM     13  C   UNL     1      -3.304  59.126  45.192  1.00  0.00    -0.000 C 
BRANCH  13  14
ATOM     14  C   UNL     1      -2.705  59.899  46.387  1.00  0.00    -0.000 C 
BRANCH  14  15
ATOM     15  C   UNL     1      -3.749  60.326  47.433  1.00  0.00    -0.000 C 
BRANCH  15  16
ATOM     16  C   UNL     1      -3.521  59.674  48.806  1.00  0.00    -0.000 C 
BRANCH  16  17
ATOM     17  C   UNL     1      -2.222  58.848  48.869  1.00  0.00    -0.000 C 
BRANCH  17  18
ATOM     18  C   UNL     1      -2.406  57.354  49.205  1.00  0.00    -0.000 C 
BRANCH  18  19
ATOM     19  C   UNL     1      -2.018  56.379  48.079  1.00  0.00    -0.003 C 
ATOM     20  C   UNL     1      -3.191  56.032  47.163  1.00  0.00     0.004 C 
ENDBRANCH  18  19
ENDBRANCH  17  18
ENDBRANCH  16  17
ENDBRANCH  15  16
ENDBRANCH  14  15
ENDBRANCH  13  14
ENDBRANCH  12  13
ENDBRANCH   1  12
TORSDOF 16
ENDMDL
MODEL 5
REMARK VINA RESULT:    -4.025      3.103      6.005
REMARK INTER + INTRA:         -10.063
REMARK INTER:                  -7.472
REMARK INTRA:                  -2.591
REMARK UNBOUND:                -2.273
REMARK SMILES CCCCCCCCCCCCCCCCCC(=O)[O-]
REMARK SMILES IDX 10 1 11 2 12 3 13 4 14 5 15 6 16 7 17 8 18 9 19 10 20 11
REMARK SMILES IDX 9 12 8 13 7 14 6 15 5 16 4 17 3 18 2 19 1 20
REMARK H PARENT
REMARK Flexibility Score: inf
ROOT
ATOM      1  C   UNL     1      -0.948  58.287  45.196  1.00  0.00     0.000 C 
ENDROOT
BRANCH   1   2
ATOM      2  C   UNL     1      -2.234  57.727  44.562  1.00  0.00     0.000 C 
BRANCH   2   3
ATOM      3  C   UNL     1      -3.493  58.500  44.989  1.00  0.00     0.000 C 
BRANCH   3   4
ATOM      4  C   UNL     1      -3.274  60.004  45.250  1.00  0.00     0.000 C 
BRANCH   4   5
ATOM      5  C   UNL     1      -4.124  60.600  46.390  1.00  0.00     0.000 C 
BRANCH   5   6
ATOM      6  C   UNL     1      -3.428  60.649  47.765  1.00  0.00     0.000 C 
BRANCH   6   7
ATOM      7  C   UNL     1      -3.543  59.358  48.601  1.00  0.00     0.006 C 
BRANCH   7   8
ATOM      8  C   UNL     1      -2.259  58.514  48.648  1.00  0.00     0.053 C 
BRANCH   8   9
ATOM      9  C   UNL     1      -2.555  57.048  48.714  1.00  0.00     0.041 C 
ATOM     10  O   UNL     1      -2.696  56.380  47.655  1.00  0.00    -0.550 OA
ATOM     11  O   UNL     1      -2.708  56.425  49.946  1.00  0.00    -0.550 OA
ENDBRANCH   8   9
ENDBRANCH   7   8
ENDBRANCH   6   7
ENDBRANCH   5   6
ENDBRANCH   4   5
ENDBRANCH   3   4
ENDBRANCH   2   3
ENDBRANCH   1   2
BRANCH   1  12
ATOM     12  C   UNL     1       0.182  58.471  44.173  1.00  0.00     0.000 C 
BRANCH  12  13
ATOM     13  C   UNL     1       0.778  59.890  44.197  1.00  0.00    -0.000 C 
BRANCH  13  14
ATOM     14  C   UNL     1       0.393  60.657  45.481  1.00  0.00    -0.000 C 
BRANCH  14  15
ATOM     15  C   UNL     1      -0.069  62.101  45.222  1.00  0.00    -0.000 C 
BRANCH  15  16
ATOM     16  C   UNL     1      -0.711  62.283  43.837  1.00  0.00    -0.000 C 
BRANCH  16  17
ATOM     17  C   UNL     1      -1.970  63.170  43.872  1.00  0.00    -0.000 C 
BRANCH  17  18
ATOM     18  C   UNL     1      -2.389  63.665  45.270  1.00  0.00    -0.000 C 
BRANCH  18  19
ATOM     19  C   UNL     1      -2.456  65.195  45.429  1.00  0.00    -0.003 C 
ATOM     20  C   UNL     1      -1.274  65.912  44.776  1.00  0.00     0.004 C 
ENDBRANCH  18  19
ENDBRANCH  17  18
ENDBRANCH  16  17
ENDBRANCH  15  16
ENDBRANCH  14  15
ENDBRANCH  13  14
ENDBRANCH  12  13
ENDBRANCH   1  12
TORSDOF 16
ENDMDL
MODEL 6
REMARK VINA RESULT:    -4.008      1.442      4.164
REMARK INTER + INTRA:         -10.030
REMARK INTER:                  -7.532
REMARK INTRA:                  -2.498
REMARK UNBOUND:                -2.273
REMARK SMILES CCCCCCCCCCCCCCCCCC(=O)[O-]
REMARK SMILES IDX 10 1 11 2 12 3 13 4 14 5 15 6 16 7 17 8 18 9 19 10 20 11
REMARK SMILES IDX 9 12 8 13 7 14 6 15 5 16 4 17 3 18 2 19 1 20
REMARK H PARENT
REMARK Flexibility Score: inf
ROOT
ATOM      1  C   UNL     1      -0.888  59.597  45.524  1.00  0.00     0.000 C 
ENDROOT
BRANCH   1   2
ATOM      2  C   UNL     1      -0.056  58.604  44.693  1.00  0.00     0.000 C 
BRANCH   2   3
ATOM      3  C   UNL     1       1.143  59.270  43.998  1.00  0.00     0.000 C 
BRANCH   3   4
ATOM      4  C   UNL     1       0.818  60.582  43.255  1.00  0.00     0.000 C 
BRANCH   4   5
ATOM      5  C   UNL     1       1.864  61.702  43.419  1.00  0.00     0.000 C 
BRANCH   5   6
ATOM      6  C   UNL     1       1.311  63.037  43.956  1.00  0.00     0.000 C 
BRANCH   6   7
ATOM      7  C   UNL     1       0.589  62.944  45.315  1.00  0.00     0.006 C 
BRANCH   7   8
ATOM      8  C   UNL     1      -0.905  63.305  45.268  1.00  0.00     0.053 C 
BRANCH   8   9
ATOM      9  C   UNL     1      -1.185  64.621  45.924  1.00  0.00     0.041 C 
ATOM     10  O   UNL     1      -2.313  64.848  46.436  1.00  0.00    -0.550 OA
ATOM     11  O   UNL     1      -0.210  65.610  45.942  1.00  0.00    -0.550 OA
ENDBRANCH   8   9
ENDBRANCH   7   8
ENDBRANCH   6   7
ENDBRANCH   5   6
ENDBRANCH   4   5
ENDBRANCH   3   4
ENDBRANCH   2   3
ENDBRANCH   1   2
BRANCH   1  12
ATOM     12  C   UNL     1      -2.380  59.564  45.163  1.00  0.00     0.000 C 
BRANCH  12  13
ATOM     13  C   UNL     1      -2.880  58.145  44.842  1.00  0.00    -0.000 C 
BRANCH  13  14
ATOM     14  C   UNL     1      -4.125  57.767  45.674  1.00  0.00    -0.000 C 
BRANCH  14  15
ATOM     15  C   UNL     1      -3.880  56.613  46.662  1.00  0.00    -0.000 C 
BRANCH  15  16
ATOM     16  C   UNL     1      -2.393  56.246  46.794  1.00  0.00    -0.000 C 
BRANCH  16  17
ATOM     17  C   UNL     1      -1.835  56.502  48.206  1.00  0.00    -0.000 C 
BRANCH  17  18
ATOM     18  C   UNL     1      -2.644  57.494  49.065  1.00  0.00    -0.000 C 
BRANCH  18  19
ATOM     19  C   UNL     1      -2.231  58.970  48.924  1.00  0.00    -0.003 C 
ATOM     20  C   UNL     1      -3.424  59.907  48.743  1.00  0.00     0.004 C 
ENDBRANCH  18  19
ENDBRANCH  17  18
ENDBRANCH  16  17
ENDBRANCH  15  16
ENDBRANCH  14  15
ENDBRANCH  13  14
ENDBRANCH  12  13
ENDBRANCH   1  12
TORSDOF 16
ENDMDL
MODEL 7
REMARK VINA RESULT:    -3.987      2.145      3.968
REMARK INTER + INTRA:          -9.990
REMARK INTER:                  -7.997
REMARK INTRA:                  -1.993
REMARK UNBOUND:                -2.273
REMARK SMILES CCCCCCCCCCCCCCCCCC(=O)[O-]
REMARK SMILES IDX 10 1 11 2 12 3 13 4 14 5 15 6 16 7 17 8 18 9 19 10 20 11
REMARK SMILES IDX 9 12 8 13 7 14 6 15 5 16 4 17 3 18 2 19 1 20
REMARK H PARENT
REMARK Flexibility Score: inf
ROOT
ATOM      1  C   UNL     1      -3.806  61.598  47.002  1.00  0.00     0.000 C 
ENDROOT
BRANCH   1   2
ATOM      2  C   UNL     1      -3.418  61.687  45.515  1.00  0.00     0.000 C 
BRANCH   2   3
ATOM      3  C   UNL     1      -1.895  61.696  45.298  1.00  0.00     0.000 C 
BRANCH   3   4
ATOM      4  C   UNL     1      -1.424  62.442  44.032  1.00  0.00     0.000 C 
BRANCH   4   5
ATOM      5  C   UNL     1      -0.066  63.158  44.164  1.00  0.00     0.000 C 
BRANCH   5   6
ATOM      6  C   UNL     1       0.640  62.971  45.522  1.00  0.00     0.000 C 
BRANCH   6   7
ATOM      7  C   UNL     1       1.861  62.029  45.499  1.00  0.00     0.006 C 
BRANCH   7   8
ATOM      8  C   UNL     1       2.228  61.498  44.104  1.00  0.00     0.053 C 
BRANCH   8   9
ATOM      9  C   UNL     1       2.004  60.022  43.990  1.00  0.00     0.041 C 
ATOM     10  O   UNL     1       2.914  59.273  43.545  1.00  0.00    -0.550 OA
ATOM     11  O   UNL     1       0.776  59.476  44.344  1.00  0.00    -0.550 OA
ENDBRANCH   8   9
ENDBRANCH   7   8
ENDBRANCH   6   7
ENDBRANCH   5   6
ENDBRANCH   4   5
ENDBRANCH   3   4
ENDBRANCH   2   3
ENDBRANCH   1   2
BRANCH   1  12
ATOM     12  C   UNL     1      -3.849  60.151  47.515  1.00  0.00     0.000 C 
BRANCH  12  13
ATOM     13  C   UNL     1      -3.231  60.001  48.916  1.00  0.00    -0.000 C 
BRANCH  13  14
ATOM     14  C   UNL     1      -2.133  58.916  48.951  1.00  0.00    -0.000 C 
BRANCH  14  15
ATOM     15  C   UNL     1      -2.668  57.506  49.254  1.00  0.00    -0.000 C 
BRANCH  15  16
ATOM     16  C   UNL     1      -1.885  56.401  48.528  1.00  0.00    -0.000 C 
BRANCH  16  17
ATOM     17  C   UNL     1      -2.256  56.283  47.038  1.00  0.00    -0.000 C 
BRANCH  17  18
ATOM     18  C   UNL     1      -3.731  56.574  46.700  1.00  0.00    -0.000 C 
BRANCH  18  19
ATOM     19  C   UNL     1      -3.985  57.095  45.274  1.00  0.00    -0.003 C 
ATOM     20  C   UNL     1      -2.870  58.009  44.768  1.00  0.00     0.004 C 
ENDBRANCH  18  19
ENDBRANCH  17  18
ENDBRANCH  16  17
ENDBRANCH  15  16
ENDBRANCH  14  15
ENDBRANCH  13  14
ENDBRANCH  12  13
ENDBRANCH   1  12
TORSDOF 16
ENDMDL
MODEL 8
REMARK VINA RESULT:    -3.893      1.945      4.570
REMARK INTER + INTRA:          -9.807
REMARK INTER:                  -7.771
REMARK INTRA:                  -2.036
REMARK UNBOUND:                -2.273
REMARK SMILES CCCCCCCCCCCCCCCCCC(=O)[O-]
REMARK SMILES IDX 10 1 11 2 12 3 13 4 14 5 15 6 16 7 17 8 18 9 19 10 20 11
REMARK SMILES IDX 9 12 8 13 7 14 6 15 5 16 4 17 3 18 2 19 1 20
REMARK H PARENT
REMARK Flexibility Score: inf
ROOT
ATOM      1  C   UNL     1      -0.840  59.453  45.405  1.00  0.00     0.000 C 
ENDROOT
BRANCH   1   2
ATOM      2  C   UNL     1      -0.177  58.216  44.773  1.00  0.00     0.000 C 
BRANCH   2   3
ATOM      3  C   UNL     1       0.962  58.582  43.805  1.00  0.00     0.000 C 
BRANCH   3   4
ATOM      4  C   UNL     1       1.156  60.094  43.573  1.00  0.00     0.000 C 
BRANCH   4   5
ATOM      5  C   UNL     1       2.621  60.548  43.419  1.00  0.00     0.000 C 
BRANCH   5   6
ATOM      6  C   UNL     1       2.828  62.075  43.368  1.00  0.00     0.000 C 
BRANCH   6   7
ATOM      7  C   UNL     1       1.881  62.892  44.269  1.00  0.00     0.006 C 
BRANCH   7   8
ATOM      8  C   UNL     1       2.130  62.719  45.776  1.00  0.00     0.053 C 
BRANCH   8   9
ATOM      9  C   UNL     1       2.690  63.960  46.398  1.00  0.00     0.041 C 
ATOM     10  O   UNL     1       2.267  65.093  46.046  1.00  0.00    -0.550 OA
ATOM     11  O   UNL     1       3.704  63.868  47.343  1.00  0.00    -0.550 OA
ENDBRANCH   8   9
ENDBRANCH   7   8
ENDBRANCH   6   7
ENDBRANCH   5   6
ENDBRANCH   4   5
ENDBRANCH   3   4
ENDBRANCH   2   3
ENDBRANCH   1   2
BRANCH   1  12
ATOM     12  C   UNL     1      -2.356  59.499  45.161  1.00  0.00     0.000 C 
BRANCH  12  13
ATOM     13  C   UNL     1      -2.946  58.114  44.843  1.00  0.00    -0.000 C 
BRANCH  13  14
ATOM     14  C   UNL     1      -4.125  57.758  45.775  1.00  0.00    -0.000 C 
BRANCH  14  15
ATOM     15  C   UNL     1      -3.850  56.547  46.683  1.00  0.00    -0.000 C 
BRANCH  15  16
ATOM     16  C   UNL     1      -2.349  56.266  46.866  1.00  0.00    -0.000 C 
BRANCH  16  17
ATOM     17  C   UNL     1      -1.893  56.379  48.332  1.00  0.00    -0.000 C 
BRANCH  17  18
ATOM     18  C   UNL     1      -2.618  57.453  49.168  1.00  0.00    -0.000 C 
BRANCH  18  19
ATOM     19  C   UNL     1      -2.185  58.903  48.886  1.00  0.00    -0.003 C 
ATOM     20  C   UNL     1      -3.368  59.863  48.765  1.00  0.00     0.004 C 
ENDBRANCH  18  19
ENDBRANCH  17  18
ENDBRANCH  16  17
ENDBRANCH  15  16
ENDBRANCH  14  15
ENDBRANCH  13  14
ENDBRANCH  12  13
ENDBRANCH   1  12
TORSDOF 16
ENDMDL
MODEL 9
REMARK VINA RESULT:    -3.886      1.696      3.704
REMARK INTER + INTRA:          -9.793
REMARK INTER:                  -7.702
REMARK INTRA:                  -2.091
REMARK UNBOUND:                -2.273
REMARK SMILES CCCCCCCCCCCCCCCCCC(=O)[O-]
REMARK SMILES IDX 10 1 11 2 12 3 13 4 14 5 15 6 16 7 17 8 18 9 19 10 20 11
REMARK SMILES IDX 9 12 8 13 7 14 6 15 5 16 4 17 3 18 2 19 1 20
REMARK H PARENT
REMARK Flexibility Score: inf
ROOT
ATOM      1  C   UNL     1      -3.210  61.279  46.413  1.00  0.00     0.000 C 
ENDROOT
BRANCH   1   2
ATOM      2  C   UNL     1      -4.125  62.481  46.115  1.00  0.00     0.000 C 
BRANCH   2   3
ATOM      3  C   UNL     1      -3.431  63.831  46.361  1.00  0.00     0.000 C 
BRANCH   3   4
ATOM      4  C   UNL     1      -3.240  64.702  45.102  1.00  0.00     0.000 C 
BRANCH   4   5
ATOM      5  C   UNL     1      -1.774  65.012  44.740  1.00  0.00     0.000 C 
BRANCH   5   6
ATOM      6  C   UNL     1      -0.740  64.015  45.300  1.00  0.00     0.000 C 
BRANCH   6   7
ATOM      7  C   UNL     1      -0.504  62.762  44.432  1.00  0.00     0.006 C 
BRANCH   7   8
ATOM      8  C   UNL     1       0.967  62.509  44.068  1.00  0.00     0.053 C 
BRANCH   8   9
ATOM      9  C   UNL     1       1.505  61.280  44.733  1.00  0.00     0.041 C 
ATOM     10  O   UNL     1       1.374  61.121  45.976  1.00  0.00    -0.550 OA
ATOM     11  O   UNL     1       2.182  60.324  43.986  1.00  0.00    -0.550 OA
ENDBRANCH   8   9
ENDBRANCH   7   8
ENDBRANCH   6   7
ENDBRANCH   5   6
ENDBRANCH   4   5
ENDBRANCH   3   4
ENDBRANCH   2   3
ENDBRANCH   1   2
BRANCH   1  12
ATOM     12  C   UNL     1      -3.206  60.245  45.278  1.00  0.00     0.000 C 
BRANCH  12  13
ATOM     13  C   UNL     1      -1.891  59.450  45.205  1.00  0.00    -0.000 C 
BRANCH  13  14
ATOM     14  C   UNL     1      -2.134  57.925  45.216  1.00  0.00    -0.000 C 
BRANCH  14  15
ATOM     15  C   UNL     1      -3.612  57.537  45.390  1.00  0.00    -0.000 C 
BRANCH  15  16
ATOM     16  C   UNL     1      -3.863  56.695  46.652  1.00  0.00    -0.000 C 
BRANCH  16  17
ATOM     17  C   UNL     1      -2.588  56.466  47.484  1.00  0.00    -0.000 C 
BRANCH  17  18
ATOM     18  C   UNL     1      -2.581  57.127  48.877  1.00  0.00    -0.000 C 
BRANCH  18  19
ATOM     19  C   UNL     1      -2.223  58.624  48.888  1.00  0.00    -0.003 C 
ATOM     20  C   UNL     1      -3.439  59.525  49.098  1.00  0.00     0.004 C 
ENDBRANCH  18  19
ENDBRANCH  17  18
ENDBRANCH  16  17
ENDBRANCH  15  16
ENDBRANCH  14  15
ENDBRANCH  13  14
ENDBRANCH  12  13
ENDBRANCH   1  12
TORSDOF 16
ENDMDL
