MODEL 1
REMARK VINA RESULT:    -5.104      0.000      0.000
REMARK INTER + INTRA:          -5.940
REMARK INTER:                  -5.850
REMARK INTRA:                  -0.090
REMARK UNBOUND:                -0.090
REMARK SMILES COc1cc(C(C)=O)ccc1O
REMARK SMILES IDX 5 1 4 2 3 3 11 4 10 5 9 6 6 7 7 8 8 9 2 10 1 11 12 12
REMARK H PARENT 12 13
REMARK Flexibility Score: inf
ROOT
ATOM      1  C   UNL     1     108.373 120.630 119.567  1.00  0.00     0.021 A 
ATOM      2  C   UNL     1     109.070 121.230 120.635  1.00  0.00     0.062 A 
ATOM      3  C   UNL     1     110.346 120.769 121.017  1.00  0.00     0.161 A 
ATOM      4  C   UNL     1     110.926 119.695 120.320  1.00  0.00     0.157 A 
ATOM      5  C   UNL     1     110.239 119.097 119.261  1.00  0.00     0.051 A 
ATOM      6  C   UNL     1     108.976 119.557 118.886  1.00  0.00     0.016 A 
ENDROOT
BRANCH   1   7
ATOM      7  C   UNL     1     107.025 121.109 119.153  1.00  0.00     0.159 C 
ATOM      8  C   UNL     1     106.770 122.538 118.781  1.00  0.00     0.093 C 
ATOM      9  O   UNL     1     106.061 120.298 119.109  1.00  0.00    -0.295 OA
ENDBRANCH   1   7
BRANCH   3  10
ATOM     10  O   UNL     1     111.061 121.351 122.077  1.00  0.00    -0.493 OA
ATOM     11  C   UNL     1     110.543 122.346 122.953  1.00  0.00     0.278 C 
ENDBRANCH   3  10
BRANCH   4  12
ATOM     12  O   UNL     1     112.186 119.207 120.665  1.00  0.00    -0.504 OA
ATOM     13  H   UNL     1     112.357 118.721 121.537  1.00  0.00     0.293 HD
ENDBRANCH   4  12
TORSDOF 3
ENDMDL
MODEL 2
REMARK VINA RESULT:    -4.801      2.136      3.408
REMARK INTER + INTRA:          -5.592
REMARK INTER:                  -5.500
REMARK INTRA:                  -0.092
REMARK UNBOUND:                -0.090
REMARK SMILES COc1cc(C(C)=O)ccc1O
REMARK SMILES IDX 5 1 4 2 3 3 11 4 10 5 9 6 6 7 7 8 8 9 2 10 1 11 12 12
REMARK H PARENT 12 13
REMARK Flexibility Score: inf
ROOT
ATOM      1  C   UNL     1     108.350 120.908 121.972  1.00  0.00     0.021 A 
ATOM      2  C   UNL     1     108.771 120.052 120.935  1.00  0.00     0.062 A 
ATOM      3  C   UNL     1     110.134 119.948 120.589  1.00  0.00     0.161 A 
ATOM      4  C   UNL     1     111.081 120.712 121.292  1.00  0.00     0.157 A 
ATOM      5  C   UNL     1     110.669 121.563 122.321  1.00  0.00     0.051 A 
ATOM      6  C   UNL     1     109.319 121.662 122.660  1.00  0.00     0.016 A 
ENDROOT
BRANCH   1   7
ATOM      7  C   UNL     1     106.914 121.027 122.348  1.00  0.00     0.159 C 
ATOM      8  C   UNL     1     105.932 119.924 122.088  1.00  0.00     0.093 C 
ATOM      9  O   UNL     1     106.498 122.080 122.901  1.00  0.00    -0.295 OA
ENDBRANCH   1   7
BRANCH   3  10
ATOM     10  O   UNL     1     110.577 119.102 119.560  1.00  0.00    -0.493 OA
ATOM     11  C   UNL     1     109.761 118.620 118.498  1.00  0.00     0.278 C 
ENDBRANCH   3  10
BRANCH   4  12
ATOM     12  O   UNL     1     112.439 120.640 120.982  1.00  0.00    -0.504 OA
ATOM     13  H   UNL     1     113.080 121.398 121.181  1.00  0.00     0.293 HD
ENDBRANCH   4  12
TORSDOF 3
ENDMDL
MODEL 3
REMARK VINA RESULT:    -4.765      1.785      4.505
REMARK INTER + INTRA:          -5.551
REMARK INTER:                  -5.459
REMARK INTRA:                  -0.093
REMARK UNBOUND:                -0.090
REMARK SMILES COc1cc(C(C)=O)ccc1O
REMARK SMILES IDX 5 1 4 2 3 3 11 4 10 5 9 6 6 7 7 8 8 9 2 10 1 11 12 12
REMARK H PARENT 12 13
REMARK Flexibility Score: inf
ROOT
ATOM      1  C   UNL     1     109.647 120.102 120.692  1.00  0.00     0.021 A 
ATOM      2  C   UNL     1     108.553 120.712 120.046  1.00  0.00     0.062 A 
ATOM      3  C   UNL     1     107.468 121.223 120.788  1.00  0.00     0.161 A 
ATOM      4  C   UNL     1     107.484 121.119 122.189  1.00  0.00     0.157 A 
ATOM      5  C   UNL     1     108.567 120.516 122.833  1.00  0.00     0.051 A 
ATOM      6  C   UNL     1     109.638 120.012 122.095  1.00  0.00     0.016 A 
ENDROOT
BRANCH   1   7
ATOM      7  C   UNL     1     110.799 119.558 119.920  1.00  0.00     0.159 C 
ATOM      8  C   UNL     1     110.643 119.035 118.524  1.00  0.00     0.093 C 
ATOM      9  O   UNL     1     111.945 119.531 120.445  1.00  0.00    -0.295 OA
ENDBRANCH   1   7
BRANCH   3  10
ATOM     10  O   UNL     1     106.366 121.835 120.168  1.00  0.00    -0.493 OA
ATOM     11  C   UNL     1     106.413 122.509 118.915  1.00  0.00     0.278 C 
ENDBRANCH   3  10
BRANCH   4  12
ATOM     12  O   UNL     1     106.432 121.612 122.961  1.00  0.00    -0.504 OA
ATOM     13  H   UNL     1     106.397 121.494 123.966  1.00  0.00     0.293 HD
ENDBRANCH   4  12
TORSDOF 3
ENDMDL
MODEL 4
REMARK VINA RESULT:    -4.727      2.131      4.234
REMARK INTER + INTRA:          -5.507
REMARK INTER:                  -5.410
REMARK INTRA:                  -0.097
REMARK UNBOUND:                -0.090
REMARK SMILES COc1cc(C(C)=O)ccc1O
REMARK SMILES IDX 5 1 4 2 3 3 11 4 10 5 9 6 6 7 7 8 8 9 2 10 1 11 12 12
REMARK H PARENT 12 13
REMARK Flexibility Score: inf
ROOT
ATOM      1  C   UNL     1     109.833 120.437 120.900  1.00  0.00     0.021 A 
ATOM      2  C   UNL     1     108.470 120.438 121.260  1.00  0.00     0.062 A 
ATOM      3  C   UNL     1     107.994 121.275 122.290  1.00  0.00     0.161 A 
ATOM      4  C   UNL     1     108.895 122.117 122.963  1.00  0.00     0.157 A 
ATOM      5  C   UNL     1     110.247 122.120 122.610  1.00  0.00     0.051 A 
ATOM      6  C   UNL     1     110.714 121.290 121.590  1.00  0.00     0.016 A 
ENDROOT
BRANCH   1   7
ATOM      7  C   UNL     1     110.349 119.558 119.814  1.00  0.00     0.159 C 
ATOM      8  C   UNL     1     109.445 118.967 118.774  1.00  0.00     0.093 C 
ATOM      9  O   UNL     1     111.581 119.296 119.755  1.00  0.00    -0.295 OA
ENDBRANCH   1   7
BRANCH   3  10
ATOM     10  O   UNL     1     106.641 121.294 122.666  1.00  0.00    -0.493 OA
ATOM     11  C   UNL     1     105.825 120.137 122.817  1.00  0.00     0.278 C 
ENDBRANCH   3  10
BRANCH   4  12
ATOM     12  O   UNL     1     108.466 122.961 123.987  1.00  0.00    -0.504 OA
ATOM     13  H   UNL     1     109.070 123.660 124.400  1.00  0.00     0.293 HD
ENDBRANCH   4  12
TORSDOF 3
ENDMDL
MODEL 5
REMARK VINA RESULT:    -4.669      1.403      3.975
REMARK INTER + INTRA:          -5.441
REMARK INTER:                  -5.351
REMARK INTRA:                  -0.091
REMARK UNBOUND:                -0.090
REMARK SMILES COc1cc(C(C)=O)ccc1O
REMARK SMILES IDX 5 1 4 2 3 3 11 4 10 5 9 6 6 7 7 8 8 9 2 10 1 11 12 12
REMARK H PARENT 12 13
REMARK Flexibility Score: inf
ROOT
ATOM      1  C   UNL     1     109.901 121.205 121.603  1.00  0.00     0.021 A 
ATOM      2  C   UNL     1     108.782 121.070 120.756  1.00  0.00     0.062 A 
ATOM      3  C   UNL     1     108.809 120.189 119.656  1.00  0.00     0.161 A 
ATOM      4  C   UNL     1     109.969 119.437 119.406  1.00  0.00     0.157 A 
ATOM      5  C   UNL     1     111.081 119.567 120.242  1.00  0.00     0.051 A 
ATOM      6  C   UNL     1     111.050 120.441 121.330  1.00  0.00     0.016 A 
ENDROOT
BRANCH   1   7
ATOM      7  C   UNL     1     109.886 122.132 122.768  1.00  0.00     0.159 C 
ATOM      8  C   UNL     1     108.612 122.530 123.450  1.00  0.00     0.093 C 
ATOM      9  O   UNL     1     110.971 122.604 123.205  1.00  0.00    -0.295 OA
ENDBRANCH   1   7
BRANCH   3  10
ATOM     10  O   UNL     1     107.707 120.037 118.799  1.00  0.00    -0.493 OA
ATOM     11  C   UNL     1     106.430 120.632 119.006  1.00  0.00     0.278 C 
ENDBRANCH   3  10
BRANCH   4  12
ATOM     12  O   UNL     1     110.038 118.554 118.329  1.00  0.00    -0.504 OA
ATOM     13  H   UNL     1     110.854 118.491 117.732  1.00  0.00     0.293 HD
ENDBRANCH   4  12
TORSDOF 3
ENDMDL
MODEL 6
REMARK VINA RESULT:    -4.623      1.835      4.630
REMARK INTER + INTRA:          -5.388
REMARK INTER:                  -5.257
REMARK INTRA:                  -0.131
REMARK UNBOUND:                -0.090
REMARK SMILES COc1cc(C(C)=O)ccc1O
REMARK SMILES IDX 5 1 4 2 3 3 11 4 10 5 9 6 6 7 7 8 8 9 2 10 1 11 12 12
REMARK H PARENT 12 13
REMARK Flexibility Score: inf
ROOT
ATOM      1  C   UNL     1     109.339 120.304 120.440  1.00  0.00     0.021 A 
ATOM      2  C   UNL     1     108.442 120.911 119.538  1.00  0.00     0.062 A 
ATOM      3  C   UNL     1     107.233 121.479 119.991  1.00  0.00     0.161 A 
ATOM      4  C   UNL     1     106.926 121.436 121.361  1.00  0.00     0.157 A 
ATOM      5  C   UNL     1     107.812 120.837 122.259  1.00  0.00     0.051 A 
ATOM      6  C   UNL     1     109.007 120.276 121.806  1.00  0.00     0.016 A 
ENDROOT
BRANCH   1   7
ATOM      7  C   UNL     1     110.619 119.701 119.974  1.00  0.00     0.159 C 
ATOM      8  C   UNL     1     111.879 119.793 120.780  1.00  0.00     0.093 C 
ATOM      9  O   UNL     1     110.657 119.091 118.871  1.00  0.00    -0.295 OA
ENDBRANCH   1   7
BRANCH   3  10
ATOM     10  O   UNL     1     106.323 122.089 119.112  1.00  0.00    -0.493 OA
ATOM     11  C   UNL     1     106.530 123.345 118.475  1.00  0.00     0.278 C 
ENDBRANCH   3  10
BRANCH   4  12
ATOM     12  O   UNL     1     105.741 121.986 121.852  1.00  0.00    -0.504 OA
ATOM     13  H   UNL     1     105.691 122.447 122.753  1.00  0.00     0.293 HD
ENDBRANCH   4  12
TORSDOF 3
ENDMDL
MODEL 7
REMARK VINA RESULT:    -4.497      1.785      2.567
REMARK INTER + INTRA:          -5.244
REMARK INTER:                  -5.114
REMARK INTRA:                  -0.130
REMARK UNBOUND:                -0.090
REMARK SMILES COc1cc(C(C)=O)ccc1O
REMARK SMILES IDX 5 1 4 2 3 3 11 4 10 5 9 6 6 7 7 8 8 9 2 10 1 11 12 12
REMARK H PARENT 12 13
REMARK Flexibility Score: inf
ROOT
ATOM      1  C   UNL     1     108.004 121.351 120.186  1.00  0.00     0.021 A 
ATOM      2  C   UNL     1     109.286 120.805 119.975  1.00  0.00     0.062 A 
ATOM      3  C   UNL     1     109.941 120.081 120.992  1.00  0.00     0.161 A 
ATOM      4  C   UNL     1     109.302 119.906 122.231  1.00  0.00     0.157 A 
ATOM      5  C   UNL     1     108.032 120.445 122.445  1.00  0.00     0.051 A 
ATOM      6  C   UNL     1     107.387 121.161 121.436  1.00  0.00     0.016 A 
ENDROOT
BRANCH   1   7
ATOM      7  C   UNL     1     107.302 122.117 119.120  1.00  0.00     0.159 C 
ATOM      8  C   UNL     1     105.824 121.997 118.899  1.00  0.00     0.093 C 
ATOM      9  O   UNL     1     107.957 122.895 118.374  1.00  0.00    -0.295 OA
ENDBRANCH   1   7
BRANCH   3  10
ATOM     10  O   UNL     1     111.218 119.526 120.806  1.00  0.00    -0.493 OA
ATOM     11  C   UNL     1     112.442 120.227 120.995  1.00  0.00     0.278 C 
ENDBRANCH   3  10
BRANCH   4  12
ATOM     12  O   UNL     1     109.914 119.196 123.265  1.00  0.00    -0.504 OA
ATOM     13  H   UNL     1     109.488 118.380 123.686  1.00  0.00     0.293 HD
ENDBRANCH   4  12
TORSDOF 3
ENDMDL
MODEL 8
REMARK VINA RESULT:    -4.493      3.003      5.794
REMARK INTER + INTRA:          -5.239
REMARK INTER:                  -5.113
REMARK INTRA:                  -0.127
REMARK UNBOUND:                -0.090
REMARK SMILES COc1cc(C(C)=O)ccc1O
REMARK SMILES IDX 5 1 4 2 3 3 11 4 10 5 9 6 6 7 7 8 8 9 2 10 1 11 12 12
REMARK H PARENT 12 13
REMARK Flexibility Score: inf
ROOT
ATOM      1  C   UNL     1     107.051 122.125 118.931  1.00  0.00     0.021 A 
ATOM      2  C   UNL     1     105.780 122.730 119.002  1.00  0.00     0.062 A 
ATOM      3  C   UNL     1     105.586 124.059 118.571  1.00  0.00     0.161 A 
ATOM      4  C   UNL     1     106.679 124.783 118.066  1.00  0.00     0.157 A 
ATOM      5  C   UNL     1     107.940 124.187 117.994  1.00  0.00     0.051 A 
ATOM      6  C   UNL     1     108.127 122.872 118.421  1.00  0.00     0.016 A 
ENDROOT
BRANCH   1   7
ATOM      7  C   UNL     1     107.269 120.723 119.383  1.00  0.00     0.159 C 
ATOM      8  C   UNL     1     108.636 120.108 119.432  1.00  0.00     0.093 C 
ATOM      9  O   UNL     1     106.284 120.020 119.738  1.00  0.00    -0.295 OA
ENDBRANCH   1   7
BRANCH   3  10
ATOM     10  O   UNL     1     104.330 124.683 118.630  1.00  0.00    -0.493 OA
ATOM     11  C   UNL     1     103.132 124.150 118.076  1.00  0.00     0.278 C 
ENDBRANCH   3  10
BRANCH   4  12
ATOM     12  O   UNL     1     106.531 126.100 117.628  1.00  0.00    -0.504 OA
ATOM     13  H   UNL     1     106.534 126.347 116.646  1.00  0.00     0.293 HD
ENDBRANCH   4  12
TORSDOF 3
ENDMDL
MODEL 9
REMARK VINA RESULT:    -4.371      1.750      4.646
REMARK INTER + INTRA:          -5.100
REMARK INTER:                  -5.002
REMARK INTRA:                  -0.098
REMARK UNBOUND:                -0.090
REMARK SMILES COc1cc(C(C)=O)ccc1O
REMARK SMILES IDX 5 1 4 2 3 3 11 4 10 5 9 6 6 7 7 8 8 9 2 10 1 11 12 12
REMARK H PARENT 12 13
REMARK Flexibility Score: inf
ROOT
ATOM      1  C   UNL     1     109.303 120.945 120.905  1.00  0.00     0.021 A 
ATOM      2  C   UNL     1     108.233 120.241 121.493  1.00  0.00     0.062 A 
ATOM      3  C   UNL     1     106.953 120.242 120.901  1.00  0.00     0.161 A 
ATOM      4  C   UNL     1     106.749 120.957 119.709  1.00  0.00     0.157 A 
ATOM      5  C   UNL     1     107.806 121.657 119.123  1.00  0.00     0.051 A 
ATOM      6  C   UNL     1     109.071 121.653 119.712  1.00  0.00     0.016 A 
ENDROOT
BRANCH   1   7
ATOM      7  C   UNL     1     110.660 120.951 121.520  1.00  0.00     0.159 C 
ATOM      8  C   UNL     1     111.794 120.156 120.947  1.00  0.00     0.093 C 
ATOM      9  O   UNL     1     110.875 121.642 122.552  1.00  0.00    -0.295 OA
ENDBRANCH   1   7
BRANCH   3  10
ATOM     10  O   UNL     1     105.872 119.547 121.467  1.00  0.00    -0.493 OA
ATOM     11  C   UNL     1     105.796 119.136 122.828  1.00  0.00     0.278 C 
ENDBRANCH   3  10
BRANCH   4  12
ATOM     12  O   UNL     1     105.499 120.985 119.091  1.00  0.00    -0.504 OA
ATOM     13  H   UNL     1     105.110 120.176 118.621  1.00  0.00     0.293 HD
ENDBRANCH   4  12
TORSDOF 3
ENDMDL
