MODEL 1
REMARK VINA RESULT:    -3.934      0.000      0.000
REMARK INTER + INTRA:          -9.408
REMARK INTER:                  -7.154
REMARK INTRA:                  -2.255
REMARK UNBOUND:                -2.255
REMARK SMILES CCCCCCCCCCCCCC[C@H](C)C(=O)[O-]
REMARK SMILES IDX 9 1 10 2 11 3 12 4 13 5 14 6 15 7 16 8 17 9 18 10 19 11 8 12
REMARK SMILES IDX 7 13 6 14 5 15 4 16 3 17 2 18 1 19
REMARK H PARENT
REMARK Flexibility Score: inf
ROOT
ATOM      1  C   UNL     1       4.361   2.798 401.996  1.00  0.00     0.000 C 
ENDROOT
BRANCH   1   2
ATOM      2  C   UNL     1       4.503   1.836 403.190  1.00  0.00     0.000 C 
BRANCH   2   3
ATOM      3  C   UNL     1       5.948   1.467 403.572  1.00  0.00     0.000 C 
BRANCH   3   4
ATOM      4  C   UNL     1       6.080   0.030 404.107  1.00  0.00     0.000 C 
BRANCH   4   5
ATOM      5  C   UNL     1       4.769  -0.765 403.990  1.00  0.00     0.001 C 
BRANCH   5   6
ATOM      6  C   UNL     1       4.940  -2.086 403.216  1.00  0.00     0.009 C 
BRANCH   6   7
ATOM      7  C   UNL     1       3.594  -2.783 402.926  1.00  0.00     0.032 C 
ATOM      8  C   UNL     1       3.166  -3.718 404.066  1.00  0.00     0.014 C 
BRANCH   7   9
ATOM      9  C   UNL     1       3.682  -3.557 401.639  1.00  0.00     0.044 C 
ATOM     10  O   UNL     1       2.895  -3.311 400.687  1.00  0.00    -0.550 OA
ATOM     11  O   UNL     1       4.639  -4.555 401.495  1.00  0.00    -0.550 OA
ENDBRANCH   7   9
ENDBRANCH   6   7
ENDBRANCH   5   6
ENDBRANCH   4   5
ENDBRANCH   3   4
ENDBRANCH   2   3
ENDBRANCH   1   2
BRANCH   1  12
ATOM     12  C   UNL     1       3.595   2.181 400.815  1.00  0.00     0.000 C 
BRANCH  12  13
ATOM     13  C   UNL     1       3.462   0.650 400.921  1.00  0.00    -0.000 C 
BRANCH  13  14
ATOM     14  C   UNL     1       4.218  -0.151 399.842  1.00  0.00    -0.000 C 
BRANCH  14  15
ATOM     15  C   UNL     1       5.708  -0.412 400.141  1.00  0.00    -0.000 C 
BRANCH  15  16
ATOM     16  C   UNL     1       6.643   0.779 399.864  1.00  0.00    -0.000 C 
BRANCH  16  17
ATOM     17  C   UNL     1       8.127   0.424 400.038  1.00  0.00    -0.000 C 
BRANCH  17  18
ATOM     18  C   UNL     1       8.896   0.624 398.727  1.00  0.00    -0.003 C 
ATOM     19  C   UNL     1       8.097   1.477 397.744  1.00  0.00     0.004 C 
ENDBRANCH  17  18
ENDBRANCH  16  17
ENDBRANCH  15  16
ENDBRANCH  14  15
ENDBRANCH  13  14
ENDBRANCH  12  13
ENDBRANCH   1  12
TORSDOF 14
ENDMDL
MODEL 2
REMARK VINA RESULT:    -3.903      2.128      3.815
REMARK INTER + INTRA:          -9.351
REMARK INTER:                  -6.802
REMARK INTRA:                  -2.549
REMARK UNBOUND:                -2.255
REMARK SMILES CCCCCCCCCCCCCC[C@H](C)C(=O)[O-]
REMARK SMILES IDX 9 1 10 2 11 3 12 4 13 5 14 6 15 7 16 8 17 9 18 10 19 11 8 12
REMARK SMILES IDX 7 13 6 14 5 15 4 16 3 17 2 18 1 19
REMARK H PARENT
REMARK Flexibility Score: inf
ROOT
ATOM      1  C   UNL     1       5.298   1.344 400.277  1.00  0.00     0.000 C 
ENDROOT
BRANCH   1   2
ATOM      2  C   UNL     1       5.144  -0.147 399.923  1.00  0.00     0.000 C 
BRANCH   2   3
ATOM      3  C   UNL     1       3.952  -0.863 400.585  1.00  0.00     0.000 C 
BRANCH   3   4
ATOM      4  C   UNL     1       3.721  -2.280 400.033  1.00  0.00     0.000 C 
BRANCH   4   5
ATOM      5  C   UNL     1       3.623  -3.337 401.146  1.00  0.00     0.001 C 
BRANCH   5   6
ATOM      6  C   UNL     1       3.620  -2.719 402.557  1.00  0.00     0.009 C 
BRANCH   6   7
ATOM      7  C   UNL     1       4.244  -3.653 403.616  1.00  0.00     0.032 C 
ATOM      8  C   UNL     1       4.334  -5.106 403.128  1.00  0.00     0.014 C 
BRANCH   7   9
ATOM      9  C   UNL     1       3.444  -3.593 404.889  1.00  0.00     0.044 C 
ATOM     10  O   UNL     1       3.821  -4.221 405.913  1.00  0.00    -0.550 OA
ATOM     11  O   UNL     1       2.276  -2.840 404.940  1.00  0.00    -0.550 OA
ENDBRANCH   7   9
ENDBRANCH   6   7
ENDBRANCH   5   6
ENDBRANCH   4   5
ENDBRANCH   3   4
ENDBRANCH   2   3
ENDBRANCH   1   2
BRANCH   1  12
ATOM     12  C   UNL     1       3.970   2.009 400.672  1.00  0.00     0.000 C 
BRANCH  12  13
ATOM     13  C   UNL     1       4.058   2.781 402.001  1.00  0.00    -0.000 C 
BRANCH  13  14
ATOM     14  C   UNL     1       5.020   2.184 403.046  1.00  0.00    -0.000 C 
BRANCH  14  15
ATOM     15  C   UNL     1       4.429   1.055 403.913  1.00  0.00    -0.000 C 
BRANCH  15  16
ATOM     16  C   UNL     1       5.434  -0.028 404.343  1.00  0.00    -0.000 C 
BRANCH  16  17
ATOM     17  C   UNL     1       6.751   0.034 403.555  1.00  0.00    -0.000 C 
BRANCH  17  18
ATOM     18  C   UNL     1       7.032  -1.298 402.851  1.00  0.00    -0.003 C 
ATOM     19  C   UNL     1       8.181  -1.165 401.855  1.00  0.00     0.004 C 
ENDBRANCH  17  18
ENDBRANCH  16  17
ENDBRANCH  15  16
ENDBRANCH  14  15
ENDBRANCH  13  14
ENDBRANCH  12  13
ENDBRANCH   1  12
TORSDOF 14
ENDMDL
MODEL 3
REMARK VINA RESULT:    -3.874      2.313      4.662
REMARK INTER + INTRA:          -9.298
REMARK INTER:                  -7.129
REMARK INTRA:                  -2.169
REMARK UNBOUND:                -2.255
REMARK SMILES CCCCCCCCCCCCCC[C@H](C)C(=O)[O-]
REMARK SMILES IDX 9 1 10 2 11 3 12 4 13 5 14 6 15 7 16 8 17 9 18 10 19 11 8 12
REMARK SMILES IDX 7 13 6 14 5 15 4 16 3 17 2 18 1 19
REMARK H PARENT
REMARK Flexibility Score: inf
ROOT
ATOM      1  C   UNL     1       5.058  -1.617 400.429  1.00  0.00     0.000 C 
ENDROOT
BRANCH   1   2
ATOM      2  C   UNL     1       3.747  -2.253 399.931  1.00  0.00     0.000 C 
BRANCH   2   3
ATOM      3  C   UNL     1       3.093  -3.258 400.897  1.00  0.00     0.000 C 
BRANCH   3   4
ATOM      4  C   UNL     1       3.610  -3.128 402.340  1.00  0.00     0.000 C 
BRANCH   4   5
ATOM      5  C   UNL     1       3.923  -4.492 402.979  1.00  0.00     0.001 C 
BRANCH   5   6
ATOM      6  C   UNL     1       4.241  -5.580 401.937  1.00  0.00     0.009 C 
BRANCH   6   7
ATOM      7  C   UNL     1       5.734  -5.974 401.927  1.00  0.00     0.032 C 
ATOM      8  C   UNL     1       6.566  -5.075 401.001  1.00  0.00     0.014 C 
BRANCH   7   9
ATOM      9  C   UNL     1       5.882  -7.411 401.508  1.00  0.00     0.044 C 
ATOM     10  O   UNL     1       7.012  -7.876 401.201  1.00  0.00    -0.550 OA
ATOM     11  O   UNL     1       4.766  -8.238 401.457  1.00  0.00    -0.550 OA
ENDBRANCH   7   9
ENDBRANCH   6   7
ENDBRANCH   5   6
ENDBRANCH   4   5
ENDBRANCH   3   4
ENDBRANCH   2   3
ENDBRANCH   1   2
BRANCH   1  12
ATOM     12  C   UNL     1       5.143  -0.109 400.138  1.00  0.00     0.000 C 
BRANCH  12  13
ATOM     13  C   UNL     1       3.775   0.595 400.220  1.00  0.00    -0.000 C 
BRANCH  13  14
ATOM     14  C   UNL     1       3.745   1.875 401.078  1.00  0.00    -0.000 C 
BRANCH  14  15
ATOM     15  C   UNL     1       4.904   2.019 402.084  1.00  0.00    -0.000 C 
BRANCH  15  16
ATOM     16  C   UNL     1       4.534   1.724 403.548  1.00  0.00    -0.000 C 
BRANCH  16  17
ATOM     17  C   UNL     1       4.375   0.223 403.832  1.00  0.00    -0.000 C 
BRANCH  17  18
ATOM     18  C   UNL     1       5.564  -0.311 404.639  1.00  0.00    -0.003 C 
ATOM     19  C   UNL     1       6.435  -1.234 403.792  1.00  0.00     0.004 C 
ENDBRANCH  17  18
ENDBRANCH  16  17
ENDBRANCH  15  16
ENDBRANCH  14  15
ENDBRANCH  13  14
ENDBRANCH  12  13
ENDBRANCH   1  12
TORSDOF 14
ENDMDL
MODEL 4
REMARK VINA RESULT:    -3.784      2.882      4.040
REMARK INTER + INTRA:          -9.136
REMARK INTER:                  -6.891
REMARK INTRA:                  -2.244
REMARK UNBOUND:                -2.255
REMARK SMILES CCCCCCCCCCCCCC[C@H](C)C(=O)[O-]
REMARK SMILES IDX 9 1 10 2 11 3 12 4 13 5 14 6 15 7 16 8 17 9 18 10 19 11 8 12
REMARK SMILES IDX 7 13 6 14 5 15 4 16 3 17 2 18 1 19
REMARK H PARENT
REMARK Flexibility Score: inf
ROOT
ATOM      1  C   UNL     1       4.877   2.555 402.832  1.00  0.00     0.000 C 
ENDROOT
BRANCH   1   2
ATOM      2  C   UNL     1       6.267   1.902 402.726  1.00  0.00     0.000 C 
BRANCH   2   3
ATOM      3  C   UNL     1       6.430   0.568 403.478  1.00  0.00     0.000 C 
BRANCH   3   4
ATOM      4  C   UNL     1       5.184   0.183 404.294  1.00  0.00     0.000 C 
BRANCH   4   5
ATOM      5  C   UNL     1       4.705  -1.248 403.998  1.00  0.00     0.001 C 
BRANCH   5   6
ATOM      6  C   UNL     1       5.183  -2.267 405.050  1.00  0.00     0.009 C 
BRANCH   6   7
ATOM      7  C   UNL     1       4.013  -2.975 405.766  1.00  0.00     0.032 C 
ATOM      8  C   UNL     1       2.654  -2.626 405.143  1.00  0.00     0.014 C 
BRANCH   7   9
ATOM      9  C   UNL     1       4.010  -2.613 407.226  1.00  0.00     0.044 C 
ATOM     10  O   UNL     1       2.936  -2.309 407.809  1.00  0.00    -0.550 OA
ATOM     11  O   UNL     1       5.202  -2.611 407.943  1.00  0.00    -0.550 OA
ENDBRANCH   7   9
ENDBRANCH   6   7
ENDBRANCH   5   6
ENDBRANCH   4   5
ENDBRANCH   3   4
ENDBRANCH   2   3
ENDBRANCH   1   2
BRANCH   1  12
ATOM     12  C   UNL     1       4.089   2.509 401.512  1.00  0.00     0.000 C 
BRANCH  12  13
ATOM     13  C   UNL     1       3.366   1.168 401.291  1.00  0.00    -0.000 C 
BRANCH  13  14
ATOM     14  C   UNL     1       3.733   0.430 399.989  1.00  0.00    -0.000 C 
BRANCH  14  15
ATOM     15  C   UNL     1       5.100  -0.284 400.001  1.00  0.00    -0.000 C 
BRANCH  15  16
ATOM     16  C   UNL     1       5.062  -1.748 400.474  1.00  0.00    -0.000 C 
BRANCH  16  17
ATOM     17  C   UNL     1       3.776  -2.477 400.056  1.00  0.00    -0.000 C 
BRANCH  17  18
ATOM     18  C   UNL     1       3.147  -3.205 401.249  1.00  0.00    -0.003 C 
ATOM     19  C   UNL     1       4.003  -4.391 401.686  1.00  0.00     0.004 C 
ENDBRANCH  17  18
ENDBRANCH  16  17
ENDBRANCH  15  16
ENDBRANCH  14  15
ENDBRANCH  13  14
ENDBRANCH  12  13
ENDBRANCH   1  12
TORSDOF 14
ENDMDL
MODEL 5
REMARK VINA RESULT:    -3.757      2.768      5.434
REMARK INTER + INTRA:          -9.086
REMARK INTER:                  -6.789
REMARK INTRA:                  -2.298
REMARK UNBOUND:                -2.255
REMARK SMILES CCCCCCCCCCCCCC[C@H](C)C(=O)[O-]
REMARK SMILES IDX 9 1 10 2 11 3 12 4 13 5 14 6 15 7 16 8 17 9 18 10 19 11 8 12
REMARK SMILES IDX 7 13 6 14 5 15 4 16 3 17 2 18 1 19
REMARK H PARENT
REMARK Flexibility Score: inf
ROOT
ATOM      1  C   UNL     1       5.343  -0.033 399.675  1.00  0.00     0.000 C 
ENDROOT
BRANCH   1   2
ATOM      2  C   UNL     1       5.249   1.331 400.384  1.00  0.00     0.000 C 
BRANCH   2   3
ATOM      3  C   UNL     1       3.986   1.545 401.238  1.00  0.00     0.000 C 
BRANCH   3   4
ATOM      4  C   UNL     1       4.302   1.811 402.720  1.00  0.00     0.000 C 
BRANCH   4   5
ATOM      5  C   UNL     1       3.779   0.698 403.644  1.00  0.00     0.001 C 
BRANCH   5   6
ATOM      6  C   UNL     1       4.603  -0.599 403.540  1.00  0.00     0.009 C 
BRANCH   6   7
ATOM      7  C   UNL     1       6.124  -0.342 403.605  1.00  0.00     0.032 C 
ATOM      8  C   UNL     1       6.931  -1.449 402.910  1.00  0.00     0.014 C 
BRANCH   7   9
ATOM      9  C   UNL     1       6.564  -0.215 405.038  1.00  0.00     0.044 C 
ATOM     10  O   UNL     1       7.214   0.792 405.423  1.00  0.00    -0.550 OA
ATOM     11  O   UNL     1       6.253  -1.218 405.950  1.00  0.00    -0.550 OA
ENDBRANCH   7   9
ENDBRANCH   6   7
ENDBRANCH   5   6
ENDBRANCH   4   5
ENDBRANCH   3   4
ENDBRANCH   2   3
ENDBRANCH   1   2
BRANCH   1  12
ATOM     12  C   UNL     1       4.113  -0.923 399.919  1.00  0.00     0.000 C 
BRANCH  12  13
ATOM     13  C   UNL     1       4.485  -2.360 400.329  1.00  0.00    -0.000 C 
BRANCH  13  14
ATOM     14  C   UNL     1       3.355  -3.165 401.001  1.00  0.00    -0.000 C 
BRANCH  14  15
ATOM     15  C   UNL     1       3.759  -3.922 402.281  1.00  0.00    -0.000 C 
BRANCH  15  16
ATOM     16  C   UNL     1       5.126  -4.626 402.214  1.00  0.00    -0.000 C 
BRANCH  16  17
ATOM     17  C   UNL     1       5.061  -5.990 401.511  1.00  0.00    -0.000 C 
BRANCH  17  18
ATOM     18  C   UNL     1       3.823  -6.777 401.955  1.00  0.00    -0.003 C 
ATOM     19  C   UNL     1       3.842  -8.197 401.394  1.00  0.00     0.004 C 
ENDBRANCH  17  18
ENDBRANCH  16  17
ENDBRANCH  15  16
ENDBRANCH  14  15
ENDBRANCH  13  14
ENDBRANCH  12  13
ENDBRANCH   1  12
TORSDOF 14
ENDMDL
MODEL 6
REMARK VINA RESULT:    -3.755      2.834      5.176
REMARK INTER + INTRA:          -9.083
REMARK INTER:                  -6.599
REMARK INTRA:                  -2.484
REMARK UNBOUND:                -2.255
REMARK SMILES CCCCCCCCCCCCCC[C@H](C)C(=O)[O-]
REMARK SMILES IDX 9 1 10 2 11 3 12 4 13 5 14 6 15 7 16 8 17 9 18 10 19 11 8 12
REMARK SMILES IDX 7 13 6 14 5 15 4 16 3 17 2 18 1 19
REMARK H PARENT
REMARK Flexibility Score: inf
ROOT
ATOM      1  C   UNL     1       3.921   1.377 403.276  1.00  0.00     0.000 C 
ENDROOT
BRANCH   1   2
ATOM      2  C   UNL     1       4.958   0.402 403.861  1.00  0.00     0.000 C 
BRANCH   2   3
ATOM      3  C   UNL     1       6.429   0.750 403.572  1.00  0.00     0.000 C 
BRANCH   3   4
ATOM      4  C   UNL     1       7.205  -0.408 402.922  1.00  0.00     0.000 C 
BRANCH   4   5
ATOM      5  C   UNL     1       8.125   0.063 401.783  1.00  0.00     0.001 C 
BRANCH   5   6
ATOM      6  C   UNL     1       7.367   0.833 400.685  1.00  0.00     0.009 C 
BRANCH   6   7
ATOM      7  C   UNL     1       7.644   0.276 399.272  1.00  0.00     0.032 C 
ATOM      8  C   UNL     1       8.164  -1.168 399.307  1.00  0.00     0.014 C 
BRANCH   7   9
ATOM      9  C   UNL     1       8.634   1.156 398.558  1.00  0.00     0.044 C 
ATOM     10  O   UNL     1       9.854   1.134 398.871  1.00  0.00    -0.550 OA
ATOM     11  O   UNL     1       8.203   2.005 397.545  1.00  0.00    -0.550 OA
ENDBRANCH   7   9
ENDBRANCH   6   7
ENDBRANCH   5   6
ENDBRANCH   4   5
ENDBRANCH   3   4
ENDBRANCH   2   3
ENDBRANCH   1   2
BRANCH   1  12
ATOM     12  C   UNL     1       4.534   2.390 402.296  1.00  0.00     0.000 C 
BRANCH  12  13
ATOM     13  C   UNL     1       3.965   2.266 400.870  1.00  0.00    -0.000 C 
BRANCH  13  14
ATOM     14  C   UNL     1       3.180   0.970 400.586  1.00  0.00    -0.000 C 
BRANCH  14  15
ATOM     15  C   UNL     1       3.967  -0.124 399.836  1.00  0.00    -0.000 C 
BRANCH  15  16
ATOM     16  C   UNL     1       4.385  -1.329 400.697  1.00  0.00    -0.000 C 
BRANCH  16  17
ATOM     17  C   UNL     1       3.627  -2.614 400.331  1.00  0.00    -0.000 C 
BRANCH  17  18
ATOM     18  C   UNL     1       3.719  -3.646 401.461  1.00  0.00    -0.003 C 
ATOM     19  C   UNL     1       3.733  -2.966 402.828  1.00  0.00     0.004 C 
ENDBRANCH  17  18
ENDBRANCH  16  17
ENDBRANCH  15  16
ENDBRANCH  14  15
ENDBRANCH  13  14
ENDBRANCH  12  13
ENDBRANCH   1  12
TORSDOF 14
ENDMDL
MODEL 7
REMARK VINA RESULT:    -3.750      1.604      3.510
REMARK INTER + INTRA:          -9.074
REMARK INTER:                  -6.577
REMARK INTRA:                  -2.497
REMARK UNBOUND:                -2.255
REMARK SMILES CCCCCCCCCCCCCC[C@H](C)C(=O)[O-]
REMARK SMILES IDX 9 1 10 2 11 3 12 4 13 5 14 6 15 7 16 8 17 9 18 10 19 11 8 12
REMARK SMILES IDX 7 13 6 14 5 15 4 16 3 17 2 18 1 19
REMARK H PARENT
REMARK Flexibility Score: inf
ROOT
ATOM      1  C   UNL     1       5.485  -0.641 403.472  1.00  0.00     0.000 C 
ENDROOT
BRANCH   1   2
ATOM      2  C   UNL     1       4.039  -0.554 403.995  1.00  0.00     0.000 C 
BRANCH   2   3
ATOM      3  C   UNL     1       3.613  -1.682 404.951  1.00  0.00     0.000 C 
BRANCH   3   4
ATOM      4  C   UNL     1       4.468  -2.952 404.801  1.00  0.00     0.000 C 
BRANCH   4   5
ATOM      5  C   UNL     1       3.625  -4.196 404.471  1.00  0.00     0.001 C 
BRANCH   5   6
ATOM      6  C   UNL     1       4.021  -4.847 403.133  1.00  0.00     0.009 C 
BRANCH   6   7
ATOM      7  C   UNL     1       4.433  -3.809 402.066  1.00  0.00     0.032 C 
ATOM      8  C   UNL     1       3.249  -3.375 401.190  1.00  0.00     0.014 C 
BRANCH   7   9
ATOM      9  C   UNL     1       5.528  -4.369 401.200  1.00  0.00     0.044 C 
ATOM     10  O   UNL     1       5.897  -5.566 401.328  1.00  0.00    -0.550 OA
ATOM     11  O   UNL     1       6.142  -3.561 400.250  1.00  0.00    -0.550 OA
ENDBRANCH   7   9
ENDBRANCH   6   7
ENDBRANCH   5   6
ENDBRANCH   4   5
ENDBRANCH   3   4
ENDBRANCH   2   3
ENDBRANCH   1   2
BRANCH   1  12
ATOM     12  C   UNL     1       6.300   0.634 403.742  1.00  0.00     0.000 C 
BRANCH  12  13
ATOM     13  C   UNL     1       5.415   1.866 404.008  1.00  0.00    -0.000 C 
BRANCH  13  14
ATOM     14  C   UNL     1       5.278   2.844 402.825  1.00  0.00    -0.000 C 
BRANCH  14  15
ATOM     15  C   UNL     1       3.999   2.678 401.981  1.00  0.00    -0.000 C 
BRANCH  15  16
ATOM     16  C   UNL     1       4.212   2.038 400.598  1.00  0.00    -0.000 C 
BRANCH  16  17
ATOM     17  C   UNL     1       3.625   0.622 400.499  1.00  0.00    -0.000 C 
BRANCH  17  18
ATOM     18  C   UNL     1       4.623  -0.341 399.846  1.00  0.00    -0.003 C 
ATOM     19  C   UNL     1       6.011   0.285 399.749  1.00  0.00     0.004 C 
ENDBRANCH  17  18
ENDBRANCH  16  17
ENDBRANCH  15  16
ENDBRANCH  14  15
ENDBRANCH  13  14
ENDBRANCH  12  13
ENDBRANCH   1  12
TORSDOF 14
ENDMDL
MODEL 8
REMARK VINA RESULT:    -3.745      1.293      2.679
REMARK INTER + INTRA:          -9.064
REMARK INTER:                  -6.678
REMARK INTRA:                  -2.386
REMARK UNBOUND:                -2.255
REMARK SMILES CCCCCCCCCCCCCC[C@H](C)C(=O)[O-]
REMARK SMILES IDX 9 1 10 2 11 3 12 4 13 5 14 6 15 7 16 8 17 9 18 10 19 11 8 12
REMARK SMILES IDX 7 13 6 14 5 15 4 16 3 17 2 18 1 19
REMARK H PARENT
REMARK Flexibility Score: inf
ROOT
ATOM      1  C   UNL     1       5.715   0.976 403.850  1.00  0.00     0.000 C 
ENDROOT
BRANCH   1   2
ATOM      2  C   UNL     1       5.574  -0.300 404.700  1.00  0.00     0.000 C 
BRANCH   2   3
ATOM      3  C   UNL     1       5.164  -1.567 403.927  1.00  0.00     0.000 C 
BRANCH   3   4
ATOM      4  C   UNL     1       3.682  -1.933 404.116  1.00  0.00     0.000 C 
BRANCH   4   5
ATOM      5  C   UNL     1       3.327  -3.294 403.494  1.00  0.00     0.001 C 
BRANCH   5   6
ATOM      6  C   UNL     1       3.615  -3.353 401.983  1.00  0.00     0.009 C 
BRANCH   6   7
ATOM      7  C   UNL     1       4.276  -4.680 401.555  1.00  0.00     0.032 C 
ATOM      8  C   UNL     1       3.943  -5.832 402.514  1.00  0.00     0.014 C 
BRANCH   7   9
ATOM      9  C   UNL     1       5.768  -4.506 401.469  1.00  0.00     0.044 C 
ATOM     10  O   UNL     1       6.338  -4.395 400.351  1.00  0.00    -0.550 OA
ATOM     11  O   UNL     1       6.530  -4.469 402.632  1.00  0.00    -0.550 OA
ENDBRANCH   7   9
ENDBRANCH   6   7
ENDBRANCH   5   6
ENDBRANCH   4   5
ENDBRANCH   3   4
ENDBRANCH   2   3
ENDBRANCH   1   2
BRANCH   1  12
ATOM     12  C   UNL     1       4.361   1.585 403.450  1.00  0.00     0.000 C 
BRANCH  12  13
ATOM     13  C   UNL     1       4.463   2.528 402.237  1.00  0.00    -0.000 C 
BRANCH  13  14
ATOM     14  C   UNL     1       3.808   2.008 400.943  1.00  0.00    -0.000 C 
BRANCH  14  15
ATOM     15  C   UNL     1       3.571   0.486 400.892  1.00  0.00    -0.000 C 
BRANCH  15  16
ATOM     16  C   UNL     1       4.428  -0.271 399.863  1.00  0.00    -0.000 C 
BRANCH  16  17
ATOM     17  C   UNL     1       5.734  -0.816 400.460  1.00  0.00    -0.000 C 
BRANCH  17  18
ATOM     18  C   UNL     1       6.852   0.230 400.379  1.00  0.00    -0.003 C 
ATOM     19  C   UNL     1       6.945   0.831 398.979  1.00  0.00     0.004 C 
ENDBRANCH  17  18
ENDBRANCH  16  17
ENDBRANCH  15  16
ENDBRANCH  14  15
ENDBRANCH  13  14
ENDBRANCH  12  13
ENDBRANCH   1  12
TORSDOF 14
ENDMDL
MODEL 9
REMARK VINA RESULT:    -3.725      3.127      5.996
REMARK INTER + INTRA:          -9.028
REMARK INTER:                  -6.829
REMARK INTRA:                  -2.199
REMARK UNBOUND:                -2.255
REMARK SMILES CCCCCCCCCCCCCC[C@H](C)C(=O)[O-]
REMARK SMILES IDX 9 1 10 2 11 3 12 4 13 5 14 6 15 7 16 8 17 9 18 10 19 11 8 12
REMARK SMILES IDX 7 13 6 14 5 15 4 16 3 17 2 18 1 19
REMARK H PARENT
REMARK Flexibility Score: inf
ROOT
ATOM      1  C   UNL     1       3.861  -2.496 406.055  1.00  0.00     0.000 C 
ENDROOT
BRANCH   1   2
ATOM      2  C   UNL     1       5.164  -3.159 405.570  1.00  0.00     0.000 C 
BRANCH   2   3
ATOM      3  C   UNL     1       6.279  -2.187 405.141  1.00  0.00     0.000 C 
BRANCH   3   4
ATOM      4  C   UNL     1       5.783  -0.741 404.970  1.00  0.00     0.000 C 
BRANCH   4   5
ATOM      5  C   UNL     1       5.370  -0.426 403.522  1.00  0.00     0.001 C 
BRANCH   5   6
ATOM      6  C   UNL     1       4.062   0.383 403.438  1.00  0.00     0.009 C 
BRANCH   6   7
ATOM      7  C   UNL     1       3.701   0.777 401.990  1.00  0.00     0.032 C 
ATOM      8  C   UNL     1       4.465  -0.058 400.952  1.00  0.00     0.014 C 
BRANCH   7   9
ATOM      9  C   UNL     1       3.980   2.239 401.771  1.00  0.00     0.044 C 
ATOM     10  O   UNL     1       4.591   2.913 402.642  1.00  0.00    -0.550 OA
ATOM     11  O   UNL     1       3.559   2.858 400.599  1.00  0.00    -0.550 OA
ENDBRANCH   7   9
ENDBRANCH   6   7
ENDBRANCH   5   6
ENDBRANCH   4   5
ENDBRANCH   3   4
ENDBRANCH   2   3
ENDBRANCH   1   2
BRANCH   1  12
ATOM     12  C   UNL     1       2.711  -2.621 405.042  1.00  0.00     0.000 C 
BRANCH  12  13
ATOM     13  C   UNL     1       2.974  -3.689 403.965  1.00  0.00    -0.000 C 
BRANCH  13  14
ATOM     14  C   UNL     1       3.193  -3.145 402.539  1.00  0.00    -0.000 C 
BRANCH  14  15
ATOM     15  C   UNL     1       3.930  -4.100 401.578  1.00  0.00    -0.000 C 
BRANCH  15  16
ATOM     16  C   UNL     1       5.286  -4.615 402.089  1.00  0.00    -0.000 C 
BRANCH  16  17
ATOM     17  C   UNL     1       5.328  -6.144 402.233  1.00  0.00    -0.000 C 
BRANCH  17  18
ATOM     18  C   UNL     1       3.924  -6.745 402.104  1.00  0.00    -0.003 C 
ATOM     19  C   UNL     1       3.944  -8.016 401.258  1.00  0.00     0.004 C 
ENDBRANCH  17  18
ENDBRANCH  16  17
ENDBRANCH  15  16
ENDBRANCH  14  15
ENDBRANCH  13  14
ENDBRANCH  12  13
ENDBRANCH   1  12
TORSDOF 14
ENDMDL
