MODEL 1
REMARK VINA RESULT:    -4.425      0.000      0.000
REMARK INTER + INTRA:          -8.581
REMARK INTER:                  -6.754
REMARK INTRA:                  -1.827
REMARK UNBOUND:                -1.827
REMARK SMILES OC[C@@H]1O[C@](CO)(O[C@@H]2O[C@H](CO)[C@H](O)[C@@H](O)[C@@H]2O)[C@@H](O)[C@@H]1O
REMARK SMILES IDX 8 1 9 2 11 3 14 4 10 5 16 6 18 7 12 8 13 9 15 11 17 13 19 15
REMARK SMILES IDX 5 17 20 18 4 19 22 20 3 21 6 22 7 23 21 25 23 27 2 29 1 30
REMARK H PARENT 13 10 15 12 17 14 19 16 7 24 21 26 23 28 1 31
REMARK Flexibility Score: inf
ROOT
ATOM      1  O   UNL     1      10.136   4.710  -1.091  1.00  0.00    -0.313 OA
ENDROOT
BRANCH   1   2
ATOM      2  C   UNL     1       9.188   4.006  -1.883  1.00  0.00     0.285 C 
ATOM      3  C   UNL     1      10.306   1.877  -1.875  1.00  0.00     0.178 C 
ATOM      4  C   UNL     1      10.739   2.046  -3.357  1.00  0.00     0.177 C 
ATOM      5  O   UNL     1       9.148   2.631  -1.520  1.00  0.00    -0.341 OA
ATOM      6  C   UNL     1      10.794   3.523  -3.768  1.00  0.00     0.179 C 
ATOM      7  C   UNL     1       9.478   4.209  -3.381  1.00  0.00     0.202 C 
BRANCH   3   8
ATOM      8  C   UNL     1      11.440   1.978  -0.826  1.00  0.00     0.191 C 
BRANCH   8   9
ATOM      9  O   UNL     1      11.045   1.535   0.445  1.00  0.00    -0.394 OA
ATOM     10  H   UNL     1      11.473   0.652   0.594  1.00  0.00     0.210 HD
ENDBRANCH   8   9
ENDBRANCH   3   8
BRANCH   4  11
ATOM     11  O   UNL     1      11.985   1.443  -3.594  1.00  0.00    -0.387 OA
ATOM     12  H   UNL     1      12.474   1.447  -2.730  1.00  0.00     0.211 HD
ENDBRANCH   4  11
BRANCH   6  13
ATOM     13  O   UNL     1      11.040   3.644  -5.148  1.00  0.00    -0.387 OA
ATOM     14  H   UNL     1      11.987   3.396  -5.313  1.00  0.00     0.211 HD
ENDBRANCH   6  13
BRANCH   7  15
ATOM     15  O   UNL     1       9.550   5.583  -3.663  1.00  0.00    -0.385 OA
ATOM     16  H   UNL     1       9.141   6.058  -2.892  1.00  0.00     0.211 HD
ENDBRANCH   7  15
ENDBRANCH   1   2
BRANCH   1  17
ATOM     17  C   UNL     1       9.579   5.444  -0.001  1.00  0.00     0.224 C 
ATOM     18  C   UNL     1       8.133   5.908  -0.332  1.00  0.00     0.208 C 
ATOM     19  O   UNL     1      10.377   6.609   0.143  1.00  0.00    -0.337 OA
ATOM     20  C   UNL     1       8.126   7.366   0.059  1.00  0.00     0.180 C 
ATOM     21  C   UNL     1       9.589   7.748  -0.129  1.00  0.00     0.179 C 
BRANCH  17  22
ATOM     22  C   UNL     1       9.700   4.662   1.339  1.00  0.00     0.225 C 
BRANCH  22  23
ATOM     23  O   UNL     1       8.978   3.459   1.291  1.00  0.00    -0.391 OA
ATOM     24  H   UNL     1       8.918   3.195   0.335  1.00  0.00     0.210 HD
ENDBRANCH  22  23
ENDBRANCH  17  22
BRANCH  18  25
ATOM     25  O   UNL     1       7.119   5.157   0.297  1.00  0.00    -0.385 OA
ATOM     26  H   UNL     1       6.632   5.739   0.934  1.00  0.00     0.211 HD
ENDBRANCH  18  25
BRANCH  20  27
ATOM     27  O   UNL     1       7.261   8.121  -0.751  1.00  0.00    -0.387 OA
ATOM     28  H   UNL     1       7.777   8.916  -1.047  1.00  0.00     0.211 HD
ENDBRANCH  20  27
BRANCH  21  29
ATOM     29  C   UNL     1       9.920   8.269  -1.538  1.00  0.00     0.191 C 
BRANCH  29  30
ATOM     30  O   UNL     1      10.902   7.457  -2.121  1.00  0.00    -0.394 OA
ATOM     31  H   UNL     1      11.268   7.972  -2.887  1.00  0.00     0.210 HD
ENDBRANCH  29  30
ENDBRANCH  21  29
ENDBRANCH   1  17
TORSDOF 13
ENDMDL
MODEL 2
REMARK VINA RESULT:    -4.368      2.107      5.821
REMARK INTER + INTRA:          -8.493
REMARK INTER:                  -7.166
REMARK INTRA:                  -1.328
REMARK UNBOUND:                -1.827
REMARK SMILES OC[C@@H]1O[C@](CO)(O[C@@H]2O[C@H](CO)[C@H](O)[C@@H](O)[C@@H]2O)[C@@H](O)[C@@H]1O
REMARK SMILES IDX 8 1 9 2 11 3 14 4 10 5 16 6 18 7 12 8 13 9 15 11 17 13 19 15
REMARK SMILES IDX 5 17 20 18 4 19 22 20 3 21 6 22 7 23 21 25 23 27 2 29 1 30
REMARK H PARENT 13 10 15 12 17 14 19 16 7 24 21 26 23 28 1 31
REMARK Flexibility Score: inf
ROOT
ATOM      1  O   UNL     1       9.193   5.386   0.082  1.00  0.00    -0.313 OA
ENDROOT
BRANCH   1   2
ATOM      2  C   UNL     1       8.523   6.628   0.253  1.00  0.00     0.285 C 
ATOM      3  C   UNL     1       9.377   7.136   2.443  1.00  0.00     0.178 C 
ATOM      4  C   UNL     1       8.006   6.823   3.102  1.00  0.00     0.177 C 
ATOM      5  O   UNL     1       9.288   7.508   1.068  1.00  0.00    -0.341 OA
ATOM      6  C   UNL     1       7.166   5.872   2.241  1.00  0.00     0.179 C 
ATOM      7  C   UNL     1       7.103   6.404   0.804  1.00  0.00     0.202 C 
BRANCH   3   8
ATOM      8  C   UNL     1      10.508   6.116   2.723  1.00  0.00     0.191 C 
BRANCH   8   9
ATOM      9  O   UNL     1      10.935   6.133   4.058  1.00  0.00    -0.394 OA
ATOM     10  H   UNL     1      10.952   7.082   4.349  1.00  0.00     0.210 HD
ENDBRANCH   8   9
ENDBRANCH   3   8
BRANCH   4  11
ATOM     11  O   UNL     1       8.172   6.278   4.385  1.00  0.00    -0.387 OA
ATOM     12  H   UNL     1       9.126   6.017   4.465  1.00  0.00     0.211 HD
ENDBRANCH   4  11
BRANCH   6  13
ATOM     13  O   UNL     1       5.875   5.724   2.782  1.00  0.00    -0.387 OA
ATOM     14  H   UNL     1       5.395   6.585   2.667  1.00  0.00     0.211 HD
ENDBRANCH   6  13
BRANCH   7  15
ATOM     15  O   UNL     1       6.419   5.493  -0.017  1.00  0.00    -0.385 OA
ATOM     16  H   UNL     1       6.817   4.599   0.148  1.00  0.00     0.211 HD
ENDBRANCH   7  15
ENDBRANCH   1   2
BRANCH   1  17
ATOM     17  C   UNL     1       9.547   5.076  -1.265  1.00  0.00     0.224 C 
ATOM     18  C   UNL     1       8.666   3.919  -1.814  1.00  0.00     0.208 C 
ATOM     19  O   UNL     1      10.887   4.610  -1.227  1.00  0.00    -0.337 OA
ATOM     20  C   UNL     1       9.663   2.980  -2.449  1.00  0.00     0.180 C 
ATOM     21  C   UNL     1      10.920   3.258  -1.634  1.00  0.00     0.179 C 
BRANCH  17  22
ATOM     22  C   UNL     1       9.551   6.347  -2.164  1.00  0.00     0.225 C 
BRANCH  22  23
ATOM     23  O   UNL     1       9.996   6.049  -3.461  1.00  0.00    -0.391 OA
ATOM     24  H   UNL     1      10.574   5.244  -3.392  1.00  0.00     0.210 HD
ENDBRANCH  22  23
ENDBRANCH  17  22
BRANCH  18  25
ATOM     25  O   UNL     1       7.644   4.328  -2.695  1.00  0.00    -0.385 OA
ATOM     26  H   UNL     1       7.582   5.317  -2.681  1.00  0.00     0.211 HD
ENDBRANCH  18  25
BRANCH  20  27
ATOM     27  O   UNL     1       9.248   1.641  -2.363  1.00  0.00    -0.387 OA
ATOM     28  H   UNL     1       9.142   1.320  -3.297  1.00  0.00     0.211 HD
ENDBRANCH  20  27
BRANCH  21  29
ATOM     29  C   UNL     1      11.070   2.360  -0.395  1.00  0.00     0.191 C 
BRANCH  29  30
ATOM     30  O   UNL     1      11.930   1.294  -0.688  1.00  0.00    -0.394 OA
ATOM     31  H   UNL     1      12.054   1.301  -1.673  1.00  0.00     0.210 HD
ENDBRANCH  29  30
ENDBRANCH  21  29
ENDBRANCH   1  17
TORSDOF 13
ENDMDL
MODEL 3
REMARK VINA RESULT:    -4.352      1.548      2.865
REMARK INTER + INTRA:          -8.469
REMARK INTER:                  -7.061
REMARK INTRA:                  -1.408
REMARK UNBOUND:                -1.827
REMARK SMILES OC[C@@H]1O[C@](CO)(O[C@@H]2O[C@H](CO)[C@H](O)[C@@H](O)[C@@H]2O)[C@@H](O)[C@@H]1O
REMARK SMILES IDX 8 1 9 2 11 3 14 4 10 5 16 6 18 7 12 8 13 9 15 11 17 13 19 15
REMARK SMILES IDX 5 17 20 18 4 19 22 20 3 21 6 22 7 23 21 25 23 27 2 29 1 30
REMARK H PARENT 13 10 15 12 17 14 19 16 7 24 21 26 23 28 1 31
REMARK Flexibility Score: inf
ROOT
ATOM      1  O   UNL     1       9.765   5.276  -1.013  1.00  0.00    -0.313 OA
ENDROOT
BRANCH   1   2
ATOM      2  C   UNL     1       9.155   4.359  -1.912  1.00  0.00     0.285 C 
ATOM      3  C   UNL     1       9.604   2.358  -0.658  1.00  0.00     0.178 C 
ATOM      4  C   UNL     1      10.699   1.916  -1.666  1.00  0.00     0.177 C 
ATOM      5  O   UNL     1       8.628   3.239  -1.212  1.00  0.00    -0.341 OA
ATOM      6  C   UNL     1      11.285   3.110  -2.430  1.00  0.00     0.179 C 
ATOM      7  C   UNL     1      10.143   3.948  -3.018  1.00  0.00     0.202 C 
BRANCH   3   8
ATOM      8  C   UNL     1      10.112   2.813   0.732  1.00  0.00     0.191 C 
BRANCH   8   9
ATOM      9  O   UNL     1       9.131   3.485   1.475  1.00  0.00    -0.394 OA
ATOM     10  H   UNL     1       9.316   3.308   2.434  1.00  0.00     0.210 HD
ENDBRANCH   8   9
ENDBRANCH   3   8
BRANCH   4  11
ATOM     11  O   UNL     1      11.731   1.216  -1.020  1.00  0.00    -0.387 OA
ATOM     12  H   UNL     1      12.245   0.745  -1.727  1.00  0.00     0.211 HD
ENDBRANCH   4  11
BRANCH   6  13
ATOM     13  O   UNL     1      12.161   2.671  -3.439  1.00  0.00    -0.387 OA
ATOM     14  H   UNL     1      12.598   1.837  -3.124  1.00  0.00     0.211 HD
ENDBRANCH   6  13
BRANCH   7  15
ATOM     15  O   UNL     1      10.659   5.098  -3.638  1.00  0.00    -0.385 OA
ATOM     16  H   UNL     1      11.361   4.794  -4.272  1.00  0.00     0.211 HD
ENDBRANCH   7  15
ENDBRANCH   1   2
BRANCH   1  17
ATOM     17  C   UNL     1       8.947   6.386  -0.642  1.00  0.00     0.224 C 
ATOM     18  C   UNL     1       9.788   7.692  -0.581  1.00  0.00     0.208 C 
ATOM     19  O   UNL     1       8.485   6.116   0.672  1.00  0.00    -0.337 OA
ATOM     20  C   UNL     1       9.393   8.311   0.738  1.00  0.00     0.180 C 
ATOM     21  C   UNL     1       9.005   7.086   1.556  1.00  0.00     0.179 C 
BRANCH  17  22
ATOM     22  C   UNL     1       7.681   6.491  -1.540  1.00  0.00     0.225 C 
BRANCH  22  23
ATOM     23  O   UNL     1       6.861   7.557  -1.136  1.00  0.00    -0.391 OA
ATOM     24  H   UNL     1       7.364   8.394  -1.316  1.00  0.00     0.210 HD
ENDBRANCH  22  23
ENDBRANCH  17  22
BRANCH  18  25
ATOM     25  O   UNL     1       9.606   8.557  -1.681  1.00  0.00    -0.385 OA
ATOM     26  H   UNL     1       9.522   9.487  -1.350  1.00  0.00     0.211 HD
ENDBRANCH  18  25
BRANCH  20  27
ATOM     27  O   UNL     1      10.450   9.035   1.314  1.00  0.00    -0.387 OA
ATOM     28  H   UNL     1      10.051   9.861   1.692  1.00  0.00     0.211 HD
ENDBRANCH  20  27
BRANCH  21  29
ATOM     29  C   UNL     1      10.172   6.473   2.349  1.00  0.00     0.191 C 
BRANCH  29  30
ATOM     30  O   UNL     1       9.760   6.203   3.660  1.00  0.00    -0.394 OA
ATOM     31  H   UNL     1       9.622   7.085   4.094  1.00  0.00     0.210 HD
ENDBRANCH  29  30
ENDBRANCH  21  29
ENDBRANCH   1  17
TORSDOF 13
ENDMDL
MODEL 4
REMARK VINA RESULT:    -4.272      1.715      5.852
REMARK INTER + INTRA:          -8.346
REMARK INTER:                  -6.727
REMARK INTRA:                  -1.619
REMARK UNBOUND:                -1.827
REMARK SMILES OC[C@@H]1O[C@](CO)(O[C@@H]2O[C@H](CO)[C@H](O)[C@@H](O)[C@@H]2O)[C@@H](O)[C@@H]1O
REMARK SMILES IDX 8 1 9 2 11 3 14 4 10 5 16 6 18 7 12 8 13 9 15 11 17 13 19 15
REMARK SMILES IDX 5 17 20 18 4 19 22 20 3 21 6 22 7 23 21 25 23 27 2 29 1 30
REMARK H PARENT 13 10 15 12 17 14 19 16 7 24 21 26 23 28 1 31
REMARK Flexibility Score: inf
ROOT
ATOM      1  O   UNL     1      10.053   5.629  -0.681  1.00  0.00    -0.313 OA
ENDROOT
BRANCH   1   2
ATOM      2  C   UNL     1       8.803   5.378  -0.052  1.00  0.00     0.285 C 
ATOM      3  C   UNL     1       8.241   7.664   0.436  1.00  0.00     0.178 C 
ATOM      4  C   UNL     1       8.528   7.462   1.948  1.00  0.00     0.177 C 
ATOM      5  O   UNL     1       7.906   6.462  -0.257  1.00  0.00    -0.341 OA
ATOM      6  C   UNL     1       9.498   6.299   2.192  1.00  0.00     0.179 C 
ATOM      7  C   UNL     1       9.004   5.057   1.440  1.00  0.00     0.202 C 
BRANCH   3   8
ATOM      8  C   UNL     1       9.260   8.542  -0.333  1.00  0.00     0.191 C 
BRANCH   8   9
ATOM      9  O   UNL     1      10.572   8.388   0.136  1.00  0.00    -0.394 OA
ATOM     10  H   UNL     1      10.523   8.304   1.124  1.00  0.00     0.210 HD
ENDBRANCH   8   9
ENDBRANCH   3   8
BRANCH   4  11
ATOM     11  O   UNL     1       9.040   8.634   2.529  1.00  0.00    -0.387 OA
ATOM     12  H   UNL     1       9.960   8.424   2.836  1.00  0.00     0.211 HD
ENDBRANCH   4  11
BRANCH   6  13
ATOM     13  O   UNL     1       9.624   6.039   3.569  1.00  0.00    -0.387 OA
ATOM     14  H   UNL     1       8.928   5.378   3.821  1.00  0.00     0.211 HD
ENDBRANCH   6  13
BRANCH   7  15
ATOM     15  O   UNL     1       9.932   4.012   1.574  1.00  0.00    -0.385 OA
ATOM     16  H   UNL     1      10.539   4.061   0.789  1.00  0.00     0.211 HD
ENDBRANCH   7  15
ENDBRANCH   1   2
BRANCH   1  17
ATOM     17  C   UNL     1      10.197   5.053  -1.979  1.00  0.00     0.224 C 
ATOM     18  C   UNL     1       9.174   3.902  -2.187  1.00  0.00     0.208 C 
ATOM     19  O   UNL     1      11.495   4.482  -2.018  1.00  0.00    -0.337 OA
ATOM     20  C   UNL     1      10.009   2.778  -2.751  1.00  0.00     0.180 C 
ATOM     21  C   UNL     1      11.382   3.082  -2.163  1.00  0.00     0.179 C 
BRANCH  17  22
ATOM     22  C   UNL     1      10.162   6.138  -3.095  1.00  0.00     0.225 C 
BRANCH  22  23
ATOM     23  O   UNL     1       8.922   6.795  -3.124  1.00  0.00    -0.391 OA
ATOM     24  H   UNL     1       8.963   7.457  -3.864  1.00  0.00     0.210 HD
ENDBRANCH  22  23
ENDBRANCH  17  22
BRANCH  18  25
ATOM     25  O   UNL     1       8.070   4.238  -2.997  1.00  0.00    -0.385 OA
ATOM     26  H   UNL     1       8.399   4.555  -3.877  1.00  0.00     0.211 HD
ENDBRANCH  18  25
BRANCH  20  27
ATOM     27  O   UNL     1       9.522   1.519  -2.363  1.00  0.00    -0.387 OA
ATOM     28  H   UNL     1      10.199   0.854  -2.656  1.00  0.00     0.211 HD
ENDBRANCH  20  27
BRANCH  21  29
ATOM     29  C   UNL     1      11.641   2.409  -0.805  1.00  0.00     0.191 C 
BRANCH  29  30
ATOM     30  O   UNL     1      12.347   1.215  -0.997  1.00  0.00    -0.394 OA
ATOM     31  H   UNL     1      12.182   0.662  -0.190  1.00  0.00     0.210 HD
ENDBRANCH  29  30
ENDBRANCH  21  29
ENDBRANCH   1  17
TORSDOF 13
ENDMDL
MODEL 5
REMARK VINA RESULT:    -4.255      1.908      4.052
REMARK INTER + INTRA:          -8.321
REMARK INTER:                  -6.674
REMARK INTRA:                  -1.647
REMARK UNBOUND:                -1.827
REMARK SMILES OC[C@@H]1O[C@](CO)(O[C@@H]2O[C@H](CO)[C@H](O)[C@@H](O)[C@@H]2O)[C@@H](O)[C@@H]1O
REMARK SMILES IDX 8 1 9 2 11 3 14 4 10 5 16 6 18 7 12 8 13 9 15 11 17 13 19 15
REMARK SMILES IDX 5 17 20 18 4 19 22 20 3 21 6 22 7 23 21 25 23 27 2 29 1 30
REMARK H PARENT 13 10 15 12 17 14 19 16 7 24 21 26 23 28 1 31
REMARK Flexibility Score: inf
ROOT
ATOM      1  O   UNL     1       8.667   5.445  -0.502  1.00  0.00    -0.313 OA
ENDROOT
BRANCH   1   2
ATOM      2  C   UNL     1      10.004   5.035  -0.246  1.00  0.00     0.285 C 
ATOM      3  C   UNL     1      10.566   4.405  -2.497  1.00  0.00     0.178 C 
ATOM      4  C   UNL     1      10.516   2.896  -2.137  1.00  0.00     0.177 C 
ATOM      5  O   UNL     1      10.828   5.258  -1.383  1.00  0.00    -0.341 OA
ATOM      6  C   UNL     1       9.628   2.632  -0.915  1.00  0.00     0.179 C 
ATOM      7  C   UNL     1      10.039   3.571   0.226  1.00  0.00     0.202 C 
BRANCH   3   8
ATOM      8  C   UNL     1       9.419   4.922  -3.399  1.00  0.00     0.191 C 
BRANCH   8   9
ATOM      9  O   UNL     1       8.219   4.223  -3.206  1.00  0.00    -0.394 OA
ATOM     10  H   UNL     1       7.478   4.847  -3.423  1.00  0.00     0.210 HD
ENDBRANCH   8   9
ENDBRANCH   3   8
BRANCH   4  11
ATOM     11  O   UNL     1      10.064   2.130  -3.224  1.00  0.00    -0.387 OA
ATOM     12  H   UNL     1      10.368   1.198  -3.064  1.00  0.00     0.211 HD
ENDBRANCH   4  11
BRANCH   6  13
ATOM     13  O   UNL     1       9.718   1.285  -0.518  1.00  0.00    -0.387 OA
ATOM     14  H   UNL     1       9.056   1.135   0.207  1.00  0.00     0.211 HD
ENDBRANCH   6  13
BRANCH   7  15
ATOM     15  O   UNL     1       9.172   3.409   1.319  1.00  0.00    -0.385 OA
ATOM     16  H   UNL     1       9.726   3.108   2.086  1.00  0.00     0.211 HD
ENDBRANCH   7  15
ENDBRANCH   1   2
BRANCH   1  17
ATOM     17  C   UNL     1       8.327   6.735   0.006  1.00  0.00     0.224 C 
ATOM     18  C   UNL     1       9.229   7.104   1.217  1.00  0.00     0.208 C 
ATOM     19  O   UNL     1       6.995   6.637   0.483  1.00  0.00    -0.337 OA
ATOM     20  C   UNL     1       8.251   7.601   2.254  1.00  0.00     0.180 C 
ATOM     21  C   UNL     1       6.983   6.842   1.879  1.00  0.00     0.179 C 
BRANCH  17  22
ATOM     22  C   UNL     1       8.312   7.809  -1.120  1.00  0.00     0.225 C 
BRANCH  22  23
ATOM     23  O   UNL     1       9.584   7.960  -1.694  1.00  0.00    -0.391 OA
ATOM     24  H   UNL     1       9.544   7.550  -2.598  1.00  0.00     0.210 HD
ENDBRANCH  22  23
ENDBRANCH  17  22
BRANCH  18  25
ATOM     25  O   UNL     1      10.252   8.030   0.925  1.00  0.00    -0.385 OA
ATOM     26  H   UNL     1      10.091   8.416   0.027  1.00  0.00     0.211 HD
ENDBRANCH  18  25
BRANCH  20  27
ATOM     27  O   UNL     1       8.684   7.319   3.560  1.00  0.00    -0.387 OA
ATOM     28  H   UNL     1       8.458   6.367   3.731  1.00  0.00     0.211 HD
ENDBRANCH  20  27
BRANCH  21  29
ATOM     29  C   UNL     1       6.837   5.486   2.590  1.00  0.00     0.191 C 
BRANCH  29  30
ATOM     30  O   UNL     1       6.550   5.693   3.945  1.00  0.00    -0.394 OA
ATOM     31  H   UNL     1       6.166   4.841   4.280  1.00  0.00     0.210 HD
ENDBRANCH  29  30
ENDBRANCH  21  29
ENDBRANCH   1  17
TORSDOF 13
ENDMDL
MODEL 6
REMARK VINA RESULT:    -4.210      1.592      3.706
REMARK INTER + INTRA:          -8.252
REMARK INTER:                  -6.838
REMARK INTRA:                  -1.414
REMARK UNBOUND:                -1.827
REMARK SMILES OC[C@@H]1O[C@](CO)(O[C@@H]2O[C@H](CO)[C@H](O)[C@@H](O)[C@@H]2O)[C@@H](O)[C@@H]1O
REMARK SMILES IDX 8 1 9 2 11 3 14 4 10 5 16 6 18 7 12 8 13 9 15 11 17 13 19 15
REMARK SMILES IDX 5 17 20 18 4 19 22 20 3 21 6 22 7 23 21 25 23 27 2 29 1 30
REMARK H PARENT 13 10 15 12 17 14 19 16 7 24 21 26 23 28 1 31
REMARK Flexibility Score: inf
ROOT
ATOM      1  O   UNL     1       8.639   3.695  -1.520  1.00  0.00    -0.313 OA
ENDROOT
BRANCH   1   2
ATOM      2  C   UNL     1       9.814   4.172  -0.877  1.00  0.00     0.285 C 
ATOM      3  C   UNL     1      11.384   3.491  -2.567  1.00  0.00     0.178 C 
ATOM      4  C   UNL     1      11.913   2.335  -1.675  1.00  0.00     0.177 C 
ATOM      5  O   UNL     1      10.791   4.563  -1.834  1.00  0.00    -0.341 OA
ATOM      6  C   UNL     1      10.873   1.895  -0.639  1.00  0.00     0.179 C 
ATOM      7  C   UNL     1      10.351   3.125   0.114  1.00  0.00     0.202 C 
BRANCH   3   8
ATOM      8  C   UNL     1      10.548   3.065  -3.799  1.00  0.00     0.191 C 
BRANCH   8   9
ATOM      9  O   UNL     1       9.807   4.122  -4.345  1.00  0.00    -0.394 OA
ATOM     10  H   UNL     1       9.192   3.732  -5.019  1.00  0.00     0.210 HD
ENDBRANCH   8   9
ENDBRANCH   3   8
BRANCH   4  11
ATOM     11  O   UNL     1      12.302   1.232  -2.453  1.00  0.00    -0.387 OA
ATOM     12  H   UNL     1      13.287   1.294  -2.567  1.00  0.00     0.211 HD
ENDBRANCH   4  11
BRANCH   6  13
ATOM     13  O   UNL     1      11.426   0.955   0.251  1.00  0.00    -0.387 OA
ATOM     14  H   UNL     1      11.606   0.121  -0.257  1.00  0.00     0.211 HD
ENDBRANCH   6  13
BRANCH   7  15
ATOM     15  O   UNL     1       9.327   2.749   1.000  1.00  0.00    -0.385 OA
ATOM     16  H   UNL     1       8.596   2.363   0.449  1.00  0.00     0.211 HD
ENDBRANCH   7  15
ENDBRANCH   1   2
BRANCH   1  17
ATOM     17  C   UNL     1       7.588   4.654  -1.636  1.00  0.00     0.224 C 
ATOM     18  C   UNL     1       8.162   6.065  -1.942  1.00  0.00     0.208 C 
ATOM     19  O   UNL     1       6.964   4.715  -0.364  1.00  0.00    -0.337 OA
ATOM     20  C   UNL     1       7.446   6.963  -0.963  1.00  0.00     0.180 C 
ATOM     21  C   UNL     1       7.147   6.004   0.183  1.00  0.00     0.179 C 
BRANCH  17  22
ATOM     22  C   UNL     1       6.494   4.186  -2.639  1.00  0.00     0.225 C 
BRANCH  22  23
ATOM     23  O   UNL     1       7.031   3.993  -3.922  1.00  0.00    -0.391 OA
ATOM     24  H   UNL     1       6.715   3.107  -4.238  1.00  0.00     0.210 HD
ENDBRANCH  22  23
ENDBRANCH  17  22
BRANCH  18  25
ATOM     25  O   UNL     1       8.021   6.477  -3.284  1.00  0.00    -0.385 OA
ATOM     26  H   UNL     1       7.149   6.936  -3.391  1.00  0.00     0.211 HD
ENDBRANCH  18  25
BRANCH  20  27
ATOM     27  O   UNL     1       8.246   8.048  -0.566  1.00  0.00    -0.387 OA
ATOM     28  H   UNL     1       9.186   7.776  -0.729  1.00  0.00     0.211 HD
ENDBRANCH  20  27
BRANCH  21  29
ATOM     29  C   UNL     1       8.252   5.948   1.252  1.00  0.00     0.191 C 
BRANCH  29  30
ATOM     30  O   UNL     1       7.966   4.931   2.171  1.00  0.00    -0.394 OA
ATOM     31  H   UNL     1       8.415   5.190   3.018  1.00  0.00     0.210 HD
ENDBRANCH  29  30
ENDBRANCH  21  29
ENDBRANCH   1  17
TORSDOF 13
ENDMDL
MODEL 7
REMARK VINA RESULT:    -4.071      1.742      2.597
REMARK INTER + INTRA:          -8.040
REMARK INTER:                  -6.201
REMARK INTRA:                  -1.839
REMARK UNBOUND:                -1.827
REMARK SMILES OC[C@@H]1O[C@](CO)(O[C@@H]2O[C@H](CO)[C@H](O)[C@@H](O)[C@@H]2O)[C@@H](O)[C@@H]1O
REMARK SMILES IDX 8 1 9 2 11 3 14 4 10 5 16 6 18 7 12 8 13 9 15 11 17 13 19 15
REMARK SMILES IDX 5 17 20 18 4 19 22 20 3 21 6 22 7 23 21 25 23 27 2 29 1 30
REMARK H PARENT 13 10 15 12 17 14 19 16 7 24 21 26 23 28 1 31
REMARK Flexibility Score: inf
ROOT
ATOM      1  O   UNL     1       9.420   5.112  -1.634  1.00  0.00    -0.313 OA
ENDROOT
BRANCH   1   2
ATOM      2  C   UNL     1       9.146   3.909  -2.339  1.00  0.00     0.285 C 
ATOM      3  C   UNL     1       9.604   2.387  -0.535  1.00  0.00     0.178 C 
ATOM      4  C   UNL     1      10.936   1.934  -1.192  1.00  0.00     0.177 C 
ATOM      5  O   UNL     1       8.649   2.908  -1.459  1.00  0.00    -0.341 OA
ATOM      6  C   UNL     1      11.492   3.001  -2.142  1.00  0.00     0.179 C 
ATOM      7  C   UNL     1      10.391   3.442  -3.115  1.00  0.00     0.202 C 
BRANCH   3   8
ATOM      8  C   UNL     1       9.742   3.248   0.745  1.00  0.00     0.191 C 
BRANCH   8   9
ATOM      9  O   UNL     1       8.514   3.468   1.386  1.00  0.00    -0.394 OA
ATOM     10  H   UNL     1       8.603   4.307   1.910  1.00  0.00     0.210 HD
ENDBRANCH   8   9
ENDBRANCH   3   8
BRANCH   4  11
ATOM     11  O   UNL     1      11.900   1.618  -0.220  1.00  0.00    -0.387 OA
ATOM     12  H   UNL     1      12.635   2.278  -0.320  1.00  0.00     0.211 HD
ENDBRANCH   4  11
BRANCH   6  13
ATOM     13  O   UNL     1      12.613   2.511  -2.837  1.00  0.00    -0.387 OA
ATOM     14  H   UNL     1      13.301   2.256  -2.168  1.00  0.00     0.211 HD
ENDBRANCH   6  13
BRANCH   7  15
ATOM     15  O   UNL     1      10.857   4.488  -3.928  1.00  0.00    -0.385 OA
ATOM     16  H   UNL     1      10.346   4.442  -4.779  1.00  0.00     0.211 HD
ENDBRANCH   7  15
ENDBRANCH   1   2
BRANCH   1  17
ATOM     17  C   UNL     1       8.417   6.120  -1.756  1.00  0.00     0.224 C 
ATOM     18  C   UNL     1       7.641   5.964  -3.093  1.00  0.00     0.208 C 
ATOM     19  O   UNL     1       9.104   7.361  -1.805  1.00  0.00    -0.337 OA
ATOM     20  C   UNL     1       7.620   7.363  -3.661  1.00  0.00     0.180 C 
ATOM     21  C   UNL     1       8.887   7.963  -3.063  1.00  0.00     0.179 C 
BRANCH  17  22
ATOM     22  C   UNL     1       7.502   6.175  -0.498  1.00  0.00     0.225 C 
BRANCH  22  23
ATOM     23  O   UNL     1       6.802   4.971  -0.328  1.00  0.00    -0.391 OA
ATOM     24  H   UNL     1       5.865   5.210  -0.099  1.00  0.00     0.210 HD
ENDBRANCH  22  23
ENDBRANCH  17  22
BRANCH  18  25
ATOM     25  O   UNL     1       6.357   5.396  -2.962  1.00  0.00    -0.385 OA
ATOM     26  H   UNL     1       5.675   6.106  -3.078  1.00  0.00     0.211 HD
ENDBRANCH  18  25
BRANCH  20  27
ATOM     27  O   UNL     1       7.634   7.358  -5.065  1.00  0.00    -0.387 OA
ATOM     28  H   UNL     1       8.579   7.497  -5.336  1.00  0.00     0.211 HD
ENDBRANCH  20  27
BRANCH  21  29
ATOM     29  C   UNL     1      10.138   7.774  -3.938  1.00  0.00     0.191 C 
BRANCH  29  30
ATOM     30  O   UNL     1      11.172   7.226  -3.169  1.00  0.00    -0.394 OA
ATOM     31  H   UNL     1      10.925   7.385  -2.220  1.00  0.00     0.210 HD
ENDBRANCH  29  30
ENDBRANCH  21  29
ENDBRANCH   1  17
TORSDOF 13
ENDMDL
MODEL 8
REMARK VINA RESULT:    -4.044      1.627      5.017
REMARK INTER + INTRA:          -7.998
REMARK INTER:                  -6.456
REMARK INTRA:                  -1.542
REMARK UNBOUND:                -1.827
REMARK SMILES OC[C@@H]1O[C@](CO)(O[C@@H]2O[C@H](CO)[C@H](O)[C@@H](O)[C@@H]2O)[C@@H](O)[C@@H]1O
REMARK SMILES IDX 8 1 9 2 11 3 14 4 10 5 16 6 18 7 12 8 13 9 15 11 17 13 19 15
REMARK SMILES IDX 5 17 20 18 4 19 22 20 3 21 6 22 7 23 21 25 23 27 2 29 1 30
REMARK H PARENT 13 10 15 12 17 14 19 16 7 24 21 26 23 28 1 31
REMARK Flexibility Score: inf
ROOT
ATOM      1  O   UNL     1       9.888   4.940  -1.522  1.00  0.00    -0.313 OA
ENDROOT
BRANCH   1   2
ATOM      2  C   UNL     1       8.919   5.978  -1.461  1.00  0.00     0.285 C 
ATOM      3  C   UNL     1       9.182   6.775  -3.714  1.00  0.00     0.178 C 
ATOM      4  C   UNL     1       9.918   8.052  -3.226  1.00  0.00     0.177 C 
ATOM      5  O   UNL     1       8.323   6.191  -2.735  1.00  0.00    -0.341 OA
ATOM      6  C   UNL     1      10.572   7.843  -1.855  1.00  0.00     0.179 C 
ATOM      7  C   UNL     1       9.539   7.262  -0.881  1.00  0.00     0.202 C 
BRANCH   3   8
ATOM      8  C   UNL     1      10.058   5.732  -4.451  1.00  0.00     0.191 C 
BRANCH   8   9
ATOM      9  O   UNL     1       9.413   4.497  -4.610  1.00  0.00    -0.394 OA
ATOM     10  H   UNL     1       8.872   4.341  -3.793  1.00  0.00     0.210 HD
ENDBRANCH   8   9
ENDBRANCH   3   8
BRANCH   4  11
ATOM     11  O   UNL     1      10.888   8.465  -4.155  1.00  0.00    -0.387 OA
ATOM     12  H   UNL     1      11.454   9.139  -3.697  1.00  0.00     0.211 HD
ENDBRANCH   4  11
BRANCH   6  13
ATOM     13  O   UNL     1      11.100   9.053  -1.368  1.00  0.00    -0.387 OA
ATOM     14  H   UNL     1      11.900   9.278  -1.912  1.00  0.00     0.211 HD
ENDBRANCH   6  13
BRANCH   7  15
ATOM     15  O   UNL     1      10.148   6.975   0.351  1.00  0.00    -0.385 OA
ATOM     16  H   UNL     1      10.538   6.064   0.276  1.00  0.00     0.211 HD
ENDBRANCH   7  15
ENDBRANCH   1   2
BRANCH   1  17
ATOM     17  C   UNL     1       9.376   3.628  -1.290  1.00  0.00     0.224 C 
ATOM     18  C   UNL     1       9.854   3.087   0.087  1.00  0.00     0.208 C 
ATOM     19  O   UNL     1       9.941   2.798  -2.292  1.00  0.00    -0.337 OA
ATOM     20  C   UNL     1      10.348   1.695  -0.227  1.00  0.00     0.180 C 
ATOM     21  C   UNL     1      10.774   1.834  -1.684  1.00  0.00     0.179 C 
BRANCH  17  22
ATOM     22  C   UNL     1       7.834   3.570  -1.490  1.00  0.00     0.225 C 
BRANCH  22  23
ATOM     23  O   UNL     1       7.506   3.180  -2.798  1.00  0.00    -0.391 OA
ATOM     24  H   UNL     1       7.473   4.007  -3.347  1.00  0.00     0.210 HD
ENDBRANCH  22  23
ENDBRANCH  17  22
BRANCH  18  25
ATOM     25  O   UNL     1       8.873   3.116   1.100  1.00  0.00    -0.385 OA
ATOM     26  H   UNL     1       9.163   2.533   1.847  1.00  0.00     0.211 HD
ENDBRANCH  18  25
BRANCH  20  27
ATOM     27  O   UNL     1      11.408   1.315   0.613  1.00  0.00    -0.387 OA
ATOM     28  H   UNL     1      11.512   2.043   1.279  1.00  0.00     0.211 HD
ENDBRANCH  20  27
BRANCH  21  29
ATOM     29  C   UNL     1      12.244   2.249  -1.865  1.00  0.00     0.191 C 
BRANCH  29  30
ATOM     30  O   UNL     1      12.307   3.478  -2.533  1.00  0.00    -0.394 OA
ATOM     31  H   UNL     1      11.370   3.791  -2.628  1.00  0.00     0.210 HD
ENDBRANCH  29  30
ENDBRANCH  21  29
ENDBRANCH   1  17
TORSDOF 13
ENDMDL
MODEL 9
REMARK VINA RESULT:    -4.025      1.885      4.731
REMARK INTER + INTRA:          -7.969
REMARK INTER:                  -6.255
REMARK INTRA:                  -1.714
REMARK UNBOUND:                -1.827
REMARK SMILES OC[C@@H]1O[C@](CO)(O[C@@H]2O[C@H](CO)[C@H](O)[C@@H](O)[C@@H]2O)[C@@H](O)[C@@H]1O
REMARK SMILES IDX 8 1 9 2 11 3 14 4 10 5 16 6 18 7 12 8 13 9 15 11 17 13 19 15
REMARK SMILES IDX 5 17 20 18 4 19 22 20 3 21 6 22 7 23 21 25 23 27 2 29 1 30
REMARK H PARENT 13 10 15 12 17 14 19 16 7 24 21 26 23 28 1 31
REMARK Flexibility Score: inf
ROOT
ATOM      1  O   UNL     1       9.279   4.762  -2.627  1.00  0.00    -0.313 OA
ENDROOT
BRANCH   1   2
ATOM      2  C   UNL     1       8.412   3.750  -2.132  1.00  0.00     0.285 C 
ATOM      3  C   UNL     1       8.294   4.532   0.139  1.00  0.00     0.178 C 
ATOM      4  C   UNL     1       9.194   3.368   0.636  1.00  0.00     0.177 C 
ATOM      5  O   UNL     1       7.600   4.250  -1.076  1.00  0.00    -0.341 OA
ATOM      6  C   UNL     1      10.081   2.816  -0.486  1.00  0.00     0.179 C 
ATOM      7  C   UNL     1       9.216   2.506  -1.714  1.00  0.00     0.202 C 
BRANCH   3   8
ATOM      8  C   UNL     1       8.941   5.939   0.155  1.00  0.00     0.191 C 
BRANCH   8   9
ATOM      9  O   UNL     1       8.378   6.806  -0.792  1.00  0.00    -0.394 OA
ATOM     10  H   UNL     1       9.038   7.528  -0.958  1.00  0.00     0.210 HD
ENDBRANCH   8   9
ENDBRANCH   3   8
BRANCH   4  11
ATOM     11  O   UNL     1       9.995   3.772   1.717  1.00  0.00    -0.387 OA
ATOM     12  H   UNL     1      10.343   4.675   1.494  1.00  0.00     0.211 HD
ENDBRANCH   4  11
BRANCH   6  13
ATOM     13  O   UNL     1      10.773   1.670  -0.053  1.00  0.00    -0.387 OA
ATOM     14  H   UNL     1      11.502   1.964   0.553  1.00  0.00     0.211 HD
ENDBRANCH   6  13
BRANCH   7  15
ATOM     15  O   UNL     1      10.028   2.091  -2.783  1.00  0.00    -0.385 OA
ATOM     16  H   UNL     1      10.965   2.311  -2.536  1.00  0.00     0.211 HD
ENDBRANCH   7  15
ENDBRANCH   1   2
BRANCH   1  17
ATOM     17  C   UNL     1       8.926   5.280  -3.909  1.00  0.00     0.224 C 
ATOM     18  C   UNL     1      10.006   4.913  -4.966  1.00  0.00     0.208 C 
ATOM     19  O   UNL     1       8.921   6.692  -3.780  1.00  0.00    -0.337 OA
ATOM     20  C   UNL     1      10.265   6.217  -5.680  1.00  0.00     0.180 C 
ATOM     21  C   UNL     1       9.931   7.239  -4.600  1.00  0.00     0.179 C 
BRANCH  17  22
ATOM     22  C   UNL     1       7.481   4.870  -4.315  1.00  0.00     0.225 C 
BRANCH  22  23
ATOM     23  O   UNL     1       7.167   5.329  -5.604  1.00  0.00    -0.391 OA
ATOM     24  H   UNL     1       6.705   6.202  -5.497  1.00  0.00     0.210 HD
ENDBRANCH  22  23
ENDBRANCH  17  22
BRANCH  18  25
ATOM     25  O   UNL     1       9.642   3.863  -5.834  1.00  0.00    -0.385 OA
ATOM     26  H   UNL     1       8.921   4.177  -6.437  1.00  0.00     0.211 HD
ENDBRANCH  18  25
BRANCH  20  27
ATOM     27  O   UNL     1      11.594   6.315  -6.125  1.00  0.00    -0.387 OA
ATOM     28  H   UNL     1      11.892   7.238  -5.916  1.00  0.00     0.211 HD
ENDBRANCH  20  27
BRANCH  21  29
ATOM     29  C   UNL     1      11.133   7.636  -3.726  1.00  0.00     0.191 C 
BRANCH  29  30
ATOM     30  O   UNL     1      10.789   7.525  -2.374  1.00  0.00    -0.394 OA
ATOM     31  H   UNL     1      10.715   6.553  -2.186  1.00  0.00     0.210 HD
ENDBRANCH  29  30
ENDBRANCH  21  29
ENDBRANCH   1  17
TORSDOF 13
ENDMDL
