MODEL 1
REMARK VINA RESULT:    -5.323      0.000      0.000
REMARK INTER + INTRA:         -18.131
REMARK INTER:                 -14.036
REMARK INTRA:                  -4.096
REMARK UNBOUND:                -4.096
REMARK SMILES CCCCCCCCCCCCCCCCCCCCCCCCCCCCCC(=O)[O-]
REMARK SMILES IDX 16 1 17 2 18 3 19 4 20 5 21 6 22 7 23 8 24 9 25 10 26 11
REMARK SMILES IDX 27 12 28 13 29 14 30 15 31 16 32 17 15 18 14 19 13 20 12 21
REMARK SMILES IDX 11 22 10 23 9 24 8 25 7 26 6 27 5 28 4 29 3 30 2 31 1 32
REMARK H PARENT
REMARK Flexibility Score: inf
ROOT
ATOM      1  C   UNL     1     161.240 166.496 156.390  1.00  0.00     0.000 C 
ENDROOT
BRANCH   1   2
ATOM      2  C   UNL     1     162.740 166.773 156.143  1.00  0.00     0.000 C 
BRANCH   2   3
ATOM      3  C   UNL     1     163.462 167.310 157.391  1.00  0.00     0.000 C 
BRANCH   3   4
ATOM      4  C   UNL     1     163.668 166.231 158.468  1.00  0.00     0.000 C 
BRANCH   4   5
ATOM      5  C   UNL     1     163.253 166.711 159.869  1.00  0.00     0.000 C 
BRANCH   5   6
ATOM      6  C   UNL     1     162.340 167.946 159.821  1.00  0.00     0.000 C 
BRANCH   6   7
ATOM      7  C   UNL     1     160.889 167.628 160.225  1.00  0.00     0.000 C 
BRANCH   7   8
ATOM      8  C   UNL     1     160.803 166.888 161.569  1.00  0.00     0.000 C 
BRANCH   8   9
ATOM      9  C   UNL     1     159.426 166.242 161.798  1.00  0.00     0.000 C 
BRANCH   9  10
ATOM     10  C   UNL     1     158.684 165.933 160.486  1.00  0.00     0.000 C 
BRANCH  10  11
ATOM     11  C   UNL     1     158.051 164.531 160.412  1.00  0.00     0.000 C 
BRANCH  11  12
ATOM     12  C   UNL     1     158.877 163.542 159.570  1.00  0.00     0.000 C 
BRANCH  12  13
ATOM     13  C   UNL     1     160.140 164.188 158.977  1.00  0.00     0.006 C 
BRANCH  13  14
ATOM     14  C   UNL     1     161.427 163.595 159.564  1.00  0.00     0.053 C 
BRANCH  14  15
ATOM     15  C   UNL     1     162.036 162.617 158.610  1.00  0.00     0.041 C 
ATOM     16  O   UNL     1     161.298 161.844 157.940  1.00  0.00    -0.550 OA
ATOM     17  O   UNL     1     163.417 162.524 158.493  1.00  0.00    -0.550 OA
ENDBRANCH  14  15
ENDBRANCH  13  14
ENDBRANCH  12  13
ENDBRANCH  11  12
ENDBRANCH  10  11
ENDBRANCH   9  10
ENDBRANCH   8   9
ENDBRANCH   7   8
ENDBRANCH   6   7
ENDBRANCH   5   6
ENDBRANCH   4   5
ENDBRANCH   3   4
ENDBRANCH   2   3
ENDBRANCH   1   2
BRANCH   1  18
ATOM     18  C   UNL     1     160.421 166.327 155.098  1.00  0.00     0.000 C 
BRANCH  18  19
ATOM     19  C   UNL     1     160.968 167.096 153.882  1.00  0.00     0.000 C 
BRANCH  19  20
ATOM     20  C   UNL     1     161.307 166.191 152.677  1.00  0.00     0.000 C 
BRANCH  20  21
ATOM     21  C   UNL     1     162.656 166.543 152.027  1.00  0.00     0.000 C 
BRANCH  21  22
ATOM     22  C   UNL     1     163.272 167.814 152.631  1.00  0.00     0.000 C 
BRANCH  22  23
ATOM     23  C   UNL     1     164.694 167.576 153.192  1.00  0.00     0.000 C 
BRANCH  23  24
ATOM     24  C   UNL     1     165.645 166.961 152.154  1.00  0.00    -0.000 C 
BRANCH  24  25
ATOM     25  C   UNL     1     167.122 167.174 152.535  1.00  0.00    -0.000 C 
BRANCH  25  26
ATOM     26  C   UNL     1     167.506 168.660 152.616  1.00  0.00    -0.000 C 
BRANCH  26  27
ATOM     27  C   UNL     1     167.746 169.126 154.062  1.00  0.00    -0.000 C 
BRANCH  27  28
ATOM     28  C   UNL     1     167.055 170.465 154.373  1.00  0.00    -0.000 C 
BRANCH  28  29
ATOM     29  C   UNL     1     166.865 171.335 153.117  1.00  0.00    -0.000 C 
BRANCH  29  30
ATOM     30  C   UNL     1     165.387 171.638 152.826  1.00  0.00    -0.000 C 
BRANCH  30  31
ATOM     31  C   UNL     1     164.867 170.910 151.576  1.00  0.00    -0.003 C 
ATOM     32  C   UNL     1     165.311 171.623 150.302  1.00  0.00     0.004 C 
ENDBRANCH  30  31
ENDBRANCH  29  30
ENDBRANCH  28  29
ENDBRANCH  27  28
ENDBRANCH  26  27
ENDBRANCH  25  26
ENDBRANCH  24  25
ENDBRANCH  23  24
ENDBRANCH  22  23
ENDBRANCH  21  22
ENDBRANCH  20  21
ENDBRANCH  19  20
ENDBRANCH  18  19
ENDBRANCH   1  18
TORSDOF 28
ENDMDL
MODEL 2
REMARK VINA RESULT:    -5.125      3.250      9.889
REMARK INTER + INTRA:         -17.609
REMARK INTER:                 -13.505
REMARK INTRA:                  -4.104
REMARK UNBOUND:                -4.096
REMARK SMILES CCCCCCCCCCCCCCCCCCCCCCCCCCCCCC(=O)[O-]
REMARK SMILES IDX 16 1 17 2 18 3 19 4 20 5 21 6 22 7 23 8 24 9 25 10 26 11
REMARK SMILES IDX 27 12 28 13 29 14 30 15 31 16 32 17 15 18 14 19 13 20 12 21
REMARK SMILES IDX 11 22 10 23 9 24 8 25 7 26 6 27 5 28 4 29 3 30 2 31 1 32
REMARK H PARENT
REMARK Flexibility Score: inf
ROOT
ATOM      1  C   UNL     1     160.956 166.911 154.351  1.00  0.00     0.000 C 
ENDROOT
BRANCH   1   2
ATOM      2  C   UNL     1     160.888 166.159 153.003  1.00  0.00     0.000 C 
BRANCH   2   3
ATOM      3  C   UNL     1     161.808 166.770 151.931  1.00  0.00     0.000 C 
BRANCH   3   4
ATOM      4  C   UNL     1     163.048 165.906 151.650  1.00  0.00     0.000 C 
BRANCH   4   5
ATOM      5  C   UNL     1     164.363 166.673 151.870  1.00  0.00     0.000 C 
BRANCH   5   6
ATOM      6  C   UNL     1     164.153 167.997 152.620  1.00  0.00     0.000 C 
BRANCH   6   7
ATOM      7  C   UNL     1     165.335 168.355 153.539  1.00  0.00     0.000 C 
BRANCH   7   8
ATOM      8  C   UNL     1     165.816 169.801 153.340  1.00  0.00     0.000 C 
BRANCH   8   9
ATOM      9  C   UNL     1     164.838 170.634 152.494  1.00  0.00     0.000 C 
BRANCH   9  10
ATOM     10  C   UNL     1     165.550 171.581 151.513  1.00  0.00     0.000 C 
BRANCH  10  11
ATOM     11  C   UNL     1     165.619 171.078 150.059  1.00  0.00     0.000 C 
BRANCH  11  12
ATOM     12  C   UNL     1     166.913 170.303 149.751  1.00  0.00     0.000 C 
BRANCH  12  13
ATOM     13  C   UNL     1     166.700 168.781 149.756  1.00  0.00     0.006 C 
BRANCH  13  14
ATOM     14  C   UNL     1     166.221 168.256 148.396  1.00  0.00     0.053 C 
BRANCH  14  15
ATOM     15  C   UNL     1     166.513 166.795 148.265  1.00  0.00     0.041 C 
ATOM     16  O   UNL     1     167.684 166.405 148.005  1.00  0.00    -0.550 OA
ATOM     17  O   UNL     1     165.488 165.866 148.382  1.00  0.00    -0.550 OA
ENDBRANCH  14  15
ENDBRANCH  13  14
ENDBRANCH  12  13
ENDBRANCH  11  12
ENDBRANCH  10  11
ENDBRANCH   9  10
ENDBRANCH   8   9
ENDBRANCH   7   8
ENDBRANCH   6   7
ENDBRANCH   5   6
ENDBRANCH   4   5
ENDBRANCH   3   4
ENDBRANCH   2   3
ENDBRANCH   1   2
BRANCH   1  18
ATOM     18  C   UNL     1     160.743 166.005 155.577  1.00  0.00     0.000 C 
BRANCH  18  19
ATOM     19  C   UNL     1     161.331 166.548 156.892  1.00  0.00     0.000 C 
BRANCH  19  20
ATOM     20  C   UNL     1     162.867 166.707 156.865  1.00  0.00     0.000 C 
BRANCH  20  21
ATOM     21  C   UNL     1     163.511 166.520 158.250  1.00  0.00     0.000 C 
BRANCH  21  22
ATOM     22  C   UNL     1     163.293 165.102 158.800  1.00  0.00     0.000 C 
BRANCH  22  23
ATOM     23  C   UNL     1     163.921 164.013 157.898  1.00  0.00     0.000 C 
BRANCH  23  24
ATOM     24  C   UNL     1     163.369 162.610 158.192  1.00  0.00    -0.000 C 
BRANCH  24  25
ATOM     25  C   UNL     1     162.118 162.662 159.089  1.00  0.00    -0.000 C 
BRANCH  25  26
ATOM     26  C   UNL     1     160.821 162.385 158.313  1.00  0.00    -0.000 C 
BRANCH  26  27
ATOM     27  C   UNL     1     159.839 163.568 158.370  1.00  0.00    -0.000 C 
BRANCH  27  28
ATOM     28  C   UNL     1     158.802 163.419 159.498  1.00  0.00    -0.000 C 
BRANCH  28  29
ATOM     29  C   UNL     1     158.719 164.671 160.389  1.00  0.00    -0.000 C 
BRANCH  29  30
ATOM     30  C   UNL     1     159.862 165.663 160.124  1.00  0.00    -0.000 C 
BRANCH  30  31
ATOM     31  C   UNL     1     160.665 165.994 161.391  1.00  0.00    -0.003 C 
ATOM     32  C   UNL     1     161.226 164.728 162.032  1.00  0.00     0.004 C 
ENDBRANCH  30  31
ENDBRANCH  29  30
ENDBRANCH  28  29
ENDBRANCH  27  28
ENDBRANCH  26  27
ENDBRANCH  25  26
ENDBRANCH  24  25
ENDBRANCH  23  24
ENDBRANCH  22  23
ENDBRANCH  21  22
ENDBRANCH  20  21
ENDBRANCH  19  20
ENDBRANCH  18  19
ENDBRANCH   1  18
TORSDOF 28
ENDMDL
MODEL 3
REMARK VINA RESULT:    -5.083      3.797     10.521
REMARK INTER + INTRA:         -17.499
REMARK INTER:                 -13.902
REMARK INTRA:                  -3.596
REMARK UNBOUND:                -4.096
REMARK SMILES CCCCCCCCCCCCCCCCCCCCCCCCCCCCCC(=O)[O-]
REMARK SMILES IDX 16 1 17 2 18 3 19 4 20 5 21 6 22 7 23 8 24 9 25 10 26 11
REMARK SMILES IDX 27 12 28 13 29 14 30 15 31 16 32 17 15 18 14 19 13 20 12 21
REMARK SMILES IDX 11 22 10 23 9 24 8 25 7 26 6 27 5 28 4 29 3 30 2 31 1 32
REMARK H PARENT
REMARK Flexibility Score: inf
ROOT
ATOM      1  C   UNL     1     162.118 165.811 157.868  1.00  0.00     0.000 C 
ENDROOT
BRANCH   1   2
ATOM      2  C   UNL     1     161.096 165.923 156.714  1.00  0.00     0.000 C 
BRANCH   2   3
ATOM      3  C   UNL     1     161.627 166.742 155.524  1.00  0.00     0.000 C 
BRANCH   3   4
ATOM      4  C   UNL     1     160.668 166.730 154.321  1.00  0.00     0.000 C 
BRANCH   4   5
ATOM      5  C   UNL     1     161.409 166.603 152.979  1.00  0.00     0.000 C 
BRANCH   5   6
ATOM      6  C   UNL     1     162.670 167.477 152.919  1.00  0.00     0.000 C 
BRANCH   6   7
ATOM      7  C   UNL     1     163.804 166.830 152.103  1.00  0.00     0.000 C 
BRANCH   7   8
ATOM      8  C   UNL     1     165.197 167.204 152.636  1.00  0.00     0.000 C 
BRANCH   8   9
ATOM      9  C   UNL     1     165.138 168.293 153.719  1.00  0.00     0.000 C 
BRANCH   9  10
ATOM     10  C   UNL     1     165.995 169.525 153.379  1.00  0.00     0.000 C 
BRANCH  10  11
ATOM     11  C   UNL     1     165.199 170.803 153.057  1.00  0.00     0.000 C 
BRANCH  11  12
ATOM     12  C   UNL     1     164.586 170.791 151.646  1.00  0.00     0.000 C 
BRANCH  12  13
ATOM     13  C   UNL     1     165.647 170.623 150.546  1.00  0.00     0.006 C 
BRANCH  13  14
ATOM     14  C   UNL     1     165.782 171.878 149.673  1.00  0.00     0.053 C 
BRANCH  14  15
ATOM     15  C   UNL     1     167.080 172.570 149.948  1.00  0.00     0.041 C 
ATOM     16  O   UNL     1     167.391 172.884 151.128  1.00  0.00    -0.550 OA
ATOM     17  O   UNL     1     167.923 172.912 148.898  1.00  0.00    -0.550 OA
ENDBRANCH  14  15
ENDBRANCH  13  14
ENDBRANCH  12  13
ENDBRANCH  11  12
ENDBRANCH  10  11
ENDBRANCH   9  10
ENDBRANCH   8   9
ENDBRANCH   7   8
ENDBRANCH   6   7
ENDBRANCH   5   6
ENDBRANCH   4   5
ENDBRANCH   3   4
ENDBRANCH   2   3
ENDBRANCH   1   2
BRANCH   1  18
ATOM     18  C   UNL     1     163.306 164.883 157.555  1.00  0.00     0.000 C 
BRANCH  18  19
ATOM     19  C   UNL     1     163.216 163.484 158.192  1.00  0.00     0.000 C 
BRANCH  19  20
ATOM     20  C   UNL     1     162.254 163.412 159.398  1.00  0.00     0.000 C 
BRANCH  20  21
ATOM     21  C   UNL     1     161.210 162.289 159.262  1.00  0.00     0.000 C 
BRANCH  21  22
ATOM     22  C   UNL     1     160.281 162.510 158.058  1.00  0.00     0.000 C 
BRANCH  22  23
ATOM     23  C   UNL     1     158.966 163.226 158.447  1.00  0.00     0.000 C 
BRANCH  23  24
ATOM     24  C   UNL     1     158.979 163.746 159.892  1.00  0.00    -0.000 C 
BRANCH  24  25
ATOM     25  C   UNL     1     157.738 164.603 160.204  1.00  0.00    -0.000 C 
BRANCH  25  26
ATOM     26  C   UNL     1     158.088 166.070 160.499  1.00  0.00    -0.000 C 
BRANCH  26  27
ATOM     27  C   UNL     1     159.535 166.417 160.110  1.00  0.00    -0.000 C 
BRANCH  27  28
ATOM     28  C   UNL     1     160.469 166.504 161.330  1.00  0.00    -0.000 C 
BRANCH  28  29
ATOM     29  C   UNL     1     159.704 166.429 162.663  1.00  0.00    -0.000 C 
BRANCH  29  30
ATOM     30  C   UNL     1     160.173 165.263 163.548  1.00  0.00    -0.000 C 
BRANCH  30  31
ATOM     31  C   UNL     1     161.248 164.400 162.870  1.00  0.00    -0.003 C 
ATOM     32  C   UNL     1     161.965 163.517 163.888  1.00  0.00     0.004 C 
ENDBRANCH  30  31
ENDBRANCH  29  30
ENDBRANCH  28  29
ENDBRANCH  27  28
ENDBRANCH  26  27
ENDBRANCH  25  26
ENDBRANCH  24  25
ENDBRANCH  23  24
ENDBRANCH  22  23
ENDBRANCH  21  22
ENDBRANCH  20  21
ENDBRANCH  19  20
ENDBRANCH  18  19
ENDBRANCH   1  18
TORSDOF 28
ENDMDL
MODEL 4
REMARK VINA RESULT:    -5.032      1.379      2.812
REMARK INTER + INTRA:         -17.364
REMARK INTER:                 -13.486
REMARK INTRA:                  -3.877
REMARK UNBOUND:                -4.096
REMARK SMILES CCCCCCCCCCCCCCCCCCCCCCCCCCCCCC(=O)[O-]
REMARK SMILES IDX 16 1 17 2 18 3 19 4 20 5 21 6 22 7 23 8 24 9 25 10 26 11
REMARK SMILES IDX 27 12 28 13 29 14 30 15 31 16 32 17 15 18 14 19 13 20 12 21
REMARK SMILES IDX 11 22 10 23 9 24 8 25 7 26 6 27 5 28 4 29 3 30 2 31 1 32
REMARK H PARENT
REMARK Flexibility Score: inf
ROOT
ATOM      1  C   UNL     1     160.520 166.978 153.160  1.00  0.00     0.000 C 
ENDROOT
BRANCH   1   2
ATOM      2  C   UNL     1     160.487 166.514 154.634  1.00  0.00     0.000 C 
BRANCH   2   3
ATOM      3  C   UNL     1     161.822 166.749 155.363  1.00  0.00     0.000 C 
BRANCH   3   4
ATOM      4  C   UNL     1     161.721 166.504 156.878  1.00  0.00     0.000 C 
BRANCH   4   5
ATOM      5  C   UNL     1     163.014 166.878 157.623  1.00  0.00     0.000 C 
BRANCH   5   6
ATOM      6  C   UNL     1     162.743 167.441 159.026  1.00  0.00     0.000 C 
BRANCH   6   7
ATOM      7  C   UNL     1     163.061 166.431 160.143  1.00  0.00     0.000 C 
BRANCH   7   8
ATOM      8  C   UNL     1     161.794 165.887 160.821  1.00  0.00     0.000 C 
BRANCH   8   9
ATOM      9  C   UNL     1     160.607 166.860 160.713  1.00  0.00     0.000 C 
BRANCH   9  10
ATOM     10  C   UNL     1     159.263 166.144 160.494  1.00  0.00     0.000 C 
BRANCH  10  11
ATOM     11  C   UNL     1     159.273 164.634 160.798  1.00  0.00     0.000 C 
BRANCH  11  12
ATOM     12  C   UNL     1     158.576 163.796 159.712  1.00  0.00     0.000 C 
BRANCH  12  13
ATOM     13  C   UNL     1     159.521 162.772 159.063  1.00  0.00     0.006 C 
BRANCH  13  14
ATOM     14  C   UNL     1     160.593 163.441 158.192  1.00  0.00     0.053 C 
BRANCH  14  15
ATOM     15  C   UNL     1     161.957 162.969 158.585  1.00  0.00     0.041 C 
ATOM     16  O   UNL     1     162.967 163.342 157.930  1.00  0.00    -0.550 OA
ATOM     17  O   UNL     1     162.110 162.081 159.642  1.00  0.00    -0.550 OA
ENDBRANCH  14  15
ENDBRANCH  13  14
ENDBRANCH  12  13
ENDBRANCH  11  12
ENDBRANCH  10  11
ENDBRANCH   9  10
ENDBRANCH   8   9
ENDBRANCH   7   8
ENDBRANCH   6   7
ENDBRANCH   5   6
ENDBRANCH   4   5
ENDBRANCH   3   4
ENDBRANCH   2   3
ENDBRANCH   1   2
BRANCH   1  18
ATOM     18  C   UNL     1     161.942 167.199 152.613  1.00  0.00     0.000 C 
BRANCH  18  19
ATOM     19  C   UNL     1     162.442 166.102 151.654  1.00  0.00     0.000 C 
BRANCH  19  20
ATOM     20  C   UNL     1     163.981 166.025 151.550  1.00  0.00     0.000 C 
BRANCH  20  21
ATOM     21  C   UNL     1     164.687 167.203 152.245  1.00  0.00     0.000 C 
BRANCH  21  22
ATOM     22  C   UNL     1     166.209 167.005 152.310  1.00  0.00     0.000 C 
BRANCH  22  23
ATOM     23  C   UNL     1     166.923 168.146 153.072  1.00  0.00     0.000 C 
BRANCH  23  24
ATOM     24  C   UNL     1     165.960 169.258 153.513  1.00  0.00    -0.000 C 
BRANCH  24  25
ATOM     25  C   UNL     1     166.611 170.651 153.418  1.00  0.00    -0.000 C 
BRANCH  25  26
ATOM     26  C   UNL     1     165.624 171.737 152.961  1.00  0.00    -0.000 C 
BRANCH  26  27
ATOM     27  C   UNL     1     165.840 172.147 151.495  1.00  0.00    -0.000 C 
BRANCH  27  28
ATOM     28  C   UNL     1     165.334 171.084 150.504  1.00  0.00    -0.000 C 
BRANCH  28  29
ATOM     29  C   UNL     1     166.433 170.611 149.536  1.00  0.00    -0.000 C 
BRANCH  29  30
ATOM     30  C   UNL     1     166.417 169.089 149.322  1.00  0.00    -0.000 C 
BRANCH  30  31
ATOM     31  C   UNL     1     167.828 168.486 149.248  1.00  0.00    -0.003 C 
ATOM     32  C   UNL     1     168.797 169.247 150.150  1.00  0.00     0.004 C 
ENDBRANCH  30  31
ENDBRANCH  29  30
ENDBRANCH  28  29
ENDBRANCH  27  28
ENDBRANCH  26  27
ENDBRANCH  25  26
ENDBRANCH  24  25
ENDBRANCH  23  24
ENDBRANCH  22  23
ENDBRANCH  21  22
ENDBRANCH  20  21
ENDBRANCH  19  20
ENDBRANCH  18  19
ENDBRANCH   1  18
TORSDOF 28
ENDMDL
MODEL 5
REMARK VINA RESULT:    -4.976      0.993      2.485
REMARK INTER + INTRA:         -17.217
REMARK INTER:                 -12.933
REMARK INTRA:                  -4.284
REMARK UNBOUND:                -4.096
REMARK SMILES CCCCCCCCCCCCCCCCCCCCCCCCCCCCCC(=O)[O-]
REMARK SMILES IDX 16 1 17 2 18 3 19 4 20 5 21 6 22 7 23 8 24 9 25 10 26 11
REMARK SMILES IDX 27 12 28 13 29 14 30 15 31 16 32 17 15 18 14 19 13 20 12 21
REMARK SMILES IDX 11 22 10 23 9 24 8 25 7 26 6 27 5 28 4 29 3 30 2 31 1 32
REMARK H PARENT
REMARK Flexibility Score: inf
ROOT
ATOM      1  C   UNL     1     160.509 167.274 152.695  1.00  0.00     0.000 C 
ENDROOT
BRANCH   1   2
ATOM      2  C   UNL     1     159.976 167.242 154.146  1.00  0.00     0.000 C 
BRANCH   2   3
ATOM      3  C   UNL     1     160.665 166.171 155.011  1.00  0.00     0.000 C 
BRANCH   3   4
ATOM      4  C   UNL     1     161.640 166.774 156.036  1.00  0.00     0.000 C 
BRANCH   4   5
ATOM      5  C   UNL     1     162.268 165.708 156.950  1.00  0.00     0.000 C 
BRANCH   5   6
ATOM      6  C   UNL     1     163.259 166.308 157.959  1.00  0.00     0.000 C 
BRANCH   6   7
ATOM      7  C   UNL     1     162.714 167.576 158.643  1.00  0.00     0.000 C 
BRANCH   7   8
ATOM      8  C   UNL     1     162.506 167.383 160.153  1.00  0.00     0.000 C 
BRANCH   8   9
ATOM      9  C   UNL     1     161.081 167.747 160.601  1.00  0.00     0.000 C 
BRANCH   9  10
ATOM     10  C   UNL     1     159.993 167.045 159.769  1.00  0.00     0.000 C 
BRANCH  10  11
ATOM     11  C   UNL     1     159.004 166.189 160.582  1.00  0.00     0.000 C 
BRANCH  11  12
ATOM     12  C   UNL     1     159.530 164.772 160.871  1.00  0.00     0.000 C 
BRANCH  12  13
ATOM     13  C   UNL     1     160.269 164.164 159.667  1.00  0.00     0.006 C 
BRANCH  13  14
ATOM     14  C   UNL     1     161.661 163.641 160.043  1.00  0.00     0.053 C 
BRANCH  14  15
ATOM     15  C   UNL     1     161.947 162.355 159.335  1.00  0.00     0.041 C 
ATOM     16  O   UNL     1     162.133 161.297 159.996  1.00  0.00    -0.550 OA
ATOM     17  O   UNL     1     162.055 162.330 157.950  1.00  0.00    -0.550 OA
ENDBRANCH  14  15
ENDBRANCH  13  14
ENDBRANCH  12  13
ENDBRANCH  11  12
ENDBRANCH  10  11
ENDBRANCH   9  10
ENDBRANCH   8   9
ENDBRANCH   7   8
ENDBRANCH   6   7
ENDBRANCH   5   6
ENDBRANCH   4   5
ENDBRANCH   3   4
ENDBRANCH   2   3
ENDBRANCH   1   2
BRANCH   1  18
ATOM     18  C   UNL     1     161.952 166.755 152.555  1.00  0.00     0.000 C 
BRANCH  18  19
ATOM     19  C   UNL     1     163.039 167.842 152.630  1.00  0.00     0.000 C 
BRANCH  19  20
ATOM     20  C   UNL     1     164.439 167.295 152.990  1.00  0.00     0.000 C 
BRANCH  20  21
ATOM     21  C   UNL     1     165.139 166.617 151.799  1.00  0.00     0.000 C 
BRANCH  21  22
ATOM     22  C   UNL     1     166.458 167.314 151.434  1.00  0.00     0.000 C 
BRANCH  22  23
ATOM     23  C   UNL     1     167.520 167.197 152.552  1.00  0.00     0.000 C 
BRANCH  23  24
ATOM     24  C   UNL     1     168.785 168.017 152.256  1.00  0.00    -0.000 C 
BRANCH  24  25
ATOM     25  C   UNL     1     168.721 169.417 152.896  1.00  0.00    -0.000 C 
BRANCH  25  26
ATOM     26  C   UNL     1     168.218 169.385 154.347  1.00  0.00    -0.000 C 
BRANCH  26  27
ATOM     27  C   UNL     1     166.904 170.164 154.530  1.00  0.00    -0.000 C 
BRANCH  27  28
ATOM     28  C   UNL     1     166.587 171.075 153.331  1.00  0.00    -0.000 C 
BRANCH  28  29
ATOM     29  C   UNL     1     165.132 170.929 152.850  1.00  0.00    -0.000 C 
BRANCH  29  30
ATOM     30  C   UNL     1     165.025 170.794 151.323  1.00  0.00    -0.000 C 
BRANCH  30  31
ATOM     31  C   UNL     1     166.377 170.979 150.616  1.00  0.00    -0.003 C 
ATOM     32  C   UNL     1     166.182 171.308 149.138  1.00  0.00     0.004 C 
ENDBRANCH  30  31
ENDBRANCH  29  30
ENDBRANCH  28  29
ENDBRANCH  27  28
ENDBRANCH  26  27
ENDBRANCH  25  26
ENDBRANCH  24  25
ENDBRANCH  23  24
ENDBRANCH  22  23
ENDBRANCH  21  22
ENDBRANCH  20  21
ENDBRANCH  19  20
ENDBRANCH  18  19
ENDBRANCH   1  18
TORSDOF 28
ENDMDL
MODEL 6
REMARK VINA RESULT:    -4.970      2.003      4.678
REMARK INTER + INTRA:         -17.201
REMARK INTER:                 -12.813
REMARK INTRA:                  -4.388
REMARK UNBOUND:                -4.096
REMARK SMILES CCCCCCCCCCCCCCCCCCCCCCCCCCCCCC(=O)[O-]
REMARK SMILES IDX 16 1 17 2 18 3 19 4 20 5 21 6 22 7 23 8 24 9 25 10 26 11
REMARK SMILES IDX 27 12 28 13 29 14 30 15 31 16 32 17 15 18 14 19 13 20 12 21
REMARK SMILES IDX 11 22 10 23 9 24 8 25 7 26 6 27 5 28 4 29 3 30 2 31 1 32
REMARK H PARENT
REMARK Flexibility Score: inf
ROOT
ATOM      1  C   UNL     1     164.317 166.796 151.955  1.00  0.00     0.000 C 
ENDROOT
BRANCH   1   2
ATOM      2  C   UNL     1     162.812 166.445 151.947  1.00  0.00     0.000 C 
BRANCH   2   3
ATOM      3  C   UNL     1     161.965 167.428 152.775  1.00  0.00     0.000 C 
BRANCH   3   4
ATOM      4  C   UNL     1     160.555 166.892 153.072  1.00  0.00     0.000 C 
BRANCH   4   5
ATOM      5  C   UNL     1     160.308 166.686 154.576  1.00  0.00     0.000 C 
BRANCH   5   6
ATOM      6  C   UNL     1     161.607 166.720 155.395  1.00  0.00     0.000 C 
BRANCH   6   7
ATOM      7  C   UNL     1     161.382 166.379 156.880  1.00  0.00     0.000 C 
BRANCH   7   8
ATOM      8  C   UNL     1     162.575 166.784 157.761  1.00  0.00     0.000 C 
BRANCH   8   9
ATOM      9  C   UNL     1     163.139 165.601 158.566  1.00  0.00     0.000 C 
BRANCH   9  10
ATOM     10  C   UNL     1     162.476 164.260 158.206  1.00  0.00     0.000 C 
BRANCH  10  11
ATOM     11  C   UNL     1     161.706 163.585 159.357  1.00  0.00     0.000 C 
BRANCH  11  12
ATOM     12  C   UNL     1     160.180 163.739 159.232  1.00  0.00     0.000 C 
BRANCH  12  13
ATOM     13  C   UNL     1     159.547 164.354 160.491  1.00  0.00     0.006 C 
BRANCH  13  14
ATOM     14  C   UNL     1     159.124 165.812 160.275  1.00  0.00     0.053 C 
BRANCH  14  15
ATOM     15  C   UNL     1     160.213 166.743 160.704  1.00  0.00     0.041 C 
ATOM     16  O   UNL     1     161.069 166.368 161.550  1.00  0.00    -0.550 OA
ATOM     17  O   UNL     1     160.257 168.040 160.209  1.00  0.00    -0.550 OA
ENDBRANCH  14  15
ENDBRANCH  13  14
ENDBRANCH  12  13
ENDBRANCH  11  12
ENDBRANCH  10  11
ENDBRANCH   9  10
ENDBRANCH   8   9
ENDBRANCH   7   8
ENDBRANCH   6   7
ENDBRANCH   5   6
ENDBRANCH   4   5
ENDBRANCH   3   4
ENDBRANCH   2   3
ENDBRANCH   1   2
BRANCH   1  18
ATOM     18  C   UNL     1     164.754 167.618 153.181  1.00  0.00     0.000 C 
BRANCH  18  19
ATOM     19  C   UNL     1     166.220 168.088 153.153  1.00  0.00     0.000 C 
BRANCH  19  20
ATOM     20  C   UNL     1     167.167 167.121 152.409  1.00  0.00     0.000 C 
BRANCH  20  21
ATOM     21  C   UNL     1     168.605 167.659 152.302  1.00  0.00     0.000 C 
BRANCH  21  22
ATOM     22  C   UNL     1     168.844 168.854 153.238  1.00  0.00     0.000 C 
BRANCH  22  23
ATOM     23  C   UNL     1     169.602 170.009 152.543  1.00  0.00     0.000 C 
BRANCH  23  24
ATOM     24  C   UNL     1     168.691 171.201 152.211  1.00  0.00    -0.000 C 
BRANCH  24  25
ATOM     25  C   UNL     1     167.664 171.465 153.329  1.00  0.00    -0.000 C 
BRANCH  25  26
ATOM     26  C   UNL     1     166.470 172.305 152.850  1.00  0.00    -0.000 C 
BRANCH  26  27
ATOM     27  C   UNL     1     165.164 171.493 152.797  1.00  0.00    -0.000 C 
BRANCH  27  28
ATOM     28  C   UNL     1     164.856 170.962 151.386  1.00  0.00    -0.000 C 
BRANCH  28  29
ATOM     29  C   UNL     1     165.492 171.825 150.281  1.00  0.00    -0.000 C 
BRANCH  29  30
ATOM     30  C   UNL     1     166.260 170.987 149.246  1.00  0.00    -0.000 C 
BRANCH  30  31
ATOM     31  C   UNL     1     166.583 169.572 149.751  1.00  0.00    -0.003 C 
ATOM     32  C   UNL     1     166.223 168.521 148.705  1.00  0.00     0.004 C 
ENDBRANCH  30  31
ENDBRANCH  29  30
ENDBRANCH  28  29
ENDBRANCH  27  28
ENDBRANCH  26  27
ENDBRANCH  25  26
ENDBRANCH  24  25
ENDBRANCH  23  24
ENDBRANCH  22  23
ENDBRANCH  21  22
ENDBRANCH  20  21
ENDBRANCH  19  20
ENDBRANCH  18  19
ENDBRANCH   1  18
TORSDOF 28
ENDMDL
MODEL 7
REMARK VINA RESULT:    -4.962      3.507     10.122
REMARK INTER + INTRA:         -17.180
REMARK INTER:                 -13.372
REMARK INTRA:                  -3.808
REMARK UNBOUND:                -4.096
REMARK SMILES CCCCCCCCCCCCCCCCCCCCCCCCCCCCCC(=O)[O-]
REMARK SMILES IDX 16 1 17 2 18 3 19 4 20 5 21 6 22 7 23 8 24 9 25 10 26 11
REMARK SMILES IDX 27 12 28 13 29 14 30 15 31 16 32 17 15 18 14 19 13 20 12 21
REMARK SMILES IDX 11 22 10 23 9 24 8 25 7 26 6 27 5 28 4 29 3 30 2 31 1 32
REMARK H PARENT
REMARK Flexibility Score: inf
ROOT
ATOM      1  C   UNL     1     160.890 166.151 152.746  1.00  0.00     0.000 C 
ENDROOT
BRANCH   1   2
ATOM      2  C   UNL     1     162.191 166.147 151.912  1.00  0.00     0.000 C 
BRANCH   2   3
ATOM      3  C   UNL     1     163.284 167.054 152.506  1.00  0.00     0.000 C 
BRANCH   3   4
ATOM      4  C   UNL     1     164.672 166.784 151.902  1.00  0.00     0.000 C 
BRANCH   4   5
ATOM      5  C   UNL     1     165.660 167.936 152.157  1.00  0.00     0.000 C 
BRANCH   5   6
ATOM      6  C   UNL     1     165.007 169.118 152.889  1.00  0.00     0.000 C 
BRANCH   6   7
ATOM      7  C   UNL     1     164.700 170.301 151.952  1.00  0.00     0.000 C 
BRANCH   7   8
ATOM      8  C   UNL     1     165.710 171.449 152.108  1.00  0.00     0.000 C 
BRANCH   8   9
ATOM      9  C   UNL     1     166.837 171.386 151.064  1.00  0.00     0.000 C 
BRANCH   9  10
ATOM     10  C   UNL     1     166.429 171.980 149.704  1.00  0.00     0.000 C 
BRANCH  10  11
ATOM     11  C   UNL     1     166.538 171.010 148.512  1.00  0.00     0.000 C 
BRANCH  11  12
ATOM     12  C   UNL     1     166.791 169.555 148.942  1.00  0.00     0.000 C 
BRANCH  12  13
ATOM     13  C   UNL     1     166.091 168.541 148.022  1.00  0.00     0.006 C 
BRANCH  13  14
ATOM     14  C   UNL     1     166.252 167.098 148.518  1.00  0.00     0.053 C 
BRANCH  14  15
ATOM     15  C   UNL     1     166.059 166.132 147.392  1.00  0.00     0.041 C 
ATOM     16  O   UNL     1     165.091 165.325 147.411  1.00  0.00    -0.550 OA
ATOM     17  O   UNL     1     166.973 166.089 146.346  1.00  0.00    -0.550 OA
ENDBRANCH  14  15
ENDBRANCH  13  14
ENDBRANCH  12  13
ENDBRANCH  11  12
ENDBRANCH  10  11
ENDBRANCH   9  10
ENDBRANCH   8   9
ENDBRANCH   7   8
ENDBRANCH   6   7
ENDBRANCH   5   6
ENDBRANCH   4   5
ENDBRANCH   3   4
ENDBRANCH   2   3
ENDBRANCH   1   2
BRANCH   1  18
ATOM     18  C   UNL     1     161.018 166.895 154.088  1.00  0.00     0.000 C 
BRANCH  18  19
ATOM     19  C   UNL     1     160.470 166.129 155.306  1.00  0.00     0.000 C 
BRANCH  19  20
ATOM     20  C   UNL     1     161.176 166.486 156.633  1.00  0.00     0.000 C 
BRANCH  20  21
ATOM     21  C   UNL     1     162.692 166.224 156.592  1.00  0.00     0.000 C 
BRANCH  21  22
ATOM     22  C   UNL     1     163.434 166.958 157.719  1.00  0.00     0.000 C 
BRANCH  22  23
ATOM     23  C   UNL     1     163.562 166.102 159.000  1.00  0.00     0.000 C 
BRANCH  23  24
ATOM     24  C   UNL     1     163.226 166.889 160.275  1.00  0.00    -0.000 C 
BRANCH  24  25
ATOM     25  C   UNL     1     162.167 167.977 160.014  1.00  0.00    -0.000 C 
BRANCH  25  26
ATOM     26  C   UNL     1     160.730 167.448 160.147  1.00  0.00    -0.000 C 
BRANCH  26  27
ATOM     27  C   UNL     1     160.469 166.792 161.513  1.00  0.00    -0.000 C 
BRANCH  27  28
ATOM     28  C   UNL     1     159.878 165.377 161.384  1.00  0.00    -0.000 C 
BRANCH  28  29
ATOM     29  C   UNL     1     159.841 164.885 159.926  1.00  0.00    -0.000 C 
BRANCH  29  30
ATOM     30  C   UNL     1     160.898 163.807 159.639  1.00  0.00    -0.000 C 
BRANCH  30  31
ATOM     31  C   UNL     1     160.734 163.169 158.251  1.00  0.00    -0.003 C 
ATOM     32  C   UNL     1     159.260 163.062 157.869  1.00  0.00     0.004 C 
ENDBRANCH  30  31
ENDBRANCH  29  30
ENDBRANCH  28  29
ENDBRANCH  27  28
ENDBRANCH  26  27
ENDBRANCH  25  26
ENDBRANCH  24  25
ENDBRANCH  23  24
ENDBRANCH  22  23
ENDBRANCH  21  22
ENDBRANCH  20  21
ENDBRANCH  19  20
ENDBRANCH  18  19
ENDBRANCH   1  18
TORSDOF 28
ENDMDL
MODEL 8
REMARK VINA RESULT:    -4.955      2.214      3.688
REMARK INTER + INTRA:         -17.162
REMARK INTER:                 -13.752
REMARK INTRA:                  -3.409
REMARK UNBOUND:                -4.096
REMARK SMILES CCCCCCCCCCCCCCCCCCCCCCCCCCCCCC(=O)[O-]
REMARK SMILES IDX 16 1 17 2 18 3 19 4 20 5 21 6 22 7 23 8 24 9 25 10 26 11
REMARK SMILES IDX 27 12 28 13 29 14 30 15 31 16 32 17 15 18 14 19 13 20 12 21
REMARK SMILES IDX 11 22 10 23 9 24 8 25 7 26 6 27 5 28 4 29 3 30 2 31 1 32
REMARK H PARENT
REMARK Flexibility Score: inf
ROOT
ATOM      1  C   UNL     1     160.483 166.456 154.748  1.00  0.00     0.000 C 
ENDROOT
BRANCH   1   2
ATOM      2  C   UNL     1     161.683 166.845 155.641  1.00  0.00     0.000 C 
BRANCH   2   3
ATOM      3  C   UNL     1     161.643 166.167 157.022  1.00  0.00     0.000 C 
BRANCH   3   4
ATOM      4  C   UNL     1     162.807 166.599 157.929  1.00  0.00     0.000 C 
BRANCH   4   5
ATOM      5  C   UNL     1     163.591 165.402 158.494  1.00  0.00     0.000 C 
BRANCH   5   6
ATOM      6  C   UNL     1     163.130 164.064 157.895  1.00  0.00     0.000 C 
BRANCH   6   7
ATOM      7  C   UNL     1     162.367 163.191 158.908  1.00  0.00     0.000 C 
BRANCH   7   8
ATOM      8  C   UNL     1     161.495 162.126 158.224  1.00  0.00     0.000 C 
BRANCH   8   9
ATOM      9  C   UNL     1     160.033 162.172 158.697  1.00  0.00     0.000 C 
BRANCH   9  10
ATOM     10  C   UNL     1     159.469 163.603 158.765  1.00  0.00     0.000 C 
BRANCH  10  11
ATOM     11  C   UNL     1     158.475 163.856 159.914  1.00  0.00     0.000 C 
BRANCH  11  12
ATOM     12  C   UNL     1     158.566 165.282 160.485  1.00  0.00     0.000 C 
BRANCH  12  13
ATOM     13  C   UNL     1     159.906 165.961 160.157  1.00  0.00     0.006 C 
BRANCH  13  14
ATOM     14  C   UNL     1     160.661 166.397 161.419  1.00  0.00     0.053 C 
BRANCH  14  15
ATOM     15  C   UNL     1     160.749 165.266 162.394  1.00  0.00     0.041 C 
ATOM     16  O   UNL     1     161.470 164.264 162.136  1.00  0.00    -0.550 OA
ATOM     17  O   UNL     1     160.000 165.293 163.563  1.00  0.00    -0.550 OA
ENDBRANCH  14  15
ENDBRANCH  13  14
ENDBRANCH  12  13
ENDBRANCH  11  12
ENDBRANCH  10  11
ENDBRANCH   9  10
ENDBRANCH   8   9
ENDBRANCH   7   8
ENDBRANCH   6   7
ENDBRANCH   5   6
ENDBRANCH   4   5
ENDBRANCH   3   4
ENDBRANCH   2   3
ENDBRANCH   1   2
BRANCH   1  18
ATOM     18  C   UNL     1     160.856 166.244 153.269  1.00  0.00     0.000 C 
BRANCH  18  19
ATOM     19  C   UNL     1     160.917 167.533 152.428  1.00  0.00     0.000 C 
BRANCH  19  20
ATOM     20  C   UNL     1     162.293 168.233 152.466  1.00  0.00     0.000 C 
BRANCH  20  21
ATOM     21  C   UNL     1     163.466 167.241 152.562  1.00  0.00     0.000 C 
BRANCH  21  22
ATOM     22  C   UNL     1     164.630 167.803 153.392  1.00  0.00     0.000 C 
BRANCH  22  23
ATOM     23  C   UNL     1     165.902 168.042 152.545  1.00  0.00     0.000 C 
BRANCH  23  24
ATOM     24  C   UNL     1     166.500 169.440 152.756  1.00  0.00    -0.000 C 
BRANCH  24  25
ATOM     25  C   UNL     1     165.407 170.518 152.882  1.00  0.00    -0.000 C 
BRANCH  25  26
ATOM     26  C   UNL     1     164.920 171.030 151.517  1.00  0.00    -0.000 C 
BRANCH  26  27
ATOM     27  C   UNL     1     166.049 171.672 150.694  1.00  0.00    -0.000 C 
BRANCH  27  28
ATOM     28  C   UNL     1     165.907 171.400 149.186  1.00  0.00    -0.000 C 
BRANCH  28  29
ATOM     29  C   UNL     1     166.895 170.332 148.685  1.00  0.00    -0.000 C 
BRANCH  29  30
ATOM     30  C   UNL     1     166.402 168.900 148.949  1.00  0.00    -0.000 C 
BRANCH  30  31
ATOM     31  C   UNL     1     166.471 168.009 147.699  1.00  0.00    -0.003 C 
ATOM     32  C   UNL     1     165.743 168.656 146.524  1.00  0.00     0.004 C 
ENDBRANCH  30  31
ENDBRANCH  29  30
ENDBRANCH  28  29
ENDBRANCH  27  28
ENDBRANCH  26  27
ENDBRANCH  25  26
ENDBRANCH  24  25
ENDBRANCH  23  24
ENDBRANCH  22  23
ENDBRANCH  21  22
ENDBRANCH  20  21
ENDBRANCH  19  20
ENDBRANCH  18  19
ENDBRANCH   1  18
TORSDOF 28
ENDMDL
MODEL 9
REMARK VINA RESULT:    -4.934      3.429     10.372
REMARK INTER + INTRA:         -17.106
REMARK INTER:                 -13.459
REMARK INTRA:                  -3.646
REMARK UNBOUND:                -4.096
REMARK SMILES CCCCCCCCCCCCCCCCCCCCCCCCCCCCCC(=O)[O-]
REMARK SMILES IDX 16 1 17 2 18 3 19 4 20 5 21 6 22 7 23 8 24 9 25 10 26 11
REMARK SMILES IDX 27 12 28 13 29 14 30 15 31 16 32 17 15 18 14 19 13 20 12 21
REMARK SMILES IDX 11 22 10 23 9 24 8 25 7 26 6 27 5 28 4 29 3 30 2 31 1 32
REMARK H PARENT
REMARK Flexibility Score: inf
ROOT
ATOM      1  C   UNL     1     160.428 166.547 154.473  1.00  0.00     0.000 C 
ENDROOT
BRANCH   1   2
ATOM      2  C   UNL     1     160.903 166.492 153.004  1.00  0.00     0.000 C 
BRANCH   2   3
ATOM      3  C   UNL     1     162.146 167.362 152.745  1.00  0.00     0.000 C 
BRANCH   3   4
ATOM      4  C   UNL     1     163.221 166.633 151.921  1.00  0.00     0.000 C 
BRANCH   4   5
ATOM      5  C   UNL     1     164.643 166.893 152.446  1.00  0.00     0.000 C 
BRANCH   5   6
ATOM      6  C   UNL     1     164.723 168.147 153.330  1.00  0.00     0.000 C 
BRANCH   6   7
ATOM      7  C   UNL     1     165.476 169.305 152.651  1.00  0.00     0.000 C 
BRANCH   7   8
ATOM      8  C   UNL     1     164.657 170.605 152.632  1.00  0.00     0.000 C 
BRANCH   8   9
ATOM      9  C   UNL     1     165.539 171.858 152.765  1.00  0.00     0.000 C 
BRANCH   9  10
ATOM     10  C   UNL     1     166.665 171.913 151.718  1.00  0.00     0.000 C 
BRANCH  10  11
ATOM     11  C   UNL     1     166.273 172.560 150.376  1.00  0.00     0.000 C 
BRANCH  11  12
ATOM     12  C   UNL     1     165.974 171.527 149.275  1.00  0.00     0.000 C 
BRANCH  12  13
ATOM     13  C   UNL     1     167.059 170.442 149.178  1.00  0.00     0.006 C 
BRANCH  13  14
ATOM     14  C   UNL     1     166.466 169.028 149.156  1.00  0.00     0.053 C 
BRANCH  14  15
ATOM     15  C   UNL     1     167.359 168.097 148.399  1.00  0.00     0.041 C 
ATOM     16  O   UNL     1     167.629 166.958 148.869  1.00  0.00    -0.550 OA
ATOM     17  O   UNL     1     167.933 168.501 147.200  1.00  0.00    -0.550 OA
ENDBRANCH  14  15
ENDBRANCH  13  14
ENDBRANCH  12  13
ENDBRANCH  11  12
ENDBRANCH  10  11
ENDBRANCH   9  10
ENDBRANCH   8   9
ENDBRANCH   7   8
ENDBRANCH   6   7
ENDBRANCH   5   6
ENDBRANCH   4   5
ENDBRANCH   3   4
ENDBRANCH   2   3
ENDBRANCH   1   2
BRANCH   1  18
ATOM     18  C   UNL     1     161.576 166.678 155.490  1.00  0.00     0.000 C 
BRANCH  18  19
ATOM     19  C   UNL     1     161.242 166.179 156.908  1.00  0.00     0.000 C 
BRANCH  19  20
ATOM     20  C   UNL     1     162.477 166.049 157.827  1.00  0.00     0.000 C 
BRANCH  20  21
ATOM     21  C   UNL     1     162.789 167.346 158.594  1.00  0.00     0.000 C 
BRANCH  21  22
ATOM     22  C   UNL     1     162.862 167.115 160.111  1.00  0.00     0.000 C 
BRANCH  22  23
ATOM     23  C   UNL     1     162.327 165.724 160.525  1.00  0.00     0.000 C 
BRANCH  23  24
ATOM     24  C   UNL     1     161.166 165.811 161.527  1.00  0.00    -0.000 C 
BRANCH  24  25
ATOM     25  C   UNL     1     160.089 166.814 161.071  1.00  0.00    -0.000 C 
BRANCH  25  26
ATOM     26  C   UNL     1     158.890 166.130 160.397  1.00  0.00    -0.000 C 
BRANCH  26  27
ATOM     27  C   UNL     1     158.766 164.646 160.783  1.00  0.00    -0.000 C 
BRANCH  27  28
ATOM     28  C   UNL     1     158.377 163.757 159.589  1.00  0.00    -0.000 C 
BRANCH  28  29
ATOM     29  C   UNL     1     159.551 163.521 158.623  1.00  0.00    -0.000 C 
BRANCH  29  30
ATOM     30  C   UNL     1     160.733 162.802 159.293  1.00  0.00    -0.000 C 
BRANCH  30  31
ATOM     31  C   UNL     1     161.616 162.049 158.286  1.00  0.00    -0.003 C 
ATOM     32  C   UNL     1     163.068 162.512 158.376  1.00  0.00     0.004 C 
ENDBRANCH  30  31
ENDBRANCH  29  30
ENDBRANCH  28  29
ENDBRANCH  27  28
ENDBRANCH  26  27
ENDBRANCH  25  26
ENDBRANCH  24  25
ENDBRANCH  23  24
ENDBRANCH  22  23
ENDBRANCH  21  22
ENDBRANCH  20  21
ENDBRANCH  19  20
ENDBRANCH  18  19
ENDBRANCH   1  18
TORSDOF 28
ENDMDL
