MODEL 1
REMARK VINA RESULT:    -2.459      0.000      0.000
REMARK INTER + INTRA:          -4.493
REMARK INTER:                  -3.608
REMARK INTRA:                  -0.885
REMARK UNBOUND:                -0.885
REMARK SMILES CCCCCCCCCC=O
REMARK SMILES IDX 6 1 5 2 4 3 3 4 2 5 1 6 7 7 8 8 9 9 10 10 11 11
REMARK H PARENT
REMARK Flexibility Score: inf
ROOT
ATOM      1  C   UNL     1     140.880 136.019 141.062  1.00  0.00     0.000 C 
ENDROOT
BRANCH   1   2
ATOM      2  C   UNL     1     141.260 134.871 140.118  1.00  0.00     0.000 C 
BRANCH   2   3
ATOM      3  C   UNL     1     141.941 133.730 140.883  1.00  0.00    -0.000 C 
BRANCH   3   4
ATOM      4  C   UNL     1     141.004 132.520 141.015  1.00  0.00    -0.000 C 
BRANCH   4   5
ATOM      5  C   UNL     1     139.864 132.540 139.987  1.00  0.00    -0.003 C 
ATOM      6  C   UNL     1     138.488 132.356 140.626  1.00  0.00     0.004 C 
ENDBRANCH   4   5
ENDBRANCH   3   4
ENDBRANCH   2   3
ENDBRANCH   1   2
BRANCH   1   7
ATOM      7  C   UNL     1     139.401 135.933 141.465  1.00  0.00     0.000 C 
BRANCH   7   8
ATOM      8  C   UNL     1     139.201 135.294 142.848  1.00  0.00     0.008 C 
BRANCH   8   9
ATOM      9  C   UNL     1     139.990 136.013 143.952  1.00  0.00     0.072 C 
BRANCH   9  10
ATOM     10  C   UNL     1     139.072 136.565 145.003  1.00  0.00     0.224 C 
ATOM     11  O   UNL     1     138.645 137.702 144.902  1.00  0.00    -0.303 OA
ENDBRANCH   9  10
ENDBRANCH   8   9
ENDBRANCH   7   8
ENDBRANCH   1   7
TORSDOF 8
ENDMDL
MODEL 2
REMARK VINA RESULT:    -2.429      7.919      9.720
REMARK INTER + INTRA:          -4.449
REMARK INTER:                  -3.772
REMARK INTRA:                  -0.677
REMARK UNBOUND:                -0.885
REMARK SMILES CCCCCCCCCC=O
REMARK SMILES IDX 6 1 5 2 4 3 3 4 2 5 1 6 7 7 8 8 9 9 10 10 11 11
REMARK H PARENT
REMARK Flexibility Score: inf
ROOT
ATOM      1  C   UNL     1     134.713 140.250 140.074  1.00  0.00     0.000 C 
ENDROOT
BRANCH   1   2
ATOM      2  C   UNL     1     135.918 140.669 140.925  1.00  0.00     0.000 C 
BRANCH   2   3
ATOM      3  C   UNL     1     135.804 142.134 141.361  1.00  0.00    -0.000 C 
BRANCH   3   4
ATOM      4  C   UNL     1     135.430 142.238 142.847  1.00  0.00    -0.000 C 
BRANCH   4   5
ATOM      5  C   UNL     1     136.594 141.867 143.778  1.00  0.00    -0.003 C 
ATOM      6  C   UNL     1     136.527 142.586 145.124  1.00  0.00     0.004 C 
ENDBRANCH   4   5
ENDBRANCH   3   4
ENDBRANCH   2   3
ENDBRANCH   1   2
BRANCH   1   7
ATOM      7  C   UNL     1     133.532 139.833 140.963  1.00  0.00     0.000 C 
BRANCH   7   8
ATOM      8  C   UNL     1     132.347 140.808 140.868  1.00  0.00     0.008 C 
BRANCH   8   9
ATOM      9  C   UNL     1     132.378 141.654 139.587  1.00  0.00     0.072 C 
BRANCH   9  10
ATOM     10  C   UNL     1     132.260 143.116 139.899  1.00  0.00     0.224 C 
ATOM     11  O   UNL     1     132.591 143.533 140.996  1.00  0.00    -0.303 OA
ENDBRANCH   9  10
ENDBRANCH   8   9
ENDBRANCH   7   8
ENDBRANCH   1   7
TORSDOF 8
ENDMDL
MODEL 3
REMARK VINA RESULT:    -2.409      1.763      4.418
REMARK INTER + INTRA:          -4.421
REMARK INTER:                  -3.654
REMARK INTRA:                  -0.767
REMARK UNBOUND:                -0.885
REMARK SMILES CCCCCCCCCC=O
REMARK SMILES IDX 6 1 5 2 4 3 3 4 2 5 1 6 7 7 8 8 9 9 10 10 11 11
REMARK H PARENT
REMARK Flexibility Score: inf
ROOT
ATOM      1  C   UNL     1     141.434 134.984 140.063  1.00  0.00     0.000 C 
ENDROOT
BRANCH   1   2
ATOM      2  C   UNL     1     141.125 136.335 140.721  1.00  0.00     0.000 C 
BRANCH   2   3
ATOM      3  C   UNL     1     139.679 136.383 141.228  1.00  0.00    -0.000 C 
BRANCH   3   4
ATOM      4  C   UNL     1     139.617 136.915 142.668  1.00  0.00    -0.000 C 
BRANCH   4   5
ATOM      5  C   UNL     1     139.709 135.795 143.716  1.00  0.00    -0.003 C 
ATOM      6  C   UNL     1     140.187 136.298 145.077  1.00  0.00     0.004 C 
ENDBRANCH   4   5
ENDBRANCH   3   4
ENDBRANCH   2   3
ENDBRANCH   1   2
BRANCH   1   7
ATOM      7  C   UNL     1     141.615 133.886 141.122  1.00  0.00     0.000 C 
BRANCH   7   8
ATOM      8  C   UNL     1     140.809 132.617 140.802  1.00  0.00     0.008 C 
BRANCH   8   9
ATOM      9  C   UNL     1     139.550 132.910 139.972  1.00  0.00     0.072 C 
BRANCH   9  10
ATOM     10  C   UNL     1     138.306 132.722 140.789  1.00  0.00     0.224 C 
ATOM     11  O   UNL     1     138.187 133.297 141.858  1.00  0.00    -0.303 OA
ENDBRANCH   9  10
ENDBRANCH   8   9
ENDBRANCH   7   8
ENDBRANCH   1   7
TORSDOF 8
ENDMDL
MODEL 4
REMARK VINA RESULT:    -2.406      7.916      9.257
REMARK INTER + INTRA:          -4.417
REMARK INTER:                  -3.771
REMARK INTRA:                  -0.646
REMARK UNBOUND:                -0.885
REMARK SMILES CCCCCCCCCC=O
REMARK SMILES IDX 6 1 5 2 4 3 3 4 2 5 1 6 7 7 8 8 9 9 10 10 11 11
REMARK H PARENT
REMARK Flexibility Score: inf
ROOT
ATOM      1  C   UNL     1     135.210 142.086 141.178  1.00  0.00     0.000 C 
ENDROOT
BRANCH   1   2
ATOM      2  C   UNL     1     135.079 140.570 140.984  1.00  0.00     0.000 C 
BRANCH   2   3
ATOM      3  C   UNL     1     133.609 140.137 140.998  1.00  0.00    -0.000 C 
BRANCH   3   4
ATOM      4  C   UNL     1     132.780 140.969 140.008  1.00  0.00    -0.000 C 
BRANCH   4   5
ATOM      5  C   UNL     1     131.552 141.618 140.663  1.00  0.00    -0.003 C 
ATOM      6  C   UNL     1     131.645 143.143 140.710  1.00  0.00     0.004 C 
ENDBRANCH   4   5
ENDBRANCH   3   4
ENDBRANCH   2   3
ENDBRANCH   1   2
BRANCH   1   7
ATOM      7  C   UNL     1     134.974 142.474 142.645  1.00  0.00     0.000 C 
BRANCH   7   8
ATOM      8  C   UNL     1     135.836 141.657 143.620  1.00  0.00     0.008 C 
BRANCH   8   9
ATOM      9  C   UNL     1     136.407 142.510 144.763  1.00  0.00     0.072 C 
BRANCH   9  10
ATOM     10  C   UNL     1     137.893 142.667 144.633  1.00  0.00     0.224 C 
ATOM     11  O   UNL     1     138.419 142.596 143.535  1.00  0.00    -0.303 OA
ENDBRANCH   9  10
ENDBRANCH   8   9
ENDBRANCH   7   8
ENDBRANCH   1   7
TORSDOF 8
ENDMDL
MODEL 5
REMARK VINA RESULT:    -2.383     11.514     13.153
REMARK INTER + INTRA:          -4.382
REMARK INTER:                  -3.578
REMARK INTRA:                  -0.804
REMARK UNBOUND:                -0.885
REMARK SMILES CCCCCCCCCC=O
REMARK SMILES IDX 6 1 5 2 4 3 3 4 2 5 1 6 7 7 8 8 9 9 10 10 11 11
REMARK H PARENT
REMARK Flexibility Score: inf
ROOT
ATOM      1  C   UNL     1     140.058 148.157 141.231  1.00  0.00     0.000 C 
ENDROOT
BRANCH   1   2
ATOM      2  C   UNL     1     140.743 148.884 140.068  1.00  0.00     0.000 C 
BRANCH   2   3
ATOM      3  C   UNL     1     141.773 149.898 140.580  1.00  0.00    -0.000 C 
BRANCH   3   4
ATOM      4  C   UNL     1     143.193 149.316 140.521  1.00  0.00    -0.000 C 
BRANCH   4   5
ATOM      5  C   UNL     1     143.386 148.342 139.350  1.00  0.00    -0.003 C 
ATOM      6  C   UNL     1     143.935 146.986 139.793  1.00  0.00     0.004 C 
ENDBRANCH   4   5
ENDBRANCH   3   4
ENDBRANCH   2   3
ENDBRANCH   1   2
BRANCH   1   7
ATOM      7  C   UNL     1     140.690 146.776 141.464  1.00  0.00     0.000 C 
BRANCH   7   8
ATOM      8  C   UNL     1     141.488 146.704 142.776  1.00  0.00     0.008 C 
BRANCH   8   9
ATOM      9  C   UNL     1     142.080 145.310 143.031  1.00  0.00     0.072 C 
BRANCH   9  10
ATOM     10  C   UNL     1     142.120 144.998 144.498  1.00  0.00     0.224 C 
ATOM     11  O   UNL     1     143.157 145.141 145.123  1.00  0.00    -0.303 OA
ENDBRANCH   9  10
ENDBRANCH   8   9
ENDBRANCH   7   8
ENDBRANCH   1   7
TORSDOF 8
ENDMDL
MODEL 6
REMARK VINA RESULT:    -2.378      7.784      9.026
REMARK INTER + INTRA:          -4.375
REMARK INTER:                  -3.531
REMARK INTRA:                  -0.843
REMARK UNBOUND:                -0.885
REMARK SMILES CCCCCCCCCC=O
REMARK SMILES IDX 6 1 5 2 4 3 3 4 2 5 1 6 7 7 8 8 9 9 10 10 11 11
REMARK H PARENT
REMARK Flexibility Score: inf
ROOT
ATOM      1  C   UNL     1     146.615 141.342 140.720  1.00  0.00     0.000 C 
ENDROOT
BRANCH   1   2
ATOM      2  C   UNL     1     148.111 141.494 141.017  1.00  0.00     0.000 C 
BRANCH   2   3
ATOM      3  C   UNL     1     148.958 140.746 139.981  1.00  0.00    -0.000 C 
BRANCH   3   4
ATOM      4  C   UNL     1     150.032 139.886 140.665  1.00  0.00    -0.000 C 
BRANCH   4   5
ATOM      5  C   UNL     1     149.526 138.479 141.019  1.00  0.00    -0.003 C 
ATOM      6  C   UNL     1     148.599 137.899 139.952  1.00  0.00     0.004 C 
ENDBRANCH   4   5
ENDBRANCH   3   4
ENDBRANCH   2   3
ENDBRANCH   1   2
BRANCH   1   7
ATOM      7  C   UNL     1     146.029 140.127 141.454  1.00  0.00     0.000 C 
BRANCH   7   8
ATOM      8  C   UNL     1     146.602 139.957 142.869  1.00  0.00     0.008 C 
BRANCH   8   9
ATOM      9  C   UNL     1     145.561 139.437 143.871  1.00  0.00     0.072 C 
BRANCH   9  10
ATOM     10  C   UNL     1     144.168 139.792 143.440  1.00  0.00     0.224 C 
ATOM     11  O   UNL     1     143.297 138.939 143.433  1.00  0.00    -0.303 OA
ENDBRANCH   9  10
ENDBRANCH   8   9
ENDBRANCH   7   8
ENDBRANCH   1   7
TORSDOF 8
ENDMDL
MODEL 7
REMARK VINA RESULT:    -2.376      7.854      9.978
REMARK INTER + INTRA:          -4.372
REMARK INTER:                  -3.936
REMARK INTRA:                  -0.436
REMARK UNBOUND:                -0.885
REMARK SMILES CCCCCCCCCC=O
REMARK SMILES IDX 6 1 5 2 4 3 3 4 2 5 1 6 7 7 8 8 9 9 10 10 11 11
REMARK H PARENT
REMARK Flexibility Score: inf
ROOT
ATOM      1  C   UNL     1     143.108 140.997 143.977  1.00  0.00     0.000 C 
ENDROOT
BRANCH   1   2
ATOM      2  C   UNL     1     142.822 142.468 143.654  1.00  0.00     0.000 C 
BRANCH   2   3
ATOM      3  C   UNL     1     142.894 143.335 144.916  1.00  0.00    -0.000 C 
BRANCH   3   4
ATOM      4  C   UNL     1     142.441 144.773 144.624  1.00  0.00    -0.000 C 
BRANCH   4   5
ATOM      5  C   UNL     1     142.023 144.975 143.160  1.00  0.00    -0.003 C 
ATOM      6  C   UNL     1     142.041 146.443 142.737  1.00  0.00     0.004 C 
ENDBRANCH   4   5
ENDBRANCH   3   4
ENDBRANCH   2   3
ENDBRANCH   1   2
BRANCH   1   7
ATOM      7  C   UNL     1     144.123 140.874 145.124  1.00  0.00     0.000 C 
BRANCH   7   8
ATOM      8  C   UNL     1     145.392 140.111 144.712  1.00  0.00     0.008 C 
BRANCH   8   9
ATOM      9  C   UNL     1     145.302 139.536 143.291  1.00  0.00     0.072 C 
BRANCH   9  10
ATOM     10  C   UNL     1     146.660 139.422 142.664  1.00  0.00     0.224 C 
ATOM     11  O   UNL     1     147.154 140.386 142.103  1.00  0.00    -0.303 OA
ENDBRANCH   9  10
ENDBRANCH   8   9
ENDBRANCH   7   8
ENDBRANCH   1   7
TORSDOF 8
ENDMDL
MODEL 8
REMARK VINA RESULT:    -2.341     12.766     14.158
REMARK INTER + INTRA:          -4.321
REMARK INTER:                  -3.251
REMARK INTRA:                  -1.070
REMARK UNBOUND:                -0.885
REMARK SMILES CCCCCCCCCC=O
REMARK SMILES IDX 6 1 5 2 4 3 3 4 2 5 1 6 7 7 8 8 9 9 10 10 11 11
REMARK H PARENT
REMARK Flexibility Score: inf
ROOT
ATOM      1  C   UNL     1     141.982 146.875 141.679  1.00  0.00     0.000 C 
ENDROOT
BRANCH   1   2
ATOM      2  C   UNL     1     140.727 147.670 142.059  1.00  0.00     0.000 C 
BRANCH   2   3
ATOM      3  C   UNL     1     139.906 148.033 140.816  1.00  0.00    -0.000 C 
BRANCH   3   4
ATOM      4  C   UNL     1     139.948 146.900 139.779  1.00  0.00    -0.000 C 
BRANCH   4   5
ATOM      5  C   UNL     1     139.917 147.420 138.334  1.00  0.00    -0.003 C 
ATOM      6  C   UNL     1     140.507 148.824 138.198  1.00  0.00     0.004 C 
ENDBRANCH   4   5
ENDBRANCH   3   4
ENDBRANCH   2   3
ENDBRANCH   1   2
BRANCH   1   7
ATOM      7  C   UNL     1     143.212 147.792 141.603  1.00  0.00     0.000 C 
BRANCH   7   8
ATOM      8  C   UNL     1     143.610 148.129 140.157  1.00  0.00     0.008 C 
BRANCH   8   9
ATOM      9  C   UNL     1     143.852 149.631 139.945  1.00  0.00     0.072 C 
BRANCH   9  10
ATOM     10  C   UNL     1     143.068 150.451 140.926  1.00  0.00     0.224 C 
ATOM     11  O   UNL     1     142.011 150.958 140.589  1.00  0.00    -0.303 OA
ENDBRANCH   9  10
ENDBRANCH   8   9
ENDBRANCH   7   8
ENDBRANCH   1   7
TORSDOF 8
ENDMDL
