MODEL 1
REMARK VINA RESULT:   -10.931      0.000      0.000
REMARK INTER + INTRA:         -13.652
REMARK INTER:                 -12.528
REMARK INTRA:                  -1.124
REMARK UNBOUND:                -1.124
REMARK SMILES O=c1c(O[C@@H]2O[C@@H](CO)[C@H](O)[C@@H](O)[C@@H]2O)c(-c2ccc(O)c(O)c2)oc2cc(O)cc(O)c12
REMARK SMILES IDX 4 1 3 2 16 3 25 4 2 5 26 6 1 7 33 8 27 9 31 10 28 11 30 12
REMARK SMILES IDX 17 13 18 14 19 15 20 16 24 17 22 18 21 19 23 21 32 23 29 25
REMARK SMILES IDX 5 27 14 28 6 29 12 30 7 31 10 32 15 33 13 35 8 37 9 38 11 40
REMARK H PARENT 21 20 23 22 32 24 29 26 15 34 13 36 9 39 11 41
REMARK Flexibility Score: inf
ROOT
ATOM      1  O   UNL     1     -16.506  38.637  -6.045  1.00  0.00    -0.454 OA
ENDROOT
BRANCH   1   2
ATOM      2  C   UNL     1     -15.140  38.916  -6.706  1.00  0.00     0.214 A 
ATOM      3  C   UNL     1     -13.593  38.342  -6.736  1.00  0.00     0.180 A 
ATOM      4  O   UNL     1     -12.737  39.048  -7.516  1.00  0.00    -0.452 OA
ATOM      5  C   UNL     1     -15.097  39.740  -7.860  1.00  0.00     0.239 A 
ATOM      6  C   UNL     1     -13.042  40.257  -8.116  1.00  0.00     0.146 A 
ATOM      7  O   UNL     1     -15.080  39.055  -8.975  1.00  0.00    -0.285 OA
ATOM      8  C   UNL     1     -14.243  40.881  -7.705  1.00  0.00     0.111 A 
ATOM      9  C   UNL     1     -12.406  40.731  -9.373  1.00  0.00     0.094 A 
ATOM     10  C   UNL     1     -14.515  42.061  -8.353  1.00  0.00     0.134 A 
ATOM     11  C   UNL     1     -13.308  41.470 -10.236  1.00  0.00     0.123 A 
ATOM     12  C   UNL     1     -14.534  41.969  -9.732  1.00  0.00     0.093 A 
BRANCH   3  13
ATOM     13  C   UNL     1     -11.917  37.876  -6.907  1.00  0.00     0.025 A 
ATOM     14  C   UNL     1     -10.652  38.373  -7.588  1.00  0.00     0.016 A 
ATOM     15  C   UNL     1      -9.911  39.236  -6.504  1.00  0.00     0.051 A 
ATOM     16  C   UNL     1     -10.028  38.944  -5.123  1.00  0.00     0.157 A 
ATOM     17  C   UNL     1     -11.413  37.023  -5.853  1.00  0.00     0.062 A 
ATOM     18  C   UNL     1     -10.597  37.613  -4.846  1.00  0.00     0.158 A 
BRANCH  16  19
ATOM     19  O   UNL     1      -8.784  39.279  -4.446  1.00  0.00    -0.504 OA
ATOM     20  H   UNL     1      -8.395  40.192  -4.064  1.00  0.00     0.293 HD
ENDBRANCH  16  19
BRANCH  18  21
ATOM     21  O   UNL     1      -9.960  36.854  -3.861  1.00  0.00    -0.504 OA
ATOM     22  H   UNL     1      -9.863  36.935  -2.832  1.00  0.00     0.293 HD
ENDBRANCH  18  21
ENDBRANCH   3  13
BRANCH  10  23
ATOM     23  O   UNL     1     -13.758  43.188  -7.891  1.00  0.00    -0.507 OA
ATOM     24  H   UNL     1     -14.120  43.995  -7.299  1.00  0.00     0.293 HD
ENDBRANCH  10  23
BRANCH  11  25
ATOM     25  O   UNL     1     -13.394  41.087 -11.589  1.00  0.00    -0.508 OA
ATOM     26  H   UNL     1     -14.341  41.079 -12.105  1.00  0.00     0.293 HD
ENDBRANCH  11  25
ENDBRANCH   1   2
BRANCH   1  27
ATOM     27  C   UNL     1     -16.200  37.516  -4.445  1.00  0.00     0.339 C 
ATOM     28  C   UNL     1     -17.461  38.284  -3.125  1.00  0.00     0.214 C 
ATOM     29  O   UNL     1     -17.130  36.640  -3.300  1.00  0.00    -0.332 OA
ATOM     30  C   UNL     1     -18.548  37.838  -1.725  1.00  0.00     0.180 C 
ATOM     31  C   UNL     1     -16.720  36.395  -1.663  1.00  0.00     0.179 C 
ATOM     32  C   UNL     1     -18.119  36.772  -0.469  1.00  0.00     0.177 C 
BRANCH  28  33
ATOM     33  O   UNL     1     -18.257  39.459  -3.351  1.00  0.00    -0.384 OA
ATOM     34  H   UNL     1     -18.070  40.058  -2.552  1.00  0.00     0.211 HD
ENDBRANCH  28  33
BRANCH  30  35
ATOM     35  O   UNL     1     -18.319  38.970  -0.881  1.00  0.00    -0.387 OA
ATOM     36  H   UNL     1     -17.348  39.154  -0.888  1.00  0.00     0.211 HD
ENDBRANCH  30  35
BRANCH  31  37
ATOM     37  C   UNL     1     -15.181  36.730  -0.508  1.00  0.00     0.191 C 
BRANCH  37  38
ATOM     38  O   UNL     1     -14.284  36.641  -1.688  1.00  0.00    -0.394 OA
ATOM     39  H   UNL     1     -13.652  37.526  -1.843  1.00  0.00     0.210 HD
ENDBRANCH  37  38
ENDBRANCH  31  37
BRANCH  32  40
ATOM     40  O   UNL     1     -19.364  36.717   0.920  1.00  0.00    -0.387 OA
ATOM     41  H   UNL     1     -20.397  35.968   1.118  1.00  0.00     0.211 HD
ENDBRANCH  32  40
ENDBRANCH   1  27
TORSDOF 12
ENDMDL
MODEL 2
REMARK VINA RESULT:   -10.668      2.479      7.382
REMARK INTER + INTRA:         -13.351
REMARK INTER:                 -12.077
REMARK INTRA:                  -1.274
REMARK UNBOUND:                -1.124
REMARK SMILES O=c1c(O[C@@H]2O[C@@H](CO)[C@H](O)[C@@H](O)[C@@H]2O)c(-c2ccc(O)c(O)c2)oc2cc(O)cc(O)c12
REMARK SMILES IDX 4 1 3 2 16 3 25 4 2 5 26 6 1 7 33 8 27 9 31 10 28 11 30 12
REMARK SMILES IDX 17 13 18 14 19 15 20 16 24 17 22 18 21 19 23 21 32 23 29 25
REMARK SMILES IDX 5 27 14 28 6 29 12 30 7 31 10 32 15 33 13 35 8 37 9 38 11 40
REMARK H PARENT 21 20 23 22 32 24 29 26 15 34 13 36 9 39 11 41
REMARK Flexibility Score: inf
ROOT
ATOM      1  O   UNL     1     -15.837  38.077  -4.721  1.00  0.00    -0.454 OA
ENDROOT
BRANCH   1   2
ATOM      2  C   UNL     1     -14.598  37.177  -4.535  1.00  0.00     0.214 A 
ATOM      3  C   UNL     1     -12.964  37.189  -4.763  1.00  0.00     0.180 A 
ATOM      4  O   UNL     1     -12.334  36.031  -4.443  1.00  0.00    -0.452 OA
ATOM      5  C   UNL     1     -14.699  36.045  -3.685  1.00  0.00     0.239 A 
ATOM      6  C   UNL     1     -12.983  34.853  -4.117  1.00  0.00     0.146 A 
ATOM      7  O   UNL     1     -14.255  36.275  -2.476  1.00  0.00    -0.285 OA
ATOM      8  C   UNL     1     -14.378  34.815  -4.346  1.00  0.00     0.111 A 
ATOM      9  C   UNL     1     -12.394  33.810  -3.236  1.00  0.00     0.094 A 
ATOM     10  C   UNL     1     -14.978  33.636  -3.977  1.00  0.00     0.134 A 
ATOM     11  C   UNL     1     -13.368  33.150  -2.388  1.00  0.00     0.123 A 
ATOM     12  C   UNL     1     -14.753  33.262  -2.665  1.00  0.00     0.093 A 
BRANCH   3  13
ATOM     13  C   UNL     1     -11.232  37.017  -4.921  1.00  0.00     0.025 A 
ATOM     14  C   UNL     1     -10.111  37.483  -5.837  1.00  0.00     0.016 A 
ATOM     15  C   UNL     1      -9.543  38.784  -5.166  1.00  0.00     0.051 A 
ATOM     16  C   UNL     1      -9.569  38.961  -3.761  1.00  0.00     0.157 A 
ATOM     17  C   UNL     1     -10.540  36.682  -3.695  1.00  0.00     0.062 A 
ATOM     18  C   UNL     1      -9.843  37.721  -3.014  1.00  0.00     0.158 A 
BRANCH  16  19
ATOM     19  O   UNL     1      -8.407  39.734  -3.345  1.00  0.00    -0.504 OA
ATOM     20  H   UNL     1      -7.537  40.061  -3.861  1.00  0.00     0.293 HD
ENDBRANCH  16  19
BRANCH  18  21
ATOM     21  O   UNL     1      -9.043  37.475  -1.896  1.00  0.00    -0.504 OA
ATOM     22  H   UNL     1      -8.771  36.622  -1.372  1.00  0.00     0.293 HD
ENDBRANCH  18  21
ENDBRANCH   3  13
BRANCH  10  23
ATOM     23  O   UNL     1     -14.786  32.551  -4.895  1.00  0.00    -0.507 OA
ATOM     24  H   UNL     1     -15.531  32.097  -5.504  1.00  0.00     0.293 HD
ENDBRANCH  10  23
BRANCH  11  25
ATOM     25  O   UNL     1     -13.097  33.065  -1.008  1.00  0.00    -0.508 OA
ATOM     26  H   UNL     1     -13.893  33.104  -0.282  1.00  0.00     0.293 HD
ENDBRANCH  11  25
ENDBRANCH   1   2
BRANCH   1  27
ATOM     27  C   UNL     1     -15.893  38.669  -6.607  1.00  0.00     0.339 C 
ATOM     28  C   UNL     1     -14.416  39.986  -6.696  1.00  0.00     0.214 C 
ATOM     29  O   UNL     1     -14.801  38.884  -7.913  1.00  0.00    -0.332 OA
ATOM     30  C   UNL     1     -13.119  40.641  -7.805  1.00  0.00     0.180 C 
ATOM     31  C   UNL     1     -14.938  40.060  -9.140  1.00  0.00     0.179 C 
ATOM     32  C   UNL     1     -13.352  41.018  -9.448  1.00  0.00     0.177 C 
BRANCH  28  33
ATOM     33  O   UNL     1     -13.647  40.420  -5.563  1.00  0.00    -0.384 OA
ATOM     34  H   UNL     1     -13.977  39.850  -4.789  1.00  0.00     0.211 HD
ENDBRANCH  28  33
BRANCH  30  35
ATOM     35  O   UNL     1     -13.183  42.024  -7.448  1.00  0.00    -0.387 OA
ATOM     36  H   UNL     1     -14.115  42.220  -7.183  1.00  0.00     0.211 HD
ENDBRANCH  30  35
BRANCH  31  37
ATOM     37  C   UNL     1     -16.256  41.380  -9.717  1.00  0.00     0.191 C 
BRANCH  37  38
ATOM     38  O   UNL     1     -17.193  40.890  -8.674  1.00  0.00    -0.394 OA
ATOM     39  H   UNL     1     -18.136  40.487  -9.068  1.00  0.00     0.210 HD
ENDBRANCH  37  38
ENDBRANCH  31  37
BRANCH  32  40
ATOM     40  O   UNL     1     -11.894  41.883 -10.229  1.00  0.00    -0.387 OA
ATOM     41  H   UNL     1     -11.819  42.732 -11.198  1.00  0.00     0.211 HD
ENDBRANCH  32  40
ENDBRANCH   1  27
TORSDOF 12
ENDMDL
MODEL 3
REMARK VINA RESULT:   -10.608      2.925      3.959
REMARK INTER + INTRA:         -13.282
REMARK INTER:                 -12.085
REMARK INTRA:                  -1.198
REMARK UNBOUND:                -1.124
REMARK SMILES O=c1c(O[C@@H]2O[C@@H](CO)[C@H](O)[C@@H](O)[C@@H]2O)c(-c2ccc(O)c(O)c2)oc2cc(O)cc(O)c12
REMARK SMILES IDX 4 1 3 2 16 3 25 4 2 5 26 6 1 7 33 8 27 9 31 10 28 11 30 12
REMARK SMILES IDX 17 13 18 14 19 15 20 16 24 17 22 18 21 19 23 21 32 23 29 25
REMARK SMILES IDX 5 27 14 28 6 29 12 30 7 31 10 32 15 33 13 35 8 37 9 38 11 40
REMARK H PARENT 21 20 23 22 32 24 29 26 15 34 13 36 9 39 11 41
REMARK Flexibility Score: inf
ROOT
ATOM      1  O   UNL     1     -12.857  34.467  -6.515  1.00  0.00    -0.454 OA
ENDROOT
BRANCH   1   2
ATOM      2  C   UNL     1     -11.924  35.675  -6.739  1.00  0.00     0.214 A 
ATOM      3  C   UNL     1     -10.969  36.726  -5.898  1.00  0.00     0.180 A 
ATOM      4  O   UNL     1     -10.370  37.681  -6.651  1.00  0.00    -0.452 OA
ATOM      5  C   UNL     1     -11.439  35.928  -8.048  1.00  0.00     0.239 A 
ATOM      6  C   UNL     1     -10.644  37.908  -7.988  1.00  0.00     0.146 A 
ATOM      7  O   UNL     1     -10.243  35.437  -8.253  1.00  0.00    -0.285 OA
ATOM      8  C   UNL     1     -11.768  37.239  -8.526  1.00  0.00     0.111 A 
ATOM      9  C   UNL     1      -9.659  38.487  -8.940  1.00  0.00     0.094 A 
ATOM     10  C   UNL     1     -11.977  37.472  -9.863  1.00  0.00     0.134 A 
ATOM     11  C   UNL     1      -9.748  37.930 -10.276  1.00  0.00     0.123 A 
ATOM     12  C   UNL     1     -10.891  37.194 -10.673  1.00  0.00     0.093 A 
BRANCH   3  13
ATOM     13  C   UNL     1      -9.907  37.918  -5.187  1.00  0.00     0.025 A 
ATOM     14  C   UNL     1      -9.912  39.399  -4.843  1.00  0.00     0.016 A 
ATOM     15  C   UNL     1     -10.383  39.475  -3.347  1.00  0.00     0.051 A 
ATOM     16  C   UNL     1     -10.104  38.431  -2.431  1.00  0.00     0.157 A 
ATOM     17  C   UNL     1      -8.885  37.379  -4.316  1.00  0.00     0.062 A 
ATOM     18  C   UNL     1      -9.080  37.485  -2.909  1.00  0.00     0.158 A 
BRANCH  16  19
ATOM     19  O   UNL     1      -9.912  38.986  -1.099  1.00  0.00    -0.504 OA
ATOM     20  H   UNL     1     -10.492  38.939  -0.209  1.00  0.00     0.293 HD
ENDBRANCH  16  19
BRANCH  18  21
ATOM     21  O   UNL     1      -8.097  37.111  -1.989  1.00  0.00    -0.504 OA
ATOM     22  H   UNL     1      -7.431  37.630  -1.387  1.00  0.00     0.293 HD
ENDBRANCH  18  21
ENDBRANCH   3  13
BRANCH  10  23
ATOM     23  O   UNL     1     -12.573  38.741 -10.165  1.00  0.00    -0.507 OA
ATOM     24  H   UNL     1     -13.214  39.307  -9.532  1.00  0.00     0.293 HD
ENDBRANCH  10  23
BRANCH  11  25
ATOM     25  O   UNL     1      -8.565  37.459 -10.878  1.00  0.00    -0.508 OA
ATOM     26  H   UNL     1      -7.855  38.141 -11.318  1.00  0.00     0.293 HD
ENDBRANCH  11  25
ENDBRANCH   1   2
BRANCH   1  27
ATOM     27  C   UNL     1     -13.437  34.477  -4.624  1.00  0.00     0.339 C 
ATOM     28  C   UNL     1     -14.758  35.951  -4.579  1.00  0.00     0.214 C 
ATOM     29  O   UNL     1     -14.904  34.497  -3.736  1.00  0.00    -0.332 OA
ATOM     30  C   UNL     1     -16.318  36.479  -3.786  1.00  0.00     0.180 C 
ATOM     31  C   UNL     1     -15.136  35.231  -2.214  1.00  0.00     0.179 C 
ATOM     32  C   UNL     1     -16.660  36.324  -2.126  1.00  0.00     0.177 C 
BRANCH  28  33
ATOM     33  O   UNL     1     -15.044  36.820  -5.687  1.00  0.00    -0.384 OA
ATOM     34  H   UNL     1     -15.572  37.590  -5.285  1.00  0.00     0.211 HD
ENDBRANCH  28  33
BRANCH  30  35
ATOM     35  O   UNL     1     -16.040  37.873  -3.628  1.00  0.00    -0.387 OA
ATOM     36  H   UNL     1     -15.286  37.955  -2.995  1.00  0.00     0.211 HD
ENDBRANCH  30  35
BRANCH  31  37
ATOM     37  C   UNL     1     -14.024  36.078  -0.850  1.00  0.00     0.191 C 
BRANCH  37  38
ATOM     38  O   UNL     1     -14.075  34.832  -0.044  1.00  0.00    -0.394 OA
ATOM     39  H   UNL     1     -13.277  34.746   0.707  1.00  0.00     0.210 HD
ENDBRANCH  37  38
ENDBRANCH  31  37
BRANCH  32  40
ATOM     40  O   UNL     1     -18.240  37.171  -1.606  1.00  0.00    -0.387 OA
ATOM     41  H   UNL     1     -18.481  38.383  -1.234  1.00  0.00     0.211 HD
ENDBRANCH  32  40
ENDBRANCH   1  27
TORSDOF 12
ENDMDL
MODEL 4
REMARK VINA RESULT:   -10.482      2.352      8.010
REMARK INTER + INTRA:         -13.138
REMARK INTER:                 -11.716
REMARK INTRA:                  -1.423
REMARK UNBOUND:                -1.124
REMARK SMILES O=c1c(O[C@@H]2O[C@@H](CO)[C@H](O)[C@@H](O)[C@@H]2O)c(-c2ccc(O)c(O)c2)oc2cc(O)cc(O)c12
REMARK SMILES IDX 4 1 3 2 16 3 25 4 2 5 26 6 1 7 33 8 27 9 31 10 28 11 30 12
REMARK SMILES IDX 17 13 18 14 19 15 20 16 24 17 22 18 21 19 23 21 32 23 29 25
REMARK SMILES IDX 5 27 14 28 6 29 12 30 7 31 10 32 15 33 13 35 8 37 9 38 11 40
REMARK H PARENT 21 20 23 22 32 24 29 26 15 34 13 36 9 39 11 41
REMARK Flexibility Score: inf
ROOT
ATOM      1  O   UNL     1     -17.808  38.709  -4.204  1.00  0.00    -0.454 OA
ENDROOT
BRANCH   1   2
ATOM      2  C   UNL     1     -17.241  37.736  -3.149  1.00  0.00     0.214 A 
ATOM      3  C   UNL     1     -16.161  36.498  -3.001  1.00  0.00     0.180 A 
ATOM      4  O   UNL     1     -16.094  35.943  -1.766  1.00  0.00    -0.452 OA
ATOM      5  C   UNL     1     -17.431  38.036  -1.775  1.00  0.00     0.239 A 
ATOM      6  C   UNL     1     -16.963  36.235  -0.729  1.00  0.00     0.146 A 
ATOM      7  O   UNL     1     -16.399  38.634  -1.237  1.00  0.00    -0.285 OA
ATOM      8  C   UNL     1     -18.109  36.994  -1.060  1.00  0.00     0.111 A 
ATOM      9  C   UNL     1     -16.593  36.124   0.706  1.00  0.00     0.094 A 
ATOM     10  C   UNL     1     -18.922  37.284   0.008  1.00  0.00     0.134 A 
ATOM     11  C   UNL     1     -17.194  37.148   1.540  1.00  0.00     0.123 A 
ATOM     12  C   UNL     1     -18.285  37.913   1.062  1.00  0.00     0.093 A 
BRANCH   3  13
ATOM     13  C   UNL     1     -15.062  35.186  -2.647  1.00  0.00     0.025 A 
ATOM     14  C   UNL     1     -15.027  33.668  -2.720  1.00  0.00     0.016 A 
ATOM     15  C   UNL     1     -14.381  33.335  -4.112  1.00  0.00     0.051 A 
ATOM     16  C   UNL     1     -13.429  34.197  -4.709  1.00  0.00     0.157 A 
ATOM     17  C   UNL     1     -13.662  35.550  -2.645  1.00  0.00     0.062 A 
ATOM     18  C   UNL     1     -12.877  35.200  -3.781  1.00  0.00     0.158 A 
BRANCH  16  19
ATOM     19  O   UNL     1     -12.469  33.413  -5.473  1.00  0.00    -0.504 OA
ATOM     20  H   UNL     1     -11.785  33.668  -6.246  1.00  0.00     0.293 HD
ENDBRANCH  16  19
BRANCH  18  21
ATOM     21  O   UNL     1     -11.493  35.394  -3.820  1.00  0.00    -0.504 OA
ATOM     22  H   UNL     1     -10.862  36.172  -3.554  1.00  0.00     0.293 HD
ENDBRANCH  18  21
ENDBRANCH   3  13
BRANCH  10  23
ATOM     23  O   UNL     1     -19.753  36.198   0.442  1.00  0.00    -0.507 OA
ATOM     24  H   UNL     1     -20.401  36.194   1.286  1.00  0.00     0.293 HD
ENDBRANCH  10  23
BRANCH  11  25
ATOM     25  O   UNL     1     -16.353  37.881   2.400  1.00  0.00    -0.508 OA
ATOM     26  H   UNL     1     -15.403  37.484   2.720  1.00  0.00     0.293 HD
ENDBRANCH  11  25
ENDBRANCH   1   2
BRANCH   1  27
ATOM     27  C   UNL     1     -16.555  38.760  -5.732  1.00  0.00     0.339 C 
ATOM     28  C   UNL     1     -14.867  39.371  -4.895  1.00  0.00     0.214 C 
ATOM     29  O   UNL     1     -14.975  38.207  -6.111  1.00  0.00    -0.332 OA
ATOM     30  C   UNL     1     -13.051  39.188  -4.987  1.00  0.00     0.180 C 
ATOM     31  C   UNL     1     -13.874  38.983  -7.157  1.00  0.00     0.179 C 
ATOM     32  C   UNL     1     -12.152  39.177  -6.432  1.00  0.00     0.177 C 
BRANCH  28  33
ATOM     33  O   UNL     1     -14.743  39.777  -3.522  1.00  0.00    -0.384 OA
ATOM     34  H   UNL     1     -14.215  40.645  -3.553  1.00  0.00     0.211 HD
ENDBRANCH  28  33
BRANCH  30  35
ATOM     35  O   UNL     1     -12.666  40.540  -4.724  1.00  0.00    -0.387 OA
ATOM     36  H   UNL     1     -12.777  41.049  -5.565  1.00  0.00     0.211 HD
ENDBRANCH  30  35
BRANCH  31  37
ATOM     37  C   UNL     1     -13.898  40.492  -8.396  1.00  0.00     0.191 C 
BRANCH  37  38
ATOM     38  O   UNL     1     -15.221  40.901  -7.863  1.00  0.00    -0.394 OA
ATOM     39  H   UNL     1     -16.045  40.818  -8.585  1.00  0.00     0.210 HD
ENDBRANCH  37  38
ENDBRANCH  31  37
BRANCH  32  40
ATOM     40  O   UNL     1     -10.305  39.208  -6.163  1.00  0.00    -0.387 OA
ATOM     41  H   UNL     1      -9.456  38.266  -5.926  1.00  0.00     0.211 HD
ENDBRANCH  32  40
ENDBRANCH   1  27
TORSDOF 12
ENDMDL
MODEL 5
REMARK VINA RESULT:   -10.393      2.558      3.734
REMARK INTER + INTRA:         -13.036
REMARK INTER:                 -11.910
REMARK INTRA:                  -1.126
REMARK UNBOUND:                -1.124
REMARK SMILES O=c1c(O[C@@H]2O[C@@H](CO)[C@H](O)[C@@H](O)[C@@H]2O)c(-c2ccc(O)c(O)c2)oc2cc(O)cc(O)c12
REMARK SMILES IDX 4 1 3 2 16 3 25 4 2 5 26 6 1 7 33 8 27 9 31 10 28 11 30 12
REMARK SMILES IDX 17 13 18 14 19 15 20 16 24 17 22 18 21 19 23 21 32 23 29 25
REMARK SMILES IDX 5 27 14 28 6 29 12 30 7 31 10 32 15 33 13 35 8 37 9 38 11 40
REMARK H PARENT 21 20 23 22 32 24 29 26 15 34 13 36 9 39 11 41
REMARK Flexibility Score: inf
ROOT
ATOM      1  O   UNL     1     -15.557  38.787  -5.482  1.00  0.00    -0.454 OA
ENDROOT
BRANCH   1   2
ATOM      2  C   UNL     1     -14.371  39.144  -6.401  1.00  0.00     0.214 A 
ATOM      3  C   UNL     1     -12.795  38.737  -6.671  1.00  0.00     0.180 A 
ATOM      4  O   UNL     1     -12.180  39.451  -7.646  1.00  0.00    -0.452 OA
ATOM      5  C   UNL     1     -14.630  39.854  -7.603  1.00  0.00     0.239 A 
ATOM      6  C   UNL     1     -12.728  40.558  -8.269  1.00  0.00     0.146 A 
ATOM      7  O   UNL     1     -14.723  39.071  -8.647  1.00  0.00    -0.285 OA
ATOM      8  C   UNL     1     -13.907  41.088  -7.693  1.00  0.00     0.111 A 
ATOM      9  C   UNL     1     -12.383  40.974  -9.653  1.00  0.00     0.094 A 
ATOM     10  C   UNL     1     -14.428  42.165  -8.368  1.00  0.00     0.134 A 
ATOM     11  C   UNL     1     -13.504  41.527 -10.390  1.00  0.00     0.123 A 
ATOM     12  C   UNL     1     -14.675  41.940  -9.709  1.00  0.00     0.093 A 
BRANCH   3  13
ATOM     13  C   UNL     1     -11.130  38.437  -7.111  1.00  0.00     0.025 A 
ATOM     14  C   UNL     1      -9.911  37.713  -6.562  1.00  0.00     0.016 A 
ATOM     15  C   UNL     1      -9.949  36.286  -7.215  1.00  0.00     0.051 A 
ATOM     16  C   UNL     1     -10.504  36.077  -8.501  1.00  0.00     0.157 A 
ATOM     17  C   UNL     1     -10.850  38.531  -8.527  1.00  0.00     0.062 A 
ATOM     18  C   UNL     1     -10.710  37.321  -9.265  1.00  0.00     0.158 A 
BRANCH  16  19
ATOM     19  O   UNL     1      -9.787  35.005  -9.177  1.00  0.00    -0.504 OA
ATOM     20  H   UNL     1      -8.753  34.771  -9.259  1.00  0.00     0.293 HD
ENDBRANCH  16  19
BRANCH  18  21
ATOM     21  O   UNL     1     -10.315  37.305 -10.605  1.00  0.00    -0.504 OA
ATOM     22  H   UNL     1     -10.660  36.825 -11.457  1.00  0.00     0.293 HD
ENDBRANCH  18  21
ENDBRANCH   3  13
BRANCH  10  23
ATOM     23  O   UNL     1     -13.745  43.405  -8.138  1.00  0.00    -0.507 OA
ATOM     24  H   UNL     1     -12.740  43.634  -8.403  1.00  0.00     0.293 HD
ENDBRANCH  10  23
BRANCH  11  25
ATOM     25  O   UNL     1     -13.776  41.009 -11.671  1.00  0.00    -0.508 OA
ATOM     26  H   UNL     1     -13.122  40.285 -12.128  1.00  0.00     0.293 HD
ENDBRANCH  11  25
ENDBRANCH   1   2
BRANCH   1  27
ATOM     27  C   UNL     1     -15.577  36.825  -5.233  1.00  0.00     0.339 C 
ATOM     28  C   UNL     1     -14.111  36.535  -3.933  1.00  0.00     0.214 C 
ATOM     29  O   UNL     1     -15.577  35.700  -3.938  1.00  0.00    -0.332 OA
ATOM     30  C   UNL     1     -13.603  35.481  -2.529  1.00  0.00     0.180 C 
ATOM     31  C   UNL     1     -14.865  34.151  -3.966  1.00  0.00     0.179 C 
ATOM     32  C   UNL     1     -13.782  33.789  -2.475  1.00  0.00     0.177 C 
BRANCH  28  33
ATOM     33  O   UNL     1     -13.229  37.566  -3.460  1.00  0.00    -0.384 OA
ATOM     34  H   UNL     1     -13.394  38.355  -4.080  1.00  0.00     0.211 HD
ENDBRANCH  28  33
BRANCH  30  35
ATOM     35  O   UNL     1     -12.209  35.353  -2.824  1.00  0.00    -0.387 OA
ATOM     36  H   UNL     1     -11.722  35.352  -1.964  1.00  0.00     0.211 HD
ENDBRANCH  30  35
BRANCH  31  37
ATOM     37  C   UNL     1     -14.029  32.984  -5.290  1.00  0.00     0.191 C 
BRANCH  37  38
ATOM     38  O   UNL     1     -14.640  33.791  -6.377  1.00  0.00    -0.394 OA
ATOM     39  H   UNL     1     -14.682  34.869  -6.170  1.00  0.00     0.210 HD
ENDBRANCH  37  38
ENDBRANCH  31  37
BRANCH  32  40
ATOM     40  O   UNL     1     -12.951  32.997  -1.004  1.00  0.00    -0.387 OA
ATOM     41  H   UNL     1     -12.538  33.488   0.116  1.00  0.00     0.211 HD
ENDBRANCH  32  40
ENDBRANCH   1  27
TORSDOF 12
ENDMDL
MODEL 6
REMARK VINA RESULT:   -10.354      2.791      8.552
REMARK INTER + INTRA:         -12.992
REMARK INTER:                 -11.580
REMARK INTRA:                  -1.411
REMARK UNBOUND:                -1.124
REMARK SMILES O=c1c(O[C@@H]2O[C@@H](CO)[C@H](O)[C@@H](O)[C@@H]2O)c(-c2ccc(O)c(O)c2)oc2cc(O)cc(O)c12
REMARK SMILES IDX 4 1 3 2 16 3 25 4 2 5 26 6 1 7 33 8 27 9 31 10 28 11 30 12
REMARK SMILES IDX 17 13 18 14 19 15 20 16 24 17 22 18 21 19 23 21 32 23 29 25
REMARK SMILES IDX 5 27 14 28 6 29 12 30 7 31 10 32 15 33 13 35 8 37 9 38 11 40
REMARK H PARENT 21 20 23 22 32 24 29 26 15 34 13 36 9 39 11 41
REMARK Flexibility Score: inf
ROOT
ATOM      1  O   UNL     1     -14.817  39.437  -1.548  1.00  0.00    -0.454 OA
ENDROOT
BRANCH   1   2
ATOM      2  C   UNL     1     -14.823  37.964  -1.087  1.00  0.00     0.214 A 
ATOM      3  C   UNL     1     -14.186  36.497  -1.489  1.00  0.00     0.180 A 
ATOM      4  O   UNL     1     -14.593  35.465  -0.709  1.00  0.00    -0.452 OA
ATOM      5  C   UNL     1     -15.278  37.662   0.223  1.00  0.00     0.239 A 
ATOM      6  C   UNL     1     -15.593  35.551   0.244  1.00  0.00     0.146 A 
ATOM      7  O   UNL     1     -14.302  37.541   1.085  1.00  0.00    -0.285 OA
ATOM      8  C   UNL     1     -16.370  36.733   0.238  1.00  0.00     0.111 A 
ATOM      9  C   UNL     1     -15.652  34.685   1.450  1.00  0.00     0.094 A 
ATOM     10  C   UNL     1     -17.326  36.783   1.223  1.00  0.00     0.134 A 
ATOM     11  C   UNL     1     -16.158  35.365   2.628  1.00  0.00     0.123 A 
ATOM     12  C   UNL     1     -16.843  36.599   2.505  1.00  0.00     0.093 A 
BRANCH   3  13
ATOM     13  C   UNL     1     -13.605  34.869  -1.750  1.00  0.00     0.025 A 
ATOM     14  C   UNL     1     -14.055  33.437  -1.508  1.00  0.00     0.016 A 
ATOM     15  C   UNL     1     -14.764  32.996  -2.838  1.00  0.00     0.051 A 
ATOM     16  C   UNL     1     -14.369  33.520  -4.093  1.00  0.00     0.157 A 
ATOM     17  C   UNL     1     -12.631  34.735  -2.812  1.00  0.00     0.062 A 
ATOM     18  C   UNL     1     -13.069  34.213  -4.062  1.00  0.00     0.158 A 
BRANCH  16  19
ATOM     19  O   UNL     1     -14.548  32.508  -5.124  1.00  0.00    -0.504 OA
ATOM     20  H   UNL     1     -14.400  32.519  -6.177  1.00  0.00     0.293 HD
ENDBRANCH  16  19
BRANCH  18  21
ATOM     21  O   UNL     1     -12.183  33.928  -5.104  1.00  0.00    -0.504 OA
ATOM     22  H   UNL     1     -11.930  34.401  -5.992  1.00  0.00     0.293 HD
ENDBRANCH  18  21
ENDBRANCH   3  13
BRANCH  10  23
ATOM     23  O   UNL     1     -18.498  35.998   0.962  1.00  0.00    -0.507 OA
ATOM     24  H   UNL     1     -19.154  36.096   0.129  1.00  0.00     0.293 HD
ENDBRANCH  10  23
BRANCH  11  25
ATOM     25  O   UNL     1     -15.407  35.279   3.817  1.00  0.00    -0.508 OA
ATOM     26  H   UNL     1     -15.844  34.892   4.723  1.00  0.00     0.293 HD
ENDBRANCH  11  25
ENDBRANCH   1   2
BRANCH   1  27
ATOM     27  C   UNL     1     -13.844  39.542  -3.266  1.00  0.00     0.339 C 
ATOM     28  C   UNL     1     -15.197  38.925  -4.574  1.00  0.00     0.214 C 
ATOM     29  O   UNL     1     -14.095  40.173  -4.842  1.00  0.00    -0.332 OA
ATOM     30  C   UNL     1     -15.778  39.173  -6.289  1.00  0.00     0.180 C 
ATOM     31  C   UNL     1     -13.474  39.515  -6.287  1.00  0.00     0.179 C 
ATOM     32  C   UNL     1     -14.758  39.323  -7.643  1.00  0.00     0.177 C 
BRANCH  28  33
ATOM     33  O   UNL     1     -16.496  38.421  -4.222  1.00  0.00    -0.384 OA
ATOM     34  H   UNL     1     -16.327  37.476  -3.887  1.00  0.00     0.211 HD
ENDBRANCH  28  33
BRANCH  30  35
ATOM     35  O   UNL     1     -16.082  37.818  -6.632  1.00  0.00    -0.387 OA
ATOM     36  H   UNL     1     -16.902  37.565  -6.141  1.00  0.00     0.211 HD
ENDBRANCH  30  35
BRANCH  31  37
ATOM     37  C   UNL     1     -12.223  38.104  -6.796  1.00  0.00     0.191 C 
BRANCH  37  38
ATOM     38  O   UNL     1     -11.574  38.209  -5.465  1.00  0.00    -0.394 OA
ATOM     39  H   UNL     1     -11.187  39.209  -5.228  1.00  0.00     0.210 HD
ENDBRANCH  37  38
ENDBRANCH  31  37
BRANCH  32  40
ATOM     40  O   UNL     1     -15.674  39.331  -9.270  1.00  0.00    -0.387 OA
ATOM     41  H   UNL     1     -16.645  40.061  -9.705  1.00  0.00     0.211 HD
ENDBRANCH  32  40
ENDBRANCH   1  27
TORSDOF 12
ENDMDL
MODEL 7
REMARK VINA RESULT:   -10.349      2.682      8.368
REMARK INTER + INTRA:         -12.985
REMARK INTER:                 -11.846
REMARK INTRA:                  -1.139
REMARK UNBOUND:                -1.124
REMARK SMILES O=c1c(O[C@@H]2O[C@@H](CO)[C@H](O)[C@@H](O)[C@@H]2O)c(-c2ccc(O)c(O)c2)oc2cc(O)cc(O)c12
REMARK SMILES IDX 4 1 3 2 16 3 25 4 2 5 26 6 1 7 33 8 27 9 31 10 28 11 30 12
REMARK SMILES IDX 17 13 18 14 19 15 20 16 24 17 22 18 21 19 23 21 32 23 29 25
REMARK SMILES IDX 5 27 14 28 6 29 12 30 7 31 10 32 15 33 13 35 8 37 9 38 11 40
REMARK H PARENT 21 20 23 22 32 24 29 26 15 34 13 36 9 39 11 41
REMARK Flexibility Score: inf
ROOT
ATOM      1  O   UNL     1     -13.945  40.017  -3.546  1.00  0.00    -0.454 OA
ENDROOT
BRANCH   1   2
ATOM      2  C   UNL     1     -14.027  38.680  -2.781  1.00  0.00     0.214 A 
ATOM      3  C   UNL     1     -13.455  37.134  -2.846  1.00  0.00     0.180 A 
ATOM      4  O   UNL     1     -13.919  36.312  -1.873  1.00  0.00    -0.452 OA
ATOM      5  C   UNL     1     -14.511  38.686  -1.448  1.00  0.00     0.239 A 
ATOM      6  C   UNL     1     -14.925  36.644  -0.983  1.00  0.00     0.146 A 
ATOM      7  O   UNL     1     -13.552  38.710  -0.558  1.00  0.00    -0.285 OA
ATOM      8  C   UNL     1     -15.645  37.830  -1.257  1.00  0.00     0.111 A 
ATOM      9  C   UNL     1     -15.040  36.060   0.379  1.00  0.00     0.094 A 
ATOM     10  C   UNL     1     -16.610  38.132  -0.327  1.00  0.00     0.134 A 
ATOM     11  C   UNL     1     -15.526  36.999   1.373  1.00  0.00     0.123 A 
ATOM     12  C   UNL     1     -16.152  38.205   0.975  1.00  0.00     0.093 A 
BRANCH   3  13
ATOM     13  C   UNL     1     -12.948  35.464  -2.741  1.00  0.00     0.025 A 
ATOM     14  C   UNL     1     -13.344  34.188  -2.015  1.00  0.00     0.016 A 
ATOM     15  C   UNL     1     -14.317  33.440  -2.994  1.00  0.00     0.051 A 
ATOM     16  C   UNL     1     -14.191  33.567  -4.399  1.00  0.00     0.157 A 
ATOM     17  C   UNL     1     -12.217  34.977  -3.891  1.00  0.00     0.062 A 
ATOM     18  C   UNL     1     -12.910  34.157  -4.827  1.00  0.00     0.158 A 
BRANCH  16  19
ATOM     19  O   UNL     1     -14.585  32.320  -5.040  1.00  0.00    -0.504 OA
ATOM     20  H   UNL     1     -15.124  31.472  -4.694  1.00  0.00     0.293 HD
ENDBRANCH  16  19
BRANCH  18  21
ATOM     21  O   UNL     1     -12.262  33.536  -5.898  1.00  0.00    -0.504 OA
ATOM     22  H   UNL     1     -11.314  33.605  -6.311  1.00  0.00     0.293 HD
ENDBRANCH  18  21
ENDBRANCH   3  13
BRANCH  10  23
ATOM     23  O   UNL     1     -17.814  37.361  -0.440  1.00  0.00    -0.507 OA
ATOM     24  H   UNL     1     -18.685  37.622  -0.994  1.00  0.00     0.293 HD
ENDBRANCH  10  23
BRANCH  11  25
ATOM     25  O   UNL     1     -14.795  37.137   2.569  1.00  0.00    -0.508 OA
ATOM     26  H   UNL     1     -14.617  38.108   3.002  1.00  0.00     0.293 HD
ENDBRANCH  11  25
ENDBRANCH   1   2
BRANCH   1  27
ATOM     27  C   UNL     1     -14.424  39.679  -5.435  1.00  0.00     0.339 C 
ATOM     28  C   UNL     1     -13.705  41.276  -6.361  1.00  0.00     0.214 C 
ATOM     29  O   UNL     1     -13.662  39.704  -6.971  1.00  0.00    -0.332 OA
ATOM     30  C   UNL     1     -12.940  41.824  -7.927  1.00  0.00     0.180 C 
ATOM     31  C   UNL     1     -14.416  40.099  -8.450  1.00  0.00     0.179 C 
ATOM     32  C   UNL     1     -13.459  41.346  -9.476  1.00  0.00     0.177 C 
BRANCH  28  33
ATOM     33  O   UNL     1     -13.116  42.404  -5.694  1.00  0.00    -0.384 OA
ATOM     34  H   UNL     1     -12.636  42.010  -4.889  1.00  0.00     0.211 HD
ENDBRANCH  28  33
BRANCH  30  35
ATOM     35  O   UNL     1     -13.584  43.093  -8.071  1.00  0.00    -0.387 OA
ATOM     36  H   UNL     1     -14.515  42.990  -7.755  1.00  0.00     0.211 HD
ENDBRANCH  30  35
BRANCH  31  37
ATOM     37  C   UNL     1     -16.229  40.450  -9.081  1.00  0.00     0.191 C 
BRANCH  37  38
ATOM     38  O   UNL     1     -16.773  39.767  -7.881  1.00  0.00    -0.394 OA
ATOM     39  H   UNL     1     -16.164  38.925  -7.525  1.00  0.00     0.210 HD
ENDBRANCH  37  38
ENDBRANCH  31  37
BRANCH  32  40
ATOM     40  O   UNL     1     -12.616  42.267 -10.863  1.00  0.00    -0.387 OA
ATOM     41  H   UNL     1     -11.423  42.748 -10.974  1.00  0.00     0.211 HD
ENDBRANCH  32  40
ENDBRANCH   1  27
TORSDOF 12
ENDMDL
MODEL 8
REMARK VINA RESULT:   -10.340      2.884      8.833
REMARK INTER + INTRA:         -12.975
REMARK INTER:                 -11.681
REMARK INTRA:                  -1.294
REMARK UNBOUND:                -1.124
REMARK SMILES O=c1c(O[C@@H]2O[C@@H](CO)[C@H](O)[C@@H](O)[C@@H]2O)c(-c2ccc(O)c(O)c2)oc2cc(O)cc(O)c12
REMARK SMILES IDX 4 1 3 2 16 3 25 4 2 5 26 6 1 7 33 8 27 9 31 10 28 11 30 12
REMARK SMILES IDX 17 13 18 14 19 15 20 16 24 17 22 18 21 19 23 21 32 23 29 25
REMARK SMILES IDX 5 27 14 28 6 29 12 30 7 31 10 32 15 33 13 35 8 37 9 38 11 40
REMARK H PARENT 21 20 23 22 32 24 29 26 15 34 13 36 9 39 11 41
REMARK Flexibility Score: inf
ROOT
ATOM      1  O   UNL     1     -14.835  39.446  -1.617  1.00  0.00    -0.454 OA
ENDROOT
BRANCH   1   2
ATOM      2  C   UNL     1     -14.829  37.979  -1.139  1.00  0.00     0.214 A 
ATOM      3  C   UNL     1     -14.184  36.511  -1.528  1.00  0.00     0.180 A 
ATOM      4  O   UNL     1     -14.580  35.486  -0.733  1.00  0.00    -0.452 OA
ATOM      5  C   UNL     1     -15.275  37.690   0.176  1.00  0.00     0.239 A 
ATOM      6  C   UNL     1     -15.575  35.577   0.224  1.00  0.00     0.146 A 
ATOM      7  O   UNL     1     -14.292  37.585   1.035  1.00  0.00    -0.285 OA
ATOM      8  C   UNL     1     -16.360  36.753   0.210  1.00  0.00     0.111 A 
ATOM      9  C   UNL     1     -15.621  34.725   1.441  1.00  0.00     0.094 A 
ATOM     10  C   UNL     1     -17.311  36.809   1.199  1.00  0.00     0.134 A 
ATOM     11  C   UNL     1     -16.125  35.415   2.614  1.00  0.00     0.123 A 
ATOM     12  C   UNL     1     -16.819  36.642   2.480  1.00  0.00     0.093 A 
BRANCH   3  13
ATOM     13  C   UNL     1     -13.594  34.884  -1.773  1.00  0.00     0.025 A 
ATOM     14  C   UNL     1     -14.030  33.453  -1.506  1.00  0.00     0.016 A 
ATOM     15  C   UNL     1     -14.751  32.987  -2.821  1.00  0.00     0.051 A 
ATOM     16  C   UNL     1     -14.376  33.497  -4.088  1.00  0.00     0.157 A 
ATOM     17  C   UNL     1     -12.631  34.743  -2.844  1.00  0.00     0.062 A 
ATOM     18  C   UNL     1     -13.081  34.200  -4.082  1.00  0.00     0.158 A 
BRANCH  16  19
ATOM     19  O   UNL     1     -14.559  32.469  -5.102  1.00  0.00    -0.504 OA
ATOM     20  H   UNL     1     -14.461  32.477  -6.161  1.00  0.00     0.293 HD
ENDBRANCH  16  19
BRANCH  18  21
ATOM     21  O   UNL     1     -12.205  33.907  -5.130  1.00  0.00    -0.504 OA
ATOM     22  H   UNL     1     -11.173  33.877  -5.227  1.00  0.00     0.293 HD
ENDBRANCH  18  21
ENDBRANCH   3  13
BRANCH  10  23
ATOM     23  O   UNL     1     -18.479  36.013   0.954  1.00  0.00    -0.507 OA
ATOM     24  H   UNL     1     -18.517  34.953   0.870  1.00  0.00     0.293 HD
ENDBRANCH  10  23
BRANCH  11  25
ATOM     25  O   UNL     1     -15.367  35.348   3.799  1.00  0.00    -0.508 OA
ATOM     26  H   UNL     1     -14.308  35.554   3.794  1.00  0.00     0.293 HD
ENDBRANCH  11  25
ENDBRANCH   1   2
BRANCH   1  27
ATOM     27  C   UNL     1     -13.138  39.792  -2.571  1.00  0.00     0.339 C 
ATOM     28  C   UNL     1     -13.492  39.055  -4.375  1.00  0.00     0.214 C 
ATOM     29  O   UNL     1     -12.623  40.466  -4.062  1.00  0.00    -0.332 OA
ATOM     30  C   UNL     1     -13.120  39.311  -6.147  1.00  0.00     0.180 C 
ATOM     31  C   UNL     1     -11.243  39.991  -4.945  1.00  0.00     0.179 C 
ATOM     32  C   UNL     1     -11.581  39.687  -6.767  1.00  0.00     0.177 C 
BRANCH  28  33
ATOM     33  O   UNL     1     -14.685  38.345  -4.742  1.00  0.00    -0.384 OA
ATOM     34  H   UNL     1     -14.374  37.397  -4.941  1.00  0.00     0.211 HD
ENDBRANCH  28  33
BRANCH  30  35
ATOM     35  O   UNL     1     -12.984  37.947  -6.556  1.00  0.00    -0.387 OA
ATOM     36  H   UNL     1     -13.787  37.462  -6.244  1.00  0.00     0.211 HD
ENDBRANCH  30  35
BRANCH  31  37
ATOM     37  C   UNL     1      -9.709  38.813  -4.678  1.00  0.00     0.191 C 
BRANCH  37  38
ATOM     38  O   UNL     1      -9.130  39.795  -3.727  1.00  0.00    -0.394 OA
ATOM     39  H   UNL     1      -9.822  40.591  -3.421  1.00  0.00     0.210 HD
ENDBRANCH  37  38
ENDBRANCH  31  37
BRANCH  32  40
ATOM     40  O   UNL     1     -11.499  39.651  -8.632  1.00  0.00    -0.387 OA
ATOM     41  H   UNL     1     -11.661  38.691  -9.480  1.00  0.00     0.211 HD
ENDBRANCH  32  40
ENDBRANCH   1  27
TORSDOF 12
ENDMDL
MODEL 9
REMARK VINA RESULT:   -10.339      1.359      2.114
REMARK INTER + INTRA:         -12.974
REMARK INTER:                 -12.212
REMARK INTRA:                  -0.762
REMARK UNBOUND:                -1.124
REMARK SMILES O=c1c(O[C@@H]2O[C@@H](CO)[C@H](O)[C@@H](O)[C@@H]2O)c(-c2ccc(O)c(O)c2)oc2cc(O)cc(O)c12
REMARK SMILES IDX 4 1 3 2 16 3 25 4 2 5 26 6 1 7 33 8 27 9 31 10 28 11 30 12
REMARK SMILES IDX 17 13 18 14 19 15 20 16 24 17 22 18 21 19 23 21 32 23 29 25
REMARK SMILES IDX 5 27 14 28 6 29 12 30 7 31 10 32 15 33 13 35 8 37 9 38 11 40
REMARK H PARENT 21 20 23 22 32 24 29 26 15 34 13 36 9 39 11 41
REMARK Flexibility Score: inf
ROOT
ATOM      1  O   UNL     1     -16.312  38.566  -6.255  1.00  0.00    -0.454 OA
ENDROOT
BRANCH   1   2
ATOM      2  C   UNL     1     -14.935  38.961  -6.828  1.00  0.00     0.214 A 
ATOM      3  C   UNL     1     -13.356  38.483  -6.804  1.00  0.00     0.180 A 
ATOM      4  O   UNL     1     -12.508  39.279  -7.501  1.00  0.00    -0.452 OA
ATOM      5  C   UNL     1     -14.887  39.846  -7.936  1.00  0.00     0.239 A 
ATOM      6  C   UNL     1     -12.858  40.498  -8.056  1.00  0.00     0.146 A 
ATOM      7  O   UNL     1     -14.771  39.223  -9.081  1.00  0.00    -0.285 OA
ATOM      8  C   UNL     1     -14.115  41.026  -7.679  1.00  0.00     0.111 A 
ATOM      9  C   UNL     1     -12.191  41.075  -9.253  1.00  0.00     0.094 A 
ATOM     10  C   UNL     1     -14.427  42.220  -8.281  1.00  0.00     0.134 A 
ATOM     11  C   UNL     1     -13.094  41.803 -10.125  1.00  0.00     0.123 A 
ATOM     12  C   UNL     1     -14.372  42.201  -9.663  1.00  0.00     0.093 A 
BRANCH   3  13
ATOM     13  C   UNL     1     -11.648  38.128  -6.909  1.00  0.00     0.025 A 
ATOM     14  C   UNL     1     -10.618  37.236  -6.235  1.00  0.00     0.016 A 
ATOM     15  C   UNL     1     -10.559  35.935  -7.114  1.00  0.00     0.051 A 
ATOM     16  C   UNL     1     -10.810  35.975  -8.507  1.00  0.00     0.157 A 
ATOM     17  C   UNL     1     -11.044  38.422  -8.191  1.00  0.00     0.062 A 
ATOM     18  C   UNL     1     -10.785  37.335  -9.074  1.00  0.00     0.158 A 
BRANCH  16  19
ATOM     19  O   UNL     1      -9.999  34.970  -9.179  1.00  0.00    -0.504 OA
ATOM     20  H   UNL     1     -10.237  34.037  -9.631  1.00  0.00     0.293 HD
ENDBRANCH  16  19
BRANCH  18  21
ATOM     21  O   UNL     1     -10.092  37.499 -10.276  1.00  0.00    -0.504 OA
ATOM     22  H   UNL     1     -10.001  36.938 -11.144  1.00  0.00     0.293 HD
ENDBRANCH  18  21
ENDBRANCH   3  13
BRANCH  10  23
ATOM     23  O   UNL     1     -13.767  43.365  -7.724  1.00  0.00    -0.507 OA
ATOM     24  H   UNL     1     -14.176  44.056  -7.026  1.00  0.00     0.293 HD
ENDBRANCH  10  23
BRANCH  11  25
ATOM     25  O   UNL     1     -13.088  41.487 -11.497  1.00  0.00    -0.508 OA
ATOM     26  H   UNL     1     -13.238  40.474 -11.835  1.00  0.00     0.293 HD
ENDBRANCH  11  25
ENDBRANCH   1   2
BRANCH   1  27
ATOM     27  C   UNL     1     -16.016  37.490  -4.622  1.00  0.00     0.339 C 
ATOM     28  C   UNL     1     -17.330  38.252  -3.352  1.00  0.00     0.214 C 
ATOM     29  O   UNL     1     -16.950  36.614  -3.481  1.00  0.00    -0.332 OA
ATOM     30  C   UNL     1     -18.440  37.807  -1.969  1.00  0.00     0.180 C 
ATOM     31  C   UNL     1     -16.575  36.418  -1.829  1.00  0.00     0.179 C 
ATOM     32  C   UNL     1     -18.014  36.782  -0.679  1.00  0.00     0.177 C 
BRANCH  28  33
ATOM     33  O   UNL     1     -18.153  39.398  -3.625  1.00  0.00    -0.384 OA
ATOM     34  H   UNL     1     -17.544  40.198  -3.473  1.00  0.00     0.211 HD
ENDBRANCH  28  33
BRANCH  30  35
ATOM     35  O   UNL     1     -18.264  38.964  -1.147  1.00  0.00    -0.387 OA
ATOM     36  H   UNL     1     -17.296  39.162  -1.116  1.00  0.00     0.211 HD
ENDBRANCH  30  35
BRANCH  31  37
ATOM     37  C   UNL     1     -15.076  36.822  -0.645  1.00  0.00     0.191 C 
BRANCH  37  38
ATOM     38  O   UNL     1     -14.138  36.642  -1.781  1.00  0.00    -0.394 OA
ATOM     39  H   UNL     1     -14.566  36.883  -2.763  1.00  0.00     0.210 HD
ENDBRANCH  37  38
ENDBRANCH  31  37
BRANCH  32  40
ATOM     40  O   UNL     1     -19.292  36.723   0.681  1.00  0.00    -0.387 OA
ATOM     41  H   UNL     1     -19.205  36.395   1.926  1.00  0.00     0.211 HD
ENDBRANCH  32  40
ENDBRANCH   1  27
TORSDOF 12
ENDMDL
