MODEL 1
REMARK VINA RESULT:    -3.378      0.000      0.000
REMARK INTER + INTRA:          -4.318
REMARK INTER:                  -4.168
REMARK INTRA:                  -0.150
REMARK UNBOUND:                -0.150
REMARK SMILES C=CC[C@@H](C)C(=O)CC
REMARK SMILES IDX 4 1 5 2 6 3 7 4 8 5 9 6 3 7 2 8 1 9
REMARK H PARENT
REMARK Flexibility Score: inf
ROOT
ATOM      1  C   UNL     1      -4.825   9.612   4.099  1.00  0.00     0.057 C 
ATOM      2  C   UNL     1      -3.424   9.995   4.597  1.00  0.00     0.016 C 
ENDROOT
BRANCH   1   3
ATOM      3  C   UNL     1      -4.709   8.618   2.952  1.00  0.00     0.135 C 
ATOM      4  O   UNL     1      -4.472   7.450   3.222  1.00  0.00    -0.299 OA
BRANCH   3   5
ATOM      5  C   UNL     1      -4.940   8.982   1.502  1.00  0.00     0.072 C 
ATOM      6  C   UNL     1      -5.494   7.801   0.713  1.00  0.00     0.012 C 
ENDBRANCH   3   5
ENDBRANCH   1   3
BRANCH   1   7
ATOM      7  C   UNL     1      -5.724   9.110   5.250  1.00  0.00     0.038 C 
BRANCH   7   8
ATOM      8  C   UNL     1      -4.909   8.697   6.449  1.00  0.00    -0.034 C 
ATOM      9  C   UNL     1      -5.205   9.116   7.683  1.00  0.00     0.004 C 
ENDBRANCH   7   8
ENDBRANCH   1   7
TORSDOF 4
ENDMDL
MODEL 2
REMARK VINA RESULT:    -3.301      1.435      4.355
REMARK INTER + INTRA:          -4.223
REMARK INTER:                  -4.039
REMARK INTRA:                  -0.183
REMARK UNBOUND:                -0.150
REMARK SMILES C=CC[C@@H](C)C(=O)CC
REMARK SMILES IDX 4 1 5 2 6 3 7 4 8 5 9 6 3 7 2 8 1 9
REMARK H PARENT
REMARK Flexibility Score: inf
ROOT
ATOM      1  C   UNL     1      -4.934   9.044   4.355  1.00  0.00     0.057 C 
ATOM      2  C   UNL     1      -6.056   9.354   5.357  1.00  0.00     0.016 C 
ENDROOT
BRANCH   1   3
ATOM      3  C   UNL     1      -3.636   8.777   5.103  1.00  0.00     0.135 C 
ATOM      4  O   UNL     1      -3.166   7.650   5.058  1.00  0.00    -0.299 OA
BRANCH   3   5
ATOM      5  C   UNL     1      -2.859   9.844   5.840  1.00  0.00     0.072 C 
ATOM      6  C   UNL     1      -2.753   9.528   7.328  1.00  0.00     0.012 C 
ENDBRANCH   3   5
ENDBRANCH   1   3
BRANCH   1   7
ATOM      7  C   UNL     1      -5.328   7.903   3.391  1.00  0.00     0.038 C 
BRANCH   7   8
ATOM      8  C   UNL     1      -5.043   8.267   1.957  1.00  0.00    -0.034 C 
ATOM      9  C   UNL     1      -5.624   7.629   0.937  1.00  0.00     0.004 C 
ENDBRANCH   7   8
ENDBRANCH   1   7
TORSDOF 4
ENDMDL
MODEL 3
REMARK VINA RESULT:    -3.223     17.401     18.542
REMARK INTER + INTRA:          -4.127
REMARK INTER:                  -3.706
REMARK INTRA:                  -0.421
REMARK UNBOUND:                -0.150
REMARK SMILES C=CC[C@@H](C)C(=O)CC
REMARK SMILES IDX 4 1 5 2 6 3 7 4 8 5 9 6 3 7 2 8 1 9
REMARK H PARENT
REMARK Flexibility Score: inf
ROOT
ATOM      1  C   UNL     1       6.061  -1.035  -6.744  1.00  0.00     0.057 C 
ATOM      2  C   UNL     1       6.802  -1.569  -5.510  1.00  0.00     0.016 C 
ENDROOT
BRANCH   1   3
ATOM      3  C   UNL     1       5.955   0.481  -6.666  1.00  0.00     0.135 C 
ATOM      4  O   UNL     1       5.531   0.978  -5.633  1.00  0.00    -0.299 OA
BRANCH   3   5
ATOM      5  C   UNL     1       6.411   1.411  -7.768  1.00  0.00     0.072 C 
ATOM      6  C   UNL     1       5.246   1.839  -8.653  1.00  0.00     0.012 C 
ENDBRANCH   3   5
ENDBRANCH   1   3
BRANCH   1   7
ATOM      7  C   UNL     1       6.704  -1.532  -8.057  1.00  0.00     0.038 C 
BRANCH   7   8
ATOM      8  C   UNL     1       5.663  -1.977  -9.052  1.00  0.00    -0.034 C 
ATOM      9  C   UNL     1       4.415  -2.277  -8.681  1.00  0.00     0.004 C 
ENDBRANCH   7   8
ENDBRANCH   1   7
TORSDOF 4
ENDMDL
MODEL 4
REMARK VINA RESULT:    -3.176     17.312     18.767
REMARK INTER + INTRA:          -4.069
REMARK INTER:                  -3.567
REMARK INTRA:                  -0.502
REMARK UNBOUND:                -0.150
REMARK SMILES C=CC[C@@H](C)C(=O)CC
REMARK SMILES IDX 4 1 5 2 6 3 7 4 8 5 9 6 3 7 2 8 1 9
REMARK H PARENT
REMARK Flexibility Score: inf
ROOT
ATOM      1  C   UNL     1       6.754  -0.858  -6.353  1.00  0.00     0.057 C 
ATOM      2  C   UNL     1       6.809  -1.848  -5.181  1.00  0.00     0.016 C 
ENDROOT
BRANCH   1   3
ATOM      3  C   UNL     1       6.157  -1.540  -7.575  1.00  0.00     0.135 C 
ATOM      4  O   UNL     1       4.996  -1.916  -7.518  1.00  0.00    -0.299 OA
BRANCH   3   5
ATOM      5  C   UNL     1       6.900  -1.716  -8.881  1.00  0.00     0.072 C 
ATOM      6  C   UNL     1       8.369  -1.333  -8.743  1.00  0.00     0.012 C 
ENDBRANCH   3   5
ENDBRANCH   1   3
BRANCH   1   7
ATOM      7  C   UNL     1       6.022   0.446  -5.965  1.00  0.00     0.038 C 
BRANCH   7   8
ATOM      8  C   UNL     1       6.084   1.466  -7.073  1.00  0.00    -0.034 C 
ATOM      9  C   UNL     1       7.208   2.128  -7.362  1.00  0.00     0.004 C 
ENDBRANCH   7   8
ENDBRANCH   1   7
TORSDOF 4
ENDMDL
MODEL 5
REMARK VINA RESULT:    -3.171     15.377     17.303
REMARK INTER + INTRA:          -4.063
REMARK INTER:                  -3.734
REMARK INTRA:                  -0.329
REMARK UNBOUND:                -0.150
REMARK SMILES C=CC[C@@H](C)C(=O)CC
REMARK SMILES IDX 4 1 5 2 6 3 7 4 8 5 9 6 3 7 2 8 1 9
REMARK H PARENT
REMARK Flexibility Score: inf
ROOT
ATOM      1  C   UNL     1       6.335   1.486  -7.796  1.00  0.00     0.057 C 
ATOM      2  C   UNL     1       7.612   2.166  -7.283  1.00  0.00     0.016 C 
ENDROOT
BRANCH   1   3
ATOM      3  C   UNL     1       6.058   0.230  -6.983  1.00  0.00     0.135 C 
ATOM      4  O   UNL     1       5.431  -0.675  -7.514  1.00  0.00    -0.299 OA
BRANCH   3   5
ATOM      5  C   UNL     1       6.574   0.012  -5.578  1.00  0.00     0.072 C 
ATOM      6  C   UNL     1       6.947  -1.448  -5.343  1.00  0.00     0.012 C 
ENDBRANCH   3   5
ENDBRANCH   1   3
BRANCH   1   7
ATOM      7  C   UNL     1       5.140   2.465  -7.830  1.00  0.00     0.038 C 
BRANCH   7   8
ATOM      8  C   UNL     1       5.092   3.323  -6.592  1.00  0.00    -0.034 C 
ATOM      9  C   UNL     1       4.200   3.111  -5.620  1.00  0.00     0.004 C 
ENDBRANCH   7   8
ENDBRANCH   1   7
TORSDOF 4
ENDMDL
MODEL 6
REMARK VINA RESULT:    -3.160     17.604     18.598
REMARK INTER + INTRA:          -4.050
REMARK INTER:                  -3.600
REMARK INTRA:                  -0.450
REMARK UNBOUND:                -0.150
REMARK SMILES C=CC[C@@H](C)C(=O)CC
REMARK SMILES IDX 4 1 5 2 6 3 7 4 8 5 9 6 3 7 2 8 1 9
REMARK H PARENT
REMARK Flexibility Score: inf
ROOT
ATOM      1  C   UNL     1       6.535   0.605  -7.974  1.00  0.00     0.057 C 
ATOM      2  C   UNL     1       5.484   1.659  -8.354  1.00  0.00     0.016 C 
ENDROOT
BRANCH   1   3
ATOM      3  C   UNL     1       6.498   0.360  -6.473  1.00  0.00     0.135 C 
ATOM      4  O   UNL     1       5.593   0.867  -5.827  1.00  0.00    -0.299 OA
BRANCH   3   5
ATOM      5  C   UNL     1       7.478  -0.534  -5.746  1.00  0.00     0.072 C 
ATOM      6  C   UNL     1       6.801  -1.801  -5.234  1.00  0.00     0.012 C 
ENDBRANCH   3   5
ENDBRANCH   1   3
BRANCH   1   7
ATOM      7  C   UNL     1       6.376  -0.686  -8.806  1.00  0.00     0.038 C 
BRANCH   7   8
ATOM      8  C   UNL     1       4.932  -1.107  -8.905  1.00  0.00    -0.034 C 
ATOM      9  C   UNL     1       4.515  -2.306  -8.489  1.00  0.00     0.004 C 
ENDBRANCH   7   8
ENDBRANCH   1   7
TORSDOF 4
ENDMDL
MODEL 7
REMARK VINA RESULT:    -3.108     17.051     18.166
REMARK INTER + INTRA:          -3.984
REMARK INTER:                  -3.568
REMARK INTRA:                  -0.417
REMARK UNBOUND:                -0.150
REMARK SMILES C=CC[C@@H](C)C(=O)CC
REMARK SMILES IDX 4 1 5 2 6 3 7 4 8 5 9 6 3 7 2 8 1 9
REMARK H PARENT
REMARK Flexibility Score: inf
ROOT
ATOM      1  C   UNL     1       5.885   0.863  -7.004  1.00  0.00     0.057 C 
ATOM      2  C   UNL     1       5.931   2.397  -7.017  1.00  0.00     0.016 C 
ENDROOT
BRANCH   1   3
ATOM      3  C   UNL     1       5.549   0.345  -8.395  1.00  0.00     0.135 C 
ATOM      4  O   UNL     1       5.058   1.125  -9.198  1.00  0.00    -0.299 OA
BRANCH   3   5
ATOM      5  C   UNL     1       5.851  -1.061  -8.861  1.00  0.00     0.072 C 
ATOM      6  C   UNL     1       4.743  -2.030  -8.464  1.00  0.00     0.012 C 
ENDBRANCH   3   5
ENDBRANCH   1   3
BRANCH   1   7
ATOM      7  C   UNL     1       7.183   0.257  -6.427  1.00  0.00     0.038 C 
BRANCH   7   8
ATOM      8  C   UNL     1       6.907  -0.598  -5.217  1.00  0.00    -0.034 C 
ATOM      9  C   UNL     1       6.785  -1.925  -5.302  1.00  0.00     0.004 C 
ENDBRANCH   7   8
ENDBRANCH   1   7
TORSDOF 4
ENDMDL
MODEL 8
REMARK VINA RESULT:    -3.092     12.541     14.989
REMARK INTER + INTRA:          -3.965
REMARK INTER:                  -3.826
REMARK INTRA:                  -0.139
REMARK UNBOUND:                -0.150
REMARK SMILES C=CC[C@@H](C)C(=O)CC
REMARK SMILES IDX 4 1 5 2 6 3 7 4 8 5 9 6 3 7 2 8 1 9
REMARK H PARENT
REMARK Flexibility Score: inf
ROOT
ATOM      1  C   UNL     1      -9.838  -1.506  -4.980  1.00  0.00     0.057 C 
ATOM      2  C   UNL     1      -9.362  -2.261  -3.730  1.00  0.00     0.016 C 
ENDROOT
BRANCH   1   3
ATOM      3  C   UNL     1      -9.755  -0.006  -4.739  1.00  0.00     0.135 C 
ATOM      4  O   UNL     1      -9.330   0.383  -3.661  1.00  0.00    -0.299 OA
BRANCH   3   5
ATOM      5  C   UNL     1     -10.103   1.030  -5.784  1.00  0.00     0.072 C 
ATOM      6  C   UNL     1      -9.751   2.436  -5.312  1.00  0.00     0.012 C 
ENDBRANCH   3   5
ENDBRANCH   1   3
BRANCH   1   7
ATOM      7  C   UNL     1      -9.080  -1.962  -6.246  1.00  0.00     0.038 C 
BRANCH   7   8
ATOM      8  C   UNL     1      -9.459  -3.366  -6.643  1.00  0.00    -0.034 C 
ATOM      9  C   UNL     1      -9.297  -3.816  -7.890  1.00  0.00     0.004 C 
ENDBRANCH   7   8
ENDBRANCH   1   7
TORSDOF 4
ENDMDL
MODEL 9
REMARK VINA RESULT:    -3.057     15.323     17.304
REMARK INTER + INTRA:          -3.922
REMARK INTER:                  -3.722
REMARK INTRA:                  -0.200
REMARK UNBOUND:                -0.150
REMARK SMILES C=CC[C@@H](C)C(=O)CC
REMARK SMILES IDX 4 1 5 2 6 3 7 4 8 5 9 6 3 7 2 8 1 9
REMARK H PARENT
REMARK Flexibility Score: inf
ROOT
ATOM      1  C   UNL     1       6.400   1.203  -7.335  1.00  0.00     0.057 C 
ATOM      2  C   UNL     1       5.594   0.592  -8.490  1.00  0.00     0.016 C 
ENDROOT
BRANCH   1   3
ATOM      3  C   UNL     1       6.052   2.677  -7.186  1.00  0.00     0.135 C 
ATOM      4  O   UNL     1       6.968   3.481  -7.105  1.00  0.00    -0.299 OA
BRANCH   3   5
ATOM      5  C   UNL     1       4.636   3.208  -7.202  1.00  0.00     0.072 C 
ATOM      6  C   UNL     1       4.046   3.263  -5.798  1.00  0.00     0.012 C 
ENDBRANCH   3   5
ENDBRANCH   1   3
BRANCH   1   7
ATOM      7  C   UNL     1       6.222   0.401  -6.027  1.00  0.00     0.038 C 
BRANCH   7   8
ATOM      8  C   UNL     1       6.437  -1.074  -6.248  1.00  0.00    -0.034 C 
ATOM      9  C   UNL     1       6.819  -1.889  -5.260  1.00  0.00     0.004 C 
ENDBRANCH   7   8
ENDBRANCH   1   7
TORSDOF 4
ENDMDL
