MODEL 1
REMARK VINA RESULT:    -4.959      0.000      0.000
REMARK INTER + INTRA:          -5.769
REMARK INTER:                  -5.683
REMARK INTRA:                  -0.086
REMARK UNBOUND:                -0.086
REMARK SMILES COc1cc(C(=O)[O-])ccc1O
REMARK SMILES IDX 5 1 9 2 4 3 10 4 3 5 11 6 6 7 7 8 8 9 2 10 1 11 12 12
REMARK H PARENT 12 13
REMARK Flexibility Score: inf
ROOT
ATOM      1  C   UNL     1      -4.401  -2.637   5.393  1.00  0.00     0.001 A 
ATOM      2  C   UNL     1      -4.626  -2.947   4.042  1.00  0.00     0.014 A 
ATOM      3  C   UNL     1      -5.079  -1.547   5.965  1.00  0.00     0.060 A 
ATOM      4  C   UNL     1      -5.510  -2.184   3.279  1.00  0.00     0.051 A 
ATOM      5  C   UNL     1      -5.974  -0.771   5.199  1.00  0.00     0.161 A 
ATOM      6  C   UNL     1      -6.183  -1.100   3.848  1.00  0.00     0.157 A 
ENDROOT
BRANCH   1   7
ATOM      7  C   UNL     1      -3.464  -3.446   6.205  1.00  0.00     0.072 C 
ATOM      8  O   UNL     1      -3.778  -4.608   6.577  1.00  0.00    -0.545 OA
ATOM      9  O   UNL     1      -2.224  -2.934   6.568  1.00  0.00    -0.545 OA
ENDBRANCH   1   7
BRANCH   5  10
ATOM     10  O   UNL     1      -6.664   0.324   5.744  1.00  0.00    -0.493 OA
ATOM     11  C   UNL     1      -7.498   0.263   6.897  1.00  0.00     0.278 C 
ENDBRANCH   5  10
BRANCH   6  12
ATOM     12  O   UNL     1      -7.059  -0.359   3.054  1.00  0.00    -0.504 OA
ATOM     13  H   UNL     1      -7.381  -0.689   2.152  1.00  0.00     0.293 HD
ENDBRANCH   6  12
TORSDOF 3
ENDMDL
MODEL 2
REMARK VINA RESULT:    -4.709     13.587     14.778
REMARK INTER + INTRA:          -5.484
REMARK INTER:                  -5.406
REMARK INTRA:                  -0.078
REMARK UNBOUND:                -0.086
REMARK SMILES COc1cc(C(=O)[O-])ccc1O
REMARK SMILES IDX 5 1 9 2 4 3 10 4 3 5 11 6 6 7 7 8 8 9 2 10 1 11 12 12
REMARK H PARENT 12 13
REMARK Flexibility Score: inf
ROOT
ATOM      1  C   UNL     1      -1.048   6.928  -4.933  1.00  0.00     0.001 A 
ATOM      2  C   UNL     1      -2.210   6.139  -4.907  1.00  0.00     0.014 A 
ATOM      3  C   UNL     1       0.052   6.500  -5.696  1.00  0.00     0.060 A 
ATOM      4  C   UNL     1      -2.270   4.947  -5.629  1.00  0.00     0.051 A 
ATOM      5  C   UNL     1      -0.004   5.296  -6.428  1.00  0.00     0.161 A 
ATOM      6  C   UNL     1      -1.177   4.522  -6.388  1.00  0.00     0.157 A 
ENDROOT
BRANCH   1   7
ATOM      7  C   UNL     1      -0.981   8.194  -4.168  1.00  0.00     0.072 C 
ATOM      8  O   UNL     1      -1.985   8.952  -4.093  1.00  0.00    -0.545 OA
ATOM      9  O   UNL     1       0.192   8.564  -3.520  1.00  0.00    -0.545 OA
ENDBRANCH   1   7
BRANCH   5  10
ATOM     10  O   UNL     1       1.080   4.843  -7.199  1.00  0.00    -0.493 OA
ATOM     11  C   UNL     1       2.424   5.288  -7.045  1.00  0.00     0.278 C 
ENDBRANCH   5  10
BRANCH   6  12
ATOM     12  O   UNL     1      -1.274   3.324  -7.096  1.00  0.00    -0.504 OA
ATOM     13  H   UNL     1      -1.425   2.434  -6.636  1.00  0.00     0.293 HD
ENDBRANCH   6  12
TORSDOF 3
ENDMDL
MODEL 3
REMARK VINA RESULT:    -4.572     12.888     14.189
REMARK INTER + INTRA:          -5.326
REMARK INTER:                  -5.245
REMARK INTRA:                  -0.081
REMARK UNBOUND:                -0.086
REMARK SMILES COc1cc(C(=O)[O-])ccc1O
REMARK SMILES IDX 5 1 9 2 4 3 10 4 3 5 11 6 6 7 7 8 8 9 2 10 1 11 12 12
REMARK H PARENT 12 13
REMARK Flexibility Score: inf
ROOT
ATOM      1  C   UNL     1      -0.028   5.707  -6.089  1.00  0.00     0.001 A 
ATOM      2  C   UNL     1      -0.742   4.514  -6.290  1.00  0.00     0.014 A 
ATOM      3  C   UNL     1      -0.623   6.741  -5.345  1.00  0.00     0.060 A 
ATOM      4  C   UNL     1      -2.023   4.359  -5.759  1.00  0.00     0.051 A 
ATOM      5  C   UNL     1      -1.917   6.590  -4.806  1.00  0.00     0.161 A 
ATOM      6  C   UNL     1      -2.614   5.387  -5.021  1.00  0.00     0.157 A 
ENDROOT
BRANCH   1   7
ATOM      7  C   UNL     1       1.331   5.874  -6.650  1.00  0.00     0.072 C 
ATOM      8  O   UNL     1       1.925   6.982  -6.571  1.00  0.00    -0.545 OA
ATOM      9  O   UNL     1       1.971   4.809  -7.274  1.00  0.00    -0.545 OA
ENDBRANCH   1   7
BRANCH   5  10
ATOM     10  O   UNL     1      -2.536   7.607  -4.061  1.00  0.00    -0.493 OA
ATOM     11  C   UNL     1      -1.862   8.740  -3.524  1.00  0.00     0.278 C 
ENDBRANCH   5  10
BRANCH   6  12
ATOM     12  O   UNL     1      -3.897   5.196  -4.506  1.00  0.00    -0.504 OA
ATOM     13  H   UNL     1      -4.723   5.558  -4.967  1.00  0.00     0.293 HD
ENDBRANCH   6  12
TORSDOF 3
ENDMDL
MODEL 4
REMARK VINA RESULT:    -4.538     13.447     14.369
REMARK INTER + INTRA:          -5.287
REMARK INTER:                  -5.190
REMARK INTRA:                  -0.097
REMARK UNBOUND:                -0.086
REMARK SMILES COc1cc(C(=O)[O-])ccc1O
REMARK SMILES IDX 5 1 9 2 4 3 10 4 3 5 11 6 6 7 7 8 8 9 2 10 1 11 12 12
REMARK H PARENT 12 13
REMARK Flexibility Score: inf
ROOT
ATOM      1  C   UNL     1      -0.074   5.912  -5.585  1.00  0.00     0.001 A 
ATOM      2  C   UNL     1       1.142   6.301  -4.999  1.00  0.00     0.014 A 
ATOM      3  C   UNL     1      -1.240   6.636  -5.283  1.00  0.00     0.060 A 
ATOM      4  C   UNL     1       1.190   7.392  -4.130  1.00  0.00     0.051 A 
ATOM      5  C   UNL     1      -1.197   7.739  -4.406  1.00  0.00     0.161 A 
ATOM      6  C   UNL     1       0.030   8.111  -3.831  1.00  0.00     0.157 A 
ENDROOT
BRANCH   1   7
ATOM      7  C   UNL     1      -0.128   4.755  -6.508  1.00  0.00     0.072 C 
ATOM      8  O   UNL     1       0.710   4.641  -7.442  1.00  0.00    -0.545 OA
ATOM      9  O   UNL     1      -1.105   3.778  -6.356  1.00  0.00    -0.545 OA
ENDBRANCH   1   7
BRANCH   5  10
ATOM     10  O   UNL     1      -2.347   8.479  -4.085  1.00  0.00    -0.493 OA
ATOM     11  C   UNL     1      -3.277   8.129  -3.066  1.00  0.00     0.278 C 
ENDBRANCH   5  10
BRANCH   6  12
ATOM     12  O   UNL     1       0.118   9.195  -2.957  1.00  0.00    -0.504 OA
ATOM     13  H   UNL     1       0.202   9.076  -1.954  1.00  0.00     0.293 HD
ENDBRANCH   6  12
TORSDOF 3
ENDMDL
MODEL 5
REMARK VINA RESULT:    -4.531     14.762     16.155
REMARK INTER + INTRA:          -5.279
REMARK INTER:                  -5.184
REMARK INTRA:                  -0.095
REMARK UNBOUND:                -0.086
REMARK SMILES COc1cc(C(=O)[O-])ccc1O
REMARK SMILES IDX 5 1 9 2 4 3 10 4 3 5 11 6 6 7 7 8 8 9 2 10 1 11 12 12
REMARK H PARENT 12 13
REMARK Flexibility Score: inf
ROOT
ATOM      1  C   UNL     1      -1.374   5.335  -7.846  1.00  0.00     0.001 A 
ATOM      2  C   UNL     1      -2.008   4.605  -8.864  1.00  0.00     0.014 A 
ATOM      3  C   UNL     1      -1.693   6.694  -7.680  1.00  0.00     0.060 A 
ATOM      4  C   UNL     1      -2.943   5.221  -9.698  1.00  0.00     0.051 A 
ATOM      5  C   UNL     1      -2.637   7.321  -8.519  1.00  0.00     0.161 A 
ATOM      6  C   UNL     1      -3.260   6.571  -9.531  1.00  0.00     0.157 A 
ENDROOT
BRANCH   1   7
ATOM      7  C   UNL     1      -0.382   4.685  -6.960  1.00  0.00     0.072 C 
ATOM      8  O   UNL     1      -0.746   4.135  -5.886  1.00  0.00    -0.545 OA
ATOM      9  O   UNL     1       0.966   4.672  -7.301  1.00  0.00    -0.545 OA
ENDBRANCH   1   7
BRANCH   5  10
ATOM     10  O   UNL     1      -2.975   8.677  -8.375  1.00  0.00    -0.493 OA
ATOM     11  C   UNL     1      -2.242   9.758  -8.943  1.00  0.00     0.278 C 
ENDBRANCH   5  10
BRANCH   6  12
ATOM     12  O   UNL     1      -4.199   7.152 -10.385  1.00  0.00    -0.504 OA
ATOM     13  H   UNL     1      -4.187   6.999 -11.385  1.00  0.00     0.293 HD
ENDBRANCH   6  12
TORSDOF 3
ENDMDL
MODEL 6
REMARK VINA RESULT:    -4.506     14.455     15.280
REMARK INTER + INTRA:          -5.250
REMARK INTER:                  -5.151
REMARK INTRA:                  -0.099
REMARK UNBOUND:                -0.086
REMARK SMILES COc1cc(C(=O)[O-])ccc1O
REMARK SMILES IDX 5 1 9 2 4 3 10 4 3 5 11 6 6 7 7 8 8 9 2 10 1 11 12 12
REMARK H PARENT 12 13
REMARK Flexibility Score: inf
ROOT
ATOM      1  C   UNL     1       0.001   7.626  -4.633  1.00  0.00     0.001 A 
ATOM      2  C   UNL     1      -0.764   7.343  -5.777  1.00  0.00     0.014 A 
ATOM      3  C   UNL     1       1.156   6.866  -4.379  1.00  0.00     0.060 A 
ATOM      4  C   UNL     1      -0.381   6.323  -6.648  1.00  0.00     0.051 A 
ATOM      5  C   UNL     1       1.548   5.835  -5.257  1.00  0.00     0.161 A 
ATOM      6  C   UNL     1       0.768   5.569  -6.396  1.00  0.00     0.157 A 
ENDROOT
BRANCH   1   7
ATOM      7  C   UNL     1      -0.403   8.707  -3.706  1.00  0.00     0.072 C 
ATOM      8  O   UNL     1       0.461   9.467  -3.193  1.00  0.00    -0.545 OA
ATOM      9  O   UNL     1      -1.743   8.899  -3.389  1.00  0.00    -0.545 OA
ENDBRANCH   1   7
BRANCH   5  10
ATOM     10  O   UNL     1       2.697   5.060  -5.028  1.00  0.00    -0.493 OA
ATOM     11  C   UNL     1       4.031   5.509  -5.239  1.00  0.00     0.278 C 
ENDBRANCH   5  10
BRANCH   6  12
ATOM     12  O   UNL     1       1.119   4.557  -7.290  1.00  0.00    -0.504 OA
ATOM     13  H   UNL     1       0.900   3.584  -7.117  1.00  0.00     0.293 HD
ENDBRANCH   6  12
TORSDOF 3
ENDMDL
MODEL 7
REMARK VINA RESULT:    -4.492     14.058     15.144
REMARK INTER + INTRA:          -5.234
REMARK INTER:                  -5.135
REMARK INTRA:                  -0.098
REMARK UNBOUND:                -0.086
REMARK SMILES COc1cc(C(=O)[O-])ccc1O
REMARK SMILES IDX 5 1 9 2 4 3 10 4 3 5 11 6 6 7 7 8 8 9 2 10 1 11 12 12
REMARK H PARENT 12 13
REMARK Flexibility Score: inf
ROOT
ATOM      1  C   UNL     1       0.017   7.549  -4.780  1.00  0.00     0.001 A 
ATOM      2  C   UNL     1       1.269   7.828  -5.353  1.00  0.00     0.014 A 
ATOM      3  C   UNL     1      -0.612   6.327  -5.075  1.00  0.00     0.060 A 
ATOM      4  C   UNL     1       1.878   6.904  -6.203  1.00  0.00     0.051 A 
ATOM      5  C   UNL     1      -0.001   5.390  -5.933  1.00  0.00     0.161 A 
ATOM      6  C   UNL     1       1.252   5.690  -6.496  1.00  0.00     0.157 A 
ENDROOT
BRANCH   1   7
ATOM      7  C   UNL     1      -0.632   8.528  -3.878  1.00  0.00     0.072 C 
ATOM      8  O   UNL     1      -1.876   8.721  -3.931  1.00  0.00    -0.545 OA
ATOM      9  O   UNL     1       0.123   9.247  -2.959  1.00  0.00    -0.545 OA
ENDBRANCH   1   7
BRANCH   5  10
ATOM     10  O   UNL     1      -0.607   4.162  -6.246  1.00  0.00    -0.493 OA
ATOM     11  C   UNL     1      -1.572   3.976  -7.276  1.00  0.00     0.278 C 
ENDBRANCH   5  10
BRANCH   6  12
ATOM     12  O   UNL     1       1.892   4.792  -7.350  1.00  0.00    -0.504 OA
ATOM     13  H   UNL     1       1.651   3.808  -7.379  1.00  0.00     0.293 HD
ENDBRANCH   6  12
TORSDOF 3
ENDMDL
MODEL 8
REMARK VINA RESULT:    -4.417     16.679     17.906
REMARK INTER + INTRA:          -5.149
REMARK INTER:                  -5.072
REMARK INTRA:                  -0.076
REMARK UNBOUND:                -0.086
REMARK SMILES COc1cc(C(=O)[O-])ccc1O
REMARK SMILES IDX 5 1 9 2 4 3 10 4 3 5 11 6 6 7 7 8 8 9 2 10 1 11 12 12
REMARK H PARENT 12 13
REMARK Flexibility Score: inf
ROOT
ATOM      1  C   UNL     1       3.376   6.070  -6.432  1.00  0.00     0.001 A 
ATOM      2  C   UNL     1       3.974   5.542  -5.276  1.00  0.00     0.014 A 
ATOM      3  C   UNL     1       4.126   6.924  -7.259  1.00  0.00     0.060 A 
ATOM      4  C   UNL     1       5.294   5.862  -4.954  1.00  0.00     0.051 A 
ATOM      5  C   UNL     1       5.460   7.250  -6.939  1.00  0.00     0.161 A 
ATOM      6  C   UNL     1       6.038   6.711  -5.777  1.00  0.00     0.157 A 
ENDROOT
BRANCH   1   7
ATOM      7  C   UNL     1       1.977   5.733  -6.777  1.00  0.00     0.072 C 
ATOM      8  O   UNL     1       1.698   4.629  -7.318  1.00  0.00    -0.545 OA
ATOM      9  O   UNL     1       0.949   6.630  -6.507  1.00  0.00    -0.545 OA
ENDBRANCH   1   7
BRANCH   5  10
ATOM     10  O   UNL     1       6.232   8.102  -7.747  1.00  0.00    -0.493 OA
ATOM     11  C   UNL     1       6.138   8.176  -9.166  1.00  0.00     0.278 C 
ENDBRANCH   5  10
BRANCH   6  12
ATOM     12  O   UNL     1       7.355   7.008  -5.422  1.00  0.00    -0.504 OA
ATOM     13  H   UNL     1       7.762   6.695  -4.549  1.00  0.00     0.293 HD
ENDBRANCH   6  12
TORSDOF 3
ENDMDL
