MODEL 1
REMARK VINA RESULT:    -3.899      0.000      0.000
REMARK INTER + INTRA:          -7.721
REMARK INTER:                  -6.634
REMARK INTRA:                  -1.087
REMARK UNBOUND:                -1.087
REMARK SMILES CCCCCCCCCCCCCC(=O)[O-]
REMARK SMILES IDX 8 1 9 2 10 3 11 4 12 5 13 6 14 7 15 8 16 9 7 10 6 11 5 12
REMARK SMILES IDX 4 13 3 14 2 15 1 16
REMARK H PARENT
REMARK Flexibility Score: inf
ROOT
ATOM      1  C   UNL     1       1.958  -0.132   9.470  1.00  0.00     0.000 C 
ENDROOT
BRANCH   1   2
ATOM      2  C   UNL     1       1.339  -1.468   9.025  1.00  0.00     0.000 C 
BRANCH   2   3
ATOM      3  C   UNL     1       0.173  -1.276   8.040  1.00  0.00     0.000 C 
BRANCH   3   4
ATOM      4  C   UNL     1      -0.057   0.200   7.674  1.00  0.00     0.000 C 
BRANCH   4   5
ATOM      5  C   UNL     1      -1.437   0.716   8.122  1.00  0.00     0.006 C 
BRANCH   5   6
ATOM      6  C   UNL     1      -2.229  -0.276   8.990  1.00  0.00     0.053 C 
BRANCH   6   7
ATOM      7  C   UNL     1      -3.709  -0.120   8.812  1.00  0.00     0.041 C 
ATOM      8  O   UNL     1      -4.263   0.984   9.055  1.00  0.00    -0.550 OA
ATOM      9  O   UNL     1      -4.480  -1.205   8.414  1.00  0.00    -0.550 OA
ENDBRANCH   6   7
ENDBRANCH   5   6
ENDBRANCH   4   5
ENDBRANCH   3   4
ENDBRANCH   2   3
ENDBRANCH   1   2
BRANCH   1  10
ATOM     10  C   UNL     1       3.490  -0.197   9.572  1.00  0.00     0.000 C 
BRANCH  10  11
ATOM     11  C   UNL     1       4.167   1.144   9.239  1.00  0.00    -0.000 C 
BRANCH  11  12
ATOM     12  C   UNL     1       3.241   2.078   8.432  1.00  0.00    -0.000 C 
BRANCH  12  13
ATOM     13  C   UNL     1       3.998   3.110   7.577  1.00  0.00    -0.000 C 
BRANCH  13  14
ATOM     14  C   UNL     1       3.058   4.023   6.774  1.00  0.00    -0.000 C 
BRANCH  14  15
ATOM     15  C   UNL     1       1.575   3.686   7.000  1.00  0.00    -0.003 C 
ATOM     16  C   UNL     1       0.660   4.898   6.833  1.00  0.00     0.004 C 
ENDBRANCH  14  15
ENDBRANCH  13  14
ENDBRANCH  12  13
ENDBRANCH  11  12
ENDBRANCH  10  11
ENDBRANCH   1  10
TORSDOF 12
ENDMDL
MODEL 2
REMARK VINA RESULT:    -3.875      4.486      7.226
REMARK INTER + INTRA:          -7.680
REMARK INTER:                  -6.798
REMARK INTRA:                  -0.882
REMARK UNBOUND:                -1.087
REMARK SMILES CCCCCCCCCCCCCC(=O)[O-]
REMARK SMILES IDX 8 1 9 2 10 3 11 4 12 5 13 6 14 7 15 8 16 9 7 10 6 11 5 12
REMARK SMILES IDX 4 13 3 14 2 15 1 16
REMARK H PARENT
REMARK Flexibility Score: inf
ROOT
ATOM      1  C   UNL     1       2.131  -0.683   9.362  1.00  0.00     0.000 C 
ENDROOT
BRANCH   1   2
ATOM      2  C   UNL     1       3.607  -0.873   9.750  1.00  0.00     0.000 C 
BRANCH   2   3
ATOM      3  C   UNL     1       4.424   0.421   9.603  1.00  0.00     0.000 C 
BRANCH   3   4
ATOM      4  C   UNL     1       3.622   1.557   8.944  1.00  0.00     0.000 C 
BRANCH   4   5
ATOM      5  C   UNL     1       4.441   2.330   7.892  1.00  0.00     0.006 C 
BRANCH   5   6
ATOM      6  C   UNL     1       5.918   1.912   7.812  1.00  0.00     0.053 C 
BRANCH   6   7
ATOM      7  C   UNL     1       6.825   3.089   7.616  1.00  0.00     0.041 C 
ATOM      8  O   UNL     1       7.921   2.951   7.013  1.00  0.00    -0.550 OA
ATOM      9  O   UNL     1       6.474   4.330   8.133  1.00  0.00    -0.550 OA
ENDBRANCH   6   7
ENDBRANCH   5   6
ENDBRANCH   4   5
ENDBRANCH   3   4
ENDBRANCH   2   3
ENDBRANCH   1   2
BRANCH   1  10
ATOM     10  C   UNL     1       1.496  -1.969   8.808  1.00  0.00     0.000 C 
BRANCH  10  11
ATOM     11  C   UNL     1       0.216  -1.701   7.997  1.00  0.00    -0.000 C 
BRANCH  11  12
ATOM     12  C   UNL     1      -0.096  -0.193   7.885  1.00  0.00    -0.000 C 
BRANCH  12  13
ATOM     13  C   UNL     1      -1.497   0.188   8.395  1.00  0.00    -0.000 C 
BRANCH  13  14
ATOM     14  C   UNL     1      -2.079  -0.849   9.369  1.00  0.00    -0.000 C 
BRANCH  14  15
ATOM     15  C   UNL     1      -3.599  -1.015   9.212  1.00  0.00    -0.003 C 
ATOM     16  C   UNL     1      -4.216   0.028   8.281  1.00  0.00     0.004 C 
ENDBRANCH  14  15
ENDBRANCH  13  14
ENDBRANCH  12  13
ENDBRANCH  11  12
ENDBRANCH  10  11
ENDBRANCH   1  10
TORSDOF 12
ENDMDL
MODEL 3
REMARK VINA RESULT:    -3.831      4.535      6.727
REMARK INTER + INTRA:          -7.605
REMARK INTER:                  -6.380
REMARK INTRA:                  -1.224
REMARK UNBOUND:                -1.087
REMARK SMILES CCCCCCCCCCCCCC(=O)[O-]
REMARK SMILES IDX 8 1 9 2 10 3 11 4 12 5 13 6 14 7 15 8 16 9 7 10 6 11 5 12
REMARK SMILES IDX 4 13 3 14 2 15 1 16
REMARK H PARENT
REMARK Flexibility Score: inf
ROOT
ATOM      1  C   UNL     1       2.391  -0.668   9.360  1.00  0.00     0.000 C 
ENDROOT
BRANCH   1   2
ATOM      2  C   UNL     1       3.831  -0.916   9.842  1.00  0.00     0.000 C 
BRANCH   2   3
ATOM      3  C   UNL     1       4.776   0.246   9.492  1.00  0.00     0.000 C 
BRANCH   3   4
ATOM      4  C   UNL     1       4.020   1.523   9.087  1.00  0.00     0.000 C 
BRANCH   4   5
ATOM      5  C   UNL     1       4.696   2.268   7.920  1.00  0.00     0.006 C 
BRANCH   5   6
ATOM      6  C   UNL     1       6.118   1.779   7.599  1.00  0.00     0.053 C 
BRANCH   6   7
ATOM      7  C   UNL     1       7.118   2.894   7.641  1.00  0.00     0.041 C 
ATOM      8  O   UNL     1       6.804   4.042   7.231  1.00  0.00    -0.550 OA
ATOM      9  O   UNL     1       8.407   2.654   8.099  1.00  0.00    -0.550 OA
ENDBRANCH   6   7
ENDBRANCH   5   6
ENDBRANCH   4   5
ENDBRANCH   3   4
ENDBRANCH   2   3
ENDBRANCH   1   2
BRANCH   1  10
ATOM     10  C   UNL     1       1.669  -1.966   8.965  1.00  0.00     0.000 C 
BRANCH  10  11
ATOM     11  C   UNL     1       0.261  -1.716   8.397  1.00  0.00    -0.000 C 
BRANCH  11  12
ATOM     12  C   UNL     1       0.142  -0.331   7.726  1.00  0.00    -0.000 C 
BRANCH  12  13
ATOM     13  C   UNL     1      -1.094   0.468   8.175  1.00  0.00    -0.000 C 
BRANCH  13  14
ATOM     14  C   UNL     1      -0.754   1.908   8.593  1.00  0.00    -0.000 C 
BRANCH  14  15
ATOM     15  C   UNL     1       0.597   2.380   8.031  1.00  0.00    -0.003 C 
ATOM     16  C   UNL     1       1.004   3.759   8.548  1.00  0.00     0.004 C 
ENDBRANCH  14  15
ENDBRANCH  13  14
ENDBRANCH  12  13
ENDBRANCH  11  12
ENDBRANCH  10  11
ENDBRANCH   1  10
TORSDOF 12
ENDMDL
MODEL 4
REMARK VINA RESULT:    -3.814      3.158      6.393
REMARK INTER + INTRA:          -7.576
REMARK INTER:                  -6.717
REMARK INTRA:                  -0.859
REMARK UNBOUND:                -1.087
REMARK SMILES CCCCCCCCCCCCCC(=O)[O-]
REMARK SMILES IDX 8 1 9 2 10 3 11 4 12 5 13 6 14 7 15 8 16 9 7 10 6 11 5 12
REMARK SMILES IDX 4 13 3 14 2 15 1 16
REMARK H PARENT
REMARK Flexibility Score: inf
ROOT
ATOM      1  C   UNL     1       1.717  -0.742   9.820  1.00  0.00     0.000 C 
ENDROOT
BRANCH   1   2
ATOM      2  C   UNL     1       3.192  -0.347   9.635  1.00  0.00     0.000 C 
BRANCH   2   3
ATOM      3  C   UNL     1       3.356   1.095   9.127  1.00  0.00     0.000 C 
BRANCH   3   4
ATOM      4  C   UNL     1       4.827   1.475   8.884  1.00  0.00     0.000 C 
BRANCH   4   5
ATOM      5  C   UNL     1       5.015   2.346   7.627  1.00  0.00     0.006 C 
BRANCH   5   6
ATOM      6  C   UNL     1       4.649   3.825   7.825  1.00  0.00     0.053 C 
BRANCH   6   7
ATOM      7  C   UNL     1       3.658   4.299   6.806  1.00  0.00     0.041 C 
ATOM      8  O   UNL     1       3.953   5.243   6.027  1.00  0.00    -0.550 OA
ATOM      9  O   UNL     1       2.396   3.722   6.742  1.00  0.00    -0.550 OA
ENDBRANCH   6   7
ENDBRANCH   5   6
ENDBRANCH   4   5
ENDBRANCH   3   4
ENDBRANCH   2   3
ENDBRANCH   1   2
BRANCH   1  10
ATOM     10  C   UNL     1       1.276  -1.849   8.849  1.00  0.00     0.000 C 
BRANCH  10  11
ATOM     11  C   UNL     1       0.052  -1.450   8.006  1.00  0.00    -0.000 C 
BRANCH  11  12
ATOM     12  C   UNL     1       0.013   0.066   7.718  1.00  0.00    -0.000 C 
BRANCH  12  13
ATOM     13  C   UNL     1      -1.340   0.722   8.043  1.00  0.00    -0.000 C 
BRANCH  13  14
ATOM     14  C   UNL     1      -2.260  -0.187   8.873  1.00  0.00    -0.000 C 
BRANCH  14  15
ATOM     15  C   UNL     1      -3.729  -0.100   8.429  1.00  0.00    -0.003 C 
ATOM     16  C   UNL     1      -4.561  -1.293   8.898  1.00  0.00     0.004 C 
ENDBRANCH  14  15
ENDBRANCH  13  14
ENDBRANCH  12  13
ENDBRANCH  11  12
ENDBRANCH  10  11
ENDBRANCH   1  10
TORSDOF 12
ENDMDL
MODEL 5
REMARK VINA RESULT:    -3.753     11.764     12.728
REMARK INTER + INTRA:          -7.473
REMARK INTER:                  -5.416
REMARK INTRA:                  -2.058
REMARK UNBOUND:                -1.087
REMARK SMILES CCCCCCCCCCCCCC(=O)[O-]
REMARK SMILES IDX 8 1 9 2 10 3 11 4 12 5 13 6 14 7 15 8 16 9 7 10 6 11 5 12
REMARK SMILES IDX 4 13 3 14 2 15 1 16
REMARK H PARENT
REMARK Flexibility Score: inf
ROOT
ATOM      1  C   UNL     1       2.980  -0.689  -4.262  1.00  0.00     0.000 C 
ENDROOT
BRANCH   1   2
ATOM      2  C   UNL     1       1.609  -1.343  -4.015  1.00  0.00     0.000 C 
BRANCH   2   3
ATOM      3  C   UNL     1       1.333  -1.582  -2.521  1.00  0.00     0.000 C 
BRANCH   3   4
ATOM      4  C   UNL     1       0.962  -3.043  -2.214  1.00  0.00     0.000 C 
BRANCH   4   5
ATOM      5  C   UNL     1      -0.254  -3.531  -3.025  1.00  0.00     0.006 C 
BRANCH   5   6
ATOM      6  C   UNL     1      -0.506  -5.045  -2.936  1.00  0.00     0.053 C 
BRANCH   6   7
ATOM      7  C   UNL     1      -1.306  -5.410  -1.722  1.00  0.00     0.041 C 
ATOM      8  O   UNL     1      -2.545  -5.192  -1.692  1.00  0.00    -0.550 OA
ATOM      9  O   UNL     1      -0.674  -5.957  -0.612  1.00  0.00    -0.550 OA
ENDBRANCH   6   7
ENDBRANCH   5   6
ENDBRANCH   4   5
ENDBRANCH   3   4
ENDBRANCH   2   3
ENDBRANCH   1   2
BRANCH   1  10
ATOM     10  C   UNL     1       3.883  -0.723  -3.019  1.00  0.00     0.000 C 
BRANCH  10  11
ATOM     11  C   UNL     1       5.344  -1.071  -3.352  1.00  0.00    -0.000 C 
BRANCH  11  12
ATOM     12  C   UNL     1       5.530  -2.575  -3.649  1.00  0.00    -0.000 C 
BRANCH  12  13
ATOM     13  C   UNL     1       4.789  -3.495  -2.663  1.00  0.00    -0.000 C 
BRANCH  13  14
ATOM     14  C   UNL     1       4.015  -4.622  -3.365  1.00  0.00    -0.000 C 
BRANCH  14  15
ATOM     15  C   UNL     1       3.801  -4.344  -4.861  1.00  0.00    -0.003 C 
ATOM     16  C   UNL     1       2.404  -4.736  -5.342  1.00  0.00     0.004 C 
ENDBRANCH  14  15
ENDBRANCH  13  14
ENDBRANCH  12  13
ENDBRANCH  11  12
ENDBRANCH  10  11
ENDBRANCH   1  10
TORSDOF 12
ENDMDL
MODEL 6
REMARK VINA RESULT:    -3.748      2.939      6.163
REMARK INTER + INTRA:          -7.464
REMARK INTER:                  -5.779
REMARK INTRA:                  -1.685
REMARK UNBOUND:                -1.087
REMARK SMILES CCCCCCCCCCCCCC(=O)[O-]
REMARK SMILES IDX 8 1 9 2 10 3 11 4 12 5 13 6 14 7 15 8 16 9 7 10 6 11 5 12
REMARK SMILES IDX 4 13 3 14 2 15 1 16
REMARK H PARENT
REMARK Flexibility Score: inf
ROOT
ATOM      1  C   UNL     1       0.039  -0.603   7.721  1.00  0.00     0.000 C 
ENDROOT
BRANCH   1   2
ATOM      2  C   UNL     1       0.498  -1.013   9.131  1.00  0.00     0.000 C 
BRANCH   2   3
ATOM      3  C   UNL     1       2.023  -1.181   9.227  1.00  0.00     0.000 C 
BRANCH   3   4
ATOM      4  C   UNL     1       2.711   0.018   9.902  1.00  0.00     0.000 C 
BRANCH   4   5
ATOM      5  C   UNL     1       3.219   1.060   8.888  1.00  0.00     0.006 C 
BRANCH   5   6
ATOM      6  C   UNL     1       2.545   2.437   9.007  1.00  0.00     0.053 C 
BRANCH   6   7
ATOM      7  C   UNL     1       2.568   3.187   7.710  1.00  0.00     0.041 C 
ATOM      8  O   UNL     1       1.490   3.508   7.145  1.00  0.00    -0.550 OA
ATOM      9  O   UNL     1       3.781   3.498   7.109  1.00  0.00    -0.550 OA
ENDBRANCH   6   7
ENDBRANCH   5   6
ENDBRANCH   4   5
ENDBRANCH   3   4
ENDBRANCH   2   3
ENDBRANCH   1   2
BRANCH   1  10
ATOM     10  C   UNL     1      -0.711   0.738   7.710  1.00  0.00     0.000 C 
BRANCH  10  11
ATOM     11  C   UNL     1      -0.908   1.322   9.120  1.00  0.00    -0.000 C 
BRANCH  11  12
ATOM     12  C   UNL     1      -2.318   1.922   9.309  1.00  0.00    -0.000 C 
BRANCH  12  13
ATOM     13  C   UNL     1      -3.361   0.904   9.805  1.00  0.00    -0.000 C 
BRANCH  13  14
ATOM     14  C   UNL     1      -4.290   0.409   8.686  1.00  0.00    -0.000 C 
BRANCH  14  15
ATOM     15  C   UNL     1      -4.381  -1.124   8.631  1.00  0.00    -0.003 C 
ATOM     16  C   UNL     1      -3.302  -1.811   9.467  1.00  0.00     0.004 C 
ENDBRANCH  14  15
ENDBRANCH  13  14
ENDBRANCH  12  13
ENDBRANCH  11  12
ENDBRANCH  10  11
ENDBRANCH   1  10
TORSDOF 12
ENDMDL
MODEL 7
REMARK VINA RESULT:    -3.703     11.492     12.534
REMARK INTER + INTRA:          -7.388
REMARK INTER:                  -5.944
REMARK INTRA:                  -1.445
REMARK UNBOUND:                -1.087
REMARK SMILES CCCCCCCCCCCCCC(=O)[O-]
REMARK SMILES IDX 8 1 9 2 10 3 11 4 12 5 13 6 14 7 15 8 16 9 7 10 6 11 5 12
REMARK SMILES IDX 4 13 3 14 2 15 1 16
REMARK H PARENT
REMARK Flexibility Score: inf
ROOT
ATOM      1  C   UNL     1       1.400  -1.132  -5.032  1.00  0.00     0.000 C 
ENDROOT
BRANCH   1   2
ATOM      2  C   UNL     1       0.953  -0.600  -3.660  1.00  0.00     0.000 C 
BRANCH   2   3
ATOM      3  C   UNL     1       1.238  -1.595  -2.522  1.00  0.00     0.000 C 
BRANCH   3   4
ATOM      4  C   UNL     1       0.600  -2.974  -2.767  1.00  0.00     0.000 C 
BRANCH   4   5
ATOM      5  C   UNL     1       1.336  -4.108  -2.030  1.00  0.00     0.006 C 
BRANCH   5   6
ATOM      6  C   UNL     1       0.498  -5.382  -1.834  1.00  0.00     0.053 C 
BRANCH   6   7
ATOM      7  C   UNL     1      -0.641  -5.163  -0.885  1.00  0.00     0.041 C 
ATOM      8  O   UNL     1      -1.828  -5.190  -1.302  1.00  0.00    -0.550 OA
ATOM      9  O   UNL     1      -0.387  -4.893   0.454  1.00  0.00    -0.550 OA
ENDBRANCH   6   7
ENDBRANCH   5   6
ENDBRANCH   4   5
ENDBRANCH   3   4
ENDBRANCH   2   3
ENDBRANCH   1   2
BRANCH   1  10
ATOM     10  C   UNL     1       2.376  -0.183  -5.744  1.00  0.00     0.000 C 
BRANCH  10  11
ATOM     11  C   UNL     1       3.842  -0.637  -5.628  1.00  0.00    -0.000 C 
BRANCH  11  12
ATOM     12  C   UNL     1       4.703   0.373  -4.840  1.00  0.00    -0.000 C 
BRANCH  12  13
ATOM     13  C   UNL     1       5.438  -0.249  -3.639  1.00  0.00    -0.000 C 
BRANCH  13  14
ATOM     14  C   UNL     1       4.565  -1.240  -2.853  1.00  0.00    -0.000 C 
BRANCH  14  15
ATOM     15  C   UNL     1       5.194  -2.640  -2.770  1.00  0.00    -0.003 C 
ATOM     16  C   UNL     1       4.470  -3.667  -3.639  1.00  0.00     0.004 C 
ENDBRANCH  14  15
ENDBRANCH  13  14
ENDBRANCH  12  13
ENDBRANCH  11  12
ENDBRANCH  10  11
ENDBRANCH   1  10
TORSDOF 12
ENDMDL
MODEL 8
REMARK VINA RESULT:    -3.684      4.711      7.600
REMARK INTER + INTRA:          -7.355
REMARK INTER:                  -6.261
REMARK INTRA:                  -1.094
REMARK UNBOUND:                -1.087
REMARK SMILES CCCCCCCCCCCCCC(=O)[O-]
REMARK SMILES IDX 8 1 9 2 10 3 11 4 12 5 13 6 14 7 15 8 16 9 7 10 6 11 5 12
REMARK SMILES IDX 4 13 3 14 2 15 1 16
REMARK H PARENT
REMARK Flexibility Score: inf
ROOT
ATOM      1  C   UNL     1       1.283   1.988   8.789  1.00  0.00     0.000 C 
ENDROOT
BRANCH   1   2
ATOM      2  C   UNL     1       2.189   3.140   8.321  1.00  0.00     0.000 C 
BRANCH   2   3
ATOM      3  C   UNL     1       3.614   2.669   7.985  1.00  0.00     0.000 C 
BRANCH   3   4
ATOM      4  C   UNL     1       4.089   1.523   8.895  1.00  0.00     0.000 C 
BRANCH   4   5
ATOM      5  C   UNL     1       5.623   1.386   8.927  1.00  0.00     0.006 C 
BRANCH   5   6
ATOM      6  C   UNL     1       6.322   1.833   7.633  1.00  0.00     0.053 C 
BRANCH   6   7
ATOM      7  C   UNL     1       7.380   2.862   7.893  1.00  0.00     0.041 C 
ATOM      8  O   UNL     1       7.444   3.898   7.180  1.00  0.00    -0.550 OA
ATOM      9  O   UNL     1       8.316   2.658   8.899  1.00  0.00    -0.550 OA
ENDBRANCH   6   7
ENDBRANCH   5   6
ENDBRANCH   4   5
ENDBRANCH   3   4
ENDBRANCH   2   3
ENDBRANCH   1   2
BRANCH   1  10
ATOM     10  C   UNL     1      -0.102   2.019   8.125  1.00  0.00     0.000 C 
BRANCH  10  11
ATOM     11  C   UNL     1      -0.801   0.648   8.139  1.00  0.00    -0.000 C 
BRANCH  11  12
ATOM     12  C   UNL     1       0.133  -0.485   7.663  1.00  0.00    -0.000 C 
BRANCH  12  13
ATOM     13  C   UNL     1      -0.134  -1.835   8.352  1.00  0.00    -0.000 C 
BRANCH  13  14
ATOM     14  C   UNL     1       1.156  -2.543   8.797  1.00  0.00    -0.000 C 
BRANCH  14  15
ATOM     15  C   UNL     1       2.196  -1.566   9.369  1.00  0.00    -0.003 C 
ATOM     16  C   UNL     1       3.489  -2.260   9.793  1.00  0.00     0.004 C 
ENDBRANCH  14  15
ENDBRANCH  13  14
ENDBRANCH  12  13
ENDBRANCH  11  12
ENDBRANCH  10  11
ENDBRANCH   1  10
TORSDOF 12
ENDMDL
MODEL 9
REMARK VINA RESULT:    -3.644     11.863     12.735
REMARK INTER + INTRA:          -7.287
REMARK INTER:                  -5.325
REMARK INTRA:                  -1.961
REMARK UNBOUND:                -1.087
REMARK SMILES CCCCCCCCCCCCCC(=O)[O-]
REMARK SMILES IDX 8 1 9 2 10 3 11 4 12 5 13 6 14 7 15 8 16 9 7 10 6 11 5 12
REMARK SMILES IDX 4 13 3 14 2 15 1 16
REMARK H PARENT
REMARK Flexibility Score: inf
ROOT
ATOM      1  C   UNL     1       2.331  -2.444  -5.540  1.00  0.00     0.000 C 
ENDROOT
BRANCH   1   2
ATOM      2  C   UNL     1       1.007  -2.005  -4.891  1.00  0.00     0.000 C 
BRANCH   2   3
ATOM      3  C   UNL     1       1.225  -1.165  -3.621  1.00  0.00     0.000 C 
BRANCH   3   4
ATOM      4  C   UNL     1       1.196  -2.013  -2.337  1.00  0.00     0.000 C 
BRANCH   4   5
ATOM      5  C   UNL     1       0.333  -3.280  -2.482  1.00  0.00     0.006 C 
BRANCH   5   6
ATOM      6  C   UNL     1       0.826  -4.478  -1.653  1.00  0.00     0.053 C 
BRANCH   6   7
ATOM      7  C   UNL     1      -0.257  -5.047  -0.789  1.00  0.00     0.041 C 
ATOM      8  O   UNL     1      -1.182  -5.731  -1.301  1.00  0.00    -0.550 OA
ATOM      9  O   UNL     1      -0.264  -4.791   0.577  1.00  0.00    -0.550 OA
ENDBRANCH   6   7
ENDBRANCH   5   6
ENDBRANCH   4   5
ENDBRANCH   3   4
ENDBRANCH   2   3
ENDBRANCH   1   2
BRANCH   1  10
ATOM     10  C   UNL     1       2.614  -3.943  -5.348  1.00  0.00     0.000 C 
BRANCH  10  11
ATOM     11  C   UNL     1       3.647  -4.218  -4.242  1.00  0.00    -0.000 C 
BRANCH  11  12
ATOM     12  C   UNL     1       5.092  -3.962  -4.720  1.00  0.00    -0.000 C 
BRANCH  12  13
ATOM     13  C   UNL     1       5.768  -2.765  -4.029  1.00  0.00    -0.000 C 
BRANCH  13  14
ATOM     14  C   UNL     1       4.904  -2.154  -2.914  1.00  0.00    -0.000 C 
BRANCH  14  15
ATOM     15  C   UNL     1       4.711  -0.638  -3.084  1.00  0.00    -0.003 C 
ATOM     16  C   UNL     1       5.114  -0.141  -4.472  1.00  0.00     0.004 C 
ENDBRANCH  14  15
ENDBRANCH  13  14
ENDBRANCH  12  13
ENDBRANCH  11  12
ENDBRANCH  10  11
ENDBRANCH   1  10
TORSDOF 12
ENDMDL
