MODEL 1
REMARK VINA RESULT:    -4.087      0.000      0.000
REMARK INTER + INTRA:          -4.087
REMARK INTER:                  -4.087
REMARK INTRA:                   0.000
REMARK UNBOUND:                 0.000
REMARK SMILES CC1(C)O[C@]2(C)CC[C@H]1CC2
REMARK SMILES IDX 1 1 2 2 9 3 10 4 11 5 5 6 4 7 7 8 8 9 6 10 3 11
REMARK H PARENT
REMARK Flexibility Score: inf
ROOT
ATOM      1  C   UNL     1     116.516 118.920 114.375  1.00  0.00     0.042 C 
ATOM      2  C   UNL     1     117.277 118.333 113.167  1.00  0.00     0.066 C 
ATOM      3  C   UNL     1     118.822 118.631 113.282  1.00  0.00     0.021 C 
ATOM      4  C   UNL     1     119.365 117.915 114.543  1.00  0.00     0.009 C 
ATOM      5  C   UNL     1     118.941 116.427 114.505  1.00  0.00     0.035 C 
ATOM      6  C   UNL     1     118.191 116.126 113.175  1.00  0.00     0.066 C 
ATOM      7  O   UNL     1     117.009 116.924 113.112  1.00  0.00    -0.369 OA
ATOM      8  C   UNL     1     119.118 116.490 111.979  1.00  0.00     0.035 C 
ATOM      9  C   UNL     1     119.538 117.977 112.076  1.00  0.00     0.009 C 
ATOM     10  C   UNL     1     117.794 114.647 113.110  1.00  0.00     0.042 C 
ATOM     11  C   UNL     1     116.690 118.983 111.895  1.00  0.00     0.042 C 
ENDROOT
TORSDOF 0
ENDMDL
MODEL 2
REMARK VINA RESULT:    -4.056      1.224      2.858
REMARK INTER + INTRA:          -4.056
REMARK INTER:                  -4.056
REMARK INTRA:                   0.000
REMARK UNBOUND:                 0.000
REMARK SMILES CC1(C)O[C@]2(C)CC[C@H]1CC2
REMARK SMILES IDX 1 1 2 2 9 3 10 4 11 5 5 6 4 7 7 8 8 9 6 10 3 11
REMARK H PARENT
REMARK Flexibility Score: inf
ROOT
ATOM      1  C   UNL     1     116.768 115.512 113.616  1.00  0.00     0.042 C 
ATOM      2  C   UNL     1     118.013 116.307 113.167  1.00  0.00     0.066 C 
ATOM      3  C   UNL     1     117.599 117.723 112.608  1.00  0.00     0.021 C 
ATOM      4  C   UNL     1     116.944 118.530 113.755  1.00  0.00     0.009 C 
ATOM      5  C   UNL     1     117.879 118.512 114.988  1.00  0.00     0.035 C 
ATOM      6  C   UNL     1     119.201 117.769 114.637  1.00  0.00     0.066 C 
ATOM      7  O   UNL     1     118.901 116.416 114.289  1.00  0.00    -0.369 OA
ATOM      8  C   UNL     1     119.868 118.473 113.420  1.00  0.00     0.035 C 
ATOM      9  C   UNL     1     118.886 118.492 112.223  1.00  0.00     0.009 C 
ATOM     10  C   UNL     1     120.150 117.772 115.840  1.00  0.00     0.042 C 
ATOM     11  C   UNL     1     118.720 115.475 112.075  1.00  0.00     0.042 C 
ENDROOT
TORSDOF 0
ENDMDL
MODEL 3
REMARK VINA RESULT:    -4.054      1.632      3.269
REMARK INTER + INTRA:          -4.054
REMARK INTER:                  -4.054
REMARK INTRA:                   0.000
REMARK UNBOUND:                 0.000
REMARK SMILES CC1(C)O[C@]2(C)CC[C@H]1CC2
REMARK SMILES IDX 1 1 2 2 9 3 10 4 11 5 5 6 4 7 7 8 8 9 6 10 3 11
REMARK H PARENT
REMARK Flexibility Score: inf
ROOT
ATOM      1  C   UNL     1     118.042 117.262 114.105  1.00  0.00     0.042 C 
ATOM      2  C   UNL     1     118.040 116.116 113.071  1.00  0.00     0.066 C 
ATOM      3  C   UNL     1     118.477 114.757 113.744  1.00  0.00     0.021 C 
ATOM      4  C   UNL     1     117.430 114.387 114.823  1.00  0.00     0.009 C 
ATOM      5  C   UNL     1     116.016 114.435 114.197  1.00  0.00     0.035 C 
ATOM      6  C   UNL     1     116.122 114.748 112.677  1.00  0.00     0.066 C 
ATOM      7  O   UNL     1     116.726 116.030 112.503  1.00  0.00    -0.369 OA
ATOM      8  C   UNL     1     117.015 113.667 112.000  1.00  0.00     0.035 C 
ATOM      9  C   UNL     1     118.406 113.638 112.677  1.00  0.00     0.009 C 
ATOM     10  C   UNL     1     114.729 114.765 112.038  1.00  0.00     0.042 C 
ATOM     11  C   UNL     1     119.024 116.509 111.947  1.00  0.00     0.042 C 
ENDROOT
TORSDOF 0
ENDMDL
MODEL 4
REMARK VINA RESULT:    -4.050      2.948      4.869
REMARK INTER + INTRA:          -4.050
REMARK INTER:                  -4.050
REMARK INTRA:                   0.000
REMARK UNBOUND:                 0.000
REMARK SMILES CC1(C)O[C@]2(C)CC[C@H]1CC2
REMARK SMILES IDX 1 1 2 2 9 3 10 4 11 5 5 6 4 7 7 8 8 9 6 10 3 11
REMARK H PARENT
REMARK Flexibility Score: inf
ROOT
ATOM      1  C   UNL     1     116.711 114.203 114.353  1.00  0.00     0.042 C 
ATOM      2  C   UNL     1     115.910 114.804 113.179  1.00  0.00     0.066 C 
ATOM      3  C   UNL     1     114.377 114.450 113.309  1.00  0.00     0.021 C 
ATOM      4  C   UNL     1     113.833 115.104 114.602  1.00  0.00     0.009 C 
ATOM      5  C   UNL     1     114.207 116.606 114.610  1.00  0.00     0.035 C 
ATOM      6  C   UNL     1     114.923 116.978 113.279  1.00  0.00     0.066 C 
ATOM      7  O   UNL     1     116.130 116.222 113.169  1.00  0.00    -0.369 OA
ATOM      8  C   UNL     1     113.988 116.623 112.086  1.00  0.00     0.035 C 
ATOM      9  C   UNL     1     113.619 115.120 112.138  1.00  0.00     0.009 C 
ATOM     10  C   UNL     1     115.269 118.470 113.260  1.00  0.00     0.042 C 
ATOM     11  C   UNL     1     116.496 114.219 111.875  1.00  0.00     0.042 C 
ENDROOT
TORSDOF 0
ENDMDL
MODEL 5
REMARK VINA RESULT:    -4.048      1.933      3.509
REMARK INTER + INTRA:          -4.048
REMARK INTER:                  -4.048
REMARK INTRA:                   0.000
REMARK UNBOUND:                 0.000
REMARK SMILES CC1(C)O[C@]2(C)CC[C@H]1CC2
REMARK SMILES IDX 1 1 2 2 9 3 10 4 11 5 5 6 4 7 7 8 8 9 6 10 3 11
REMARK H PARENT
REMARK Flexibility Score: inf
ROOT
ATOM      1  C   UNL     1     115.173 115.802 114.037  1.00  0.00     0.042 C 
ATOM      2  C   UNL     1     115.128 116.993 113.056  1.00  0.00     0.066 C 
ATOM      3  C   UNL     1     114.730 118.321 113.807  1.00  0.00     0.021 C 
ATOM      4  C   UNL     1     115.829 118.642 114.849  1.00  0.00     0.009 C 
ATOM      5  C   UNL     1     117.211 118.621 114.153  1.00  0.00     0.035 C 
ATOM      6  C   UNL     1     117.030 118.374 112.628  1.00  0.00     0.066 C 
ATOM      7  O   UNL     1     116.414 117.101 112.427  1.00  0.00    -0.369 OA
ATOM      8  C   UNL     1     116.108 119.484 112.042  1.00  0.00     0.035 C 
ATOM      9  C   UNL     1     114.752 119.485 112.788  1.00  0.00     0.009 C 
ATOM     10  C   UNL     1     118.389 118.384 111.921  1.00  0.00     0.042 C 
ATOM     11  C   UNL     1     114.090 116.650 111.965  1.00  0.00     0.042 C 
ENDROOT
TORSDOF 0
ENDMDL
MODEL 6
REMARK VINA RESULT:    -4.027      1.905      4.118
REMARK INTER + INTRA:          -4.027
REMARK INTER:                  -4.027
REMARK INTRA:                   0.000
REMARK UNBOUND:                 0.000
REMARK SMILES CC1(C)O[C@]2(C)CC[C@H]1CC2
REMARK SMILES IDX 1 1 2 2 9 3 10 4 11 5 5 6 4 7 7 8 8 9 6 10 3 11
REMARK H PARENT
REMARK Flexibility Score: inf
ROOT
ATOM      1  C   UNL     1     117.762 116.745 113.697  1.00  0.00     0.042 C 
ATOM      2  C   UNL     1     116.933 117.951 113.206  1.00  0.00     0.066 C 
ATOM      3  C   UNL     1     115.553 117.473 112.608  1.00  0.00     0.021 C 
ATOM      4  C   UNL     1     114.737 116.801 113.739  1.00  0.00     0.009 C 
ATOM      5  C   UNL     1     114.679 117.752 114.959  1.00  0.00     0.035 C 
ATOM      6  C   UNL     1     115.379 119.097 114.612  1.00  0.00     0.066 C 
ATOM      7  O   UNL     1     116.753 118.848 114.311  1.00  0.00    -0.369 OA
ATOM      8  C   UNL     1     114.688 119.720 113.364  1.00  0.00     0.035 C 
ATOM      9  C   UNL     1     114.746 118.722 112.181  1.00  0.00     0.009 C 
ATOM     10  C   UNL     1     115.299 120.061 115.801  1.00  0.00     0.042 C 
ATOM     11  C   UNL     1     117.770 118.677 112.130  1.00  0.00     0.042 C 
ENDROOT
TORSDOF 0
ENDMDL
MODEL 7
REMARK VINA RESULT:    -3.974      1.870      3.588
REMARK INTER + INTRA:          -3.974
REMARK INTER:                  -3.974
REMARK INTRA:                   0.000
REMARK UNBOUND:                 0.000
REMARK SMILES CC1(C)O[C@]2(C)CC[C@H]1CC2
REMARK SMILES IDX 1 1 2 2 9 3 10 4 11 5 5 6 4 7 7 8 8 9 6 10 3 11
REMARK H PARENT
REMARK Flexibility Score: inf
ROOT
ATOM      1  C   UNL     1     115.075 119.627 114.990  1.00  0.00     0.042 C 
ATOM      2  C   UNL     1     115.159 118.326 114.164  1.00  0.00     0.066 C 
ATOM      3  C   UNL     1     114.448 118.505 112.767  1.00  0.00     0.021 C 
ATOM      4  C   UNL     1     115.209 119.591 111.967  1.00  0.00     0.009 C 
ATOM      5  C   UNL     1     116.717 119.245 111.946  1.00  0.00     0.035 C 
ATOM      6  C   UNL     1     116.955 117.879 112.653  1.00  0.00     0.066 C 
ATOM      7  O   UNL     1     116.544 117.979 114.017  1.00  0.00    -0.369 OA
ATOM      8  C   UNL     1     116.103 116.787 111.943  1.00  0.00     0.035 C 
ATOM      9  C   UNL     1     114.609 117.191 111.965  1.00  0.00     0.009 C 
ATOM     10  C   UNL     1     118.441 117.508 112.610  1.00  0.00     0.042 C 
ATOM     11  C   UNL     1     114.471 117.214 114.987  1.00  0.00     0.042 C 
ENDROOT
TORSDOF 0
ENDMDL
MODEL 8
REMARK VINA RESULT:    -3.955      3.075      4.151
REMARK INTER + INTRA:          -3.955
REMARK INTER:                  -3.955
REMARK INTRA:                   0.000
REMARK UNBOUND:                 0.000
REMARK SMILES CC1(C)O[C@]2(C)CC[C@H]1CC2
REMARK SMILES IDX 1 1 2 2 9 3 10 4 11 5 5 6 4 7 7 8 8 9 6 10 3 11
REMARK H PARENT
REMARK Flexibility Score: inf
ROOT
ATOM      1  C   UNL     1     116.582 117.761 113.500  1.00  0.00     0.042 C 
ATOM      2  C   UNL     1     115.370 116.936 113.019  1.00  0.00     0.066 C 
ATOM      3  C   UNL     1     115.836 115.547 112.433  1.00  0.00     0.021 C 
ATOM      4  C   UNL     1     116.503 114.736 113.571  1.00  0.00     0.009 C 
ATOM      5  C   UNL     1     115.554 114.698 114.793  1.00  0.00     0.035 C 
ATOM      6  C   UNL     1     114.213 115.405 114.441  1.00  0.00     0.066 C 
ATOM      7  O   UNL     1     114.473 116.773 114.127  1.00  0.00    -0.369 OA
ATOM      8  C   UNL     1     113.583 114.707 113.201  1.00  0.00     0.035 C 
ATOM      9  C   UNL     1     114.579 114.745 112.016  1.00  0.00     0.009 C 
ATOM     10  C   UNL     1     113.251 115.344 115.632  1.00  0.00     0.042 C 
ATOM     11  C   UNL     1     114.648 117.769 111.936  1.00  0.00     0.042 C 
ENDROOT
TORSDOF 0
ENDMDL
MODEL 9
REMARK VINA RESULT:    -3.916      1.535      3.761
REMARK INTER + INTRA:          -3.916
REMARK INTER:                  -3.916
REMARK INTRA:                   0.000
REMARK UNBOUND:                 0.000
REMARK SMILES CC1(C)O[C@]2(C)CC[C@H]1CC2
REMARK SMILES IDX 1 1 2 2 9 3 10 4 11 5 5 6 4 7 7 8 8 9 6 10 3 11
REMARK H PARENT
REMARK Flexibility Score: inf
ROOT
ATOM      1  C   UNL     1     115.396 114.812 111.875  1.00  0.00     0.042 C 
ATOM      2  C   UNL     1     116.167 114.987 113.201  1.00  0.00     0.066 C 
ATOM      3  C   UNL     1     117.372 113.972 113.285  1.00  0.00     0.021 C 
ATOM      4  C   UNL     1     118.366 114.298 112.144  1.00  0.00     0.009 C 
ATOM      5  C   UNL     1     118.717 115.805 112.189  1.00  0.00     0.035 C 
ATOM      6  C   UNL     1     118.028 116.470 113.416  1.00  0.00     0.066 C 
ATOM      7  O   UNL     1     116.612 116.349 113.281  1.00  0.00    -0.369 OA
ATOM      8  C   UNL     1     118.482 115.734 114.711  1.00  0.00     0.035 C 
ATOM      9  C   UNL     1     118.136 114.228 114.606  1.00  0.00     0.009 C 
ATOM     10  C   UNL     1     118.395 117.955 113.492  1.00  0.00     0.042 C 
ATOM     11  C   UNL     1     115.165 114.741 114.350  1.00  0.00     0.042 C 
ENDROOT
TORSDOF 0
ENDMDL
