MODEL 1
REMARK VINA RESULT:    -6.592      0.000      0.000
REMARK INTER + INTRA:          -9.962
REMARK INTER:                  -9.675
REMARK INTRA:                  -0.287
REMARK UNBOUND:                -0.287
REMARK SMILES CC(C)(O)CC[C@@H](O)[C@](C)(O)[C@H]1CC[C@@]2(O)C3=CC(=O)[C@@H]4C[C@@H](O)[C@H](O)C[C@@]4(C)[C@H]3CC[C@]12C
REMARK SMILES IDX 6 1 7 2 9 3 10 4 12 5 34 6 33 7 32 8 15 9 31 10 17 11 14 12
REMARK SMILES IDX 13 13 30 14 18 15 28 16 19 17 21 18 27 19 29 20 20 21 22 22
REMARK SMILES IDX 25 23 23 24 16 25 26 27 24 29 11 31 8 33 5 35 2 36 1 37 3 38
REMARK SMILES IDX 4 39
REMARK H PARENT 16 26 26 28 24 30 11 32 8 34 4 40
REMARK Flexibility Score: inf
ROOT
ATOM      1  C   UNL     1      14.102  17.579  15.030  1.00  0.00     0.038 C 
ENDROOT
BRANCH   1   2
ATOM      2  C   UNL     1      13.191  18.829  14.980  1.00  0.00     0.146 C 
BRANCH   2   3
ATOM      3  C   UNL     1      11.900  18.687  14.082  1.00  0.00     0.091 C 
ATOM      4  C   UNL     1      11.616  17.183  13.848  1.00  0.00     0.045 C 
BRANCH   3   5
ATOM      5  C   UNL     1      10.549  19.400  14.545  1.00  0.00     0.032 C 
ATOM      6  C   UNL     1       8.888  18.990  12.593  1.00  0.00     0.015 C 
ATOM      7  C   UNL     1       9.108  18.930  14.144  1.00  0.00     0.006 C 
ATOM      8  C   UNL     1       8.662  17.531  14.655  1.00  0.00     0.011 C 
ATOM      9  C   UNL     1       8.262  20.015  14.881  1.00  0.00     0.092 C 
ATOM     10  C   UNL     1       7.136  17.297  14.453  1.00  0.00     0.009 C 
ATOM     11  C   UNL     1       6.792  19.782  14.572  1.00  0.00    -0.031 C 
ATOM     12  C   UNL     1       8.965  21.319  14.469  1.00  0.00     0.041 C 
ATOM     13  C   UNL     1      10.465  20.955  14.472  1.00  0.00     0.010 C 
ATOM     14  C   UNL     1       6.265  18.430  15.084  1.00  0.00     0.025 C 
ATOM     15  C   UNL     1       6.091  20.554  13.717  1.00  0.00     0.050 C 
ATOM     16  C   UNL     1       4.699  18.299  14.919  1.00  0.00    -0.013 C 
ATOM     17  C   UNL     1       4.804  20.103  13.164  1.00  0.00     0.159 C 
ATOM     18  C   UNL     1       4.336  18.698  13.452  1.00  0.00     0.070 C 
ATOM     19  C   UNL     1       4.162  16.860  15.271  1.00  0.00     0.042 C 
ATOM     20  C   UNL     1       4.028  19.285  15.927  1.00  0.00     0.013 C 
ATOM     21  O   UNL     1       4.164  20.854  12.380  1.00  0.00    -0.295 OA
ATOM     22  C   UNL     1       2.847  18.466  13.123  1.00  0.00     0.047 C 
ATOM     23  C   UNL     1       3.462  16.151  14.095  1.00  0.00     0.143 C 
ATOM     24  C   UNL     1       2.346  17.050  13.523  1.00  0.00     0.143 C 
BRANCH   9  25
ATOM     25  O   UNL     1       8.417  19.883  16.282  1.00  0.00    -0.385 OA
ATOM     26  H   UNL     1       8.615  20.783  16.655  1.00  0.00     0.211 HD
ENDBRANCH   9  25
BRANCH  23  27
ATOM     27  O   UNL     1       2.897  14.944  14.538  1.00  0.00    -0.390 OA
ATOM     28  H   UNL     1       3.313  14.218  14.002  1.00  0.00     0.211 HD
ENDBRANCH  23  27
BRANCH  24  29
ATOM     29  O   UNL     1       1.770  16.409  12.414  1.00  0.00    -0.390 OA
ATOM     30  H   UNL     1       1.248  15.642  12.766  1.00  0.00     0.211 HD
ENDBRANCH  24  29
ENDBRANCH   3   5
BRANCH   3  31
ATOM     31  O   UNL     1      12.215  19.194  12.802  1.00  0.00    -0.387 OA
ATOM     32  H   UNL     1      11.372  19.324  12.299  1.00  0.00     0.211 HD
ENDBRANCH   3  31
ENDBRANCH   2   3
BRANCH   2  33
ATOM     33  O   UNL     1      13.970  19.895  14.486  1.00  0.00    -0.390 OA
ATOM     34  H   UNL     1      14.306  19.638  13.589  1.00  0.00     0.211 HD
ENDBRANCH   2  33
ENDBRANCH   1   2
BRANCH   1  35
ATOM     35  C   UNL     1      14.437  17.078  16.455  1.00  0.00     0.037 C 
BRANCH  35  36
ATOM     36  C   UNL     1      14.243  15.550  16.722  1.00  0.00     0.059 C 
ATOM     37  C   UNL     1      15.451  15.020  17.524  1.00  0.00     0.042 C 
ATOM     38  C   UNL     1      14.168  14.775  15.387  1.00  0.00     0.042 C 
BRANCH  36  39
ATOM     39  O   UNL     1      13.071  15.339  17.474  1.00  0.00    -0.390 OA
ATOM     40  H   UNL     1      12.450  14.784  16.931  1.00  0.00     0.211 HD
ENDBRANCH  36  39
ENDBRANCH  35  36
ENDBRANCH   1  35
TORSDOF 11
ENDMDL
MODEL 2
REMARK VINA RESULT:    -5.801      2.618      9.966
REMARK INTER + INTRA:          -8.801
REMARK INTER:                  -7.719
REMARK INTRA:                  -1.083
REMARK UNBOUND:                -0.287
REMARK SMILES CC(C)(O)CC[C@@H](O)[C@](C)(O)[C@H]1CC[C@@]2(O)C3=CC(=O)[C@@H]4C[C@@H](O)[C@H](O)C[C@@]4(C)[C@H]3CC[C@]12C
REMARK SMILES IDX 6 1 7 2 9 3 10 4 12 5 34 6 33 7 32 8 15 9 31 10 17 11 14 12
REMARK SMILES IDX 13 13 30 14 18 15 28 16 19 17 21 18 27 19 29 20 20 21 22 22
REMARK SMILES IDX 25 23 23 24 16 25 26 27 24 29 11 31 8 33 5 35 2 36 1 37 3 38
REMARK SMILES IDX 4 39
REMARK H PARENT 16 26 26 28 24 30 11 32 8 34 4 40
REMARK Flexibility Score: inf
ROOT
ATOM      1  C   UNL     1       7.856  18.953  13.403  1.00  0.00     0.038 C 
ENDROOT
BRANCH   1   2
ATOM      2  C   UNL     1       9.139  18.463  14.116  1.00  0.00     0.146 C 
BRANCH   2   3
ATOM      3  C   UNL     1       9.256  16.899  14.295  1.00  0.00     0.091 C 
ATOM      4  C   UNL     1       8.691  16.207  13.030  1.00  0.00     0.045 C 
BRANCH   3   5
ATOM      5  C   UNL     1      10.678  16.261  14.640  1.00  0.00     0.032 C 
ATOM      6  C   UNL     1      12.312  17.339  12.934  1.00  0.00     0.015 C 
ATOM      7  C   UNL     1      12.054  16.985  14.440  1.00  0.00     0.006 C 
ATOM      8  C   UNL     1      12.306  18.256  15.299  1.00  0.00     0.011 C 
ATOM      9  C   UNL     1      13.018  15.860  14.932  1.00  0.00     0.092 C 
ATOM     10  C   UNL     1      13.793  18.714  15.238  1.00  0.00     0.009 C 
ATOM     11  C   UNL     1      14.452  16.338  14.766  1.00  0.00    -0.031 C 
ATOM     12  C   UNL     1      12.498  14.625  14.179  1.00  0.00     0.041 C 
ATOM     13  C   UNL     1      10.963  14.794  14.194  1.00  0.00     0.010 C 
ATOM     14  C   UNL     1      14.790  17.573  15.618  1.00  0.00     0.025 C 
ATOM     15  C   UNL     1      15.263  15.892  13.785  1.00  0.00     0.050 C 
ATOM     16  C   UNL     1      16.328  17.928  15.570  1.00  0.00    -0.013 C 
ATOM     17  C   UNL     1      16.493  16.617  13.425  1.00  0.00     0.159 C 
ATOM     18  C   UNL     1      16.769  17.952  14.071  1.00  0.00     0.070 C 
ATOM     19  C   UNL     1      16.669  19.288  16.290  1.00  0.00     0.042 C 
ATOM     20  C   UNL     1      17.101  16.811  16.341  1.00  0.00     0.013 C 
ATOM     21  O   UNL     1      17.239  16.167  12.516  1.00  0.00    -0.295 OA
ATOM     22  C   UNL     1      18.223  18.436  13.885  1.00  0.00     0.047 C 
ATOM     23  C   UNL     1      17.295  20.346  15.360  1.00  0.00     0.143 C 
ATOM     24  C   UNL     1      18.529  19.758  14.644  1.00  0.00     0.143 C 
BRANCH   9  25
ATOM     25  O   UNL     1      12.820  15.621  16.313  1.00  0.00    -0.385 OA
ATOM     26  H   UNL     1      13.711  15.471  16.729  1.00  0.00     0.211 HD
ENDBRANCH   9  25
BRANCH  23  27
ATOM     27  O   UNL     1      17.690  21.464  16.112  1.00  0.00    -0.390 OA
ATOM     28  H   UNL     1      18.624  21.673  15.847  1.00  0.00     0.211 HD
ENDBRANCH  23  27
BRANCH  24  29
ATOM     29  O   UNL     1      19.039  20.718  13.756  1.00  0.00    -0.390 OA
ATOM     30  H   UNL     1      18.629  20.535  12.871  1.00  0.00     0.211 HD
ENDBRANCH  24  29
ENDBRANCH   3   5
BRANCH   3  31
ATOM     31  O   UNL     1       8.374  16.523  15.332  1.00  0.00    -0.387 OA
ATOM     32  H   UNL     1       8.815  15.828  15.883  1.00  0.00     0.211 HD
ENDBRANCH   3  31
ENDBRANCH   2   3
BRANCH   2  33
ATOM     33  O   UNL     1       9.167  19.068  15.389  1.00  0.00    -0.390 OA
ATOM     34  H   UNL     1       9.764  18.529  15.970  1.00  0.00     0.211 HD
ENDBRANCH   2  33
ENDBRANCH   1   2
BRANCH   1  35
ATOM     35  C   UNL     1       6.946  19.864  14.260  1.00  0.00     0.037 C 
BRANCH  35  36
ATOM     36  C   UNL     1       5.890  19.148  15.163  1.00  0.00     0.059 C 
ATOM     37  C   UNL     1       5.395  17.873  14.447  1.00  0.00     0.042 C 
ATOM     38  C   UNL     1       4.676  20.072  15.407  1.00  0.00     0.042 C 
BRANCH  36  39
ATOM     39  O   UNL     1       6.477  18.781  16.390  1.00  0.00    -0.390 OA
ATOM     40  H   UNL     1       7.439  19.031  16.361  1.00  0.00     0.211 HD
ENDBRANCH  36  39
ENDBRANCH  35  36
ENDBRANCH   1  35
TORSDOF 11
ENDMDL
MODEL 3
REMARK VINA RESULT:    -5.759      3.244      6.491
REMARK INTER + INTRA:          -8.740
REMARK INTER:                  -8.321
REMARK INTRA:                  -0.419
REMARK UNBOUND:                -0.287
REMARK SMILES CC(C)(O)CC[C@@H](O)[C@](C)(O)[C@H]1CC[C@@]2(O)C3=CC(=O)[C@@H]4C[C@@H](O)[C@H](O)C[C@@]4(C)[C@H]3CC[C@]12C
REMARK SMILES IDX 6 1 7 2 9 3 10 4 12 5 34 6 33 7 32 8 15 9 31 10 17 11 14 12
REMARK SMILES IDX 13 13 30 14 18 15 28 16 19 17 21 18 27 19 29 20 20 21 22 22
REMARK SMILES IDX 25 23 23 24 16 25 26 27 24 29 11 31 8 33 5 35 2 36 1 37 3 38
REMARK SMILES IDX 4 39
REMARK H PARENT 16 26 26 28 24 30 11 32 8 34 4 40
REMARK Flexibility Score: inf
ROOT
ATOM      1  C   UNL     1      17.256  18.911  16.440  1.00  0.00     0.038 C 
ENDROOT
BRANCH   1   2
ATOM      2  C   UNL     1      17.855  17.718  15.656  1.00  0.00     0.146 C 
BRANCH   2   3
ATOM      3  C   UNL     1      16.897  16.476  15.483  1.00  0.00     0.091 C 
ATOM      4  C   UNL     1      16.305  16.104  16.864  1.00  0.00     0.045 C 
BRANCH   3   5
ATOM      5  C   UNL     1      15.710  16.553  14.418  1.00  0.00     0.032 C 
ATOM      6  C   UNL     1      13.582  15.913  15.761  1.00  0.00     0.015 C 
ATOM      7  C   UNL     1      14.227  16.933  14.760  1.00  0.00     0.006 C 
ATOM      8  C   UNL     1      13.978  18.373  15.289  1.00  0.00     0.011 C 
ATOM      9  C   UNL     1      13.591  16.815  13.339  1.00  0.00     0.092 C 
ATOM     10  C   UNL     1      12.463  18.731  15.313  1.00  0.00     0.009 C 
ATOM     11  C   UNL     1      12.100  17.091  13.447  1.00  0.00    -0.031 C 
ATOM     12  C   UNL     1      14.116  15.454  12.853  1.00  0.00     0.041 C 
ATOM     13  C   UNL     1      15.567  15.401  13.377  1.00  0.00     0.010 C 
ATOM     14  C   UNL     1      11.773  18.514  13.929  1.00  0.00     0.025 C 
ATOM     15  C   UNL     1      11.168  16.118  13.381  1.00  0.00     0.050 C 
ATOM     16  C   UNL     1      10.227  18.831  13.848  1.00  0.00    -0.013 C 
ATOM     17  C   UNL     1       9.790  16.350  13.844  1.00  0.00     0.159 C 
ATOM     18  C   UNL     1       9.460  17.652  14.529  1.00  0.00     0.070 C 
ATOM     19  C   UNL     1       9.848  20.215  14.500  1.00  0.00     0.042 C 
ATOM     20  C   UNL     1       9.837  18.927  12.339  1.00  0.00     0.013 C 
ATOM     21  O   UNL     1       8.938  15.427  13.754  1.00  0.00    -0.295 OA
ATOM     22  C   UNL     1       7.944  17.918  14.647  1.00  0.00     0.047 C 
ATOM     23  C   UNL     1       8.867  20.099  15.683  1.00  0.00     0.143 C 
ATOM     24  C   UNL     1       7.612  19.309  15.255  1.00  0.00     0.143 C 
BRANCH   9  25
ATOM     25  O   UNL     1      14.133  17.802  12.481  1.00  0.00    -0.385 OA
ATOM     26  H   UNL     1      13.858  17.583  11.551  1.00  0.00     0.211 HD
ENDBRANCH   9  25
BRANCH  23  27
ATOM     27  O   UNL     1       8.481  21.381  16.106  1.00  0.00    -0.390 OA
ATOM     28  H   UNL     1       9.189  22.009  15.804  1.00  0.00     0.211 HD
ENDBRANCH  23  27
BRANCH  24  29
ATOM     29  O   UNL     1       6.768  19.161  16.368  1.00  0.00    -0.390 OA
ATOM     30  H   UNL     1       6.590  18.190  16.464  1.00  0.00     0.211 HD
ENDBRANCH  24  29
ENDBRANCH   3   5
BRANCH   3  31
ATOM     31  O   UNL     1      17.697  15.368  15.127  1.00  0.00    -0.387 OA
ATOM     32  H   UNL     1      17.111  14.667  14.747  1.00  0.00     0.211 HD
ENDBRANCH   3  31
ENDBRANCH   2   3
BRANCH   2  33
ATOM     33  O   UNL     1      19.013  17.304  16.346  1.00  0.00    -0.390 OA
ATOM     34  H   UNL     1      18.824  17.355  17.319  1.00  0.00     0.211 HD
ENDBRANCH   2  33
ENDBRANCH   1   2
BRANCH   1  35
ATOM     35  C   UNL     1      17.908  20.280  16.134  1.00  0.00     0.037 C 
BRANCH  35  36
ATOM     36  C   UNL     1      18.934  20.817  17.184  1.00  0.00     0.059 C 
ATOM     37  C   UNL     1      18.179  21.221  18.468  1.00  0.00     0.042 C 
ATOM     38  C   UNL     1      19.664  22.064  16.635  1.00  0.00     0.042 C 
BRANCH  36  39
ATOM     39  O   UNL     1      19.866  19.809  17.503  1.00  0.00    -0.390 OA
ATOM     40  H   UNL     1      19.414  19.140  18.082  1.00  0.00     0.211 HD
ENDBRANCH  36  39
ENDBRANCH  35  36
ENDBRANCH   1  35
TORSDOF 11
ENDMDL
MODEL 4
REMARK VINA RESULT:    -5.746      1.208      2.010
REMARK INTER + INTRA:          -8.721
REMARK INTER:                  -8.377
REMARK INTRA:                  -0.344
REMARK UNBOUND:                -0.287
REMARK SMILES CC(C)(O)CC[C@@H](O)[C@](C)(O)[C@H]1CC[C@@]2(O)C3=CC(=O)[C@@H]4C[C@@H](O)[C@H](O)C[C@@]4(C)[C@H]3CC[C@]12C
REMARK SMILES IDX 6 1 7 2 9 3 10 4 12 5 34 6 33 7 32 8 15 9 31 10 17 11 14 12
REMARK SMILES IDX 13 13 30 14 18 15 28 16 19 17 21 18 27 19 29 20 20 21 22 22
REMARK SMILES IDX 25 23 23 24 16 25 26 27 24 29 11 31 8 33 5 35 2 36 1 37 3 38
REMARK SMILES IDX 4 39
REMARK H PARENT 16 26 26 28 24 30 11 32 8 34 4 40
REMARK Flexibility Score: inf
ROOT
ATOM      1  C   UNL     1      13.588  17.963  16.039  1.00  0.00     0.038 C 
ENDROOT
BRANCH   1   2
ATOM      2  C   UNL     1      13.144  16.921  14.984  1.00  0.00     0.146 C 
BRANCH   2   3
ATOM      3  C   UNL     1      12.161  17.462  13.874  1.00  0.00     0.091 C 
ATOM      4  C   UNL     1      11.639  16.265  13.042  1.00  0.00     0.045 C 
BRANCH   3   5
ATOM      5  C   UNL     1      10.920  18.367  14.309  1.00  0.00     0.032 C 
ATOM      6  C   UNL     1       9.192  18.074  12.393  1.00  0.00     0.015 C 
ATOM      7  C   UNL     1       9.425  18.066  13.944  1.00  0.00     0.006 C 
ATOM      8  C   UNL     1       8.809  16.766  14.532  1.00  0.00     0.011 C 
ATOM      9  C   UNL     1       8.736  19.289  14.628  1.00  0.00     0.092 C 
ATOM     10  C   UNL     1       7.263  16.721  14.353  1.00  0.00     0.009 C 
ATOM     11  C   UNL     1       7.243  19.232  14.343  1.00  0.00    -0.031 C 
ATOM     12  C   UNL     1       9.595  20.468  14.142  1.00  0.00     0.041 C 
ATOM     13  C   UNL     1      11.035  19.914  14.154  1.00  0.00     0.010 C 
ATOM     14  C   UNL     1       6.554  17.988  14.929  1.00  0.00     0.025 C 
ATOM     15  C   UNL     1       6.636  20.043  13.453  1.00  0.00     0.050 C 
ATOM     16  C   UNL     1       4.983  18.051  14.783  1.00  0.00    -0.013 C 
ATOM     17  C   UNL     1       5.294  19.734  12.934  1.00  0.00     0.159 C 
ATOM     18  C   UNL     1       4.654  18.418  13.300  1.00  0.00     0.070 C 
ATOM     19  C   UNL     1       4.269  16.714  15.215  1.00  0.00     0.042 C 
ATOM     20  C   UNL     1       4.458  19.167  15.742  1.00  0.00     0.013 C 
ATOM     21  O   UNL     1       4.745  20.520  12.116  1.00  0.00    -0.295 OA
ATOM     22  C   UNL     1       3.142  18.364  12.994  1.00  0.00     0.047 C 
ATOM     23  C   UNL     1       3.468  16.042  14.084  1.00  0.00     0.143 C 
ATOM     24  C   UNL     1       2.469  17.047  13.473  1.00  0.00     0.143 C 
BRANCH   9  25
ATOM     25  O   UNL     1       8.892  19.210  16.033  1.00  0.00    -0.385 OA
ATOM     26  H   UNL     1       8.037  18.877  16.418  1.00  0.00     0.211 HD
ENDBRANCH   9  25
BRANCH  23  27
ATOM     27  O   UNL     1       2.759  14.943  14.594  1.00  0.00    -0.390 OA
ATOM     28  H   UNL     1       2.911  14.932  15.575  1.00  0.00     0.211 HD
ENDBRANCH  23  27
BRANCH  24  29
ATOM     29  O   UNL     1       1.800  16.430  12.403  1.00  0.00    -0.390 OA
ATOM     30  H   UNL     1       1.807  17.076  11.650  1.00  0.00     0.211 HD
ENDBRANCH  24  29
ENDBRANCH   3   5
BRANCH   3  31
ATOM     31  O   UNL     1      12.926  18.223  12.963  1.00  0.00    -0.387 OA
ATOM     32  H   UNL     1      13.548  18.798  13.478  1.00  0.00     0.211 HD
ENDBRANCH   3  31
ENDBRANCH   2   3
BRANCH   2  33
ATOM     33  O   UNL     1      12.510  15.870  15.676  1.00  0.00    -0.390 OA
ATOM     34  H   UNL     1      12.770  15.932  16.632  1.00  0.00     0.211 HD
ENDBRANCH   2  33
ENDBRANCH   1   2
BRANCH   1  35
ATOM     35  C   UNL     1      15.089  17.913  16.408  1.00  0.00     0.037 C 
BRANCH  35  36
ATOM     36  C   UNL     1      16.065  18.701  15.475  1.00  0.00     0.059 C 
ATOM     37  C   UNL     1      16.912  17.696  14.665  1.00  0.00     0.042 C 
ATOM     38  C   UNL     1      17.021  19.579  16.314  1.00  0.00     0.042 C 
BRANCH  36  39
ATOM     39  O   UNL     1      15.330  19.502  14.578  1.00  0.00    -0.390 OA
ATOM     40  H   UNL     1      15.880  20.298  14.351  1.00  0.00     0.211 HD
ENDBRANCH  36  39
ENDBRANCH  35  36
ENDBRANCH   1  35
TORSDOF 11
ENDMDL
MODEL 5
REMARK VINA RESULT:    -5.716      3.515     10.593
REMARK INTER + INTRA:          -8.677
REMARK INTER:                  -8.497
REMARK INTRA:                  -0.180
REMARK UNBOUND:                -0.287
REMARK SMILES CC(C)(O)CC[C@@H](O)[C@](C)(O)[C@H]1CC[C@@]2(O)C3=CC(=O)[C@@H]4C[C@@H](O)[C@H](O)C[C@@]4(C)[C@H]3CC[C@]12C
REMARK SMILES IDX 6 1 7 2 9 3 10 4 12 5 34 6 33 7 32 8 15 9 31 10 17 11 14 12
REMARK SMILES IDX 13 13 30 14 18 15 28 16 19 17 21 18 27 19 29 20 20 21 22 22
REMARK SMILES IDX 25 23 23 24 16 25 26 27 24 29 11 31 8 33 5 35 2 36 1 37 3 38
REMARK SMILES IDX 4 39
REMARK H PARENT 16 26 26 28 24 30 11 32 8 34 4 40
REMARK Flexibility Score: inf
ROOT
ATOM      1  C   UNL     1      10.378  17.396  14.520  1.00  0.00     0.038 C 
ENDROOT
BRANCH   1   2
ATOM      2  C   UNL     1      10.462  15.889  14.862  1.00  0.00     0.146 C 
BRANCH   2   3
ATOM      3  C   UNL     1      11.909  15.260  14.793  1.00  0.00     0.091 C 
ATOM      4  C   UNL     1      12.394  15.282  13.323  1.00  0.00     0.045 C 
BRANCH   3   5
ATOM      5  C   UNL     1      13.060  15.858  15.723  1.00  0.00     0.032 C 
ATOM      6  C   UNL     1      15.122  16.072  14.159  1.00  0.00     0.015 C 
ATOM      7  C   UNL     1      14.219  16.789  15.223  1.00  0.00     0.006 C 
ATOM      8  C   UNL     1      13.808  18.181  14.668  1.00  0.00     0.011 C 
ATOM      9  C   UNL     1      14.985  17.001  16.566  1.00  0.00     0.092 C 
ATOM     10  C   UNL     1      15.037  19.119  14.480  1.00  0.00     0.009 C 
ATOM     11  C   UNL     1      16.218  17.851  16.298  1.00  0.00    -0.031 C 
ATOM     12  C   UNL     1      15.109  15.567  17.108  1.00  0.00     0.041 C 
ATOM     13  C   UNL     1      13.761  14.910  16.744  1.00  0.00     0.010 C 
ATOM     14  C   UNL     1      15.889  19.262  15.782  1.00  0.00     0.025 C 
ATOM     15  C   UNL     1      17.465  17.341  16.263  1.00  0.00     0.050 C 
ATOM     16  C   UNL     1      17.172  20.179  15.694  1.00  0.00    -0.013 C 
ATOM     17  C   UNL     1      18.577  18.089  15.654  1.00  0.00     0.159 C 
ATOM     18  C   UNL     1      18.281  19.381  14.935  1.00  0.00     0.070 C 
ATOM     19  C   UNL     1      16.890  21.567  15.004  1.00  0.00     0.042 C 
ATOM     20  C   UNL     1      17.636  20.492  17.153  1.00  0.00     0.013 C 
ATOM     21  O   UNL     1      19.736  17.593  15.652  1.00  0.00    -0.295 OA
ATOM     22  C   UNL     1      19.539  20.231  14.654  1.00  0.00     0.047 C 
ATOM     23  C   UNL     1      17.711  21.804  13.722  1.00  0.00     0.143 C 
ATOM     24  C   UNL     1      19.214  21.609  14.012  1.00  0.00     0.143 C 
BRANCH   9  25
ATOM     25  O   UNL     1      14.176  17.723  17.477  1.00  0.00    -0.385 OA
ATOM     26  H   UNL     1      13.435  18.141  16.962  1.00  0.00     0.211 HD
ENDBRANCH   9  25
BRANCH  23  27
ATOM     27  O   UNL     1      17.500  23.112  13.258  1.00  0.00    -0.390 OA
ATOM     28  H   UNL     1      17.582  23.084  12.269  1.00  0.00     0.211 HD
ENDBRANCH  23  27
BRANCH  24  29
ATOM     29  O   UNL     1      19.932  21.765  12.815  1.00  0.00    -0.390 OA
ATOM     30  H   UNL     1      20.046  20.857  12.430  1.00  0.00     0.211 HD
ENDBRANCH  24  29
ENDBRANCH   3   5
BRANCH   3  31
ATOM     31  O   UNL     1      11.793  13.890  15.111  1.00  0.00    -0.387 OA
ATOM     32  H   UNL     1      12.700  13.527  15.274  1.00  0.00     0.211 HD
ENDBRANCH   3  31
ENDBRANCH   2   3
BRANCH   2  33
ATOM     33  O   UNL     1       9.629  15.207  13.952  1.00  0.00    -0.390 OA
ATOM     34  H   UNL     1       9.770  14.233  14.080  1.00  0.00     0.211 HD
ENDBRANCH   2  33
ENDBRANCH   1   2
BRANCH   1  35
ATOM     35  C   UNL     1       9.017  17.856  13.949  1.00  0.00     0.037 C 
BRANCH  35  36
ATOM     36  C   UNL     1       7.844  18.005  14.972  1.00  0.00     0.059 C 
ATOM     37  C   UNL     1       6.562  18.413  14.215  1.00  0.00     0.042 C 
ATOM     38  C   UNL     1       8.169  19.107  16.006  1.00  0.00     0.042 C 
BRANCH  36  39
ATOM     39  O   UNL     1       7.616  16.778  15.624  1.00  0.00    -0.390 OA
ATOM     40  H   UNL     1       7.645  16.054  14.943  1.00  0.00     0.211 HD
ENDBRANCH  36  39
ENDBRANCH  35  36
ENDBRANCH   1  35
TORSDOF 11
ENDMDL
MODEL 6
REMARK VINA RESULT:    -5.702      3.688     10.275
REMARK INTER + INTRA:          -8.657
REMARK INTER:                  -7.536
REMARK INTRA:                  -1.121
REMARK UNBOUND:                -0.287
REMARK SMILES CC(C)(O)CC[C@@H](O)[C@](C)(O)[C@H]1CC[C@@]2(O)C3=CC(=O)[C@@H]4C[C@@H](O)[C@H](O)C[C@@]4(C)[C@H]3CC[C@]12C
REMARK SMILES IDX 6 1 7 2 9 3 10 4 12 5 34 6 33 7 32 8 15 9 31 10 17 11 14 12
REMARK SMILES IDX 13 13 30 14 18 15 28 16 19 17 21 18 27 19 29 20 20 21 22 22
REMARK SMILES IDX 25 23 23 24 16 25 26 27 24 29 11 31 8 33 5 35 2 36 1 37 3 38
REMARK SMILES IDX 4 39
REMARK H PARENT 16 26 26 28 24 30 11 32 8 34 4 40
REMARK Flexibility Score: inf
ROOT
ATOM      1  C   UNL     1       9.903  18.497  13.800  1.00  0.00     0.038 C 
ENDROOT
BRANCH   1   2
ATOM      2  C   UNL     1       9.967  17.390  14.880  1.00  0.00     0.146 C 
BRANCH   2   3
ATOM      3  C   UNL     1      10.473  15.983  14.375  1.00  0.00     0.091 C 
ATOM      4  C   UNL     1      10.072  15.811  12.889  1.00  0.00     0.045 C 
BRANCH   3   5
ATOM      5  C   UNL     1      12.016  15.608  14.537  1.00  0.00     0.032 C 
ATOM      6  C   UNL     1      13.271  17.349  13.077  1.00  0.00     0.015 C 
ATOM      7  C   UNL     1      13.197  16.638  14.472  1.00  0.00     0.006 C 
ATOM      8  C   UNL     1      13.242  17.722  15.585  1.00  0.00     0.011 C 
ATOM      9  C   UNL     1      14.403  15.669  14.681  1.00  0.00     0.092 C 
ATOM     10  C   UNL     1      14.595  18.492  15.594  1.00  0.00     0.009 C 
ATOM     11  C   UNL     1      15.694  16.469  14.592  1.00  0.00    -0.031 C 
ATOM     12  C   UNL     1      14.097  14.539  13.684  1.00  0.00     0.041 C 
ATOM     13  C   UNL     1      12.565  14.366  13.771  1.00  0.00     0.010 C 
ATOM     14  C   UNL     1      15.829  17.539  15.689  1.00  0.00     0.025 C 
ATOM     15  C   UNL     1      16.509  16.426  13.519  1.00  0.00     0.050 C 
ATOM     16  C   UNL     1      17.254  18.219  15.686  1.00  0.00    -0.013 C 
ATOM     17  C   UNL     1      17.535  17.459  13.301  1.00  0.00     0.159 C 
ATOM     18  C   UNL     1      17.576  18.655  14.220  1.00  0.00     0.070 C 
ATOM     19  C   UNL     1      17.357  19.437  16.681  1.00  0.00     0.042 C 
ATOM     20  C   UNL     1      18.291  17.157  16.173  1.00  0.00     0.013 C 
ATOM     21  O   UNL     1      18.294  17.383  12.298  1.00  0.00    -0.295 OA
ATOM     22  C   UNL     1      18.883  19.468  14.113  1.00  0.00     0.047 C 
ATOM     23  C   UNL     1      17.686  20.777  15.995  1.00  0.00     0.143 C 
ATOM     24  C   UNL     1      18.962  20.633  15.139  1.00  0.00     0.143 C 
BRANCH   9  25
ATOM     25  O   UNL     1      14.354  15.106  15.979  1.00  0.00    -0.385 OA
ATOM     26  H   UNL     1      13.404  15.099  16.274  1.00  0.00     0.211 HD
ENDBRANCH   9  25
BRANCH  23  27
ATOM     27  O   UNL     1      17.894  21.768  16.967  1.00  0.00    -0.390 OA
ATOM     28  H   UNL     1      18.166  21.302  17.801  1.00  0.00     0.211 HD
ENDBRANCH  23  27
BRANCH  24  29
ATOM     29  O   UNL     1      19.202  21.847  14.474  1.00  0.00    -0.390 OA
ATOM     30  H   UNL     1      18.335  22.135  14.085  1.00  0.00     0.211 HD
ENDBRANCH  24  29
ENDBRANCH   3   5
BRANCH   3  31
ATOM     31  O   UNL     1       9.735  14.994  15.061  1.00  0.00    -0.387 OA
ATOM     32  H   UNL     1       9.659  14.197  14.477  1.00  0.00     0.211 HD
ENDBRANCH   3  31
ENDBRANCH   2   3
BRANCH   2  33
ATOM     33  O   UNL     1       8.667  17.241  15.404  1.00  0.00    -0.390 OA
ATOM     34  H   UNL     1       8.737  17.216  16.394  1.00  0.00     0.211 HD
ENDBRANCH   2  33
ENDBRANCH   1   2
BRANCH   1  35
ATOM     35  C   UNL     1      10.470  19.866  14.242  1.00  0.00     0.037 C 
BRANCH  35  36
ATOM     36  C   UNL     1       9.448  20.887  14.840  1.00  0.00     0.059 C 
ATOM     37  C   UNL     1       9.400  20.716  16.373  1.00  0.00     0.042 C 
ATOM     38  C   UNL     1       8.033  20.623  14.277  1.00  0.00     0.042 C 
BRANCH  36  39
ATOM     39  O   UNL     1       9.853  22.203  14.541  1.00  0.00    -0.390 OA
ATOM     40  H   UNL     1      10.759  22.164  14.134  1.00  0.00     0.211 HD
ENDBRANCH  36  39
ENDBRANCH  35  36
ENDBRANCH   1  35
TORSDOF 11
ENDMDL
MODEL 7
REMARK VINA RESULT:    -5.675      7.097     10.473
REMARK INTER + INTRA:          -8.616
REMARK INTER:                  -8.064
REMARK INTRA:                  -0.552
REMARK UNBOUND:                -0.287
REMARK SMILES CC(C)(O)CC[C@@H](O)[C@](C)(O)[C@H]1CC[C@@]2(O)C3=CC(=O)[C@@H]4C[C@@H](O)[C@H](O)C[C@@]4(C)[C@H]3CC[C@]12C
REMARK SMILES IDX 6 1 7 2 9 3 10 4 12 5 34 6 33 7 32 8 15 9 31 10 17 11 14 12
REMARK SMILES IDX 13 13 30 14 18 15 28 16 19 17 21 18 27 19 29 20 20 21 22 22
REMARK SMILES IDX 25 23 23 24 16 25 26 27 24 29 11 31 8 33 5 35 2 36 1 37 3 38
REMARK SMILES IDX 4 39
REMARK H PARENT 16 26 26 28 24 30 11 32 8 34 4 40
REMARK Flexibility Score: inf
ROOT
ATOM      1  C   UNL     1      16.572  25.921  12.876  1.00  0.00     0.038 C 
ENDROOT
BRANCH   1   2
ATOM      2  C   UNL     1      17.233  24.569  13.240  1.00  0.00     0.146 C 
BRANCH   2   3
ATOM      3  C   UNL     1      16.230  23.381  13.515  1.00  0.00     0.091 C 
ATOM      4  C   UNL     1      14.905  23.660  12.763  1.00  0.00     0.045 C 
BRANCH   3   5
ATOM      5  C   UNL     1      16.693  21.886  13.203  1.00  0.00     0.032 C 
ATOM      6  C   UNL     1      16.837  20.744  15.531  1.00  0.00     0.015 C 
ATOM      7  C   UNL     1      16.302  20.632  14.061  1.00  0.00     0.006 C 
ATOM      8  C   UNL     1      14.794  20.260  14.108  1.00  0.00     0.011 C 
ATOM      9  C   UNL     1      17.058  19.522  13.265  1.00  0.00     0.092 C 
ATOM     10  C   UNL     1      14.561  18.853  14.733  1.00  0.00     0.009 C 
ATOM     11  C   UNL     1      16.861  18.192  13.974  1.00  0.00    -0.031 C 
ATOM     12  C   UNL     1      18.459  20.133  13.092  1.00  0.00     0.041 C 
ATOM     13  C   UNL     1      18.186  21.630  12.833  1.00  0.00     0.010 C 
ATOM     14  C   UNL     1      15.393  17.736  14.027  1.00  0.00     0.025 C 
ATOM     15  C   UNL     1      17.828  17.602  14.707  1.00  0.00     0.050 C 
ATOM     16  C   UNL     1      15.244  16.270  14.597  1.00  0.00    -0.013 C 
ATOM     17  C   UNL     1      17.512  16.529  15.663  1.00  0.00     0.159 C 
ATOM     18  C   UNL     1      16.066  16.185  15.923  1.00  0.00     0.070 C 
ATOM     19  C   UNL     1      13.743  15.849  14.825  1.00  0.00     0.042 C 
ATOM     20  C   UNL     1      15.828  15.283  13.536  1.00  0.00     0.013 C 
ATOM     21  O   UNL     1      18.438  15.986  16.321  1.00  0.00    -0.295 OA
ATOM     22  C   UNL     1      15.876  14.840  16.656  1.00  0.00     0.047 C 
ATOM     23  C   UNL     1      13.406  15.509  16.290  1.00  0.00     0.143 C 
ATOM     24  C   UNL     1      14.383  14.441  16.823  1.00  0.00     0.143 C 
BRANCH   9  25
ATOM     25  O   UNL     1      16.499  19.387  11.971  1.00  0.00    -0.385 OA
ATOM     26  H   UNL     1      17.207  19.607  11.307  1.00  0.00     0.211 HD
ENDBRANCH   9  25
BRANCH  23  27
ATOM     27  O   UNL     1      12.095  15.014  16.372  1.00  0.00    -0.390 OA
ATOM     28  H   UNL     1      12.030  14.261  15.728  1.00  0.00     0.211 HD
ENDBRANCH  23  27
BRANCH  24  29
ATOM     29  O   UNL     1      14.097  14.199  18.177  1.00  0.00    -0.390 OA
ATOM     30  H   UNL     1      13.482  14.921  18.472  1.00  0.00     0.211 HD
ENDBRANCH  24  29
ENDBRANCH   3   5
BRANCH   3  31
ATOM     31  O   UNL     1      15.881  23.427  14.882  1.00  0.00    -0.387 OA
ATOM     32  H   UNL     1      16.553  23.975  15.360  1.00  0.00     0.211 HD
ENDBRANCH   3  31
ENDBRANCH   2   3
BRANCH   2  33
ATOM     33  O   UNL     1      18.009  24.782  14.397  1.00  0.00    -0.390 OA
ATOM     34  H   UNL     1      17.427  25.197  15.084  1.00  0.00     0.211 HD
ENDBRANCH   2  33
ENDBRANCH   1   2
BRANCH   1  35
ATOM     35  C   UNL     1      17.189  27.153  13.579  1.00  0.00     0.037 C 
BRANCH  35  36
ATOM     36  C   UNL     1      16.393  27.738  14.789  1.00  0.00     0.059 C 
ATOM     37  C   UNL     1      14.960  27.164  14.778  1.00  0.00     0.042 C 
ATOM     38  C   UNL     1      16.300  29.277  14.680  1.00  0.00     0.042 C 
BRANCH  36  39
ATOM     39  O   UNL     1      17.019  27.374  15.998  1.00  0.00    -0.390 OA
ATOM     40  H   UNL     1      17.023  26.382  16.058  1.00  0.00     0.211 HD
ENDBRANCH  36  39
ENDBRANCH  35  36
ENDBRANCH   1  35
TORSDOF 11
ENDMDL
MODEL 8
REMARK VINA RESULT:    -5.630      8.459     10.852
REMARK INTER + INTRA:          -8.550
REMARK INTER:                  -7.829
REMARK INTRA:                  -0.721
REMARK UNBOUND:                -0.287
REMARK SMILES CC(C)(O)CC[C@@H](O)[C@](C)(O)[C@H]1CC[C@@]2(O)C3=CC(=O)[C@@H]4C[C@@H](O)[C@H](O)C[C@@]4(C)[C@H]3CC[C@]12C
REMARK SMILES IDX 6 1 7 2 9 3 10 4 12 5 34 6 33 7 32 8 15 9 31 10 17 11 14 12
REMARK SMILES IDX 13 13 30 14 18 15 28 16 19 17 21 18 27 19 29 20 20 21 22 22
REMARK SMILES IDX 25 23 23 24 16 25 26 27 24 29 11 31 8 33 5 35 2 36 1 37 3 38
REMARK SMILES IDX 4 39
REMARK H PARENT 16 26 26 28 24 30 11 32 8 34 4 40
REMARK Flexibility Score: inf
ROOT
ATOM      1  C   UNL     1      10.649  29.557  12.445  1.00  0.00     0.038 C 
ENDROOT
BRANCH   1   2
ATOM      2  C   UNL     1      10.695  30.380  13.755  1.00  0.00     0.146 C 
BRANCH   2   3
ATOM      3  C   UNL     1       9.525  31.424  13.938  1.00  0.00     0.091 C 
ATOM      4  C   UNL     1       9.030  31.871  12.540  1.00  0.00     0.045 C 
BRANCH   3   5
ATOM      5  C   UNL     1       8.261  31.025  14.827  1.00  0.00     0.032 C 
ATOM      6  C   UNL     1       6.378  30.534  13.108  1.00  0.00     0.015 C 
ATOM      7  C   UNL     1       7.136  30.026  14.384  1.00  0.00     0.006 C 
ATOM      8  C   UNL     1       7.563  28.550  14.153  1.00  0.00     0.011 C 
ATOM      9  C   UNL     1       6.221  30.082  15.648  1.00  0.00     0.092 C 
ATOM     10  C   UNL     1       6.334  27.604  14.008  1.00  0.00     0.009 C 
ATOM     11  C   UNL     1       5.001  29.207  15.407  1.00  0.00    -0.031 C 
ATOM     12  C   UNL     1       6.082  31.594  15.891  1.00  0.00     0.041 C 
ATOM     13  C   UNL     1       7.482  32.157  15.564  1.00  0.00     0.010 C 
ATOM     14  C   UNL     1       5.341  27.720  15.208  1.00  0.00     0.025 C 
ATOM     15  C   UNL     1       3.780  29.712  15.136  1.00  0.00     0.050 C 
ATOM     16  C   UNL     1       4.048  26.815  15.150  1.00  0.00    -0.013 C 
ATOM     17  C   UNL     1       2.720  28.871  14.557  1.00  0.00     0.159 C 
ATOM     18  C   UNL     1       3.054  27.462  14.134  1.00  0.00     0.070 C 
ATOM     19  C   UNL     1       4.362  25.317  14.772  1.00  0.00     0.042 C 
ATOM     20  C   UNL     1       3.418  26.790  16.579  1.00  0.00     0.013 C 
ATOM     21  O   UNL     1       1.584  29.367  14.329  1.00  0.00    -0.295 OA
ATOM     22  C   UNL     1       1.809  26.586  13.878  1.00  0.00     0.047 C 
ATOM     23  C   UNL     1       3.679  24.847  13.473  1.00  0.00     0.143 C 
ATOM     24  C   UNL     1       2.160  25.108  13.548  1.00  0.00     0.143 C 
BRANCH   9  25
ATOM     25  O   UNL     1       6.903  29.541  16.764  1.00  0.00    -0.385 OA
ATOM     26  H   UNL     1       6.325  28.838  17.166  1.00  0.00     0.211 HD
ENDBRANCH   9  25
BRANCH  23  27
ATOM     27  O   UNL     1       3.901  23.472  13.292  1.00  0.00    -0.390 OA
ATOM     28  H   UNL     1       3.151  22.999  13.739  1.00  0.00     0.211 HD
ENDBRANCH  23  27
BRANCH  24  29
ATOM     29  O   UNL     1       1.574  24.732  12.329  1.00  0.00    -0.390 OA
ATOM     30  H   UNL     1       1.011  23.936  12.516  1.00  0.00     0.211 HD
ENDBRANCH  24  29
ENDBRANCH   3   5
BRANCH   3  31
ATOM     31  O   UNL     1      10.080  32.589  14.510  1.00  0.00    -0.387 OA
ATOM     32  H   UNL     1      10.645  33.035  13.830  1.00  0.00     0.211 HD
ENDBRANCH   3  31
ENDBRANCH   2   3
BRANCH   2  33
ATOM     33  O   UNL     1      11.924  31.071  13.771  1.00  0.00    -0.390 OA
ATOM     34  H   UNL     1      12.511  30.665  13.082  1.00  0.00     0.211 HD
ENDBRANCH   2  33
ENDBRANCH   1   2
BRANCH   1  35
ATOM     35  C   UNL     1      10.864  28.037  12.627  1.00  0.00     0.037 C 
BRANCH  35  36
ATOM     36  C   UNL     1      12.302  27.577  13.030  1.00  0.00     0.059 C 
ATOM     37  C   UNL     1      12.644  26.270  12.284  1.00  0.00     0.042 C 
ATOM     38  C   UNL     1      12.374  27.304  14.550  1.00  0.00     0.042 C 
BRANCH  36  39
ATOM     39  O   UNL     1      13.240  28.565  12.670  1.00  0.00    -0.390 OA
ATOM     40  H   UNL     1      14.132  28.133  12.594  1.00  0.00     0.211 HD
ENDBRANCH  36  39
ENDBRANCH  35  36
ENDBRANCH   1  35
TORSDOF 11
ENDMDL
MODEL 9
REMARK VINA RESULT:    -5.512      2.719      9.838
REMARK INTER + INTRA:          -8.378
REMARK INTER:                  -7.962
REMARK INTRA:                  -0.415
REMARK UNBOUND:                -0.287
REMARK SMILES CC(C)(O)CC[C@@H](O)[C@](C)(O)[C@H]1CC[C@@]2(O)C3=CC(=O)[C@@H]4C[C@@H](O)[C@H](O)C[C@@]4(C)[C@H]3CC[C@]12C
REMARK SMILES IDX 6 1 7 2 9 3 10 4 12 5 34 6 33 7 32 8 15 9 31 10 17 11 14 12
REMARK SMILES IDX 13 13 30 14 18 15 28 16 19 17 21 18 27 19 29 20 20 21 22 22
REMARK SMILES IDX 25 23 23 24 16 25 26 27 24 29 11 31 8 33 5 35 2 36 1 37 3 38
REMARK SMILES IDX 4 39
REMARK H PARENT 16 26 26 28 24 30 11 32 8 34 4 40
REMARK Flexibility Score: inf
ROOT
ATOM      1  C   UNL     1       7.947  18.748  15.800  1.00  0.00     0.038 C 
ENDROOT
BRANCH   1   2
ATOM      2  C   UNL     1       8.872  19.762  15.084  1.00  0.00     0.146 C 
BRANCH   2   3
ATOM      3  C   UNL     1       9.797  19.155  13.958  1.00  0.00     0.091 C 
ATOM      4  C   UNL     1      10.894  20.187  13.601  1.00  0.00     0.045 C 
BRANCH   3   5
ATOM      5  C   UNL     1      10.486  17.735  14.201  1.00  0.00     0.032 C 
ATOM      6  C   UNL     1      12.619  17.780  12.722  1.00  0.00     0.015 C 
ATOM      7  C   UNL     1      12.030  17.471  14.142  1.00  0.00     0.006 C 
ATOM      8  C   UNL     1      12.904  18.188  15.209  1.00  0.00     0.011 C 
ATOM      9  C   UNL     1      12.047  15.939  14.443  1.00  0.00     0.092 C 
ATOM     10  C   UNL     1      14.358  17.630  15.242  1.00  0.00     0.009 C 
ATOM     11  C   UNL     1      13.483  15.442  14.375  1.00  0.00    -0.031 C 
ATOM     12  C   UNL     1      10.972  15.401  13.484  1.00  0.00     0.041 C 
ATOM     13  C   UNL     1       9.868  16.480  13.513  1.00  0.00     0.010 C 
ATOM     14  C   UNL     1      14.403  16.080  15.429  1.00  0.00     0.025 C 
ATOM     15  C   UNL     1      13.960  14.721  13.340  1.00  0.00     0.050 C 
ATOM     16  C   UNL     1      15.832  15.409  15.458  1.00  0.00    -0.013 C 
ATOM     17  C   UNL     1      15.407  14.569  13.121  1.00  0.00     0.159 C 
ATOM     18  C   UNL     1      16.364  15.348  13.990  1.00  0.00     0.070 C 
ATOM     19  C   UNL     1      16.846  16.159  16.404  1.00  0.00     0.042 C 
ATOM     20  C   UNL     1      15.671  13.965  16.033  1.00  0.00     0.013 C 
ATOM     21  O   UNL     1      15.823  13.875  12.155  1.00  0.00    -0.295 OA
ATOM     22  C   UNL     1      17.821  14.847  13.903  1.00  0.00     0.047 C 
ATOM     23  C   UNL     1      18.086  16.711  15.676  1.00  0.00     0.143 C 
ATOM     24  C   UNL     1      18.779  15.583  14.881  1.00  0.00     0.143 C 
BRANCH   9  25
ATOM     25  O   UNL     1      11.588  15.698  15.760  1.00  0.00    -0.385 OA
ATOM     26  H   UNL     1      10.601  15.582  15.725  1.00  0.00     0.211 HD
ENDBRANCH   9  25
BRANCH  23  27
ATOM     27  O   UNL     1      18.992  17.235  16.612  1.00  0.00    -0.390 OA
ATOM     28  H   UNL     1      19.572  17.876  16.124  1.00  0.00     0.211 HD
ENDBRANCH  23  27
BRANCH  24  29
ATOM     29  O   UNL     1      19.865  16.126  14.175  1.00  0.00    -0.390 OA
ATOM     30  H   UNL     1      20.669  15.995  14.743  1.00  0.00     0.211 HD
ENDBRANCH  24  29
ENDBRANCH   3   5
BRANCH   3  31
ATOM     31  O   UNL     1       9.019  19.039  12.786  1.00  0.00    -0.387 OA
ATOM     32  H   UNL     1       9.627  18.892  12.018  1.00  0.00     0.211 HD
ENDBRANCH   3  31
ENDBRANCH   2   3
BRANCH   2  33
ATOM     33  O   UNL     1       9.689  20.352  16.071  1.00  0.00    -0.390 OA
ATOM     34  H   UNL     1      10.316  20.972  15.617  1.00  0.00     0.211 HD
ENDBRANCH   2  33
ENDBRANCH   1   2
BRANCH   1  35
ATOM     35  C   UNL     1       6.446  19.122  15.791  1.00  0.00     0.037 C 
BRANCH  35  36
ATOM     36  C   UNL     1       5.572  18.481  14.666  1.00  0.00     0.059 C 
ATOM     37  C   UNL     1       4.084  18.575  15.066  1.00  0.00     0.042 C 
ATOM     38  C   UNL     1       5.935  16.990  14.486  1.00  0.00     0.042 C 
BRANCH  36  39
ATOM     39  O   UNL     1       5.762  19.177  13.455  1.00  0.00    -0.390 OA
ATOM     40  H   UNL     1       5.580  20.141  13.619  1.00  0.00     0.211 HD
ENDBRANCH  36  39
ENDBRANCH  35  36
ENDBRANCH   1  35
TORSDOF 11
ENDMDL
