MODEL 1
REMARK VINA RESULT:    -3.795      0.000      0.000
REMARK INTER + INTRA:          -7.935
REMARK INTER:                  -6.680
REMARK INTRA:                  -1.255
REMARK UNBOUND:                -1.255
REMARK SMILES CCCCCCCCCCCCCCC(=O)[O-]
REMARK SMILES IDX 9 1 10 2 11 3 12 4 13 5 14 6 15 7 16 8 17 9 8 10 7 11 6 12
REMARK SMILES IDX 5 13 4 14 3 15 2 16 1 17
REMARK H PARENT
REMARK Flexibility Score: inf
ROOT
ATOM      1  C   UNL     1      -0.619  -7.787  37.073  1.00  0.00     0.000 C 
ENDROOT
BRANCH   1   2
ATOM      2  C   UNL     1      -0.547  -9.208  37.663  1.00  0.00     0.000 C 
BRANCH   2   3
ATOM      3  C   UNL     1      -0.178  -9.216  39.156  1.00  0.00     0.000 C 
BRANCH   3   4
ATOM      4  C   UNL     1      -1.205  -8.468  40.022  1.00  0.00     0.000 C 
BRANCH   4   5
ATOM      5  C   UNL     1      -2.119  -9.418  40.811  1.00  0.00     0.006 C 
BRANCH   5   6
ATOM      6  C   UNL     1      -1.422 -10.758  41.068  1.00  0.00     0.053 C 
BRANCH   6   7
ATOM      7  C   UNL     1      -2.229 -11.596  42.010  1.00  0.00     0.041 C 
ATOM      8  O   UNL     1      -3.276 -11.132  42.532  1.00  0.00    -0.550 OA
ATOM      9  O   UNL     1      -1.799 -12.873  42.347  1.00  0.00    -0.550 OA
ENDBRANCH   6   7
ENDBRANCH   5   6
ENDBRANCH   4   5
ENDBRANCH   3   4
ENDBRANCH   2   3
ENDBRANCH   1   2
BRANCH   1  10
ATOM     10  C   UNL     1      -1.972  -7.407  36.436  1.00  0.00     0.000 C 
BRANCH  10  11
ATOM     11  C   UNL     1      -2.936  -6.637  37.355  1.00  0.00    -0.000 C 
BRANCH  11  12
ATOM     12  C   UNL     1      -4.337  -7.267  37.413  1.00  0.00    -0.000 C 
BRANCH  12  13
ATOM     13  C   UNL     1      -5.390  -6.315  36.830  1.00  0.00    -0.000 C 
BRANCH  13  14
ATOM     14  C   UNL     1      -4.823  -4.922  36.514  1.00  0.00    -0.000 C 
BRANCH  14  15
ATOM     15  C   UNL     1      -5.190  -4.440  35.099  1.00  0.00    -0.000 C 
BRANCH  15  16
ATOM     16  C   UNL     1      -3.968  -3.942  34.311  1.00  0.00    -0.003 C 
ATOM     17  C   UNL     1      -3.200  -5.075  33.630  1.00  0.00     0.004 C 
ENDBRANCH  15  16
ENDBRANCH  14  15
ENDBRANCH  13  14
ENDBRANCH  12  13
ENDBRANCH  11  12
ENDBRANCH  10  11
ENDBRANCH   1  10
TORSDOF 13
ENDMDL
MODEL 2
REMARK VINA RESULT:    -3.714      1.722      3.837
REMARK INTER + INTRA:          -7.791
REMARK INTER:                  -5.871
REMARK INTRA:                  -1.921
REMARK UNBOUND:                -1.255
REMARK SMILES CCCCCCCCCCCCCCC(=O)[O-]
REMARK SMILES IDX 9 1 10 2 11 3 12 4 13 5 14 6 15 7 16 8 17 9 8 10 7 11 6 12
REMARK SMILES IDX 5 13 4 14 3 15 2 16 1 17
REMARK H PARENT
REMARK Flexibility Score: inf
ROOT
ATOM      1  C   UNL     1      -4.763  -6.142  36.599  1.00  0.00     0.000 C 
ENDROOT
BRANCH   1   2
ATOM      2  C   UNL     1      -3.378  -6.173  37.270  1.00  0.00     0.000 C 
BRANCH   2   3
ATOM      3  C   UNL     1      -2.815  -7.598  37.409  1.00  0.00     0.000 C 
BRANCH   3   4
ATOM      4  C   UNL     1      -1.288  -7.649  37.234  1.00  0.00     0.000 C 
BRANCH   4   5
ATOM      5  C   UNL     1      -0.630  -8.745  38.086  1.00  0.00     0.006 C 
BRANCH   5   6
ATOM      6  C   UNL     1      -0.815  -8.460  39.580  1.00  0.00     0.053 C 
BRANCH   6   7
ATOM      7  C   UNL     1      -1.459  -9.627  40.259  1.00  0.00     0.041 C 
ATOM      8  O   UNL     1      -1.260 -10.796  39.837  1.00  0.00    -0.550 OA
ATOM      9  O   UNL     1      -2.317  -9.420  41.331  1.00  0.00    -0.550 OA
ENDBRANCH   6   7
ENDBRANCH   5   6
ENDBRANCH   4   5
ENDBRANCH   3   4
ENDBRANCH   2   3
ENDBRANCH   1   2
BRANCH   1  10
ATOM     10  C   UNL     1      -5.285  -4.737  36.233  1.00  0.00     0.000 C 
BRANCH  10  11
ATOM     11  C   UNL     1      -5.252  -4.396  34.732  1.00  0.00    -0.000 C 
BRANCH  11  12
ATOM     12  C   UNL     1      -3.832  -4.114  34.215  1.00  0.00    -0.000 C 
BRANCH  12  13
ATOM     13  C   UNL     1      -3.420  -5.144  33.155  1.00  0.00    -0.000 C 
BRANCH  13  14
ATOM     14  C   UNL     1      -2.255  -6.036  33.613  1.00  0.00    -0.000 C 
BRANCH  14  15
ATOM     15  C   UNL     1      -2.642  -7.523  33.687  1.00  0.00    -0.000 C 
BRANCH  15  16
ATOM     16  C   UNL     1      -4.121  -7.764  33.345  1.00  0.00    -0.003 C 
ATOM     17  C   UNL     1      -4.747  -8.884  34.176  1.00  0.00     0.004 C 
ENDBRANCH  15  16
ENDBRANCH  14  15
ENDBRANCH  13  14
ENDBRANCH  12  13
ENDBRANCH  11  12
ENDBRANCH  10  11
ENDBRANCH   1  10
TORSDOF 13
ENDMDL
MODEL 3
REMARK VINA RESULT:    -3.698      4.089      7.093
REMARK INTER + INTRA:          -7.764
REMARK INTER:                  -5.850
REMARK INTRA:                  -1.914
REMARK UNBOUND:                -1.255
REMARK SMILES CCCCCCCCCCCCCCC(=O)[O-]
REMARK SMILES IDX 9 1 10 2 11 3 12 4 13 5 14 6 15 7 16 8 17 9 8 10 7 11 6 12
REMARK SMILES IDX 5 13 4 14 3 15 2 16 1 17
REMARK H PARENT
REMARK Flexibility Score: inf
ROOT
ATOM      1  C   UNL     1      -0.649  -9.063  37.638  1.00  0.00     0.000 C 
ENDROOT
BRANCH   1   2
ATOM      2  C   UNL     1      -1.371  -7.780  37.187  1.00  0.00     0.000 C 
BRANCH   2   3
ATOM      3  C   UNL     1      -2.471  -7.339  38.168  1.00  0.00     0.000 C 
BRANCH   3   4
ATOM      4  C   UNL     1      -3.810  -7.060  37.467  1.00  0.00     0.000 C 
BRANCH   4   5
ATOM      5  C   UNL     1      -3.809  -5.734  36.691  1.00  0.00     0.006 C 
BRANCH   5   6
ATOM      6  C   UNL     1      -4.245  -5.951  35.238  1.00  0.00     0.053 C 
BRANCH   6   7
ATOM      7  C   UNL     1      -3.861  -4.776  34.395  1.00  0.00     0.041 C 
ATOM      8  O   UNL     1      -3.045  -4.916  33.447  1.00  0.00    -0.550 OA
ATOM      9  O   UNL     1      -4.370  -3.517  34.685  1.00  0.00    -0.550 OA
ENDBRANCH   6   7
ENDBRANCH   5   6
ENDBRANCH   4   5
ENDBRANCH   3   4
ENDBRANCH   2   3
ENDBRANCH   1   2
BRANCH   1  10
ATOM     10  C   UNL     1      -0.386  -9.172  39.154  1.00  0.00     0.000 C 
BRANCH  10  11
ATOM     11  C   UNL     1      -0.432 -10.600  39.726  1.00  0.00    -0.000 C 
BRANCH  11  12
ATOM     12  C   UNL     1      -1.341 -10.721  40.960  1.00  0.00    -0.000 C 
BRANCH  12  13
ATOM     13  C   UNL     1      -2.081  -9.403  41.226  1.00  0.00    -0.000 C 
BRANCH  13  14
ATOM     14  C   UNL     1      -3.609  -9.573  41.250  1.00  0.00    -0.000 C 
BRANCH  14  15
ATOM     15  C   UNL     1      -4.085 -10.754  40.387  1.00  0.00    -0.000 C 
BRANCH  15  16
ATOM     16  C   UNL     1      -4.498 -10.320  38.971  1.00  0.00    -0.003 C 
ATOM     17  C   UNL     1      -3.756 -11.086  37.876  1.00  0.00     0.004 C 
ENDBRANCH  15  16
ENDBRANCH  14  15
ENDBRANCH  13  14
ENDBRANCH  12  13
ENDBRANCH  11  12
ENDBRANCH  10  11
ENDBRANCH   1  10
TORSDOF 13
ENDMDL
MODEL 4
REMARK VINA RESULT:    -3.654      1.224      2.219
REMARK INTER + INTRA:          -7.686
REMARK INTER:                  -6.662
REMARK INTRA:                  -1.024
REMARK UNBOUND:                -1.255
REMARK SMILES CCCCCCCCCCCCCCC(=O)[O-]
REMARK SMILES IDX 9 1 10 2 11 3 12 4 13 5 14 6 15 7 16 8 17 9 8 10 7 11 6 12
REMARK SMILES IDX 5 13 4 14 3 15 2 16 1 17
REMARK H PARENT
REMARK Flexibility Score: inf
ROOT
ATOM      1  C   UNL     1      -2.436  -7.256  37.902  1.00  0.00     0.000 C 
ENDROOT
BRANCH   1   2
ATOM      2  C   UNL     1      -1.056  -7.890  38.150  1.00  0.00     0.000 C 
BRANCH   2   3
ATOM      3  C   UNL     1      -0.944  -8.556  39.532  1.00  0.00     0.000 C 
BRANCH   3   4
ATOM      4  C   UNL     1      -2.317  -8.894  40.137  1.00  0.00     0.000 C 
BRANCH   4   5
ATOM      5  C   UNL     1      -2.211  -9.767  41.397  1.00  0.00     0.006 C 
BRANCH   5   6
ATOM      6  C   UNL     1      -1.311 -10.981  41.146  1.00  0.00     0.053 C 
BRANCH   6   7
ATOM      7  C   UNL     1      -1.620 -12.072  42.123  1.00  0.00     0.041 C 
ATOM      8  O   UNL     1      -2.792 -12.521  42.222  1.00  0.00    -0.550 OA
ATOM      9  O   UNL     1      -0.622 -12.562  42.955  1.00  0.00    -0.550 OA
ENDBRANCH   6   7
ENDBRANCH   5   6
ENDBRANCH   4   5
ENDBRANCH   3   4
ENDBRANCH   2   3
ENDBRANCH   1   2
BRANCH   1  10
ATOM     10  C   UNL     1      -2.776  -6.975  36.424  1.00  0.00     0.000 C 
BRANCH  10  11
ATOM     11  C   UNL     1      -2.089  -7.903  35.406  1.00  0.00    -0.000 C 
BRANCH  11  12
ATOM     12  C   UNL     1      -2.502  -7.609  33.955  1.00  0.00    -0.000 C 
BRANCH  12  13
ATOM     13  C   UNL     1      -2.184  -6.155  33.579  1.00  0.00    -0.000 C 
BRANCH  13  14
ATOM     14  C   UNL     1      -3.440  -5.348  33.209  1.00  0.00    -0.000 C 
BRANCH  14  15
ATOM     15  C   UNL     1      -3.613  -4.091  34.079  1.00  0.00    -0.000 C 
BRANCH  15  16
ATOM     16  C   UNL     1      -4.814  -4.196  35.032  1.00  0.00    -0.003 C 
ATOM     17  C   UNL     1      -5.916  -5.112  34.498  1.00  0.00     0.004 C 
ENDBRANCH  15  16
ENDBRANCH  14  15
ENDBRANCH  13  14
ENDBRANCH  12  13
ENDBRANCH  11  12
ENDBRANCH  10  11
ENDBRANCH   1  10
TORSDOF 13
ENDMDL
MODEL 5
REMARK VINA RESULT:    -3.637      3.870      7.767
REMARK INTER + INTRA:          -7.656
REMARK INTER:                  -6.344
REMARK INTRA:                  -1.313
REMARK UNBOUND:                -1.255
REMARK SMILES CCCCCCCCCCCCCCC(=O)[O-]
REMARK SMILES IDX 9 1 10 2 11 3 12 4 13 5 14 6 15 7 16 8 17 9 8 10 7 11 6 12
REMARK SMILES IDX 5 13 4 14 3 15 2 16 1 17
REMARK H PARENT
REMARK Flexibility Score: inf
ROOT
ATOM      1  C   UNL     1      -2.188  -7.487  36.507  1.00  0.00     0.000 C 
ENDROOT
BRANCH   1   2
ATOM      2  C   UNL     1      -3.089  -6.512  37.286  1.00  0.00     0.000 C 
BRANCH   2   3
ATOM      3  C   UNL     1      -4.587  -6.753  37.033  1.00  0.00     0.000 C 
BRANCH   3   4
ATOM      4  C   UNL     1      -5.120  -5.950  35.835  1.00  0.00     0.000 C 
BRANCH   4   5
ATOM      5  C   UNL     1      -4.366  -4.628  35.625  1.00  0.00     0.006 C 
BRANCH   5   6
ATOM      6  C   UNL     1      -4.438  -4.185  34.160  1.00  0.00     0.053 C 
BRANCH   6   7
ATOM      7  C   UNL     1      -3.774  -5.193  33.276  1.00  0.00     0.041 C 
ATOM      8  O   UNL     1      -4.420  -5.743  32.345  1.00  0.00    -0.550 OA
ATOM      9  O   UNL     1      -2.455  -5.559  33.507  1.00  0.00    -0.550 OA
ENDBRANCH   6   7
ENDBRANCH   5   6
ENDBRANCH   4   5
ENDBRANCH   3   4
ENDBRANCH   2   3
ENDBRANCH   1   2
BRANCH   1  10
ATOM     10  C   UNL     1      -0.789  -7.720  37.116  1.00  0.00     0.000 C 
BRANCH  10  11
ATOM     11  C   UNL     1      -0.576  -9.102  37.758  1.00  0.00    -0.000 C 
BRANCH  11  12
ATOM     12  C   UNL     1      -0.215  -9.019  39.249  1.00  0.00    -0.000 C 
BRANCH  12  13
ATOM     13  C   UNL     1      -1.323  -8.313  40.043  1.00  0.00    -0.000 C 
BRANCH  13  14
ATOM     14  C   UNL     1      -2.633  -9.116  40.079  1.00  0.00    -0.000 C 
BRANCH  14  15
ATOM     15  C   UNL     1      -2.948  -9.672  41.479  1.00  0.00    -0.000 C 
BRANCH  15  16
ATOM     16  C   UNL     1      -2.666 -11.178  41.591  1.00  0.00    -0.003 C 
ATOM     17  C   UNL     1      -1.234 -11.482  42.031  1.00  0.00     0.004 C 
ENDBRANCH  15  16
ENDBRANCH  14  15
ENDBRANCH  13  14
ENDBRANCH  12  13
ENDBRANCH  11  12
ENDBRANCH  10  11
ENDBRANCH   1  10
TORSDOF 13
ENDMDL
MODEL 6
REMARK VINA RESULT:    -3.633      1.231      2.852
REMARK INTER + INTRA:          -7.649
REMARK INTER:                  -6.130
REMARK INTRA:                  -1.519
REMARK UNBOUND:                -1.255
REMARK SMILES CCCCCCCCCCCCCCC(=O)[O-]
REMARK SMILES IDX 9 1 10 2 11 3 12 4 13 5 14 6 15 7 16 8 17 9 8 10 7 11 6 12
REMARK SMILES IDX 5 13 4 14 3 15 2 16 1 17
REMARK H PARENT
REMARK Flexibility Score: inf
ROOT
ATOM      1  C   UNL     1      -4.172  -7.398  37.301  1.00  0.00     0.000 C 
ENDROOT
BRANCH   1   2
ATOM      2  C   UNL     1      -2.735  -6.868  37.461  1.00  0.00     0.000 C 
BRANCH   2   3
ATOM      3  C   UNL     1      -1.888  -7.721  38.420  1.00  0.00     0.000 C 
BRANCH   3   4
ATOM      4  C   UNL     1      -2.740  -8.682  39.266  1.00  0.00     0.000 C 
BRANCH   4   5
ATOM      5  C   UNL     1      -2.117  -8.974  40.640  1.00  0.00     0.006 C 
BRANCH   5   6
ATOM      6  C   UNL     1      -1.395 -10.325  40.636  1.00  0.00     0.053 C 
BRANCH   6   7
ATOM      7  C   UNL     1      -1.739 -11.106  41.865  1.00  0.00     0.041 C 
ATOM      8  O   UNL     1      -0.891 -11.880  42.381  1.00  0.00    -0.550 OA
ATOM      9  O   UNL     1      -3.010 -11.013  42.415  1.00  0.00    -0.550 OA
ENDBRANCH   6   7
ENDBRANCH   5   6
ENDBRANCH   4   5
ENDBRANCH   3   4
ENDBRANCH   2   3
ENDBRANCH   1   2
BRANCH   1  10
ATOM     10  C   UNL     1      -5.204  -6.362  36.808  1.00  0.00     0.000 C 
BRANCH  10  11
ATOM     11  C   UNL     1      -4.641  -4.958  36.528  1.00  0.00    -0.000 C 
BRANCH  11  12
ATOM     12  C   UNL     1      -5.063  -4.408  35.157  1.00  0.00    -0.000 C 
BRANCH  12  13
ATOM     13  C   UNL     1      -3.835  -4.064  34.302  1.00  0.00    -0.000 C 
BRANCH  13  14
ATOM     14  C   UNL     1      -3.545  -5.123  33.226  1.00  0.00    -0.000 C 
BRANCH  14  15
ATOM     15  C   UNL     1      -2.299  -5.967  33.547  1.00  0.00    -0.000 C 
BRANCH  15  16
ATOM     16  C   UNL     1      -2.618  -7.466  33.662  1.00  0.00    -0.003 C 
ATOM     17  C   UNL     1      -4.103  -7.772  33.474  1.00  0.00     0.004 C 
ENDBRANCH  15  16
ENDBRANCH  14  15
ENDBRANCH  13  14
ENDBRANCH  12  13
ENDBRANCH  11  12
ENDBRANCH  10  11
ENDBRANCH   1  10
TORSDOF 13
ENDMDL
MODEL 7
REMARK VINA RESULT:    -3.565      3.598      6.057
REMARK INTER + INTRA:          -7.529
REMARK INTER:                  -5.122
REMARK INTRA:                  -2.407
REMARK UNBOUND:                -1.255
REMARK SMILES CCCCCCCCCCCCCCC(=O)[O-]
REMARK SMILES IDX 9 1 10 2 11 3 12 4 13 5 14 6 15 7 16 8 17 9 8 10 7 11 6 12
REMARK SMILES IDX 5 13 4 14 3 15 2 16 1 17
REMARK H PARENT
REMARK Flexibility Score: inf
ROOT
ATOM      1  C   UNL     1      -2.580 -11.731  40.941  1.00  0.00     0.000 C 
ENDROOT
BRANCH   1   2
ATOM      2  C   UNL     1      -1.606 -10.644  40.452  1.00  0.00     0.000 C 
BRANCH   2   3
ATOM      3  C   UNL     1      -1.789  -9.305  41.187  1.00  0.00     0.000 C 
BRANCH   3   4
ATOM      4  C   UNL     1      -1.503  -8.093  40.286  1.00  0.00     0.000 C 
BRANCH   4   5
ATOM      5  C   UNL     1      -0.863  -8.488  38.946  1.00  0.00     0.006 C 
BRANCH   5   6
ATOM      6  C   UNL     1      -1.602  -7.834  37.774  1.00  0.00     0.053 C 
BRANCH   6   7
ATOM      7  C   UNL     1      -1.677  -8.775  36.613  1.00  0.00     0.041 C 
ATOM      8  O   UNL     1      -1.963  -9.987  36.797  1.00  0.00    -0.550 OA
ATOM      9  O   UNL     1      -1.387  -8.323  35.332  1.00  0.00    -0.550 OA
ENDBRANCH   6   7
ENDBRANCH   5   6
ENDBRANCH   4   5
ENDBRANCH   3   4
ENDBRANCH   2   3
ENDBRANCH   1   2
BRANCH   1  10
ATOM     10  C   UNL     1      -3.178 -11.497  42.343  1.00  0.00     0.000 C 
BRANCH  10  11
ATOM     11  C   UNL     1      -4.650 -11.916  42.506  1.00  0.00    -0.000 C 
BRANCH  11  12
ATOM     12  C   UNL     1      -5.527 -10.799  43.094  1.00  0.00    -0.000 C 
BRANCH  12  13
ATOM     13  C   UNL     1      -5.214  -9.450  42.433  1.00  0.00    -0.000 C 
BRANCH  13  14
ATOM     14  C   UNL     1      -6.047  -9.203  41.164  1.00  0.00    -0.000 C 
BRANCH  14  15
ATOM     15  C   UNL     1      -5.226  -8.557  40.035  1.00  0.00    -0.000 C 
BRANCH  15  16
ATOM     16  C   UNL     1      -4.817  -9.568  38.953  1.00  0.00    -0.003 C 
ATOM     17  C   UNL     1      -5.652 -10.848  38.991  1.00  0.00     0.004 C 
ENDBRANCH  15  16
ENDBRANCH  14  15
ENDBRANCH  13  14
ENDBRANCH  12  13
ENDBRANCH  11  12
ENDBRANCH  10  11
ENDBRANCH   1  10
TORSDOF 13
ENDMDL
MODEL 8
REMARK VINA RESULT:    -3.563      3.443      6.086
REMARK INTER + INTRA:          -7.526
REMARK INTER:                  -5.700
REMARK INTRA:                  -1.826
REMARK UNBOUND:                -1.255
REMARK SMILES CCCCCCCCCCCCCCC(=O)[O-]
REMARK SMILES IDX 9 1 10 2 11 3 12 4 13 5 14 6 15 7 16 8 17 9 8 10 7 11 6 12
REMARK SMILES IDX 5 13 4 14 3 15 2 16 1 17
REMARK H PARENT
REMARK Flexibility Score: inf
ROOT
ATOM      1  C   UNL     1      -3.344 -12.632  41.202  1.00  0.00     0.000 C 
ENDROOT
BRANCH   1   2
ATOM      2  C   UNL     1      -4.752 -12.425  41.789  1.00  0.00     0.000 C 
BRANCH   2   3
ATOM      3  C   UNL     1      -4.760 -11.473  42.997  1.00  0.00     0.000 C 
BRANCH   3   4
ATOM      4  C   UNL     1      -5.138 -10.033  42.613  1.00  0.00     0.000 C 
BRANCH   4   5
ATOM      5  C   UNL     1      -5.886  -9.955  41.273  1.00  0.00     0.006 C 
BRANCH   5   6
ATOM      6  C   UNL     1      -5.628  -8.613  40.581  1.00  0.00     0.053 C 
BRANCH   6   7
ATOM      7  C   UNL     1      -4.864  -8.817  39.311  1.00  0.00     0.041 C 
ATOM      8  O   UNL     1      -4.375  -9.946  39.040  1.00  0.00    -0.550 OA
ATOM      9  O   UNL     1      -4.652  -7.751  38.447  1.00  0.00    -0.550 OA
ENDBRANCH   6   7
ENDBRANCH   5   6
ENDBRANCH   4   5
ENDBRANCH   3   4
ENDBRANCH   2   3
ENDBRANCH   1   2
BRANCH   1  10
ATOM     10  C   UNL     1      -2.203 -12.706  42.238  1.00  0.00     0.000 C 
BRANCH  10  11
ATOM     11  C   UNL     1      -1.189 -11.549  42.179  1.00  0.00    -0.000 C 
BRANCH  11  12
ATOM     12  C   UNL     1      -1.381 -10.649  40.949  1.00  0.00    -0.000 C 
BRANCH  12  13
ATOM     13  C   UNL     1      -1.873  -9.255  41.361  1.00  0.00    -0.000 C 
BRANCH  13  14
ATOM     14  C   UNL     1      -1.395  -8.148  40.407  1.00  0.00    -0.000 C 
BRANCH  14  15
ATOM     15  C   UNL     1      -0.622  -8.704  39.198  1.00  0.00    -0.000 C 
BRANCH  15  16
ATOM     16  C   UNL     1      -1.149  -8.157  37.861  1.00  0.00    -0.003 C 
ATOM     17  C   UNL     1      -0.209  -8.446  36.690  1.00  0.00     0.004 C 
ENDBRANCH  15  16
ENDBRANCH  14  15
ENDBRANCH  13  14
ENDBRANCH  12  13
ENDBRANCH  11  12
ENDBRANCH  10  11
ENDBRANCH   1  10
TORSDOF 13
ENDMDL
MODEL 9
REMARK VINA RESULT:    -3.554      1.486      2.108
REMARK INTER + INTRA:          -7.511
REMARK INTER:                  -5.983
REMARK INTRA:                  -1.528
REMARK UNBOUND:                -1.255
REMARK SMILES CCCCCCCCCCCCCCC(=O)[O-]
REMARK SMILES IDX 9 1 10 2 11 3 12 4 13 5 14 6 15 7 16 8 17 9 8 10 7 11 6 12
REMARK SMILES IDX 5 13 4 14 3 15 2 16 1 17
REMARK H PARENT
REMARK Flexibility Score: inf
ROOT
ATOM      1  C   UNL     1      -1.730  -7.092  36.811  1.00  0.00     0.000 C 
ENDROOT
BRANCH   1   2
ATOM      2  C   UNL     1      -0.771  -8.296  36.812  1.00  0.00     0.000 C 
BRANCH   2   3
ATOM      3  C   UNL     1      -0.963  -9.211  38.034  1.00  0.00     0.000 C 
BRANCH   3   4
ATOM      4  C   UNL     1      -0.574  -8.523  39.353  1.00  0.00     0.000 C 
BRANCH   4   5
ATOM      5  C   UNL     1      -1.709  -8.544  40.389  1.00  0.00     0.006 C 
BRANCH   5   6
ATOM      6  C   UNL     1      -3.046  -8.890  39.727  1.00  0.00     0.053 C 
BRANCH   6   7
ATOM      7  C   UNL     1      -4.061  -9.265  40.762  1.00  0.00     0.041 C 
ATOM      8  O   UNL     1      -5.254  -8.881  40.647  1.00  0.00    -0.550 OA
ATOM      9  O   UNL     1      -3.678 -10.000  41.876  1.00  0.00    -0.550 OA
ENDBRANCH   6   7
ENDBRANCH   5   6
ENDBRANCH   4   5
ENDBRANCH   3   4
ENDBRANCH   2   3
ENDBRANCH   1   2
BRANCH   1  10
ATOM     10  C   UNL     1      -3.144  -7.378  36.262  1.00  0.00     0.000 C 
BRANCH  10  11
ATOM     11  C   UNL     1      -4.291  -6.676  37.009  1.00  0.00    -0.000 C 
BRANCH  11  12
ATOM     12  C   UNL     1      -4.408  -5.184  36.659  1.00  0.00    -0.000 C 
BRANCH  12  13
ATOM     13  C   UNL     1      -5.616  -4.927  35.748  1.00  0.00    -0.000 C 
BRANCH  13  14
ATOM     14  C   UNL     1      -5.216  -4.376  34.370  1.00  0.00    -0.000 C 
BRANCH  14  15
ATOM     15  C   UNL     1      -3.702  -4.133  34.247  1.00  0.00    -0.000 C 
BRANCH  15  16
ATOM     16  C   UNL     1      -3.023  -5.127  33.290  1.00  0.00    -0.003 C 
ATOM     17  C   UNL     1      -4.007  -6.112  32.662  1.00  0.00     0.004 C 
ENDBRANCH  15  16
ENDBRANCH  14  15
ENDBRANCH  13  14
ENDBRANCH  12  13
ENDBRANCH  11  12
ENDBRANCH  10  11
ENDBRANCH   1  10
TORSDOF 13
ENDMDL
