MODEL 1
REMARK VINA RESULT:    -4.424      0.000      0.000
REMARK INTER + INTRA:          -7.206
REMARK INTER:                  -6.493
REMARK INTRA:                  -0.713
REMARK UNBOUND:                -0.713
REMARK SMILES O=C([O-])CCCCCCCC(=O)[O-]
REMARK SMILES IDX 7 1 6 2 5 3 4 4 2 5 1 6 3 7 8 8 9 9 10 10 11 11 12 12 13 13
REMARK H PARENT
REMARK Flexibility Score: inf
ROOT
ATOM      1  C   UNL     1       7.926  -2.216  47.024  1.00  0.00     0.000 C 
ENDROOT
BRANCH   1   2
ATOM      2  C   UNL     1       8.934  -2.219  48.182  1.00  0.00     0.000 C 
BRANCH   2   3
ATOM      3  C   UNL     1       8.422  -2.984  49.412  1.00  0.00     0.006 C 
BRANCH   3   4
ATOM      4  C   UNL     1       7.022  -3.574  49.199  1.00  0.00     0.053 C 
BRANCH   4   5
ATOM      5  C   UNL     1       6.026  -2.886  50.079  1.00  0.00     0.041 C 
ATOM      6  O   UNL     1       5.357  -3.546  50.916  1.00  0.00    -0.550 OA
ATOM      7  O   UNL     1       5.873  -1.507  50.010  1.00  0.00    -0.550 OA
ENDBRANCH   4   5
ENDBRANCH   3   4
ENDBRANCH   2   3
ENDBRANCH   1   2
BRANCH   1   8
ATOM      8  C   UNL     1       7.353  -0.812  46.798  1.00  0.00     0.000 C 
BRANCH   8   9
ATOM      9  C   UNL     1       5.864  -0.876  46.436  1.00  0.00     0.006 C 
BRANCH   9  10
ATOM     10  C   UNL     1       5.480  -2.268  45.929  1.00  0.00     0.053 C 
BRANCH  10  11
ATOM     11  C   UNL     1       4.750  -2.168  44.627  1.00  0.00     0.041 C 
ATOM     12  O   UNL     1       4.485  -1.040  44.134  1.00  0.00    -0.550 OA
ATOM     13  O   UNL     1       4.405  -3.322  43.934  1.00  0.00    -0.550 OA
ENDBRANCH  10  11
ENDBRANCH   9  10
ENDBRANCH   8   9
ENDBRANCH   1   8
TORSDOF 8
ENDMDL
MODEL 2
REMARK VINA RESULT:    -4.265      2.103      4.212
REMARK INTER + INTRA:          -6.973
REMARK INTER:                  -6.260
REMARK INTRA:                  -0.712
REMARK UNBOUND:                -0.713
REMARK SMILES O=C([O-])CCCCCCCC(=O)[O-]
REMARK SMILES IDX 7 1 6 2 5 3 4 4 2 5 1 6 3 7 8 8 9 9 10 10 11 11 12 12 13 13
REMARK H PARENT
REMARK Flexibility Score: inf
ROOT
ATOM      1  C   UNL     1       9.439  -2.465  49.055  1.00  0.00     0.000 C 
ENDROOT
BRANCH   1   2
ATOM      2  C   UNL     1       7.970  -2.033  48.947  1.00  0.00     0.000 C 
BRANCH   2   3
ATOM      3  C   UNL     1       7.714  -1.096  47.757  1.00  0.00     0.006 C 
BRANCH   3   4
ATOM      4  C   UNL     1       7.290  -1.852  46.491  1.00  0.00     0.053 C 
BRANCH   4   5
ATOM      5  C   UNL     1       5.798  -1.931  46.404  1.00  0.00     0.041 C 
ATOM      6  O   UNL     1       5.083  -1.420  47.305  1.00  0.00    -0.550 OA
ATOM      7  O   UNL     1       5.196  -2.524  45.302  1.00  0.00    -0.550 OA
ENDBRANCH   4   5
ENDBRANCH   3   4
ENDBRANCH   2   3
ENDBRANCH   1   2
BRANCH   1   8
ATOM      8  C   UNL     1       9.693  -3.753  48.265  1.00  0.00     0.000 C 
BRANCH   8   9
ATOM      9  C   UNL     1       8.829  -4.905  48.792  1.00  0.00     0.006 C 
BRANCH   9  10
ATOM     10  C   UNL     1       8.102  -5.616  47.648  1.00  0.00     0.053 C 
BRANCH  10  11
ATOM     11  C   UNL     1       6.633  -5.337  47.707  1.00  0.00     0.041 C 
ATOM     12  O   UNL     1       5.908  -5.541  46.698  1.00  0.00    -0.550 OA
ATOM     13  O   UNL     1       6.057  -4.898  48.893  1.00  0.00    -0.550 OA
ENDBRANCH  10  11
ENDBRANCH   9  10
ENDBRANCH   8   9
ENDBRANCH   1   8
TORSDOF 8
ENDMDL
MODEL 3
REMARK VINA RESULT:    -4.215      1.787      2.568
REMARK INTER + INTRA:          -6.899
REMARK INTER:                  -6.006
REMARK INTRA:                  -0.893
REMARK UNBOUND:                -0.713
REMARK SMILES O=C([O-])CCCCCCCC(=O)[O-]
REMARK SMILES IDX 7 1 6 2 5 3 4 4 2 5 1 6 3 7 8 8 9 9 10 10 11 11 12 12 13 13
REMARK H PARENT
REMARK Flexibility Score: inf
ROOT
ATOM      1  C   UNL     1       8.968  -4.035  48.119  1.00  0.00     0.000 C 
ENDROOT
BRANCH   1   2
ATOM      2  C   UNL     1       8.652  -5.108  49.171  1.00  0.00     0.000 C 
BRANCH   2   3
ATOM      3  C   UNL     1       7.236  -4.971  49.750  1.00  0.00     0.006 C 
BRANCH   3   4
ATOM      4  C   UNL     1       6.173  -4.754  48.665  1.00  0.00     0.053 C 
BRANCH   4   5
ATOM      5  C   UNL     1       5.186  -3.717  49.101  1.00  0.00     0.041 C 
ATOM      6  O   UNL     1       4.025  -3.703  48.617  1.00  0.00    -0.550 OA
ATOM      7  O   UNL     1       5.533  -2.795  50.081  1.00  0.00    -0.550 OA
ENDBRANCH   4   5
ENDBRANCH   3   4
ENDBRANCH   2   3
ENDBRANCH   1   2
BRANCH   1   8
ATOM      8  C   UNL     1       9.212  -2.673  48.779  1.00  0.00     0.000 C 
BRANCH   8   9
ATOM      9  C   UNL     1       8.240  -1.616  48.240  1.00  0.00     0.006 C 
BRANCH   9  10
ATOM     10  C   UNL     1       7.795  -1.954  46.815  1.00  0.00     0.053 C 
BRANCH  10  11
ATOM     11  C   UNL     1       6.486  -1.298  46.505  1.00  0.00     0.041 C 
ATOM     12  O   UNL     1       6.328  -0.068  46.721  1.00  0.00    -0.550 OA
ATOM     13  O   UNL     1       5.458  -2.036  45.932  1.00  0.00    -0.550 OA
ENDBRANCH  10  11
ENDBRANCH   9  10
ENDBRANCH   8   9
ENDBRANCH   1   8
TORSDOF 8
ENDMDL
MODEL 4
REMARK VINA RESULT:    -4.208      1.262      4.662
REMARK INTER + INTRA:          -6.889
REMARK INTER:                  -6.106
REMARK INTRA:                  -0.783
REMARK UNBOUND:                -0.713
REMARK SMILES O=C([O-])CCCCCCCC(=O)[O-]
REMARK SMILES IDX 7 1 6 2 5 3 4 4 2 5 1 6 3 7 8 8 9 9 10 10 11 11 12 12 13 13
REMARK H PARENT
REMARK Flexibility Score: inf
ROOT
ATOM      1  C   UNL     1       8.965  -2.771  47.582  1.00  0.00     0.000 C 
ENDROOT
BRANCH   1   2
ATOM      2  C   UNL     1       8.090  -1.567  47.958  1.00  0.00     0.000 C 
BRANCH   2   3
ATOM      3  C   UNL     1       7.329  -0.988  46.755  1.00  0.00     0.006 C 
BRANCH   3   4
ATOM      4  C   UNL     1       5.807  -1.111  46.905  1.00  0.00     0.053 C 
BRANCH   4   5
ATOM      5  C   UNL     1       5.256  -2.050  45.878  1.00  0.00     0.041 C 
ATOM      6  O   UNL     1       4.765  -1.603  44.809  1.00  0.00    -0.550 OA
ATOM      7  O   UNL     1       5.331  -3.423  46.079  1.00  0.00    -0.550 OA
ENDBRANCH   4   5
ENDBRANCH   3   4
ENDBRANCH   2   3
ENDBRANCH   1   2
BRANCH   1   8
ATOM      8  C   UNL     1       8.223  -4.089  47.830  1.00  0.00     0.000 C 
BRANCH   8   9
ATOM      9  C   UNL     1       8.049  -4.351  49.331  1.00  0.00     0.006 C 
BRANCH   9  10
ATOM     10  C   UNL     1       6.612  -4.768  49.654  1.00  0.00     0.053 C 
BRANCH  10  11
ATOM     11  C   UNL     1       5.766  -3.564  49.926  1.00  0.00     0.041 C 
ATOM     12  O   UNL     1       4.641  -3.443  49.374  1.00  0.00    -0.550 OA
ATOM     13  O   UNL     1       6.199  -2.600  50.827  1.00  0.00    -0.550 OA
ENDBRANCH  10  11
ENDBRANCH   9  10
ENDBRANCH   8   9
ENDBRANCH   1   8
TORSDOF 8
ENDMDL
MODEL 5
REMARK VINA RESULT:    -4.207      2.423      3.580
REMARK INTER + INTRA:          -6.888
REMARK INTER:                  -6.080
REMARK INTRA:                  -0.807
REMARK UNBOUND:                -0.713
REMARK SMILES O=C([O-])CCCCCCCC(=O)[O-]
REMARK SMILES IDX 7 1 6 2 5 3 4 4 2 5 1 6 3 7 8 8 9 9 10 10 11 11 12 12 13 13
REMARK H PARENT
REMARK Flexibility Score: inf
ROOT
ATOM      1  C   UNL     1       5.528  -2.651  50.495  1.00  0.00     0.000 C 
ENDROOT
BRANCH   1   2
ATOM      2  C   UNL     1       5.233  -4.157  50.555  1.00  0.00     0.000 C 
BRANCH   2   3
ATOM      3  C   UNL     1       6.455  -5.015  50.190  1.00  0.00     0.006 C 
BRANCH   3   4
ATOM      4  C   UNL     1       6.230  -5.857  48.928  1.00  0.00     0.053 C 
BRANCH   4   5
ATOM      5  C   UNL     1       6.727  -5.128  47.719  1.00  0.00     0.041 C 
ATOM      6  O   UNL     1       5.913  -4.665  46.878  1.00  0.00    -0.550 OA
ATOM      7  O   UNL     1       8.089  -4.914  47.547  1.00  0.00    -0.550 OA
ENDBRANCH   4   5
ENDBRANCH   3   4
ENDBRANCH   2   3
ENDBRANCH   1   2
BRANCH   1   8
ATOM      8  C   UNL     1       7.012  -2.393  50.210  1.00  0.00     0.000 C 
BRANCH   8   9
ATOM      9  C   UNL     1       7.196  -1.619  48.899  1.00  0.00     0.006 C 
BRANCH   9  10
ATOM     10  C   UNL     1       5.856  -1.417  48.187  1.00  0.00     0.053 C 
BRANCH  10  11
ATOM     11  C   UNL     1       6.062  -0.763  46.857  1.00  0.00     0.041 C 
ATOM     12  O   UNL     1       6.770   0.274  46.765  1.00  0.00    -0.550 OA
ATOM     13  O   UNL     1       5.513  -1.326  45.713  1.00  0.00    -0.550 OA
ENDBRANCH  10  11
ENDBRANCH   9  10
ENDBRANCH   8   9
ENDBRANCH   1   8
TORSDOF 8
ENDMDL
MODEL 6
REMARK VINA RESULT:    -4.191      2.731      4.126
REMARK INTER + INTRA:          -6.864
REMARK INTER:                  -6.077
REMARK INTRA:                  -0.787
REMARK UNBOUND:                -0.713
REMARK SMILES O=C([O-])CCCCCCCC(=O)[O-]
REMARK SMILES IDX 7 1 6 2 5 3 4 4 2 5 1 6 3 7 8 8 9 9 10 10 11 11 12 12 13 13
REMARK H PARENT
REMARK Flexibility Score: inf
ROOT
ATOM      1  C   UNL     1       7.027  -1.426  46.649  1.00  0.00     0.000 C 
ENDROOT
BRANCH   1   2
ATOM      2  C   UNL     1       5.654  -1.455  47.336  1.00  0.00     0.000 C 
BRANCH   2   3
ATOM      3  C   UNL     1       5.757  -1.622  48.860  1.00  0.00     0.006 C 
BRANCH   3   4
ATOM      4  C   UNL     1       5.288  -3.003  49.335  1.00  0.00     0.053 C 
BRANCH   4   5
ATOM      5  C   UNL     1       5.808  -3.286  50.710  1.00  0.00     0.041 C 
ATOM      6  O   UNL     1       6.293  -2.358  51.407  1.00  0.00    -0.550 OA
ATOM      7  O   UNL     1       5.709  -4.566  51.241  1.00  0.00    -0.550 OA
ENDBRANCH   4   5
ENDBRANCH   3   4
ENDBRANCH   2   3
ENDBRANCH   1   2
BRANCH   1   8
ATOM      8  C   UNL     1       8.159  -1.459  47.683  1.00  0.00     0.000 C 
BRANCH   8   9
ATOM      9  C   UNL     1       9.002  -2.732  47.538  1.00  0.00     0.006 C 
BRANCH   9  10
ATOM     10  C   UNL     1       9.157  -3.444  48.885  1.00  0.00     0.053 C 
BRANCH  10  11
ATOM     11  C   UNL     1       8.631  -4.842  48.801  1.00  0.00     0.041 C 
ATOM     12  O   UNL     1       8.727  -5.616  49.790  1.00  0.00    -0.550 OA
ATOM     13  O   UNL     1       7.991  -5.276  47.647  1.00  0.00    -0.550 OA
ENDBRANCH  10  11
ENDBRANCH   9  10
ENDBRANCH   8   9
ENDBRANCH   1   8
TORSDOF 8
ENDMDL
MODEL 7
REMARK VINA RESULT:    -4.181      2.711      5.109
REMARK INTER + INTRA:          -6.849
REMARK INTER:                  -5.976
REMARK INTRA:                  -0.873
REMARK UNBOUND:                -0.713
REMARK SMILES O=C([O-])CCCCCCCC(=O)[O-]
REMARK SMILES IDX 7 1 6 2 5 3 4 4 2 5 1 6 3 7 8 8 9 9 10 10 11 11 12 12 13 13
REMARK H PARENT
REMARK Flexibility Score: inf
ROOT
ATOM      1  C   UNL     1       5.129  -3.186  50.221  1.00  0.00     0.000 C 
ENDROOT
BRANCH   1   2
ATOM      2  C   UNL     1       4.556  -3.541  48.841  1.00  0.00     0.000 C 
BRANCH   2   3
ATOM      3  C   UNL     1       5.021  -2.575  47.740  1.00  0.00     0.006 C 
BRANCH   3   4
ATOM      4  C   UNL     1       6.035  -1.543  48.251  1.00  0.00     0.053 C 
BRANCH   4   5
ATOM      5  C   UNL     1       6.736  -0.889  47.102  1.00  0.00     0.041 C 
ATOM      6  O   UNL     1       6.510   0.318  46.825  1.00  0.00    -0.550 OA
ATOM      7  O   UNL     1       7.679  -1.597  46.368  1.00  0.00    -0.550 OA
ENDBRANCH   4   5
ENDBRANCH   3   4
ENDBRANCH   2   3
ENDBRANCH   1   2
BRANCH   1   8
ATOM      8  C   UNL     1       5.797  -4.405  50.869  1.00  0.00     0.000 C 
BRANCH   8   9
ATOM      9  C   UNL     1       6.267  -5.407  49.807  1.00  0.00     0.006 C 
BRANCH   9  10
ATOM     10  C   UNL     1       7.795  -5.475  49.755  1.00  0.00     0.053 C 
BRANCH  10  11
ATOM     11  C   UNL     1       8.327  -4.529  48.726  1.00  0.00     0.041 C 
ATOM     12  O   UNL     1       7.977  -4.640  47.521  1.00  0.00    -0.550 OA
ATOM     13  O   UNL     1       9.172  -3.493  49.105  1.00  0.00    -0.550 OA
ENDBRANCH  10  11
ENDBRANCH   9  10
ENDBRANCH   8   9
ENDBRANCH   1   8
TORSDOF 8
ENDMDL
MODEL 8
REMARK VINA RESULT:    -4.126      2.456      3.554
REMARK INTER + INTRA:          -6.769
REMARK INTER:                  -6.152
REMARK INTRA:                  -0.617
REMARK UNBOUND:                -0.713
REMARK SMILES O=C([O-])CCCCCCCC(=O)[O-]
REMARK SMILES IDX 7 1 6 2 5 3 4 4 2 5 1 6 3 7 8 8 9 9 10 10 11 11 12 12 13 13
REMARK H PARENT
REMARK Flexibility Score: inf
ROOT
ATOM      1  C   UNL     1       6.176  -3.576  49.875  1.00  0.00     0.000 C 
ENDROOT
BRANCH   1   2
ATOM      2  C   UNL     1       6.969  -4.880  49.703  1.00  0.00     0.000 C 
BRANCH   2   3
ATOM      3  C   UNL     1       7.639  -4.988  48.324  1.00  0.00     0.006 C 
BRANCH   3   4
ATOM      4  C   UNL     1       9.131  -4.634  48.364  1.00  0.00     0.053 C 
BRANCH   4   5
ATOM      5  C   UNL     1       9.338  -3.201  47.986  1.00  0.00     0.041 C 
ATOM      6  O   UNL     1       8.845  -2.749  46.920  1.00  0.00    -0.550 OA
ATOM      7  O   UNL     1      10.032  -2.350  48.838  1.00  0.00    -0.550 OA
ENDBRANCH   4   5
ENDBRANCH   3   4
ENDBRANCH   2   3
ENDBRANCH   1   2
BRANCH   1   8
ATOM      8  C   UNL     1       4.841  -3.642  49.125  1.00  0.00     0.000 C 
BRANCH   8   9
ATOM      9  C   UNL     1       4.845  -2.713  47.905  1.00  0.00     0.006 C 
BRANCH   9  10
ATOM     10  C   UNL     1       5.787  -1.526  48.122  1.00  0.00     0.053 C 
BRANCH  10  11
ATOM     11  C   UNL     1       6.002  -0.787  46.838  1.00  0.00     0.041 C 
ATOM     12  O   UNL     1       6.701   0.260  46.820  1.00  0.00    -0.550 OA
ATOM     13  O   UNL     1       5.471  -1.282  45.654  1.00  0.00    -0.550 OA
ENDBRANCH  10  11
ENDBRANCH   9  10
ENDBRANCH   8   9
ENDBRANCH   1   8
TORSDOF 8
ENDMDL
MODEL 9
REMARK VINA RESULT:    -4.124      2.269      3.745
REMARK INTER + INTRA:          -6.766
REMARK INTER:                  -5.875
REMARK INTRA:                  -0.890
REMARK UNBOUND:                -0.713
REMARK SMILES O=C([O-])CCCCCCCC(=O)[O-]
REMARK SMILES IDX 7 1 6 2 5 3 4 4 2 5 1 6 3 7 8 8 9 9 10 10 11 11 12 12 13 13
REMARK H PARENT
REMARK Flexibility Score: inf
ROOT
ATOM      1  C   UNL     1       6.747  -2.308  50.337  1.00  0.00     0.000 C 
ENDROOT
BRANCH   1   2
ATOM      2  C   UNL     1       7.782  -2.803  49.316  1.00  0.00     0.000 C 
BRANCH   2   3
ATOM      3  C   UNL     1       8.183  -1.718  48.305  1.00  0.00     0.006 C 
BRANCH   3   4
ATOM      4  C   UNL     1       7.590  -1.962  46.911  1.00  0.00     0.053 C 
BRANCH   4   5
ATOM      5  C   UNL     1       6.409  -1.072  46.682  1.00  0.00     0.041 C 
ATOM      6  O   UNL     1       5.273  -1.569  46.466  1.00  0.00    -0.550 OA
ATOM      7  O   UNL     1       6.552   0.308  46.759  1.00  0.00    -0.550 OA
ENDBRANCH   4   5
ENDBRANCH   3   4
ENDBRANCH   2   3
ENDBRANCH   1   2
BRANCH   1   8
ATOM      8  C   UNL     1       5.340  -2.798  49.974  1.00  0.00     0.000 C 
BRANCH   8   9
ATOM      9  C   UNL     1       5.370  -4.251  49.486  1.00  0.00     0.006 C 
BRANCH   9  10
ATOM     10  C   UNL     1       4.445  -4.445  48.281  1.00  0.00     0.053 C 
BRANCH  10  11
ATOM     11  C   UNL     1       5.218  -4.947  47.103  1.00  0.00     0.041 C 
ATOM     12  O   UNL     1       4.690  -4.965  45.960  1.00  0.00    -0.550 OA
ATOM     13  O   UNL     1       6.538  -5.350  47.259  1.00  0.00    -0.550 OA
ENDBRANCH  10  11
ENDBRANCH   9  10
ENDBRANCH   8   9
ENDBRANCH   1   8
TORSDOF 8
ENDMDL
