MODEL 1
REMARK VINA RESULT:    -3.466      0.000      0.000
REMARK INTER + INTRA:          -4.359
REMARK INTER:                  -4.884
REMARK INTRA:                   0.525
REMARK UNBOUND:                 0.525
REMARK SMILES CC1=CCC(=C(C)C)C(=O)CC(C)=CCC1
REMARK SMILES IDX 12 1 14 2 13 3 15 4 16 5 2 6 1 7 3 8 11 10 9 11 10 12 5 13
REMARK SMILES IDX 6 14 7 15 8 16 4 17
REMARK H PARENT
REMARK Flexibility Score: 60.00
ROOT
ATOM      1  C   UNL     1      83.299   3.057  26.868  1.00  0.00    -0.070 C 
ATOM      2  C   UNL     1      82.697   3.995  26.105  1.00  0.00    -0.027 C 
ATOM      3  C   UNL     1      82.596   1.734  27.046  1.00  0.00     0.039 C 
ENDROOT
BRANCH   2   4
ATOM      4  C   UNL     1      83.283   5.339  25.730  1.00  0.00     0.032 C 
BRANCH   4   5
ATOM      5  C   UNL     1      83.377   6.351  26.891  1.00  0.00     0.034 C 
BRANCH   5   6
ATOM      6  C   UNL     1      82.145   6.358  27.779  1.00  0.00    -0.077 C 
ATOM      7  C   UNL     1      80.859   6.875  27.188  1.00  0.00     0.039 C 
ATOM      8  C   UNL     1      82.112   5.866  29.042  1.00  0.00    -0.023 CG0
ATOM      9  G   UNL     1      83.276   5.316  29.841  1.00  0.00     0.000 G0
ENDBRANCH   5   6
ENDBRANCH   4   5
ENDBRANCH   2   4
BRANCH   1  10
ATOM     10  C   UNL     1      84.678   3.234  27.471  1.00  0.00     0.111 C 
BRANCH  10  11
ATOM     11  C   UNL     1      84.624   3.296  28.975  1.00  0.00     0.163 C 
ATOM     12  O   UNL     1      85.650   2.952  29.620  1.00  0.00    -0.294 OA
BRANCH  11  13
ATOM     13  C   UNL     1      83.429   3.802  29.713  1.00  0.00    -0.002 C 
ATOM     14  C   UNL     1      82.561   2.936  30.317  1.00  0.00    -0.069 C 
ATOM     15  C   UNL     1      82.688   1.440  30.129  1.00  0.00     0.039 C 
ATOM     16  C   UNL     1      81.434   3.420  31.204  1.00  0.00     0.039 C 
BRANCH  13  17
ATOM     17  C   UNL     1      83.278   5.309  29.842  1.00  0.00     0.066 CG0
ATOM     18  G   UNL     1      82.117   5.845  29.027  1.00  0.00     0.000 G0
ENDBRANCH  13  17
ENDBRANCH  11  13
ENDBRANCH  10  11
ENDBRANCH   1  10
TORSDOF 0
ENDMDL
MODEL 2
REMARK VINA RESULT:    -3.343     10.286     12.251
REMARK INTER + INTRA:          -4.186
REMARK INTER:                  -4.490
REMARK INTRA:                   0.304
REMARK UNBOUND:                 0.525
REMARK SMILES CC1=CCC(=C(C)C)C(=O)CC(C)=CCC1
REMARK SMILES IDX 12 1 14 2 13 3 15 4 16 5 2 6 1 7 3 8 11 10 9 11 10 12 5 13
REMARK SMILES IDX 6 14 7 15 8 16 4 17
REMARK H PARENT
REMARK Flexibility Score: 60.00
ROOT
ATOM      1  C   UNL     1      79.014  -6.564  26.077  1.00  0.00    -0.070 C 
ATOM      2  C   UNL     1      79.477  -5.327  26.363  1.00  0.00    -0.027 C 
ATOM      3  C   UNL     1      77.584  -6.691  25.614  1.00  0.00     0.039 C 
ENDROOT
BRANCH   2   4
ATOM      4  C   UNL     1      80.900  -4.984  26.746  1.00  0.00     0.032 C 
BRANCH   4   5
ATOM      5  C   UNL     1      81.257  -5.256  28.223  1.00  0.00     0.034 C 
BRANCH   5   6
ATOM      6  C   UNL     1      80.056  -5.187  29.150  1.00  0.00    -0.077 C 
ATOM      7  C   UNL     1      79.531  -3.823  29.517  1.00  0.00     0.039 C 
ATOM      8  C   UNL     1      79.384  -6.271  29.611  1.00  0.00    -0.023 CG0
ATOM      9  G   UNL     1      79.736  -7.728  29.388  1.00  0.00     0.000 G0
ENDBRANCH   5   6
ENDBRANCH   4   5
ENDBRANCH   2   4
BRANCH   1  10
ATOM     10  C   UNL     1      79.881  -7.805  26.111  1.00  0.00     0.111 C 
BRANCH  10  11
ATOM     11  C   UNL     1      79.359  -8.822  27.092  1.00  0.00     0.163 C 
ATOM     12  O   UNL     1      79.453 -10.042  26.788  1.00  0.00    -0.294 OA
BRANCH  11  13
ATOM     13  C   UNL     1      78.798  -8.438  28.421  1.00  0.00    -0.002 C 
ATOM     14  C   UNL     1      77.521  -8.782  28.767  1.00  0.00    -0.069 C 
ATOM     15  C   UNL     1      76.583  -9.419  27.766  1.00  0.00     0.039 C 
ATOM     16  C   UNL     1      76.978  -8.548  30.160  1.00  0.00     0.039 C 
BRANCH  13  17
ATOM     17  C   UNL     1      79.733  -7.741  29.396  1.00  0.00     0.066 CG0
ATOM     18  G   UNL     1      79.374  -6.282  29.597  1.00  0.00     0.000 G0
ENDBRANCH  13  17
ENDBRANCH  11  13
ENDBRANCH  10  11
ENDBRANCH   1  10
TORSDOF 0
ENDMDL
MODEL 3
REMARK VINA RESULT:    -3.316      9.922     12.172
REMARK INTER + INTRA:          -4.148
REMARK INTER:                  -4.378
REMARK INTRA:                   0.230
REMARK UNBOUND:                 0.525
REMARK SMILES CC1=CCC(=C(C)C)C(=O)CC(C)=CCC1
REMARK SMILES IDX 12 1 14 2 13 3 15 4 16 5 2 6 1 7 3 8 11 10 9 11 10 12 5 13
REMARK SMILES IDX 6 14 7 15 8 16 4 17
REMARK H PARENT
REMARK Flexibility Score: 60.00
ROOT
ATOM      1  C   UNL     1      80.348  -4.302  29.126  1.00  0.00    -0.070 C 
ATOM      2  C   UNL     1      81.372  -4.313  28.244  1.00  0.00    -0.027 C 
ATOM      3  C   UNL     1      79.883  -2.967  29.650  1.00  0.00     0.039 C 
ENDROOT
BRANCH   2   4
ATOM      4  C   UNL     1      81.914  -5.535  27.536  1.00  0.00     0.032 C 
BRANCH   4   5
ATOM      5  C   UNL     1      81.016  -6.080  26.405  1.00  0.00     0.034 C 
BRANCH   5   6
ATOM      6  C   UNL     1      80.793  -7.579  26.489  1.00  0.00    -0.077 C 
ATOM      7  C   UNL     1      82.003  -8.474  26.406  1.00  0.00     0.039 C 
ATOM      8  C   UNL     1      79.587  -8.161  26.703  1.00  0.00    -0.023 CG0
ATOM      9  G   UNL     1      78.242  -7.469  26.802  1.00  0.00     0.000 G0
ENDBRANCH   5   6
ENDBRANCH   4   5
ENDBRANCH   2   4
BRANCH   1  10
ATOM     10  C   UNL     1      79.592  -5.549  29.537  1.00  0.00     0.111 C 
BRANCH  10  11
ATOM     11  C   UNL     1      78.342  -5.737  28.718  1.00  0.00     0.163 C 
ATOM     12  O   UNL     1      77.688  -4.711  28.389  1.00  0.00    -0.294 OA
BRANCH  11  13
ATOM     13  C   UNL     1      77.894  -7.078  28.237  1.00  0.00    -0.002 C 
ATOM     14  C   UNL     1      77.122  -7.882  29.028  1.00  0.00    -0.069 C 
ATOM     15  C   UNL     1      76.828  -7.517  30.467  1.00  0.00     0.039 C 
ATOM     16  C   UNL     1      76.521  -9.172  28.515  1.00  0.00     0.039 C 
BRANCH  13  17
ATOM     17  C   UNL     1      78.250  -7.460  26.810  1.00  0.00     0.066 CG0
ATOM     18  G   UNL     1      79.587  -8.168  26.718  1.00  0.00     0.000 G0
ENDBRANCH  13  17
ENDBRANCH  11  13
ENDBRANCH  10  11
ENDBRANCH   1  10
TORSDOF 0
ENDMDL
MODEL 4
REMARK VINA RESULT:    -3.154     11.132     13.608
REMARK INTER + INTRA:          -3.919
REMARK INTER:                  -4.166
REMARK INTRA:                   0.246
REMARK UNBOUND:                 0.525
REMARK SMILES CC1=CCC(=C(C)C)C(=O)CC(C)=CCC1
REMARK SMILES IDX 12 1 14 2 13 3 15 4 16 5 2 6 1 7 3 8 11 10 9 11 10 12 5 13
REMARK SMILES IDX 6 14 7 15 8 16 4 17
REMARK H PARENT
REMARK Flexibility Score: 60.00
ROOT
ATOM      1  C   UNL     1      79.861  -5.350  28.341  1.00  0.00    -0.070 C 
ATOM      2  C   UNL     1      79.421  -5.744  29.556  1.00  0.00    -0.027 C 
ATOM      3  C   UNL     1      81.029  -4.397  28.289  1.00  0.00     0.039 C 
ENDROOT
BRANCH   2   4
ATOM      4  C   UNL     1      78.332  -6.763  29.813  1.00  0.00     0.032 C 
BRANCH   4   5
ATOM      5  C   UNL     1      78.834  -8.209  30.013  1.00  0.00     0.034 C 
BRANCH   5   6
ATOM      6  C   UNL     1      77.959  -9.245  29.328  1.00  0.00    -0.077 C 
ATOM      7  C   UNL     1      76.671  -9.634  30.008  1.00  0.00     0.039 C 
ATOM      8  C   UNL     1      78.227  -9.789  28.116  1.00  0.00    -0.023 CG0
ATOM      9  G   UNL     1      79.459  -9.562  27.263  1.00  0.00     0.000 G0
ENDBRANCH   5   6
ENDBRANCH   4   5
ENDBRANCH   2   4
BRANCH   1  10
ATOM     10  C   UNL     1      79.303  -5.888  27.039  1.00  0.00     0.111 C 
BRANCH  10  11
ATOM     11  C   UNL     1      80.022  -7.136  26.599  1.00  0.00     0.163 C 
ATOM     12  O   UNL     1      81.281  -7.108  26.546  1.00  0.00    -0.294 OA
BRANCH  11  13
ATOM     13  C   UNL     1      79.302  -8.407  26.286  1.00  0.00    -0.002 C 
ATOM     14  C   UNL     1      78.600  -8.544  25.122  1.00  0.00    -0.069 C 
ATOM     15  C   UNL     1      78.393  -7.371  24.188  1.00  0.00     0.039 C 
ATOM     16  C   UNL     1      77.994  -9.866  24.702  1.00  0.00     0.039 C 
BRANCH  13  17
ATOM     17  C   UNL     1      79.467  -9.559  27.264  1.00  0.00     0.066 CG0
ATOM     18  G   UNL     1      78.226  -9.784  28.105  1.00  0.00     0.000 G0
ENDBRANCH  13  17
ENDBRANCH  11  13
ENDBRANCH  10  11
ENDBRANCH   1  10
TORSDOF 0
ENDMDL
MODEL 5
REMARK VINA RESULT:    -3.151      1.830      3.702
REMARK INTER + INTRA:          -3.915
REMARK INTER:                  -5.409
REMARK INTRA:                   1.494
REMARK UNBOUND:                 0.525
REMARK SMILES CC1=CCC(=C(C)C)C(=O)CC(C)=CCC1
REMARK SMILES IDX 12 1 14 2 13 3 15 4 16 5 2 6 1 7 3 8 11 10 9 11 10 12 5 13
REMARK SMILES IDX 6 14 7 15 8 16 4 17
REMARK H PARENT
REMARK Flexibility Score: 60.00
ROOT
ATOM      1  C   UNL     1      82.082   6.198  27.255  1.00  0.00    -0.070 C 
ATOM      2  C   UNL     1      83.306   5.999  26.718  1.00  0.00    -0.027 C 
ATOM      3  C   UNL     1      81.362   7.479  26.914  1.00  0.00     0.039 C 
ENDROOT
BRANCH   2   4
ATOM      4  C   UNL     1      84.140   4.744  26.862  1.00  0.00     0.032 C 
BRANCH   4   5
ATOM      5  C   UNL     1      85.327   4.864  27.840  1.00  0.00     0.034 C 
BRANCH   5   6
ATOM      6  C   UNL     1      85.703   3.543  28.488  1.00  0.00    -0.077 C 
ATOM      7  C   UNL     1      87.143   3.343  28.886  1.00  0.00     0.039 C 
ATOM      8  C   UNL     1      84.818   2.563  28.794  1.00  0.00    -0.023 CG0
ATOM      9  G   UNL     1      83.336   2.537  28.476  1.00  0.00     0.000 G0
ENDBRANCH   5   6
ENDBRANCH   4   5
ENDBRANCH   2   4
BRANCH   1  10
ATOM     10  C   UNL     1      81.367   5.165  28.102  1.00  0.00     0.111 C 
BRANCH  10  11
ATOM     11  C   UNL     1      82.210   4.720  29.267  1.00  0.00     0.163 C 
ATOM     12  O   UNL     1      82.623   5.599  30.071  1.00  0.00    -0.294 OA
BRANCH  11  13
ATOM     13  C   UNL     1      82.517   3.283  29.531  1.00  0.00    -0.002 C 
ATOM     14  C   UNL     1      82.004   2.649  30.628  1.00  0.00    -0.069 C 
ATOM     15  C   UNL     1      81.244   3.411  31.691  1.00  0.00     0.039 C 
ATOM     16  C   UNL     1      82.163   1.158  30.839  1.00  0.00     0.039 C 
BRANCH  13  17
ATOM     17  C   UNL     1      83.335   2.543  28.486  1.00  0.00     0.066 CG0
ATOM     18  G   UNL     1      84.819   2.566  28.793  1.00  0.00     0.000 G0
ENDBRANCH  13  17
ENDBRANCH  11  13
ENDBRANCH  10  11
ENDBRANCH   1  10
TORSDOF 0
ENDMDL
MODEL 6
REMARK VINA RESULT:    -3.074     11.043     13.315
REMARK INTER + INTRA:          -3.807
REMARK INTER:                  -4.079
REMARK INTRA:                   0.272
REMARK UNBOUND:                 0.525
REMARK SMILES CC1=CCC(=C(C)C)C(=O)CC(C)=CCC1
REMARK SMILES IDX 12 1 14 2 13 3 15 4 16 5 2 6 1 7 3 8 11 10 9 11 10 12 5 13
REMARK SMILES IDX 6 14 7 15 8 16 4 17
REMARK H PARENT
REMARK Flexibility Score: 60.00
ROOT
ATOM      1  C   UNL     1      80.718  -6.068  27.255  1.00  0.00    -0.070 C 
ATOM      2  C   UNL     1      82.054  -6.270  27.290  1.00  0.00    -0.027 C 
ATOM      3  C   UNL     1      80.138  -5.030  28.183  1.00  0.00     0.039 C 
ENDROOT
BRANCH   2   4
ATOM      4  C   UNL     1      82.832  -7.191  26.375  1.00  0.00     0.032 C 
BRANCH   4   5
ATOM      5  C   UNL     1      82.290  -8.634  26.296  1.00  0.00     0.034 C 
BRANCH   5   6
ATOM      6  C   UNL     1      82.207  -9.316  27.650  1.00  0.00    -0.077 C 
ATOM      7  C   UNL     1      83.482  -9.461  28.441  1.00  0.00     0.039 C 
ATOM      8  C   UNL     1      81.053  -9.739  28.223  1.00  0.00    -0.023 CG0
ATOM      9  G   UNL     1      79.666  -9.711  27.613  1.00  0.00     0.000 G0
ENDBRANCH   5   6
ENDBRANCH   4   5
ENDBRANCH   2   4
BRANCH   1  10
ATOM     10  C   UNL     1      79.797  -6.763  26.273  1.00  0.00     0.111 C 
BRANCH  10  11
ATOM     11  C   UNL     1      78.647  -7.439  26.972  1.00  0.00     0.163 C 
ATOM     12  O   UNL     1      77.476  -7.130  26.622  1.00  0.00    -0.294 OA
BRANCH  11  13
ATOM     13  C   UNL     1      78.849  -8.493  28.010  1.00  0.00    -0.002 C 
ATOM     14  C   UNL     1      78.259  -8.386  29.239  1.00  0.00    -0.069 C 
ATOM     15  C   UNL     1      77.517  -7.132  29.646  1.00  0.00     0.039 C 
ATOM     16  C   UNL     1      78.312  -9.508  30.253  1.00  0.00     0.039 C 
BRANCH  13  17
ATOM     17  C   UNL     1      79.649  -9.721  27.608  1.00  0.00     0.066 CG0
ATOM     18  G   UNL     1      81.042  -9.722  28.205  1.00  0.00     0.000 G0
ENDBRANCH  13  17
ENDBRANCH  11  13
ENDBRANCH  10  11
ENDBRANCH   1  10
TORSDOF 0
ENDMDL
MODEL 7
REMARK VINA RESULT:    -3.007     11.340     13.169
REMARK INTER + INTRA:          -3.712
REMARK INTER:                  -4.257
REMARK INTRA:                   0.545
REMARK UNBOUND:                 0.525
REMARK SMILES CC1=CCC(=C(C)C)C(=O)CC(C)=CCC1
REMARK SMILES IDX 12 1 14 2 13 3 15 4 16 5 2 6 1 7 3 8 11 10 9 11 10 12 5 13
REMARK SMILES IDX 6 14 7 15 8 16 4 17
REMARK H PARENT
REMARK Flexibility Score: 60.00
ROOT
ATOM      1  C   UNL     1      79.834  -5.821  28.095  1.00  0.00    -0.070 C 
ATOM      2  C   UNL     1      78.771  -5.637  27.282  1.00  0.00    -0.027 C 
ATOM      3  C   UNL     1      79.634  -5.611  29.576  1.00  0.00     0.039 C 
ENDROOT
BRANCH   2   4
ATOM      4  C   UNL     1      78.746  -5.891  25.790  1.00  0.00     0.032 C 
BRANCH   4   5
ATOM      5  C   UNL     1      77.913  -7.115  25.356  1.00  0.00     0.034 C 
BRANCH   5   6
ATOM      6  C   UNL     1      78.008  -8.278  26.328  1.00  0.00    -0.077 C 
ATOM      7  C   UNL     1      76.822  -8.543  27.221  1.00  0.00     0.039 C 
ATOM      8  C   UNL     1      79.058  -9.133  26.396  1.00  0.00    -0.023 CG0
ATOM      9  G   UNL     1      80.354  -9.053  25.615  1.00  0.00     0.000 G0
ENDBRANCH   5   6
ENDBRANCH   4   5
ENDBRANCH   2   4
BRANCH   1  10
ATOM     10  C   UNL     1      81.181  -6.313  27.606  1.00  0.00     0.111 C 
BRANCH  10  11
ATOM     11  C   UNL     1      81.280  -7.815  27.667  1.00  0.00     0.163 C 
ATOM     12  O   UNL     1      81.073  -8.378  28.775  1.00  0.00    -0.294 OA
BRANCH  11  13
ATOM     13  C   UNL     1      81.551  -8.648  26.458  1.00  0.00    -0.002 C 
ATOM     14  C   UNL     1      82.815  -9.089  26.182  1.00  0.00    -0.069 C 
ATOM     15  C   UNL     1      84.003  -8.622  26.993  1.00  0.00     0.039 C 
ATOM     16  C   UNL     1      83.096 -10.064  25.059  1.00  0.00     0.039 C 
BRANCH  13  17
ATOM     17  C   UNL     1      80.355  -9.060  25.615  1.00  0.00     0.066 CG0
ATOM     18  G   UNL     1      79.073  -9.119  26.421  1.00  0.00     0.000 G0
ENDBRANCH  13  17
ENDBRANCH  11  13
ENDBRANCH  10  11
ENDBRANCH   1  10
TORSDOF 0
ENDMDL
MODEL 8
REMARK VINA RESULT:    -2.765     10.597     12.913
REMARK INTER + INTRA:          -3.372
REMARK INTER:                  -4.429
REMARK INTRA:                   1.057
REMARK UNBOUND:                 0.525
REMARK SMILES CC1=CCC(=C(C)C)C(=O)CC(C)=CCC1
REMARK SMILES IDX 12 1 14 2 13 3 15 4 16 5 2 6 1 7 3 8 11 10 9 11 10 12 5 13
REMARK SMILES IDX 6 14 7 15 8 16 4 17
REMARK H PARENT
REMARK Flexibility Score: 60.00
ROOT
ATOM      1  C   UNL     1      78.932  -8.121  26.182  1.00  0.00    -0.070 C 
ATOM      2  C   UNL     1      77.940  -8.747  26.853  1.00  0.00    -0.027 C 
ATOM      3  C   UNL     1      78.646  -6.753  25.615  1.00  0.00     0.039 C 
ENDROOT
BRANCH   2   4
ATOM      4  C   UNL     1      78.061 -10.072  27.573  1.00  0.00     0.032 C 
BRANCH   4   5
ATOM      5  C   UNL     1      78.295  -9.963  29.094  1.00  0.00     0.034 C 
BRANCH   5   6
ATOM      6  C   UNL     1      78.132  -8.549  29.624  1.00  0.00    -0.077 C 
ATOM      7  C   UNL     1      76.768  -8.140  30.121  1.00  0.00     0.039 C 
ATOM      8  C   UNL     1      79.145  -7.656  29.743  1.00  0.00    -0.023 CG0
ATOM      9  G   UNL     1      80.582  -7.839  29.298  1.00  0.00     0.000 G0
ENDBRANCH   5   6
ENDBRANCH   4   5
ENDBRANCH   2   4
BRANCH   1  10
ATOM     10  C   UNL     1      80.334  -8.682  26.055  1.00  0.00     0.111 C 
BRANCH  10  11
ATOM     11  C   UNL     1      81.330  -7.874  26.844  1.00  0.00     0.163 C 
ATOM     12  O   UNL     1      82.521  -7.835  26.433  1.00  0.00    -0.294 OA
BRANCH  11  13
ATOM     13  C   UNL     1      80.943  -7.079  28.047  1.00  0.00    -0.002 C 
ATOM     14  C   UNL     1      80.824  -5.719  27.977  1.00  0.00    -0.069 C 
ATOM     15  C   UNL     1      81.230  -4.958  26.734  1.00  0.00     0.039 C 
ATOM     16  C   UNL     1      80.280  -4.902  29.130  1.00  0.00     0.039 C 
BRANCH  13  17
ATOM     17  C   UNL     1      80.597  -7.851  29.310  1.00  0.00     0.066 CG0
ATOM     18  G   UNL     1      79.155  -7.649  29.732  1.00  0.00     0.000 G0
ENDBRANCH  13  17
ENDBRANCH  11  13
ENDBRANCH  10  11
ENDBRANCH   1  10
TORSDOF 0
ENDMDL
MODEL 9
REMARK VINA RESULT:    -2.693     11.152     13.373
REMARK INTER + INTRA:          -3.270
REMARK INTER:                  -4.255
REMARK INTRA:                   0.985
REMARK UNBOUND:                 0.525
REMARK SMILES CC1=CCC(=C(C)C)C(=O)CC(C)=CCC1
REMARK SMILES IDX 12 1 14 2 13 3 15 4 16 5 2 6 1 7 3 8 11 10 9 11 10 12 5 13
REMARK SMILES IDX 6 14 7 15 8 16 4 17
REMARK H PARENT
REMARK Flexibility Score: 60.00
ROOT
ATOM      1  C   UNL     1      76.841  -8.442  27.754  1.00  0.00    -0.070 C 
ATOM      2  C   UNL     1      76.714  -8.132  26.444  1.00  0.00    -0.027 C 
ATOM      3  C   UNL     1      76.141  -9.680  28.256  1.00  0.00     0.039 C 
ENDROOT
BRANCH   2   4
ATOM      4  C   UNL     1      77.414  -6.993  25.735  1.00  0.00     0.032 C 
BRANCH   4   5
ATOM      5  C   UNL     1      78.592  -7.419  24.834  1.00  0.00     0.034 C 
BRANCH   5   6
ATOM      6  C   UNL     1      79.113  -8.810  25.150  1.00  0.00    -0.077 C 
ATOM      7  C   UNL     1      78.446  -9.979  24.470  1.00  0.00     0.039 C 
ATOM      8  C   UNL     1      80.181  -9.063  25.945  1.00  0.00    -0.023 CG0
ATOM      9  G   UNL     1      80.990  -8.056  26.739  1.00  0.00     0.000 G0
ENDBRANCH   5   6
ENDBRANCH   4   5
ENDBRANCH   2   4
BRANCH   1  10
ATOM     10  C   UNL     1      77.721  -7.665  28.711  1.00  0.00     0.111 C 
BRANCH  10  11
ATOM     11  C   UNL     1      79.170  -8.053  28.575  1.00  0.00     0.163 C 
ATOM     12  O   UNL     1      79.560  -9.103  29.153  1.00  0.00    -0.294 OA
BRANCH  11  13
ATOM     13  C   UNL     1      80.131  -7.277  27.737  1.00  0.00    -0.002 C 
ATOM     14  C   UNL     1      80.285  -5.931  27.914  1.00  0.00    -0.069 C 
ATOM     15  C   UNL     1      79.382  -5.155  28.847  1.00  0.00     0.039 C 
ATOM     16  C   UNL     1      81.361  -5.145  27.195  1.00  0.00     0.039 C 
BRANCH  13  17
ATOM     17  C   UNL     1      80.991  -8.061  26.757  1.00  0.00     0.066 CG0
ATOM     18  G   UNL     1      80.181  -9.050  25.944  1.00  0.00     0.000 G0
ENDBRANCH  13  17
ENDBRANCH  11  13
ENDBRANCH  10  11
ENDBRANCH   1  10
TORSDOF 0
ENDMDL
