MODEL 1
REMARK VINA RESULT:    -4.423      0.000      0.000
REMARK INTER + INTRA:          -4.703
REMARK INTER:                  -4.682
REMARK INTRA:                  -0.021
REMARK UNBOUND:                -0.021
REMARK SMILES O=C([O-])c1cccnc1
REMARK SMILES IDX 4 1 5 2 9 3 6 4 8 5 7 6 2 7 1 8 3 9
REMARK H PARENT
REMARK Flexibility Score: inf
ROOT
ATOM      1  C   UNL     1      12.818 -30.605  22.563  1.00  0.00     0.016 A 
ATOM      2  C   UNL     1      13.374 -29.859  23.614  1.00  0.00     0.013 A 
ATOM      3  C   UNL     1      11.544 -30.246  22.089  1.00  0.00     0.120 A 
ATOM      4  C   UNL     1      12.667 -28.790  24.166  1.00  0.00     0.021 A 
ATOM      5  N   UNL     1      10.876 -29.199  22.643  1.00  0.00    -0.264 NA
ATOM      6  C   UNL     1      11.405 -28.472  23.661  1.00  0.00     0.111 A 
ENDROOT
BRANCH   1   7
ATOM      7  C   UNL     1      13.559 -31.741  21.970  1.00  0.00     0.073 C 
ATOM      8  O   UNL     1      14.269 -32.489  22.692  1.00  0.00    -0.545 OA
ATOM      9  O   UNL     1      13.480 -31.995  20.605  1.00  0.00    -0.545 OA
ENDBRANCH   1   7
TORSDOF 1
ENDMDL
MODEL 2
REMARK VINA RESULT:    -4.237      2.756      3.760
REMARK INTER + INTRA:          -4.506
REMARK INTER:                  -4.486
REMARK INTRA:                  -0.020
REMARK UNBOUND:                -0.021
REMARK SMILES O=C([O-])c1cccnc1
REMARK SMILES IDX 4 1 5 2 9 3 6 4 8 5 7 6 2 7 1 8 3 9
REMARK H PARENT
REMARK Flexibility Score: inf
ROOT
ATOM      1  C   UNL     1      13.051 -31.238  22.434  1.00  0.00     0.016 A 
ATOM      2  C   UNL     1      13.632 -31.734  23.611  1.00  0.00     0.013 A 
ATOM      3  C   UNL     1      13.448 -31.796  21.206  1.00  0.00     0.120 A 
ATOM      4  C   UNL     1      14.580 -32.757  23.549  1.00  0.00     0.021 A 
ATOM      5  N   UNL     1      14.373 -32.793  21.172  1.00  0.00    -0.264 NA
ATOM      6  C   UNL     1      14.942 -33.278  22.306  1.00  0.00     0.111 A 
ENDROOT
BRANCH   1   7
ATOM      7  C   UNL     1      12.045 -30.155  22.487  1.00  0.00     0.073 C 
ATOM      8  O   UNL     1      12.232 -29.142  23.212  1.00  0.00    -0.545 OA
ATOM      9  O   UNL     1      10.877 -30.243  21.738  1.00  0.00    -0.545 OA
ENDBRANCH   1   7
TORSDOF 1
ENDMDL
MODEL 3
REMARK VINA RESULT:    -4.143      2.760      3.997
REMARK INTER + INTRA:          -4.406
REMARK INTER:                  -4.385
REMARK INTRA:                  -0.022
REMARK UNBOUND:                -0.021
REMARK SMILES O=C([O-])c1cccnc1
REMARK SMILES IDX 4 1 5 2 9 3 6 4 8 5 7 6 2 7 1 8 3 9
REMARK H PARENT
REMARK Flexibility Score: inf
ROOT
ATOM      1  C   UNL     1      13.173 -30.964  22.739  1.00  0.00     0.016 A 
ATOM      2  C   UNL     1      13.207 -31.294  21.375  1.00  0.00     0.013 A 
ATOM      3  C   UNL     1      13.907 -31.758  23.638  1.00  0.00     0.120 A 
ATOM      4  C   UNL     1      13.956 -32.388  20.937  1.00  0.00     0.021 A 
ATOM      5  N   UNL     1      14.630 -32.818  23.185  1.00  0.00    -0.264 NA
ATOM      6  C   UNL     1      14.668 -33.146  21.867  1.00  0.00     0.111 A 
ENDROOT
BRANCH   1   7
ATOM      7  C   UNL     1      12.384 -29.807  23.216  1.00  0.00     0.073 C 
ATOM      8  O   UNL     1      12.739 -29.168  24.241  1.00  0.00    -0.545 OA
ATOM      9  O   UNL     1      11.237 -29.412  22.538  1.00  0.00    -0.545 OA
ENDBRANCH   1   7
TORSDOF 1
ENDMDL
MODEL 4
REMARK VINA RESULT:    -4.078      2.984      3.846
REMARK INTER + INTRA:          -4.337
REMARK INTER:                  -4.314
REMARK INTRA:                  -0.023
REMARK UNBOUND:                -0.021
REMARK SMILES O=C([O-])c1cccnc1
REMARK SMILES IDX 4 1 5 2 9 3 6 4 8 5 7 6 2 7 1 8 3 9
REMARK H PARENT
REMARK Flexibility Score: inf
ROOT
ATOM      1  C   UNL     1      13.192 -29.371  23.049  1.00  0.00     0.016 A 
ATOM      2  C   UNL     1      14.532 -29.126  22.709  1.00  0.00     0.013 A 
ATOM      3  C   UNL     1      12.584 -30.544  22.567  1.00  0.00     0.120 A 
ATOM      4  C   UNL     1      15.231 -30.034  21.911  1.00  0.00     0.021 A 
ATOM      5  N   UNL     1      13.288 -31.413  21.792  1.00  0.00    -0.264 NA
ATOM      6  C   UNL     1      14.584 -31.184  21.457  1.00  0.00     0.111 A 
ENDROOT
BRANCH   1   7
ATOM      7  C   UNL     1      12.442 -28.417  23.894  1.00  0.00     0.073 C 
ATOM      8  O   UNL     1      11.187 -28.483  23.975  1.00  0.00    -0.545 OA
ATOM      9  O   UNL     1      13.114 -27.432  24.608  1.00  0.00    -0.545 OA
ENDBRANCH   1   7
TORSDOF 1
ENDMDL
MODEL 5
REMARK VINA RESULT:    -4.061      2.385      3.286
REMARK INTER + INTRA:          -4.320
REMARK INTER:                  -4.297
REMARK INTRA:                  -0.023
REMARK UNBOUND:                -0.021
REMARK SMILES O=C([O-])c1cccnc1
REMARK SMILES IDX 4 1 5 2 9 3 6 4 8 5 7 6 2 7 1 8 3 9
REMARK H PARENT
REMARK Flexibility Score: inf
ROOT
ATOM      1  C   UNL     1      14.558 -33.056  22.026  1.00  0.00     0.016 A 
ATOM      2  C   UNL     1      14.503 -32.764  23.398  1.00  0.00     0.013 A 
ATOM      3  C   UNL     1      13.841 -32.234  21.139  1.00  0.00     0.120 A 
ATOM      4  C   UNL     1      13.749 -31.682  23.855  1.00  0.00     0.021 A 
ATOM      5  N   UNL     1      13.115 -31.185  21.610  1.00  0.00    -0.264 NA
ATOM      6  C   UNL     1      13.054 -30.895  22.935  1.00  0.00     0.111 A 
ENDROOT
BRANCH   1   7
ATOM      7  C   UNL     1      15.353 -34.200  21.530  1.00  0.00     0.073 C 
ATOM      8  O   UNL     1      15.170 -34.652  20.369  1.00  0.00    -0.545 OA
ATOM      9  O   UNL     1      16.314 -34.793  22.342  1.00  0.00    -0.545 OA
ENDBRANCH   1   7
TORSDOF 1
ENDMDL
MODEL 6
REMARK VINA RESULT:    -4.028      2.478      3.367
REMARK INTER + INTRA:          -4.285
REMARK INTER:                  -4.261
REMARK INTRA:                  -0.023
REMARK UNBOUND:                -0.021
REMARK SMILES O=C([O-])c1cccnc1
REMARK SMILES IDX 4 1 5 2 9 3 6 4 8 5 7 6 2 7 1 8 3 9
REMARK H PARENT
REMARK Flexibility Score: inf
ROOT
ATOM      1  C   UNL     1      14.550 -33.008  22.021  1.00  0.00     0.016 A 
ATOM      2  C   UNL     1      13.816 -32.186  21.151  1.00  0.00     0.013 A 
ATOM      3  C   UNL     1      14.500 -32.736  23.399  1.00  0.00     0.120 A 
ATOM      4  C   UNL     1      13.060 -31.128  21.657  1.00  0.00     0.021 A 
ATOM      5  N   UNL     1      13.755 -31.698  23.867  1.00  0.00    -0.264 NA
ATOM      6  C   UNL     1      13.042 -30.897  23.033  1.00  0.00     0.111 A 
ENDROOT
BRANCH   1   7
ATOM      7  C   UNL     1      15.354 -34.133  21.497  1.00  0.00     0.073 C 
ATOM      8  O   UNL     1      16.154 -34.753  22.246  1.00  0.00    -0.545 OA
ATOM      9  O   UNL     1      15.238 -34.521  20.167  1.00  0.00    -0.545 OA
ENDBRANCH   1   7
TORSDOF 1
ENDMDL
MODEL 7
REMARK VINA RESULT:    -4.013     10.492     10.994
REMARK INTER + INTRA:          -4.269
REMARK INTER:                  -4.253
REMARK INTRA:                  -0.016
REMARK UNBOUND:                -0.021
REMARK SMILES O=C([O-])c1cccnc1
REMARK SMILES IDX 4 1 5 2 9 3 6 4 8 5 7 6 2 7 1 8 3 9
REMARK H PARENT
REMARK Flexibility Score: inf
ROOT
ATOM      1  C   UNL     1      22.217 -26.000  20.237  1.00  0.00     0.016 A 
ATOM      2  C   UNL     1      20.829 -25.792  20.188  1.00  0.00     0.013 A 
ATOM      3  C   UNL     1      22.690 -27.262  20.640  1.00  0.00     0.120 A 
ATOM      4  C   UNL     1      19.953 -26.823  20.532  1.00  0.00     0.021 A 
ATOM      5  N   UNL     1      21.814 -28.250  20.970  1.00  0.00    -0.264 NA
ATOM      6  C   UNL     1      20.471 -28.058  20.926  1.00  0.00     0.111 A 
ENDROOT
BRANCH   1   7
ATOM      7  C   UNL     1      23.156 -24.916  19.874  1.00  0.00     0.073 C 
ATOM      8  O   UNL     1      23.656 -24.863  18.720  1.00  0.00    -0.545 OA
ATOM      9  O   UNL     1      23.498 -23.942  20.805  1.00  0.00    -0.545 OA
ENDBRANCH   1   7
TORSDOF 1
ENDMDL
MODEL 8
REMARK VINA RESULT:    -3.994     10.605     11.027
REMARK INTER + INTRA:          -4.248
REMARK INTER:                  -4.231
REMARK INTRA:                  -0.017
REMARK UNBOUND:                -0.021
REMARK SMILES O=C([O-])c1cccnc1
REMARK SMILES IDX 4 1 5 2 9 3 6 4 8 5 7 6 2 7 1 8 3 9
REMARK H PARENT
REMARK Flexibility Score: inf
ROOT
ATOM      1  C   UNL     1      22.191 -25.303  20.525  1.00  0.00     0.016 A 
ATOM      2  C   UNL     1      20.863 -25.748  20.429  1.00  0.00     0.013 A 
ATOM      3  C   UNL     1      22.541 -24.473  21.605  1.00  0.00     0.120 A 
ATOM      4  C   UNL     1      19.924 -25.368  21.390  1.00  0.00     0.021 A 
ATOM      5  N   UNL     1      21.608 -24.118  22.528  1.00  0.00    -0.264 NA
ATOM      6  C   UNL     1      20.320 -24.543  22.444  1.00  0.00     0.111 A 
ENDROOT
BRANCH   1   7
ATOM      7  C   UNL     1      23.194 -25.699  19.513  1.00  0.00     0.073 C 
ATOM      8  O   UNL     1      23.646 -24.856  18.694  1.00  0.00    -0.545 OA
ATOM      9  O   UNL     1      23.651 -27.011  19.452  1.00  0.00    -0.545 OA
ENDBRANCH   1   7
TORSDOF 1
ENDMDL
MODEL 9
REMARK VINA RESULT:    -3.861      3.177      4.954
REMARK INTER + INTRA:          -4.107
REMARK INTER:                  -4.086
REMARK INTRA:                  -0.022
REMARK UNBOUND:                -0.021
REMARK SMILES O=C([O-])c1cccnc1
REMARK SMILES IDX 4 1 5 2 9 3 6 4 8 5 7 6 2 7 1 8 3 9
REMARK H PARENT
REMARK Flexibility Score: inf
ROOT
ATOM      1  C   UNL     1      14.141 -32.493  22.093  1.00  0.00     0.016 A 
ATOM      2  C   UNL     1      14.105 -32.780  20.719  1.00  0.00     0.013 A 
ATOM      3  C   UNL     1      14.922 -33.312  22.926  1.00  0.00     0.120 A 
ATOM      4  C   UNL     1      14.833 -33.855  20.208  1.00  0.00     0.021 A 
ATOM      5  N   UNL     1      15.623 -34.354  22.403  1.00  0.00    -0.264 NA
ATOM      6  C   UNL     1      15.594 -34.640  21.076  1.00  0.00     0.111 A 
ENDROOT
BRANCH   1   7
ATOM      7  C   UNL     1      13.374 -31.356  22.646  1.00  0.00     0.073 C 
ATOM      8  O   UNL     1      12.283 -31.005  22.124  1.00  0.00    -0.545 OA
ATOM      9  O   UNL     1      13.850 -30.658  23.750  1.00  0.00    -0.545 OA
ENDBRANCH   1   7
TORSDOF 1
ENDMDL
