MODEL 1
REMARK VINA RESULT:    -2.732      0.000      0.000
REMARK INTER + INTRA:          -6.702
REMARK INTER:                  -4.808
REMARK INTRA:                  -1.894
REMARK UNBOUND:                -1.894
REMARK SMILES CCCCCCC=CCCCCCCCC(=O)[O-]
REMARK SMILES IDX 10 1 11 2 12 3 13 4 14 5 15 6 16 7 17 8 18 9 9 10 8 11 7 12
REMARK SMILES IDX 6 13 5 14 4 15 3 16 2 17 1 18
REMARK H PARENT
REMARK Flexibility Score: inf
ROOT
ATOM      1  C   UNL     1      28.836  14.012   2.662  1.00  0.00     0.004 C 
ENDROOT
BRANCH   1   2
ATOM      2  C   UNL     1      30.230  14.593   2.379  1.00  0.00     0.000 C 
BRANCH   2   3
ATOM      3  C   UNL     1      30.882  13.990   1.124  1.00  0.00     0.000 C 
BRANCH   3   4
ATOM      4  C   UNL     1      31.587  15.048   0.259  1.00  0.00     0.000 C 
BRANCH   4   5
ATOM      5  C   UNL     1      30.819  16.382   0.199  1.00  0.00     0.006 C 
BRANCH   5   6
ATOM      6  C   UNL     1      30.850  17.060  -1.183  1.00  0.00     0.053 C 
BRANCH   6   7
ATOM      7  C   UNL     1      32.242  17.258  -1.700  1.00  0.00     0.041 C 
ATOM      8  O   UNL     1      33.055  17.990  -1.075  1.00  0.00    -0.550 OA
ATOM      9  O   UNL     1      32.650  16.614  -2.862  1.00  0.00    -0.550 OA
ENDBRANCH   6   7
ENDBRANCH   5   6
ENDBRANCH   4   5
ENDBRANCH   3   4
ENDBRANCH   2   3
ENDBRANCH   1   2
BRANCH   1  10
ATOM     10  C   UNL     1      27.841  15.125   3.015  1.00  0.00     0.027 C 
BRANCH  10  11
ATOM     11  C   UNL     1      28.520  16.471   2.999  1.00  0.00    -0.031 C 
ATOM     12  C   UNL     1      28.006  17.577   2.429  1.00  0.00    -0.031 C 
BRANCH  12  13
ATOM     13  C   UNL     1      26.640  17.657   1.797  1.00  0.00     0.027 C 
BRANCH  13  14
ATOM     14  C   UNL     1      26.749  17.695   0.266  1.00  0.00     0.004 C 
BRANCH  14  15
ATOM     15  C   UNL     1      27.455  16.456  -0.311  1.00  0.00     0.000 C 
BRANCH  15  16
ATOM     16  C   UNL     1      26.606  15.169  -0.323  1.00  0.00    -0.000 C 
BRANCH  16  17
ATOM     17  C   UNL     1      27.413  13.858  -0.296  1.00  0.00    -0.003 C 
ATOM     18  C   UNL     1      27.069  12.923  -1.455  1.00  0.00     0.004 C 
ENDBRANCH  16  17
ENDBRANCH  15  16
ENDBRANCH  14  15
ENDBRANCH  13  14
ENDBRANCH  12  13
ENDBRANCH  10  11
ENDBRANCH   1  10
TORSDOF 13
ENDMDL
MODEL 2
REMARK VINA RESULT:    -2.563      0.743      2.673
REMARK INTER + INTRA:          -6.405
REMARK INTER:                  -4.600
REMARK INTRA:                  -1.805
REMARK UNBOUND:                -1.894
REMARK SMILES CCCCCCC=CCCCCCCCC(=O)[O-]
REMARK SMILES IDX 10 1 11 2 12 3 13 4 14 5 15 6 16 7 17 8 18 9 9 10 8 11 7 12
REMARK SMILES IDX 6 13 5 14 4 15 3 16 2 17 1 18
REMARK H PARENT
REMARK Flexibility Score: inf
ROOT
ATOM      1  C   UNL     1      29.069  14.167   2.828  1.00  0.00     0.004 C 
ENDROOT
BRANCH   1   2
ATOM      2  C   UNL     1      29.959  15.004   1.896  1.00  0.00     0.000 C 
BRANCH   2   3
ATOM      3  C   UNL     1      31.024  14.161   1.175  1.00  0.00     0.000 C 
BRANCH   3   4
ATOM      4  C   UNL     1      31.853  14.986   0.177  1.00  0.00     0.000 C 
BRANCH   4   5
ATOM      5  C   UNL     1      31.337  16.429   0.017  1.00  0.00     0.006 C 
BRANCH   5   6
ATOM      6  C   UNL     1      31.232  16.897  -1.446  1.00  0.00     0.053 C 
BRANCH   6   7
ATOM      7  C   UNL     1      32.552  17.315  -2.017  1.00  0.00     0.041 C 
ATOM      8  O   UNL     1      33.322  18.063  -1.359  1.00  0.00    -0.550 OA
ATOM      9  O   UNL     1      32.943  16.857  -3.269  1.00  0.00    -0.550 OA
ENDBRANCH   6   7
ENDBRANCH   5   6
ENDBRANCH   4   5
ENDBRANCH   3   4
ENDBRANCH   2   3
ENDBRANCH   1   2
BRANCH   1  10
ATOM     10  C   UNL     1      27.599  14.249   2.400  1.00  0.00     0.027 C 
BRANCH  10  11
ATOM     11  C   UNL     1      27.354  13.409   1.172  1.00  0.00    -0.031 C 
ATOM     12  C   UNL     1      26.876  13.883   0.006  1.00  0.00    -0.031 C 
BRANCH  12  13
ATOM     13  C   UNL     1      26.594  15.337  -0.273  1.00  0.00     0.027 C 
BRANCH  13  14
ATOM     14  C   UNL     1      27.898  16.104  -0.535  1.00  0.00     0.004 C 
BRANCH  14  15
ATOM     15  C   UNL     1      27.931  17.478   0.156  1.00  0.00     0.000 C 
BRANCH  15  16
ATOM     16  C   UNL     1      26.566  17.982   0.668  1.00  0.00    -0.000 C 
BRANCH  16  17
ATOM     17  C   UNL     1      26.421  18.020   2.200  1.00  0.00    -0.003 C 
ATOM     18  C   UNL     1      27.697  17.602   2.929  1.00  0.00     0.004 C 
ENDBRANCH  16  17
ENDBRANCH  15  16
ENDBRANCH  14  15
ENDBRANCH  13  14
ENDBRANCH  12  13
ENDBRANCH  10  11
ENDBRANCH   1  10
TORSDOF 13
ENDMDL
MODEL 3
REMARK VINA RESULT:    -2.543      1.203      3.086
REMARK INTER + INTRA:          -6.369
REMARK INTER:                  -4.946
REMARK INTRA:                  -1.424
REMARK UNBOUND:                -1.894
REMARK SMILES CCCCCCC=CCCCCCCCC(=O)[O-]
REMARK SMILES IDX 10 1 11 2 12 3 13 4 14 5 15 6 16 7 17 8 18 9 9 10 8 11 7 12
REMARK SMILES IDX 6 13 5 14 4 15 3 16 2 17 1 18
REMARK H PARENT
REMARK Flexibility Score: inf
ROOT
ATOM      1  C   UNL     1      30.676  14.236   1.613  1.00  0.00     0.004 C 
ENDROOT
BRANCH   1   2
ATOM      2  C   UNL     1      31.086  15.008   0.350  1.00  0.00     0.000 C 
BRANCH   2   3
ATOM      3  C   UNL     1      30.356  16.354   0.211  1.00  0.00     0.000 C 
BRANCH   3   4
ATOM      4  C   UNL     1      30.904  17.206  -0.946  1.00  0.00     0.000 C 
BRANCH   4   5
ATOM      5  C   UNL     1      32.428  17.068  -1.124  1.00  0.00     0.006 C 
BRANCH   5   6
ATOM      6  C   UNL     1      32.979  17.783  -2.371  1.00  0.00     0.053 C 
BRANCH   6   7
ATOM      7  C   UNL     1      33.006  16.901  -3.581  1.00  0.00     0.041 C 
ATOM      8  O   UNL     1      31.931  16.533  -4.124  1.00  0.00    -0.550 OA
ATOM      9  O   UNL     1      34.222  16.503  -4.124  1.00  0.00    -0.550 OA
ENDBRANCH   6   7
ENDBRANCH   5   6
ENDBRANCH   4   5
ENDBRANCH   3   4
ENDBRANCH   2   3
ENDBRANCH   1   2
BRANCH   1  10
ATOM     10  C   UNL     1      29.495  14.920   2.312  1.00  0.00     0.027 C 
BRANCH  10  11
ATOM     11  C   UNL     1      28.353  13.952   2.499  1.00  0.00    -0.031 C 
ATOM     12  C   UNL     1      27.435  13.664   1.558  1.00  0.00    -0.031 C 
BRANCH  12  13
ATOM     13  C   UNL     1      27.459  14.200   0.149  1.00  0.00     0.027 C 
BRANCH  13  14
ATOM     14  C   UNL     1      26.547  15.429   0.019  1.00  0.00     0.004 C 
BRANCH  14  15
ATOM     15  C   UNL     1      27.318  16.706  -0.358  1.00  0.00     0.000 C 
BRANCH  15  16
ATOM     16  C   UNL     1      26.895  17.973   0.413  1.00  0.00    -0.000 C 
BRANCH  16  17
ATOM     17  C   UNL     1      26.540  17.744   1.893  1.00  0.00    -0.003 C 
ATOM     18  C   UNL     1      27.772  17.585   2.784  1.00  0.00     0.004 C 
ENDBRANCH  16  17
ENDBRANCH  15  16
ENDBRANCH  14  15
ENDBRANCH  13  14
ENDBRANCH  12  13
ENDBRANCH  10  11
ENDBRANCH   1  10
TORSDOF 13
ENDMDL
MODEL 4
REMARK VINA RESULT:    -2.456      0.884      1.755
REMARK INTER + INTRA:          -6.217
REMARK INTER:                  -5.074
REMARK INTRA:                  -1.143
REMARK UNBOUND:                -1.894
REMARK SMILES CCCCCCC=CCCCCCCCC(=O)[O-]
REMARK SMILES IDX 10 1 11 2 12 3 13 4 14 5 15 6 16 7 17 8 18 9 9 10 8 11 7 12
REMARK SMILES IDX 6 13 5 14 4 15 3 16 2 17 1 18
REMARK H PARENT
REMARK Flexibility Score: inf
ROOT
ATOM      1  C   UNL     1      29.251  16.183   2.695  1.00  0.00     0.004 C 
ENDROOT
BRANCH   1   2
ATOM      2  C   UNL     1      29.523  14.671   2.709  1.00  0.00     0.000 C 
BRANCH   2   3
ATOM      3  C   UNL     1      30.582  14.248   1.678  1.00  0.00     0.000 C 
BRANCH   3   4
ATOM      4  C   UNL     1      30.426  14.984   0.336  1.00  0.00     0.000 C 
BRANCH   4   5
ATOM      5  C   UNL     1      31.599  15.935   0.032  1.00  0.00     0.006 C 
BRANCH   5   6
ATOM      6  C   UNL     1      31.301  16.961  -1.076  1.00  0.00     0.053 C 
BRANCH   6   7
ATOM      7  C   UNL     1      32.517  17.323  -1.873  1.00  0.00     0.041 C 
ATOM      8  O   UNL     1      33.357  18.142  -1.415  1.00  0.00    -0.550 OA
ATOM      9  O   UNL     1      32.735  16.736  -3.113  1.00  0.00    -0.550 OA
ENDBRANCH   6   7
ENDBRANCH   5   6
ENDBRANCH   4   5
ENDBRANCH   3   4
ENDBRANCH   2   3
ENDBRANCH   1   2
BRANCH   1  10
ATOM     10  C   UNL     1      27.748  16.470   2.797  1.00  0.00     0.027 C 
BRANCH  10  11
ATOM     11  C   UNL     1      27.365  17.630   1.914  1.00  0.00    -0.031 C 
ATOM     12  C   UNL     1      27.375  17.601   0.568  1.00  0.00    -0.031 C 
BRANCH  12  13
ATOM     13  C   UNL     1      27.688  16.379  -0.257  1.00  0.00     0.027 C 
BRANCH  13  14
ATOM     14  C   UNL     1      26.573  15.332  -0.124  1.00  0.00     0.004 C 
BRANCH  14  15
ATOM     15  C   UNL     1      27.092  13.889  -0.253  1.00  0.00     0.000 C 
BRANCH  15  16
ATOM     16  C   UNL     1      26.763  13.197  -1.591  1.00  0.00    -0.000 C 
BRANCH  16  17
ATOM     17  C   UNL     1      27.723  12.060  -1.986  1.00  0.00    -0.003 C 
ATOM     18  C   UNL     1      27.646  11.705  -3.470  1.00  0.00     0.004 C 
ENDBRANCH  16  17
ENDBRANCH  15  16
ENDBRANCH  14  15
ENDBRANCH  13  14
ENDBRANCH  12  13
ENDBRANCH  10  11
ENDBRANCH   1  10
TORSDOF 13
ENDMDL
MODEL 5
REMARK VINA RESULT:    -2.439     16.466     18.524
REMARK INTER + INTRA:          -6.187
REMARK INTER:                  -4.420
REMARK INTRA:                  -1.767
REMARK UNBOUND:                -1.894
REMARK SMILES CCCCCCC=CCCCCCCCC(=O)[O-]
REMARK SMILES IDX 10 1 11 2 12 3 13 4 14 5 15 6 16 7 17 8 18 9 9 10 8 11 7 12
REMARK SMILES IDX 6 13 5 14 4 15 3 16 2 17 1 18
REMARK H PARENT
REMARK Flexibility Score: inf
ROOT
ATOM      1  C   UNL     1      22.537  21.581  13.226  1.00  0.00     0.004 C 
ENDROOT
BRANCH   1   2
ATOM      2  C   UNL     1      22.279  20.600  14.380  1.00  0.00     0.000 C 
BRANCH   2   3
ATOM      3  C   UNL     1      21.552  21.255  15.566  1.00  0.00     0.000 C 
BRANCH   3   4
ATOM      4  C   UNL     1      20.421  20.374  16.124  1.00  0.00     0.000 C 
BRANCH   4   5
ATOM      5  C   UNL     1      19.034  21.035  16.011  1.00  0.00     0.006 C 
BRANCH   5   6
ATOM      6  C   UNL     1      19.055  22.423  15.346  1.00  0.00     0.053 C 
BRANCH   6   7
ATOM      7  C   UNL     1      17.800  22.720  14.584  1.00  0.00     0.041 C 
ATOM      8  O   UNL     1      17.067  21.782  14.175  1.00  0.00    -0.550 OA
ATOM      9  O   UNL     1      17.426  24.037  14.348  1.00  0.00    -0.550 OA
ENDBRANCH   6   7
ENDBRANCH   5   6
ENDBRANCH   4   5
ENDBRANCH   3   4
ENDBRANCH   2   3
ENDBRANCH   1   2
BRANCH   1  10
ATOM     10  C   UNL     1      21.578  22.775  13.299  1.00  0.00     0.027 C 
BRANCH  10  11
ATOM     11  C   UNL     1      22.297  24.057  12.959  1.00  0.00    -0.031 C 
ATOM     12  C   UNL     1      22.652  24.994  13.858  1.00  0.00    -0.031 C 
BRANCH  12  13
ATOM     13  C   UNL     1      22.462  24.864  15.348  1.00  0.00     0.027 C 
BRANCH  13  14
ATOM     14  C   UNL     1      23.817  24.762  16.063  1.00  0.00     0.004 C 
BRANCH  14  15
ATOM     15  C   UNL     1      25.006  25.042  15.129  1.00  0.00     0.000 C 
BRANCH  15  16
ATOM     16  C   UNL     1      25.969  23.855  14.927  1.00  0.00    -0.000 C 
BRANCH  16  17
ATOM     17  C   UNL     1      26.071  22.891  16.124  1.00  0.00    -0.003 C 
ATOM     18  C   UNL     1      25.421  21.535  15.854  1.00  0.00     0.004 C 
ENDBRANCH  16  17
ENDBRANCH  15  16
ENDBRANCH  14  15
ENDBRANCH  13  14
ENDBRANCH  12  13
ENDBRANCH  10  11
ENDBRANCH   1  10
TORSDOF 13
ENDMDL
MODEL 6
REMARK VINA RESULT:    -2.352      2.586      5.286
REMARK INTER + INTRA:          -6.033
REMARK INTER:                  -5.554
REMARK INTRA:                  -0.479
REMARK UNBOUND:                -1.894
REMARK SMILES CCCCCCC=CCCCCCCCC(=O)[O-]
REMARK SMILES IDX 10 1 11 2 12 3 13 4 14 5 15 6 16 7 17 8 18 9 9 10 8 11 7 12
REMARK SMILES IDX 6 13 5 14 4 15 3 16 2 17 1 18
REMARK H PARENT
REMARK Flexibility Score: inf
ROOT
ATOM      1  C   UNL     1      28.111  16.173   2.908  1.00  0.00     0.004 C 
ENDROOT
BRANCH   1   2
ATOM      2  C   UNL     1      27.720  17.659   2.939  1.00  0.00     0.000 C 
BRANCH   2   3
ATOM      3  C   UNL     1      26.711  18.031   1.840  1.00  0.00     0.000 C 
BRANCH   3   4
ATOM      4  C   UNL     1      27.200  17.641   0.435  1.00  0.00     0.000 C 
BRANCH   4   5
ATOM      5  C   UNL     1      26.600  16.312  -0.062  1.00  0.00     0.006 C 
BRANCH   5   6
ATOM      6  C   UNL     1      27.652  15.242  -0.409  1.00  0.00     0.053 C 
BRANCH   6   7
ATOM      7  C   UNL     1      27.184  13.851  -0.109  1.00  0.00     0.041 C 
ATOM      8  O   UNL     1      26.971  13.494   1.080  1.00  0.00    -0.550 OA
ATOM      9  O   UNL     1      26.960  12.955  -1.146  1.00  0.00    -0.550 OA
ENDBRANCH   6   7
ENDBRANCH   5   6
ENDBRANCH   4   5
ENDBRANCH   3   4
ENDBRANCH   2   3
ENDBRANCH   1   2
BRANCH   1  10
ATOM     10  C   UNL     1      29.620  16.009   2.693  1.00  0.00     0.027 C 
BRANCH  10  11
ATOM     11  C   UNL     1      29.956  14.582   2.341  1.00  0.00    -0.031 C 
ATOM     12  C   UNL     1      30.732  14.214   1.305  1.00  0.00    -0.031 C 
BRANCH  12  13
ATOM     13  C   UNL     1      31.450  15.176   0.392  1.00  0.00     0.027 C 
BRANCH  13  14
ATOM     14  C   UNL     1      30.532  16.341  -0.002  1.00  0.00     0.004 C 
BRANCH  14  15
ATOM     15  C   UNL     1      31.087  17.168  -1.175  1.00  0.00     0.000 C 
BRANCH  15  16
ATOM     16  C   UNL     1      32.513  16.787  -1.622  1.00  0.00    -0.000 C 
BRANCH  16  17
ATOM     17  C   UNL     1      33.018  17.522  -2.877  1.00  0.00    -0.003 C 
ATOM     18  C   UNL     1      33.016  16.640  -4.125  1.00  0.00     0.004 C 
ENDBRANCH  16  17
ENDBRANCH  15  16
ENDBRANCH  14  15
ENDBRANCH  13  14
ENDBRANCH  12  13
ENDBRANCH  10  11
ENDBRANCH   1  10
TORSDOF 13
ENDMDL
MODEL 7
REMARK VINA RESULT:    -2.347      2.697      5.128
REMARK INTER + INTRA:          -6.025
REMARK INTER:                  -4.530
REMARK INTRA:                  -1.494
REMARK UNBOUND:                -1.894
REMARK SMILES CCCCCCC=CCCCCCCCC(=O)[O-]
REMARK SMILES IDX 10 1 11 2 12 3 13 4 14 5 15 6 16 7 17 8 18 9 9 10 8 11 7 12
REMARK SMILES IDX 6 13 5 14 4 15 3 16 2 17 1 18
REMARK H PARENT
REMARK Flexibility Score: inf
ROOT
ATOM      1  C   UNL     1      26.887  13.511   1.616  1.00  0.00     0.004 C 
ENDROOT
BRANCH   1   2
ATOM      2  C   UNL     1      27.401  13.723   0.184  1.00  0.00     0.000 C 
BRANCH   2   3
ATOM      3  C   UNL     1      26.933  15.055  -0.426  1.00  0.00     0.000 C 
BRANCH   3   4
ATOM      4  C   UNL     1      28.103  15.997  -0.754  1.00  0.00     0.000 C 
BRANCH   4   5
ATOM      5  C   UNL     1      27.991  17.362  -0.048  1.00  0.00     0.006 C 
BRANCH   5   6
ATOM      6  C   UNL     1      26.557  17.735   0.368  1.00  0.00     0.053 C 
BRANCH   6   7
ATOM      7  C   UNL     1      26.463  18.174   1.797  1.00  0.00     0.041 C 
ATOM      8  O   UNL     1      27.339  17.821   2.630  1.00  0.00    -0.550 OA
ATOM      9  O   UNL     1      25.420  18.995   2.204  1.00  0.00    -0.550 OA
ENDBRANCH   6   7
ENDBRANCH   5   6
ENDBRANCH   4   5
ENDBRANCH   3   4
ENDBRANCH   2   3
ENDBRANCH   1   2
BRANCH   1  10
ATOM     10  C   UNL     1      28.044  13.538   2.622  1.00  0.00     0.027 C 
BRANCH  10  11
ATOM     11  C   UNL     1      28.720  14.885   2.621  1.00  0.00    -0.031 C 
ATOM     12  C   UNL     1      29.958  15.117   2.148  1.00  0.00    -0.031 C 
BRANCH  12  13
ATOM     13  C   UNL     1      30.821  14.083   1.470  1.00  0.00     0.027 C 
BRANCH  13  14
ATOM     14  C   UNL     1      31.700  14.731   0.391  1.00  0.00     0.004 C 
BRANCH  14  15
ATOM     15  C   UNL     1      31.241  16.152   0.021  1.00  0.00     0.000 C 
BRANCH  15  16
ATOM     16  C   UNL     1      32.175  16.908  -0.944  1.00  0.00    -0.000 C 
BRANCH  16  17
ATOM     17  C   UNL     1      31.759  16.856  -2.425  1.00  0.00    -0.003 C 
ATOM     18  C   UNL     1      32.950  16.906  -3.381  1.00  0.00     0.004 C 
ENDBRANCH  16  17
ENDBRANCH  15  16
ENDBRANCH  14  15
ENDBRANCH  13  14
ENDBRANCH  12  13
ENDBRANCH  10  11
ENDBRANCH   1  10
TORSDOF 13
ENDMDL
MODEL 8
REMARK VINA RESULT:    -2.043     15.916     17.795
REMARK INTER + INTRA:          -5.489
REMARK INTER:                  -4.124
REMARK INTRA:                  -1.365
REMARK UNBOUND:                -1.894
REMARK SMILES CCCCCCC=CCCCCCCCC(=O)[O-]
REMARK SMILES IDX 10 1 11 2 12 3 13 4 14 5 15 6 16 7 17 8 18 9 9 10 8 11 7 12
REMARK SMILES IDX 6 13 5 14 4 15 3 16 2 17 1 18
REMARK H PARENT
REMARK Flexibility Score: inf
ROOT
ATOM      1  C   UNL     1      22.013  21.888  13.071  1.00  0.00     0.004 C 
ENDROOT
BRANCH   1   2
ATOM      2  C   UNL     1      23.269  21.339  13.765  1.00  0.00     0.000 C 
BRANCH   2   3
ATOM      3  C   UNL     1      23.068  21.122  15.274  1.00  0.00     0.000 C 
BRANCH   3   4
ATOM      4  C   UNL     1      23.985  22.016  16.125  1.00  0.00     0.000 C 
BRANCH   4   5
ATOM      5  C   UNL     1      25.241  22.485  15.365  1.00  0.00     0.006 C 
BRANCH   5   6
ATOM      6  C   UNL     1      25.702  23.906  15.736  1.00  0.00     0.053 C 
BRANCH   6   7
ATOM      7  C   UNL     1      26.144  24.701  14.546  1.00  0.00     0.041 C 
ATOM      8  O   UNL     1      27.362  24.972  14.378  1.00  0.00    -0.550 OA
ATOM      9  O   UNL     1      25.210  25.124  13.608  1.00  0.00    -0.550 OA
ENDBRANCH   6   7
ENDBRANCH   5   6
ENDBRANCH   4   5
ENDBRANCH   3   4
ENDBRANCH   2   3
ENDBRANCH   1   2
BRANCH   1  10
ATOM     10  C   UNL     1      22.015  23.422  13.069  1.00  0.00     0.027 C 
BRANCH  10  11
ATOM     11  C   UNL     1      21.758  23.957  14.456  1.00  0.00    -0.031 C 
ATOM     12  C   UNL     1      20.580  24.453  14.876  1.00  0.00    -0.031 C 
BRANCH  12  13
ATOM     13  C   UNL     1      19.318  24.472  14.051  1.00  0.00     0.027 C 
BRANCH  13  14
ATOM     14  C   UNL     1      18.134  24.992  14.879  1.00  0.00     0.004 C 
BRANCH  14  15
ATOM     15  C   UNL     1      17.152  23.877  15.280  1.00  0.00     0.000 C 
BRANCH  15  16
ATOM     16  C   UNL     1      17.118  22.665  14.327  1.00  0.00    -0.000 C 
BRANCH  16  17
ATOM     17  C   UNL     1      17.437  21.312  14.988  1.00  0.00    -0.003 C 
ATOM     18  C   UNL     1      18.915  21.154  15.339  1.00  0.00     0.004 C 
ENDBRANCH  16  17
ENDBRANCH  15  16
ENDBRANCH  14  15
ENDBRANCH  13  14
ENDBRANCH  12  13
ENDBRANCH  10  11
ENDBRANCH   1  10
TORSDOF 13
ENDMDL
MODEL 9
REMARK VINA RESULT:    -2.016      1.078      3.582
REMARK INTER + INTRA:          -5.442
REMARK INTER:                  -3.837
REMARK INTRA:                  -1.605
REMARK UNBOUND:                -1.894
REMARK SMILES CCCCCCC=CCCCCCCCC(=O)[O-]
REMARK SMILES IDX 10 1 11 2 12 3 13 4 14 5 15 6 16 7 17 8 18 9 9 10 8 11 7 12
REMARK SMILES IDX 6 13 5 14 4 15 3 16 2 17 1 18
REMARK H PARENT
REMARK Flexibility Score: inf
ROOT
ATOM      1  C   UNL     1      26.457  14.885  -0.350  1.00  0.00     0.004 C 
ENDROOT
BRANCH   1   2
ATOM      2  C   UNL     1      27.252  16.191  -0.499  1.00  0.00     0.000 C 
BRANCH   2   3
ATOM      3  C   UNL     1      28.734  15.951  -0.832  1.00  0.00     0.000 C 
BRANCH   3   4
ATOM      4  C   UNL     1      29.580  17.230  -0.713  1.00  0.00     0.000 C 
BRANCH   4   5
ATOM      5  C   UNL     1      30.993  16.966  -0.160  1.00  0.00     0.006 C 
BRANCH   5   6
ATOM      6  C   UNL     1      31.925  16.238  -1.145  1.00  0.00     0.053 C 
BRANCH   6   7
ATOM      7  C   UNL     1      32.726  17.180  -1.990  1.00  0.00     0.041 C 
ATOM      8  O   UNL     1      33.209  18.230  -1.489  1.00  0.00    -0.550 OA
ATOM      9  O   UNL     1      32.960  16.886  -3.328  1.00  0.00    -0.550 OA
ENDBRANCH   6   7
ENDBRANCH   5   6
ENDBRANCH   4   5
ENDBRANCH   3   4
ENDBRANCH   2   3
ENDBRANCH   1   2
BRANCH   1  10
ATOM     10  C   UNL     1      27.359  13.750   0.151  1.00  0.00     0.027 C 
BRANCH  10  11
ATOM     11  C   UNL     1      27.178  13.541   1.634  1.00  0.00    -0.031 C 
ATOM     12  C   UNL     1      28.049  13.949   2.574  1.00  0.00    -0.031 C 
BRANCH  12  13
ATOM     13  C   UNL     1      29.294  14.753   2.294  1.00  0.00     0.027 C 
BRANCH  13  14
ATOM     14  C   UNL     1      29.219  16.128   2.974  1.00  0.00     0.004 C 
BRANCH  14  15
ATOM     15  C   UNL     1      27.798  16.716   2.973  1.00  0.00     0.000 C 
BRANCH  15  16
ATOM     16  C   UNL     1      27.674  18.117   2.339  1.00  0.00    -0.000 C 
BRANCH  16  17
ATOM     17  C   UNL     1      26.447  18.312   1.430  1.00  0.00    -0.003 C 
ATOM     18  C   UNL     1      25.220  18.820   2.186  1.00  0.00     0.004 C 
ENDBRANCH  16  17
ENDBRANCH  15  16
ENDBRANCH  14  15
ENDBRANCH  13  14
ENDBRANCH  12  13
ENDBRANCH  10  11
ENDBRANCH   1  10
TORSDOF 13
ENDMDL
