MODEL 1
REMARK VINA RESULT:    13.403      0.000      0.000
REMARK INTER + INTRA:          17.216
REMARK INTER:                  17.713
REMARK INTRA:                  -0.497
REMARK UNBOUND:                -0.497
REMARK SMILES CC(C)=CCC[C@@H](C(=O)[O-])[C@@H]1CC[C@]2(C)C3=C(CC[C@]12C)[C@]1(C)CC[C@@H](O)C(C)(C)[C@H]1CC3
REMARK SMILES IDX 6 1 7 2 8 3 9 4 10 5 11 6 12 7 20 8 13 9 14 10 19 11 21 12
REMARK SMILES IDX 15 13 16 14 18 15 17 16 33 17 22 18 32 19 31 20 24 21 23 22
REMARK SMILES IDX 28 23 25 24 26 25 29 26 30 27 27 28 5 30 4 31 2 32 1 33 3 34
REMARK H PARENT 27 29
REMARK Flexibility Score: inf
ROOT
ATOM      1  C   UNL     1      86.223  35.783  63.098  1.00  0.00     0.014 C 
ENDROOT
BRANCH   1   2
ATOM      2  C   UNL     1      87.109  34.856  63.975  1.00  0.00     0.039 C 
BRANCH   2   3
ATOM      3  C   UNL     1      87.852  35.679  65.006  1.00  0.00     0.045 C 
ATOM      4  O   UNL     1      89.042  36.039  64.810  1.00  0.00    -0.550 OA
ATOM      5  O   UNL     1      87.250  35.971  66.226  1.00  0.00    -0.550 OA
ENDBRANCH   2   3
BRANCH   2   6
ATOM      6  C   UNL     1      86.266  33.658  64.564  1.00  0.00     0.004 C 
ATOM      7  C   UNL     1      86.592  33.223  65.991  1.00  0.00     0.006 C 
ATOM      8  C   UNL     1      86.151  32.338  63.737  1.00  0.00    -0.020 C 
ATOM      9  C   UNL     1      85.930  31.859  66.184  1.00  0.00     0.012 C 
ATOM     10  C   UNL     1      85.487  31.333  64.784  1.00  0.00    -0.006 C 
ATOM     11  C   UNL     1      87.542  31.826  63.214  1.00  0.00     0.012 C 
ATOM     12  C   UNL     1      85.271  32.585  62.476  1.00  0.00     0.012 C 
ATOM     13  C   UNL     1      83.924  31.418  64.731  1.00  0.00     0.017 C 
ATOM     14  C   UNL     1      85.964  29.860  64.627  1.00  0.00    -0.064 C 
ATOM     15  C   UNL     1      88.184  30.778  64.108  1.00  0.00     0.032 C 
ATOM     16  C   UNL     1      87.250  29.591  64.231  1.00  0.00    -0.064 C 
ATOM     17  C   UNL     1      84.989  28.738  64.984  1.00  0.00     0.032 C 
ATOM     18  C   UNL     1      87.806  28.147  64.092  1.00  0.00    -0.008 C 
ATOM     19  C   UNL     1      85.606  27.347  65.091  1.00  0.00     0.009 C 
ATOM     20  C   UNL     1      86.604  27.145  63.940  1.00  0.00     0.007 C 
ATOM     21  C   UNL     1      88.686  28.012  62.815  1.00  0.00     0.014 C 
ATOM     22  C   UNL     1      88.687  27.906  65.350  1.00  0.00     0.016 C 
ATOM     23  C   UNL     1      86.964  25.639  63.610  1.00  0.00    -0.006 C 
ATOM     24  C   UNL     1      89.122  26.567  62.531  1.00  0.00     0.033 C 
ATOM     25  C   UNL     1      87.926  25.617  62.377  1.00  0.00     0.120 C 
ATOM     26  C   UNL     1      85.671  24.884  63.180  1.00  0.00     0.014 C 
ATOM     27  C   UNL     1      87.577  24.866  64.819  1.00  0.00     0.014 C 
BRANCH  25  28
ATOM     28  O   UNL     1      88.391  24.307  62.150  1.00  0.00    -0.393 OA
ATOM     29  H   UNL     1      89.075  24.116  62.844  1.00  0.00     0.210 HD
ENDBRANCH  25  28
ENDBRANCH   2   6
ENDBRANCH   1   2
BRANCH   1  30
ATOM     30  C   UNL     1      86.634  35.822  61.612  1.00  0.00     0.028 C 
BRANCH  30  31
ATOM     31  C   UNL     1      85.473  36.123  60.695  1.00  0.00    -0.028 C 
ATOM     32  C   UNL     1      85.134  35.373  59.622  1.00  0.00    -0.080 C 
ATOM     33  C   UNL     1      85.938  34.168  59.195  1.00  0.00     0.039 C 
ATOM     34  C   UNL     1      83.959  35.779  58.769  1.00  0.00     0.039 C 
ENDBRANCH  30  31
ENDBRANCH   1  30
TORSDOF 6
ENDMDL
