MODEL 1
REMARK VINA RESULT:    -4.378      0.000      0.000
REMARK INTER + INTRA:          -6.411
REMARK INTER:                  -5.658
REMARK INTRA:                  -0.753
REMARK UNBOUND:                -0.753
REMARK SMILES CCO[C@H]1O[C@@H](CO)[C@H](O)[C@H](O)[C@@H]1O
REMARK SMILES IDX 4 1 13 2 11 3 9 4 6 5 5 6 3 7 2 8 1 9 14 10 12 12 7 14 8 15
REMARK SMILES IDX 10 17
REMARK H PARENT 14 11 12 13 8 16 10 18
REMARK Flexibility Score: inf
ROOT
ATOM      1  C   UNL     1     -27.835  30.170 -40.220  1.00  0.00     0.281 C 
ATOM      2  C   UNL     1     -28.735  28.992 -40.688  1.00  0.00     0.202 C 
ATOM      3  C   UNL     1     -28.110  28.212 -41.866  1.00  0.00     0.179 C 
ATOM      4  C   UNL     1     -26.582  28.247 -41.752  1.00  0.00     0.177 C 
ATOM      5  C   UNL     1     -26.098  29.725 -41.802  1.00  0.00     0.178 C 
ATOM      6  O   UNL     1     -27.032  30.670 -41.280  1.00  0.00    -0.341 OA
ENDROOT
BRANCH   1   7
ATOM      7  O   UNL     1     -27.009  29.773 -39.133  1.00  0.00    -0.350 OA
BRANCH   7   8
ATOM      8  C   UNL     1     -27.718  28.992 -38.188  1.00  0.00     0.160 C 
ATOM      9  C   UNL     1     -26.848  27.842 -37.694  1.00  0.00     0.035 C 
ENDBRANCH   7   8
ENDBRANCH   1   7
BRANCH   2  10
ATOM     10  O   UNL     1     -30.004  29.481 -41.043  1.00  0.00    -0.385 OA
ATOM     11  H   UNL     1     -30.598  29.338 -40.260  1.00  0.00     0.211 HD
ENDBRANCH   2  10
BRANCH   3  12
ATOM     12  O   UNL     1     -28.517  28.777 -43.089  1.00  0.00    -0.387 OA
ATOM     13  H   UNL     1     -28.867  29.684 -42.887  1.00  0.00     0.211 HD
ENDBRANCH   3  12
BRANCH   5  14
ATOM     14  C   UNL     1     -24.716  29.907 -41.157  1.00  0.00     0.191 C 
BRANCH  14  15
ATOM     15  O   UNL     1     -24.406  28.784 -40.380  1.00  0.00    -0.394 OA
ATOM     16  H   UNL     1     -23.582  28.394 -40.773  1.00  0.00     0.210 HD
ENDBRANCH  14  15
ENDBRANCH   5  14
BRANCH   4  17
ATOM     17  O   UNL     1     -26.014  27.506 -42.802  1.00  0.00    -0.387 OA
ATOM     18  H   UNL     1     -26.731  26.924 -43.164  1.00  0.00     0.211 HD
ENDBRANCH   4  17
TORSDOF 7
ENDMDL
MODEL 2
REMARK VINA RESULT:    -4.204     10.797     12.274
REMARK INTER + INTRA:          -6.185
REMARK INTER:                  -5.493
REMARK INTRA:                  -0.692
REMARK UNBOUND:                -0.753
REMARK SMILES CCO[C@H]1O[C@@H](CO)[C@H](O)[C@H](O)[C@@H]1O
REMARK SMILES IDX 4 1 13 2 11 3 9 4 6 5 5 6 3 7 2 8 1 9 14 10 12 12 7 14 8 15
REMARK SMILES IDX 10 17
REMARK H PARENT 14 11 12 13 8 16 10 18
REMARK Flexibility Score: inf
ROOT
ATOM      1  C   UNL     1     -23.926  25.157 -29.240  1.00  0.00     0.281 C 
ATOM      2  C   UNL     1     -24.386  26.270 -30.223  1.00  0.00     0.202 C 
ATOM      3  C   UNL     1     -23.290  26.631 -31.250  1.00  0.00     0.179 C 
ATOM      4  C   UNL     1     -22.443  25.390 -31.555  1.00  0.00     0.177 C 
ATOM      5  C   UNL     1     -21.772  24.892 -30.243  1.00  0.00     0.178 C 
ATOM      6  O   UNL     1     -22.518  25.167 -29.058  1.00  0.00    -0.341 OA
ENDROOT
BRANCH   1   7
ATOM      7  O   UNL     1     -24.346  23.877 -29.696  1.00  0.00    -0.350 OA
BRANCH   7   8
ATOM      8  C   UNL     1     -24.792  23.058 -28.630  1.00  0.00     0.160 C 
ATOM      9  C   UNL     1     -24.220  21.652 -28.769  1.00  0.00     0.035 C 
ENDBRANCH   7   8
ENDBRANCH   1   7
BRANCH   2  10
ATOM     10  O   UNL     1     -24.770  27.411 -29.496  1.00  0.00    -0.385 OA
ATOM     11  H   UNL     1     -24.213  27.429 -28.674  1.00  0.00     0.211 HD
ENDBRANCH   2  10
BRANCH   3  12
ATOM     12  O   UNL     1     -22.474  27.660 -30.743  1.00  0.00    -0.387 OA
ATOM     13  H   UNL     1     -21.587  27.258 -30.550  1.00  0.00     0.211 HD
ENDBRANCH   3  12
BRANCH   5  14
ATOM     14  C   UNL     1     -21.385  23.407 -30.317  1.00  0.00     0.191 C 
BRANCH  14  15
ATOM     15  O   UNL     1     -22.046  22.798 -31.391  1.00  0.00    -0.394 OA
ATOM     16  H   UNL     1     -22.832  23.370 -31.593  1.00  0.00     0.210 HD
ENDBRANCH  14  15
ENDBRANCH   5  14
BRANCH   4  17
ATOM     17  O   UNL     1     -21.471  25.709 -32.518  1.00  0.00    -0.387 OA
ATOM     18  H   UNL     1     -21.789  25.339 -33.382  1.00  0.00     0.211 HD
ENDBRANCH   4  17
TORSDOF 7
ENDMDL
MODEL 3
REMARK VINA RESULT:    -4.145      7.968      9.618
REMARK INTER + INTRA:          -6.110
REMARK INTER:                  -5.355
REMARK INTRA:                  -0.755
REMARK UNBOUND:                -0.753
REMARK SMILES CCO[C@H]1O[C@@H](CO)[C@H](O)[C@H](O)[C@@H]1O
REMARK SMILES IDX 4 1 13 2 11 3 9 4 6 5 5 6 3 7 2 8 1 9 14 10 12 12 7 14 8 15
REMARK SMILES IDX 10 17
REMARK H PARENT 14 11 12 13 8 16 10 18
REMARK Flexibility Score: inf
ROOT
ATOM      1  C   UNL     1     -26.200  20.488 -38.514  1.00  0.00     0.281 C 
ATOM      2  C   UNL     1     -26.040  20.999 -37.055  1.00  0.00     0.202 C 
ATOM      3  C   UNL     1     -27.210  21.912 -36.624  1.00  0.00     0.179 C 
ATOM      4  C   UNL     1     -28.494  21.473 -37.338  1.00  0.00     0.177 C 
ATOM      5  C   UNL     1     -28.291  21.589 -38.876  1.00  0.00     0.178 C 
ATOM      6  O   UNL     1     -26.945  21.398 -39.310  1.00  0.00    -0.341 OA
ENDROOT
BRANCH   1   7
ATOM      7  O   UNL     1     -26.819  19.208 -38.535  1.00  0.00    -0.350 OA
BRANCH   7   8
ATOM      8  C   UNL     1     -26.327  18.366 -37.508  1.00  0.00     0.160 C 
ATOM      9  C   UNL     1     -27.476  17.615 -36.844  1.00  0.00     0.035 C 
ENDBRANCH   7   8
ENDBRANCH   1   7
BRANCH   2  10
ATOM     10  O   UNL     1     -24.816  21.678 -36.925  1.00  0.00    -0.385 OA
ATOM     11  H   UNL     1     -24.843  22.444 -37.557  1.00  0.00     0.211 HD
ENDBRANCH   2  10
BRANCH   3  12
ATOM     12  O   UNL     1     -26.917  23.252 -36.940  1.00  0.00    -0.387 OA
ATOM     13  H   UNL     1     -26.942  23.763 -36.089  1.00  0.00     0.211 HD
ENDBRANCH   3  12
BRANCH   5  14
ATOM     14  C   UNL     1     -29.254  20.684 -39.658  1.00  0.00     0.191 C 
BRANCH  14  15
ATOM     15  O   UNL     1     -29.790  19.712 -38.804  1.00  0.00    -0.394 OA
ATOM     16  H   UNL     1     -30.356  20.200 -38.151  1.00  0.00     0.210 HD
ENDBRANCH  14  15
ENDBRANCH   5  14
BRANCH   4  17
ATOM     17  O   UNL     1     -29.565  22.279 -36.918  1.00  0.00    -0.387 OA
ATOM     18  H   UNL     1     -30.203  21.686 -36.443  1.00  0.00     0.211 HD
ENDBRANCH   4  17
TORSDOF 7
ENDMDL
MODEL 4
REMARK VINA RESULT:    -4.102     14.382     16.472
REMARK INTER + INTRA:          -6.054
REMARK INTER:                  -5.389
REMARK INTRA:                  -0.665
REMARK UNBOUND:                -0.753
REMARK SMILES CCO[C@H]1O[C@@H](CO)[C@H](O)[C@H](O)[C@@H]1O
REMARK SMILES IDX 4 1 13 2 11 3 9 4 6 5 5 6 3 7 2 8 1 9 14 10 12 12 7 14 8 15
REMARK SMILES IDX 10 17
REMARK H PARENT 14 11 12 13 8 16 10 18
REMARK Flexibility Score: inf
ROOT
ATOM      1  C   UNL     1     -22.496  19.001 -27.597  1.00  0.00     0.281 C 
ATOM      2  C   UNL     1     -23.916  19.299 -27.041  1.00  0.00     0.202 C 
ATOM      3  C   UNL     1     -24.742  20.191 -27.994  1.00  0.00     0.179 C 
ATOM      4  C   UNL     1     -24.334  19.908 -29.445  1.00  0.00     0.177 C 
ATOM      5  C   UNL     1     -22.822  20.227 -29.624  1.00  0.00     0.178 C 
ATOM      6  O   UNL     1     -22.036  20.042 -28.447  1.00  0.00    -0.341 OA
ENDROOT
BRANCH   1   7
ATOM      7  O   UNL     1     -22.477  17.763 -28.296  1.00  0.00    -0.350 OA
BRANCH   7   8
ATOM      8  C   UNL     1     -21.336  16.989 -27.970  1.00  0.00     0.160 C 
ATOM      9  C   UNL     1     -21.153  16.931 -26.458  1.00  0.00     0.035 C 
ENDBRANCH   7   8
ENDBRANCH   1   7
BRANCH   2  10
ATOM     10  O   UNL     1     -23.810  19.902 -25.775  1.00  0.00    -0.385 OA
ATOM     11  H   UNL     1     -24.496  20.620 -25.740  1.00  0.00     0.211 HD
ENDBRANCH   2  10
BRANCH   3  12
ATOM     12  O   UNL     1     -24.529  21.549 -27.689  1.00  0.00    -0.387 OA
ATOM     13  H   UNL     1     -25.305  21.850 -27.148  1.00  0.00     0.211 HD
ENDBRANCH   3  12
BRANCH   5  14
ATOM     14  C   UNL     1     -22.208  19.479 -30.817  1.00  0.00     0.191 C 
BRANCH  14  15
ATOM     15  O   UNL     1     -23.047  18.424 -31.197  1.00  0.00    -0.394 OA
ATOM     16  H   UNL     1     -23.759  18.375 -30.507  1.00  0.00     0.210 HD
ENDBRANCH  14  15
ENDBRANCH   5  14
BRANCH   4  17
ATOM     17  O   UNL     1     -25.111  20.692 -30.314  1.00  0.00    -0.387 OA
ATOM     18  H   UNL     1     -25.176  21.594 -29.907  1.00  0.00     0.211 HD
ENDBRANCH   4  17
TORSDOF 7
ENDMDL
MODEL 5
REMARK VINA RESULT:    -4.097     14.626     17.066
REMARK INTER + INTRA:          -6.048
REMARK INTER:                  -5.384
REMARK INTRA:                  -0.664
REMARK UNBOUND:                -0.753
REMARK SMILES CCO[C@H]1O[C@@H](CO)[C@H](O)[C@H](O)[C@@H]1O
REMARK SMILES IDX 4 1 13 2 11 3 9 4 6 5 5 6 3 7 2 8 1 9 14 10 12 12 7 14 8 15
REMARK SMILES IDX 10 17
REMARK H PARENT 14 11 12 13 8 16 10 18
REMARK Flexibility Score: inf
ROOT
ATOM      1  C   UNL     1     -21.919  18.403 -28.212  1.00  0.00     0.281 C 
ATOM      2  C   UNL     1     -22.636  17.918 -26.920  1.00  0.00     0.202 C 
ATOM      3  C   UNL     1     -23.781  18.865 -26.498  1.00  0.00     0.179 C 
ATOM      4  C   UNL     1     -24.406  19.504 -27.743  1.00  0.00     0.177 C 
ATOM      5  C   UNL     1     -23.319  20.320 -28.501  1.00  0.00     0.178 C 
ATOM      6  O   UNL     1     -21.993  19.814 -28.354  1.00  0.00    -0.341 OA
ENDROOT
BRANCH   1   7
ATOM      7  O   UNL     1     -22.469  17.772 -29.361  1.00  0.00    -0.350 OA
BRANCH   7   8
ATOM      8  C   UNL     1     -21.462  17.282 -30.228  1.00  0.00     0.160 C 
ATOM      9  C   UNL     1     -21.954  17.294 -31.671  1.00  0.00     0.035 C 
ENDBRANCH   7   8
ENDBRANCH   1   7
BRANCH   2  10
ATOM     10  O   UNL     1     -21.698  17.790 -25.881  1.00  0.00    -0.385 OA
ATOM     11  H   UNL     1     -20.799  17.772 -26.304  1.00  0.00     0.211 HD
ENDBRANCH   2  10
BRANCH   3  12
ATOM     12  O   UNL     1     -23.288  19.865 -25.638  1.00  0.00    -0.387 OA
ATOM     13  H   UNL     1     -22.330  19.996 -25.864  1.00  0.00     0.211 HD
ENDBRANCH   3  12
BRANCH   5  14
ATOM     14  C   UNL     1     -23.671  20.518 -29.983  1.00  0.00     0.191 C 
BRANCH  14  15
ATOM     15  O   UNL     1     -24.635  19.579 -30.371  1.00  0.00    -0.394 OA
ATOM     16  H   UNL     1     -25.352  20.091 -30.827  1.00  0.00     0.210 HD
ENDBRANCH  14  15
ENDBRANCH   5  14
BRANCH   4  17
ATOM     17  O   UNL     1     -25.472  20.335 -27.362  1.00  0.00    -0.387 OA
ATOM     18  H   UNL     1     -25.414  20.444 -26.377  1.00  0.00     0.211 HD
ENDBRANCH   4  17
TORSDOF 7
ENDMDL
MODEL 6
REMARK VINA RESULT:    -4.069     13.684     16.015
REMARK INTER + INTRA:          -6.011
REMARK INTER:                  -5.560
REMARK INTRA:                  -0.451
REMARK UNBOUND:                -0.753
REMARK SMILES CCO[C@H]1O[C@@H](CO)[C@H](O)[C@H](O)[C@@H]1O
REMARK SMILES IDX 4 1 13 2 11 3 9 4 6 5 5 6 3 7 2 8 1 9 14 10 12 12 7 14 8 15
REMARK SMILES IDX 10 17
REMARK H PARENT 14 11 12 13 8 16 10 18
REMARK Flexibility Score: inf
ROOT
ATOM      1  C   UNL     1     -22.850  19.016 -29.851  1.00  0.00     0.281 C 
ATOM      2  C   UNL     1     -23.079  20.389 -30.543  1.00  0.00     0.202 C 
ATOM      3  C   UNL     1     -24.097  21.265 -29.780  1.00  0.00     0.179 C 
ATOM      4  C   UNL     1     -24.012  20.965 -28.279  1.00  0.00     0.177 C 
ATOM      5  C   UNL     1     -24.343  19.464 -28.037  1.00  0.00     0.178 C 
ATOM      6  O   UNL     1     -23.995  18.601 -29.120  1.00  0.00    -0.341 OA
ENDROOT
BRANCH   1   7
ATOM      7  O   UNL     1     -21.719  19.066 -28.991  1.00  0.00    -0.350 OA
BRANCH   7   8
ATOM      8  C   UNL     1     -20.804  18.019 -29.261  1.00  0.00     0.160 C 
ATOM      9  C   UNL     1     -20.955  16.906 -28.230  1.00  0.00     0.035 C 
ENDBRANCH   7   8
ENDBRANCH   1   7
BRANCH   2  10
ATOM     10  O   UNL     1     -23.504  20.185 -31.867  1.00  0.00    -0.385 OA
ATOM     11  H   UNL     1     -24.449  20.487 -31.916  1.00  0.00     0.211 HD
ENDBRANCH   2  10
BRANCH   3  12
ATOM     12  O   UNL     1     -25.400  21.010 -30.250  1.00  0.00    -0.387 OA
ATOM     13  H   UNL     1     -25.946  21.812 -30.039  1.00  0.00     0.211 HD
ENDBRANCH   3  12
BRANCH   5  14
ATOM     14  C   UNL     1     -23.761  18.946 -26.713  1.00  0.00     0.191 C 
BRANCH  14  15
ATOM     15  O   UNL     1     -23.815  19.957 -25.746  1.00  0.00    -0.394 OA
ATOM     16  H   UNL     1     -24.742  19.953 -25.392  1.00  0.00     0.210 HD
ENDBRANCH  14  15
ENDBRANCH   5  14
BRANCH   4  17
ATOM     17  O   UNL     1     -24.911  21.788 -27.582  1.00  0.00    -0.387 OA
ATOM     18  H   UNL     1     -25.789  21.326 -27.589  1.00  0.00     0.211 HD
ENDBRANCH   4  17
TORSDOF 7
ENDMDL
MODEL 7
REMARK VINA RESULT:    -4.044     13.582     16.054
REMARK INTER + INTRA:          -5.979
REMARK INTER:                  -5.296
REMARK INTRA:                  -0.683
REMARK UNBOUND:                -0.753
REMARK SMILES CCO[C@H]1O[C@@H](CO)[C@H](O)[C@H](O)[C@@H]1O
REMARK SMILES IDX 4 1 13 2 11 3 9 4 6 5 5 6 3 7 2 8 1 9 14 10 12 12 7 14 8 15
REMARK SMILES IDX 10 17
REMARK H PARENT 14 11 12 13 8 16 10 18
REMARK Flexibility Score: inf
ROOT
ATOM      1  C   UNL     1     -22.398  19.336 -29.644  1.00  0.00     0.281 C 
ATOM      2  C   UNL     1     -22.822  18.286 -28.579  1.00  0.00     0.202 C 
ATOM      3  C   UNL     1     -23.761  18.886 -27.509  1.00  0.00     0.179 C 
ATOM      4  C   UNL     1     -24.614  19.995 -28.137  1.00  0.00     0.177 C 
ATOM      5  C   UNL     1     -23.680  21.112 -28.684  1.00  0.00     0.178 C 
ATOM      6  O   UNL     1     -22.397  20.653 -29.111  1.00  0.00    -0.341 OA
ENDROOT
BRANCH   1   7
ATOM      7  O   UNL     1     -23.249  19.275 -30.781  1.00  0.00    -0.350 OA
BRANCH   7   8
ATOM      8  C   UNL     1     -23.589  17.942 -31.115  1.00  0.00     0.160 C 
ATOM      9  C   UNL     1     -22.595  17.380 -32.125  1.00  0.00     0.035 C 
ENDBRANCH   7   8
ENDBRANCH   1   7
BRANCH   2  10
ATOM     10  O   UNL     1     -21.678  17.739 -27.974  1.00  0.00    -0.385 OA
ATOM     11  H   UNL     1     -21.192  18.492 -27.544  1.00  0.00     0.211 HD
ENDBRANCH   2  10
BRANCH   3  12
ATOM     12  O   UNL     1     -23.006  19.405 -26.440  1.00  0.00    -0.387 OA
ATOM     13  H   UNL     1     -22.937  18.687 -25.758  1.00  0.00     0.211 HD
ENDBRANCH   3  12
BRANCH   5  14
ATOM     14  C   UNL     1     -24.356  21.949 -29.781  1.00  0.00     0.191 C 
BRANCH  14  15
ATOM     15  O   UNL     1     -25.509  21.295 -30.232  1.00  0.00    -0.394 OA
ATOM     16  H   UNL     1     -26.161  21.336 -29.485  1.00  0.00     0.210 HD
ENDBRANCH  14  15
ENDBRANCH   5  14
BRANCH   4  17
ATOM     17  O   UNL     1     -25.495  20.515 -27.174  1.00  0.00    -0.387 OA
ATOM     18  H   UNL     1     -25.228  21.458 -27.019  1.00  0.00     0.211 HD
ENDBRANCH   4  17
TORSDOF 7
ENDMDL
MODEL 8
REMARK VINA RESULT:    -4.041      6.214      7.437
REMARK INTER + INTRA:          -5.976
REMARK INTER:                  -5.332
REMARK INTRA:                  -0.643
REMARK UNBOUND:                -0.753
REMARK SMILES CCO[C@H]1O[C@@H](CO)[C@H](O)[C@H](O)[C@@H]1O
REMARK SMILES IDX 4 1 13 2 11 3 9 4 6 5 5 6 3 7 2 8 1 9 14 10 12 12 7 14 8 15
REMARK SMILES IDX 10 17
REMARK H PARENT 14 11 12 13 8 16 10 18
REMARK Flexibility Score: inf
ROOT
ATOM      1  C   UNL     1     -30.691  29.587 -34.793  1.00  0.00     0.281 C 
ATOM      2  C   UNL     1     -29.904  28.547 -35.639  1.00  0.00     0.202 C 
ATOM      3  C   UNL     1     -30.830  27.722 -36.560  1.00  0.00     0.179 C 
ATOM      4  C   UNL     1     -32.025  28.580 -36.989  1.00  0.00     0.177 C 
ATOM      5  C   UNL     1     -32.819  29.022 -35.726  1.00  0.00     0.178 C 
ATOM      6  O   UNL     1     -32.024  29.162 -34.549  1.00  0.00    -0.341 OA
ENDROOT
BRANCH   1   7
ATOM      7  O   UNL     1     -30.698  30.857 -35.432  1.00  0.00    -0.350 OA
BRANCH   7   8
ATOM      8  C   UNL     1     -29.607  31.661 -35.020  1.00  0.00     0.160 C 
ATOM      9  C   UNL     1     -29.451  31.604 -33.505  1.00  0.00     0.035 C 
ENDBRANCH   7   8
ENDBRANCH   1   7
BRANCH   2  10
ATOM     10  O   UNL     1     -29.179  27.698 -34.785  1.00  0.00    -0.385 OA
ATOM     11  H   UNL     1     -29.830  27.054 -34.398  1.00  0.00     0.211 HD
ENDBRANCH   2  10
BRANCH   3  12
ATOM     12  O   UNL     1     -31.279  26.571 -35.885  1.00  0.00    -0.387 OA
ATOM     13  H   UNL     1     -30.477  26.024 -35.679  1.00  0.00     0.211 HD
ENDBRANCH   3  12
BRANCH   5  14
ATOM     14  C   UNL     1     -33.655  30.286 -35.978  1.00  0.00     0.191 C 
BRANCH  14  15
ATOM     15  O   UNL     1     -33.220  30.915 -37.151  1.00  0.00    -0.394 OA
ATOM     16  H   UNL     1     -34.029  31.044 -37.712  1.00  0.00     0.210 HD
ENDBRANCH  14  15
ENDBRANCH   5  14
BRANCH   4  17
ATOM     17  O   UNL     1     -32.847  27.842 -37.857  1.00  0.00    -0.387 OA
ATOM     18  H   UNL     1     -32.347  27.736 -38.707  1.00  0.00     0.211 HD
ENDBRANCH   4  17
TORSDOF 7
ENDMDL
MODEL 9
REMARK VINA RESULT:    -4.022     11.320     12.731
REMARK INTER + INTRA:          -5.951
REMARK INTER:                  -5.272
REMARK INTRA:                  -0.679
REMARK UNBOUND:                -0.753
REMARK SMILES CCO[C@H]1O[C@@H](CO)[C@H](O)[C@H](O)[C@@H]1O
REMARK SMILES IDX 4 1 13 2 11 3 9 4 6 5 5 6 3 7 2 8 1 9 14 10 12 12 7 14 8 15
REMARK SMILES IDX 10 17
REMARK H PARENT 14 11 12 13 8 16 10 18
REMARK Flexibility Score: inf
ROOT
ATOM      1  C   UNL     1     -22.994  23.336 -29.758  1.00  0.00     0.281 C 
ATOM      2  C   UNL     1     -24.417  23.959 -29.727  1.00  0.00     0.202 C 
ATOM      3  C   UNL     1     -24.381  25.502 -29.807  1.00  0.00     0.179 C 
ATOM      4  C   UNL     1     -23.172  25.945 -30.639  1.00  0.00     0.177 C 
ATOM      5  C   UNL     1     -21.868  25.435 -29.960  1.00  0.00     0.178 C 
ATOM      6  O   UNL     1     -22.021  24.222 -29.224  1.00  0.00    -0.341 OA
ENDROOT
BRANCH   1   7
ATOM      7  O   UNL     1     -22.634  22.964 -31.082  1.00  0.00    -0.350 OA
BRANCH   7   8
ATOM      8  C   UNL     1     -21.929  21.736 -31.113  1.00  0.00     0.160 C 
ATOM      9  C   UNL     1     -22.457  20.797 -30.034  1.00  0.00     0.035 C 
ENDBRANCH   7   8
ENDBRANCH   1   7
BRANCH   2  10
ATOM     10  O   UNL     1     -25.088  23.546 -28.563  1.00  0.00    -0.385 OA
ATOM     11  H   UNL     1     -25.372  24.370 -28.085  1.00  0.00     0.211 HD
ENDBRANCH   2  10
BRANCH   3  12
ATOM     12  O   UNL     1     -24.303  26.050 -28.513  1.00  0.00    -0.387 OA
ATOM     13  H   UNL     1     -23.941  25.343 -27.919  1.00  0.00     0.211 HD
ENDBRANCH   3  12
BRANCH   5  14
ATOM     14  C   UNL     1     -20.699  25.332 -30.951  1.00  0.00     0.191 C 
BRANCH  14  15
ATOM     15  O   UNL     1     -21.188  25.352 -32.263  1.00  0.00    -0.394 OA
ATOM     16  H   UNL     1     -20.395  25.456 -32.852  1.00  0.00     0.210 HD
ENDBRANCH  14  15
ENDBRANCH   5  14
BRANCH   4  17
ATOM     17  O   UNL     1     -23.159  27.345 -30.744  1.00  0.00    -0.387 OA
ATOM     18  H   UNL     1     -23.424  27.567 -31.674  1.00  0.00     0.211 HD
ENDBRANCH   4  17
TORSDOF 7
ENDMDL
