MODEL 1
REMARK VINA RESULT:    -4.750      0.000      0.000
REMARK INTER + INTRA:          -8.415
REMARK INTER:                  -7.249
REMARK INTRA:                  -1.166
REMARK UNBOUND:                -1.166
REMARK SMILES CCCCCCCCCCC(=O)[O-]
REMARK SMILES IDX 7 1 8 2 9 3 10 4 11 5 12 6 13 7 6 8 5 9 4 10 3 11 2 12 1 13
REMARK H PARENT
REMARK Flexibility Score: inf
ROOT
ATOM      1  C   UNL     1      78.464   3.508  21.398  1.00  0.00     0.000 C 
ENDROOT
BRANCH   1   2
ATOM      2  C   UNL     1      77.817   3.236  22.766  1.00  0.00     0.000 C 
BRANCH   2   3
ATOM      3  C   UNL     1      76.294   3.121  22.638  1.00  0.00     0.006 C 
BRANCH   3   4
ATOM      4  C   UNL     1      75.899   2.533  21.281  1.00  0.00     0.053 C 
BRANCH   4   5
ATOM      5  C   UNL     1      74.411   2.518  21.128  1.00  0.00     0.041 C 
ATOM      6  O   UNL     1      73.679   3.070  21.991  1.00  0.00    -0.550 OA
ATOM      7  O   UNL     1      73.833   1.939  20.005  1.00  0.00    -0.550 OA
ENDBRANCH   4   5
ENDBRANCH   3   4
ENDBRANCH   2   3
ENDBRANCH   1   2
BRANCH   1   8
ATOM      8  C   UNL     1      79.159   4.877  21.333  1.00  0.00     0.000 C 
BRANCH   8   9
ATOM      9  C   UNL     1      78.261   5.970  20.736  1.00  0.00    -0.000 C 
BRANCH   9  10
ATOM     10  C   UNL     1      77.797   6.952  21.818  1.00  0.00    -0.000 C 
BRANCH  10  11
ATOM     11  C   UNL     1      76.264   7.003  21.894  1.00  0.00    -0.000 C 
BRANCH  11  12
ATOM     12  C   UNL     1      75.591   6.217  20.758  1.00  0.00    -0.003 C 
ATOM     13  C   UNL     1      74.193   6.739  20.425  1.00  0.00     0.004 C 
ENDBRANCH  11  12
ENDBRANCH  10  11
ENDBRANCH   9  10
ENDBRANCH   8   9
ENDBRANCH   1   8
TORSDOF 9
ENDMDL
MODEL 2
REMARK VINA RESULT:    -4.740     11.668     13.873
REMARK INTER + INTRA:          -8.400
REMARK INTER:                  -7.148
REMARK INTRA:                  -1.252
REMARK UNBOUND:                -1.166
REMARK SMILES CCCCCCCCCCC(=O)[O-]
REMARK SMILES IDX 7 1 8 2 9 3 10 4 11 5 12 6 13 7 6 8 5 9 4 10 3 11 2 12 1 13
REMARK H PARENT
REMARK Flexibility Score: inf
ROOT
ATOM      1  C   UNL     1      61.127   3.969  21.353  1.00  0.00     0.000 C 
ENDROOT
BRANCH   1   2
ATOM      2  C   UNL     1      62.170   4.652  22.252  1.00  0.00     0.000 C 
BRANCH   2   3
ATOM      3  C   UNL     1      62.961   3.617  23.060  1.00  0.00     0.006 C 
BRANCH   3   4
ATOM      4  C   UNL     1      64.468   3.861  22.938  1.00  0.00     0.053 C 
BRANCH   4   5
ATOM      5  C   UNL     1      65.233   2.731  23.550  1.00  0.00     0.041 C 
ATOM      6  O   UNL     1      65.918   2.919  24.589  1.00  0.00    -0.550 OA
ATOM      7  O   UNL     1      65.148   1.457  23.003  1.00  0.00    -0.550 OA
ENDBRANCH   4   5
ENDBRANCH   3   4
ENDBRANCH   2   3
ENDBRANCH   1   2
BRANCH   1   8
ATOM      8  C   UNL     1      60.875   2.505  21.746  1.00  0.00     0.000 C 
BRANCH   8   9
ATOM      9  C   UNL     1      60.957   1.547  20.548  1.00  0.00    -0.000 C 
BRANCH   9  10
ATOM     10  C   UNL     1      61.957   2.058  19.503  1.00  0.00    -0.000 C 
BRANCH  10  11
ATOM     11  C   UNL     1      63.225   1.192  19.487  1.00  0.00    -0.000 C 
BRANCH  11  12
ATOM     12  C   UNL     1      64.505   2.016  19.699  1.00  0.00    -0.003 C 
ATOM     13  C   UNL     1      64.402   3.428  19.123  1.00  0.00     0.004 C 
ENDBRANCH  11  12
ENDBRANCH  10  11
ENDBRANCH   9  10
ENDBRANCH   8   9
ENDBRANCH   1   8
TORSDOF 9
ENDMDL
MODEL 3
REMARK VINA RESULT:    -4.679     10.921     13.445
REMARK INTER + INTRA:          -8.307
REMARK INTER:                  -7.146
REMARK INTRA:                  -1.162
REMARK UNBOUND:                -1.166
REMARK SMILES CCCCCCCCCCC(=O)[O-]
REMARK SMILES IDX 7 1 8 2 9 3 10 4 11 5 12 6 13 7 6 8 5 9 4 10 3 11 2 12 1 13
REMARK H PARENT
REMARK Flexibility Score: inf
ROOT
ATOM      1  C   UNL     1      63.129   4.453  21.605  1.00  0.00     0.000 C 
ENDROOT
BRANCH   1   2
ATOM      2  C   UNL     1      63.865   4.077  22.901  1.00  0.00     0.000 C 
BRANCH   2   3
ATOM      3  C   UNL     1      63.731   2.578  23.193  1.00  0.00     0.006 C 
BRANCH   3   4
ATOM      4  C   UNL     1      65.073   1.862  23.019  1.00  0.00     0.053 C 
BRANCH   4   5
ATOM      5  C   UNL     1      66.148   2.568  23.781  1.00  0.00     0.041 C 
ATOM      6  O   UNL     1      66.078   2.664  25.035  1.00  0.00    -0.550 OA
ATOM      7  O   UNL     1      67.255   3.077  23.113  1.00  0.00    -0.550 OA
ENDBRANCH   4   5
ENDBRANCH   3   4
ENDBRANCH   2   3
ENDBRANCH   1   2
BRANCH   1   8
ATOM      8  C   UNL     1      61.603   4.490  21.780  1.00  0.00     0.000 C 
BRANCH   8   9
ATOM      9  C   UNL     1      60.893   3.348  21.037  1.00  0.00    -0.000 C 
BRANCH   9  10
ATOM     10  C   UNL     1      61.633   2.993  19.741  1.00  0.00    -0.000 C 
BRANCH  10  11
ATOM     11  C   UNL     1      61.833   1.475  19.621  1.00  0.00    -0.000 C 
BRANCH  11  12
ATOM     12  C   UNL     1      63.304   1.059  19.775  1.00  0.00    -0.003 C 
ATOM     13  C   UNL     1      64.272   2.071  19.161  1.00  0.00     0.004 C 
ENDBRANCH  11  12
ENDBRANCH  10  11
ENDBRANCH   9  10
ENDBRANCH   8   9
ENDBRANCH   1   8
TORSDOF 9
ENDMDL
MODEL 4
REMARK VINA RESULT:    -4.568     11.050     13.613
REMARK INTER + INTRA:          -8.138
REMARK INTER:                  -6.909
REMARK INTRA:                  -1.229
REMARK UNBOUND:                -1.166
REMARK SMILES CCCCCCCCCCC(=O)[O-]
REMARK SMILES IDX 7 1 8 2 9 3 10 4 11 5 12 6 13 7 6 8 5 9 4 10 3 11 2 12 1 13
REMARK H PARENT
REMARK Flexibility Score: inf
ROOT
ATOM      1  C   UNL     1      63.071   1.192  19.922  1.00  0.00     0.000 C 
ENDROOT
BRANCH   1   2
ATOM      2  C   UNL     1      64.118   2.013  19.154  1.00  0.00     0.000 C 
BRANCH   2   3
ATOM      3  C   UNL     1      63.741   3.499  19.130  1.00  0.00     0.006 C 
BRANCH   3   4
ATOM      4  C   UNL     1      64.928   4.361  18.693  1.00  0.00     0.053 C 
BRANCH   4   5
ATOM      5  C   UNL     1      65.596   4.976  19.881  1.00  0.00     0.041 C 
ATOM      6  O   UNL     1      66.447   4.321  20.539  1.00  0.00    -0.550 OA
ATOM      7  O   UNL     1      65.318   6.291  20.232  1.00  0.00    -0.550 OA
ENDBRANCH   4   5
ENDBRANCH   3   4
ENDBRANCH   2   3
ENDBRANCH   1   2
BRANCH   1   8
ATOM      8  C   UNL     1      61.640   1.712  19.712  1.00  0.00     0.000 C 
BRANCH   8   9
ATOM      9  C   UNL     1      60.875   1.891  21.032  1.00  0.00    -0.000 C 
BRANCH   9  10
ATOM     10  C   UNL     1      61.152   3.270  21.645  1.00  0.00    -0.000 C 
BRANCH  10  11
ATOM     11  C   UNL     1      61.931   3.140  22.962  1.00  0.00    -0.000 C 
BRANCH  11  12
ATOM     12  C   UNL     1      63.341   3.745  22.876  1.00  0.00    -0.003 C 
ATOM     13  C   UNL     1      64.445   2.693  22.984  1.00  0.00     0.004 C 
ENDBRANCH  11  12
ENDBRANCH  10  11
ENDBRANCH   9  10
ENDBRANCH   8   9
ENDBRANCH   1   8
TORSDOF 9
ENDMDL
MODEL 5
REMARK VINA RESULT:    -4.502      9.955     11.774
REMARK INTER + INTRA:          -8.037
REMARK INTER:                  -7.442
REMARK INTRA:                  -0.595
REMARK UNBOUND:                -1.166
REMARK SMILES CCCCCCCCCCC(=O)[O-]
REMARK SMILES IDX 7 1 8 2 9 3 10 4 11 5 12 6 13 7 6 8 5 9 4 10 3 11 2 12 1 13
REMARK H PARENT
REMARK Flexibility Score: inf
ROOT
ATOM      1  C   UNL     1      65.026   1.465  23.219  1.00  0.00     0.000 C 
ENDROOT
BRANCH   1   2
ATOM      2  C   UNL     1      65.741   2.431  24.178  1.00  0.00     0.000 C 
BRANCH   2   3
ATOM      3  C   UNL     1      66.656   3.391  23.408  1.00  0.00     0.006 C 
BRANCH   3   4
ATOM      4  C   UNL     1      66.531   4.819  23.945  1.00  0.00     0.053 C 
BRANCH   4   5
ATOM      5  C   UNL     1      67.315   4.974  25.210  1.00  0.00     0.041 C 
ATOM      6  O   UNL     1      66.722   5.055  26.317  1.00  0.00    -0.550 OA
ATOM      7  O   UNL     1      68.704   4.977  25.171  1.00  0.00    -0.550 OA
ENDBRANCH   4   5
ENDBRANCH   3   4
ENDBRANCH   2   3
ENDBRANCH   1   2
BRANCH   1   8
ATOM      8  C   UNL     1      64.601   2.140  21.906  1.00  0.00     0.000 C 
BRANCH   8   9
ATOM      9  C   UNL     1      64.238   1.128  20.810  1.00  0.00    -0.000 C 
BRANCH   9  10
ATOM     10  C   UNL     1      63.659   1.835  19.578  1.00  0.00    -0.000 C 
BRANCH  10  11
ATOM     11  C   UNL     1      63.665   3.359  19.767  1.00  0.00    -0.000 C 
BRANCH  11  12
ATOM     12  C   UNL     1      64.516   4.081  18.710  1.00  0.00    -0.003 C 
ATOM     13  C   UNL     1      65.786   3.312  18.346  1.00  0.00     0.004 C 
ENDBRANCH  11  12
ENDBRANCH  10  11
ENDBRANCH   9  10
ENDBRANCH   8   9
ENDBRANCH   1   8
TORSDOF 9
ENDMDL
MODEL 6
REMARK VINA RESULT:    -4.500     10.969     12.829
REMARK INTER + INTRA:          -8.034
REMARK INTER:                  -6.649
REMARK INTRA:                  -1.386
REMARK UNBOUND:                -1.166
REMARK SMILES CCCCCCCCCCC(=O)[O-]
REMARK SMILES IDX 7 1 8 2 9 3 10 4 11 5 12 6 13 7 6 8 5 9 4 10 3 11 2 12 1 13
REMARK H PARENT
REMARK Flexibility Score: inf
ROOT
ATOM      1  C   UNL     1      65.804   4.287  20.466  1.00  0.00     0.000 C 
ENDROOT
BRANCH   1   2
ATOM      2  C   UNL     1      64.724   5.180  21.098  1.00  0.00     0.000 C 
BRANCH   2   3
ATOM      3  C   UNL     1      64.292   4.634  22.464  1.00  0.00     0.006 C 
BRANCH   3   4
ATOM      4  C   UNL     1      65.249   3.540  22.946  1.00  0.00     0.053 C 
BRANCH   4   5
ATOM      5  C   UNL     1      64.495   2.295  23.287  1.00  0.00     0.041 C 
ATOM      6  O   UNL     1      65.081   1.180  23.293  1.00  0.00    -0.550 OA
ATOM      7  O   UNL     1      63.156   2.370  23.648  1.00  0.00    -0.550 OA
ENDBRANCH   4   5
ENDBRANCH   3   4
ENDBRANCH   2   3
ENDBRANCH   1   2
BRANCH   1   8
ATOM      8  C   UNL     1      65.518   3.967  18.990  1.00  0.00     0.000 C 
BRANCH   8   9
ATOM      9  C   UNL     1      64.138   3.327  18.780  1.00  0.00    -0.000 C 
BRANCH   9  10
ATOM     10  C   UNL     1      64.029   1.996  19.534  1.00  0.00    -0.000 C 
BRANCH  10  11
ATOM     11  C   UNL     1      62.612   1.794  20.091  1.00  0.00    -0.000 C 
BRANCH  11  12
ATOM     12  C   UNL     1      61.661   2.941  19.714  1.00  0.00    -0.003 C 
ATOM     13  C   UNL     1      61.074   3.649  20.936  1.00  0.00     0.004 C 
ENDBRANCH  11  12
ENDBRANCH  10  11
ENDBRANCH   9  10
ENDBRANCH   8   9
ENDBRANCH   1   8
TORSDOF 9
ENDMDL
MODEL 7
REMARK VINA RESULT:    -4.469     11.281     12.648
REMARK INTER + INTRA:          -7.987
REMARK INTER:                  -6.859
REMARK INTRA:                  -1.128
REMARK UNBOUND:                -1.166
REMARK SMILES CCCCCCCCCCC(=O)[O-]
REMARK SMILES IDX 7 1 8 2 9 3 10 4 11 5 12 6 13 7 6 8 5 9 4 10 3 11 2 12 1 13
REMARK H PARENT
REMARK Flexibility Score: inf
ROOT
ATOM      1  C   UNL     1      65.702   3.626  19.347  1.00  0.00     0.000 C 
ENDROOT
BRANCH   1   2
ATOM      2  C   UNL     1      64.211   3.337  19.114  1.00  0.00     0.000 C 
BRANCH   2   3
ATOM      3  C   UNL     1      63.935   1.829  19.137  1.00  0.00     0.006 C 
BRANCH   3   4
ATOM      4  C   UNL     1      63.141   1.434  20.385  1.00  0.00     0.053 C 
BRANCH   4   5
ATOM      5  C   UNL     1      61.792   2.081  20.376  1.00  0.00     0.041 C 
ATOM      6  O   UNL     1      60.978   1.836  19.448  1.00  0.00    -0.550 OA
ATOM      7  O   UNL     1      61.414   2.916  21.420  1.00  0.00    -0.550 OA
ENDBRANCH   4   5
ENDBRANCH   3   4
ENDBRANCH   2   3
ENDBRANCH   1   2
BRANCH   1   8
ATOM      8  C   UNL     1      65.967   4.330  20.687  1.00  0.00     0.000 C 
BRANCH   8   9
ATOM      9  C   UNL     1      64.690   4.910  21.315  1.00  0.00    -0.000 C 
BRANCH   9  10
ATOM     10  C   UNL     1      64.418   4.281  22.687  1.00  0.00    -0.000 C 
BRANCH  10  11
ATOM     11  C   UNL     1      65.682   4.297  23.559  1.00  0.00    -0.000 C 
BRANCH  11  12
ATOM     12  C   UNL     1      65.983   2.927  24.186  1.00  0.00    -0.003 C 
ATOM     13  C   UNL     1      65.346   1.770  23.417  1.00  0.00     0.004 C 
ENDBRANCH  11  12
ENDBRANCH  10  11
ENDBRANCH   9  10
ENDBRANCH   8   9
ENDBRANCH   1   8
TORSDOF 9
ENDMDL
MODEL 8
REMARK VINA RESULT:    -4.466     10.832     13.018
REMARK INTER + INTRA:          -7.982
REMARK INTER:                  -7.264
REMARK INTRA:                  -0.718
REMARK UNBOUND:                -1.166
REMARK SMILES CCCCCCCCCCC(=O)[O-]
REMARK SMILES IDX 7 1 8 2 9 3 10 4 11 5 12 6 13 7 6 8 5 9 4 10 3 11 2 12 1 13
REMARK H PARENT
REMARK Flexibility Score: inf
ROOT
ATOM      1  C   UNL     1      61.666   4.380  21.821  1.00  0.00     0.000 C 
ENDROOT
BRANCH   1   2
ATOM      2  C   UNL     1      61.228   3.006  21.288  1.00  0.00     0.000 C 
BRANCH   2   3
ATOM      3  C   UNL     1      61.626   2.836  19.818  1.00  0.00     0.006 C 
BRANCH   3   4
ATOM      4  C   UNL     1      62.352   1.507  19.595  1.00  0.00     0.053 C 
BRANCH   4   5
ATOM      5  C   UNL     1      63.809   1.646  19.906  1.00  0.00     0.041 C 
ATOM      6  O   UNL     1      64.300   1.074  20.913  1.00  0.00    -0.550 OA
ATOM      7  O   UNL     1      64.635   2.367  19.052  1.00  0.00    -0.550 OA
ENDBRANCH   4   5
ENDBRANCH   3   4
ENDBRANCH   2   3
ENDBRANCH   1   2
BRANCH   1   8
ATOM      8  C   UNL     1      63.011   4.326  22.562  1.00  0.00     0.000 C 
BRANCH   8   9
ATOM      9  C   UNL     1      64.186   4.797  21.692  1.00  0.00    -0.000 C 
BRANCH   9  10
ATOM     10  C   UNL     1      65.526   4.546  22.396  1.00  0.00    -0.000 C 
BRANCH  10  11
ATOM     11  C   UNL     1      65.381   4.686  23.918  1.00  0.00    -0.000 C 
BRANCH  11  12
ATOM     12  C   UNL     1      66.485   3.944  24.687  1.00  0.00    -0.003 C 
ATOM     13  C   UNL     1      66.930   4.686  25.948  1.00  0.00     0.004 C 
ENDBRANCH  11  12
ENDBRANCH  10  11
ENDBRANCH   9  10
ENDBRANCH   8   9
ENDBRANCH   1   8
TORSDOF 9
ENDMDL
MODEL 9
REMARK VINA RESULT:    -4.394     10.225     12.352
REMARK INTER + INTRA:          -7.872
REMARK INTER:                  -7.032
REMARK INTRA:                  -0.840
REMARK UNBOUND:                -1.166
REMARK SMILES CCCCCCCCCCC(=O)[O-]
REMARK SMILES IDX 7 1 8 2 9 3 10 4 11 5 12 6 13 7 6 8 5 9 4 10 3 11 2 12 1 13
REMARK H PARENT
REMARK Flexibility Score: inf
ROOT
ATOM      1  C   UNL     1      63.787   3.955  23.124  1.00  0.00     0.000 C 
ENDROOT
BRANCH   1   2
ATOM      2  C   UNL     1      63.231   4.294  21.732  1.00  0.00     0.000 C 
BRANCH   2   3
ATOM      3  C   UNL     1      64.037   3.593  20.633  1.00  0.00     0.006 C 
BRANCH   3   4
ATOM      4  C   UNL     1      63.116   3.057  19.533  1.00  0.00     0.053 C 
BRANCH   4   5
ATOM      5  C   UNL     1      62.754   1.630  19.801  1.00  0.00     0.041 C 
ATOM      6  O   UNL     1      63.642   0.737  19.785  1.00  0.00    -0.550 OA
ATOM      7  O   UNL     1      61.445   1.293  20.118  1.00  0.00    -0.550 OA
ENDBRANCH   4   5
ENDBRANCH   3   4
ENDBRANCH   2   3
ENDBRANCH   1   2
BRANCH   1   8
ATOM      8  C   UNL     1      64.271   2.500  23.230  1.00  0.00     0.000 C 
BRANCH   8   9
ATOM      9  C   UNL     1      65.632   2.379  23.932  1.00  0.00    -0.000 C 
BRANCH   9  10
ATOM     10  C   UNL     1      66.735   3.065  23.116  1.00  0.00    -0.000 C 
BRANCH  10  11
ATOM     11  C   UNL     1      67.635   3.920  24.021  1.00  0.00    -0.000 C 
BRANCH  11  12
ATOM     12  C   UNL     1      66.858   5.024  24.755  1.00  0.00    -0.003 C 
ATOM     13  C   UNL     1      66.929   4.885  26.276  1.00  0.00     0.004 C 
ENDBRANCH  11  12
ENDBRANCH  10  11
ENDBRANCH   9  10
ENDBRANCH   8   9
ENDBRANCH   1   8
TORSDOF 9
ENDMDL
