MODEL 1
REMARK VINA RESULT:    -4.567      0.000      0.000
REMARK INTER + INTRA:          -6.685
REMARK INTER:                  -6.436
REMARK INTRA:                  -0.249
REMARK UNBOUND:                -0.249
REMARK SMILES CCCCCCCCC(=O)[O-]
REMARK SMILES IDX 6 1 7 2 8 3 9 4 10 5 11 6 5 7 4 8 3 9 2 10 1 11
REMARK H PARENT
REMARK Flexibility Score: inf
ROOT
ATOM      1  C   UNL     1     -10.429  23.448 -26.087  1.00  0.00     0.000 C 
ENDROOT
BRANCH   1   2
ATOM      2  C   UNL     1      -9.198  24.319 -26.379  1.00  0.00     0.006 C 
BRANCH   2   3
ATOM      3  C   UNL     1      -9.494  25.414 -27.413  1.00  0.00     0.053 C 
BRANCH   3   4
ATOM      4  C   UNL     1      -8.612  26.609 -27.225  1.00  0.00     0.041 C 
ATOM      5  O   UNL     1      -7.624  26.794 -27.985  1.00  0.00    -0.550 OA
ATOM      6  O   UNL     1      -8.859  27.503 -26.190  1.00  0.00    -0.550 OA
ENDBRANCH   3   4
ENDBRANCH   2   3
ENDBRANCH   1   2
BRANCH   1   7
ATOM      7  C   UNL     1     -10.045  22.212 -25.263  1.00  0.00     0.000 C 
BRANCH   7   8
ATOM      8  C   UNL     1      -9.141  22.598 -24.082  1.00  0.00    -0.000 C 
BRANCH   8   9
ATOM      9  C   UNL     1      -9.941  23.038 -22.845  1.00  0.00    -0.000 C 
BRANCH   9  10
ATOM     10  C   UNL     1      -9.156  22.854 -21.537  1.00  0.00    -0.003 C 
ATOM     11  C   UNL     1     -10.089  22.500 -20.382  1.00  0.00     0.004 C 
ENDBRANCH   9  10
ENDBRANCH   8   9
ENDBRANCH   7   8
ENDBRANCH   1   7
TORSDOF 7
ENDMDL
MODEL 2
REMARK VINA RESULT:    -4.508      1.307      2.610
REMARK INTER + INTRA:          -6.602
REMARK INTER:                  -6.258
REMARK INTRA:                  -0.343
REMARK UNBOUND:                -0.249
REMARK SMILES CCCCCCCCC(=O)[O-]
REMARK SMILES IDX 6 1 7 2 8 3 9 4 10 5 11 6 5 7 4 8 3 9 2 10 1 11
REMARK H PARENT
REMARK Flexibility Score: inf
ROOT
ATOM      1  C   UNL     1      -9.665  25.564 -27.435  1.00  0.00     0.000 C 
ENDROOT
BRANCH   1   2
ATOM      2  C   UNL     1      -8.550  25.854 -28.451  1.00  0.00     0.006 C 
BRANCH   2   3
ATOM      3  C   UNL     1      -7.169  25.942 -27.787  1.00  0.00     0.053 C 
BRANCH   3   4
ATOM      4  C   UNL     1      -6.816  27.351 -27.421  1.00  0.00     0.041 C 
ATOM      5  O   UNL     1      -7.023  27.774 -26.253  1.00  0.00    -0.550 OA
ATOM      6  O   UNL     1      -6.289  28.209 -28.379  1.00  0.00    -0.550 OA
ENDBRANCH   3   4
ENDBRANCH   2   3
ENDBRANCH   1   2
BRANCH   1   7
ATOM      7  C   UNL     1      -9.264  24.426 -26.489  1.00  0.00     0.000 C 
BRANCH   7   8
ATOM      8  C   UNL     1     -10.456  23.498 -26.209  1.00  0.00    -0.000 C 
BRANCH   8   9
ATOM      9  C   UNL     1     -10.071  22.281 -25.351  1.00  0.00    -0.000 C 
BRANCH   9  10
ATOM     10  C   UNL     1      -9.059  22.631 -24.249  1.00  0.00    -0.003 C 
ATOM     11  C   UNL     1      -9.767  22.944 -22.934  1.00  0.00     0.004 C 
ENDBRANCH   9  10
ENDBRANCH   8   9
ENDBRANCH   7   8
ENDBRANCH   1   7
TORSDOF 7
ENDMDL
MODEL 3
REMARK VINA RESULT:    -4.458      7.962      9.070
REMARK INTER + INTRA:          -6.531
REMARK INTER:                  -5.834
REMARK INTRA:                  -0.696
REMARK UNBOUND:                -0.249
REMARK SMILES CCCCCCCCC(=O)[O-]
REMARK SMILES IDX 6 1 7 2 8 3 9 4 10 5 11 6 5 7 4 8 3 9 2 10 1 11
REMARK H PARENT
REMARK Flexibility Score: inf
ROOT
ATOM      1  C   UNL     1      -5.938  28.478 -21.098  1.00  0.00     0.000 C 
ENDROOT
BRANCH   1   2
ATOM      2  C   UNL     1      -6.126  29.944 -20.679  1.00  0.00     0.006 C 
BRANCH   2   3
ATOM      3  C   UNL     1      -6.177  30.109 -19.153  1.00  0.00     0.053 C 
BRANCH   3   4
ATOM      4  C   UNL     1      -6.757  31.431 -18.756  1.00  0.00     0.041 C 
ATOM      5  O   UNL     1      -7.053  31.658 -17.553  1.00  0.00    -0.550 OA
ATOM      6  O   UNL     1      -7.003  32.402 -19.719  1.00  0.00    -0.550 OA
ENDBRANCH   3   4
ENDBRANCH   2   3
ENDBRANCH   1   2
BRANCH   1   7
ATOM      7  C   UNL     1      -5.847  27.562 -19.872  1.00  0.00     0.000 C 
BRANCH   7   8
ATOM      8  C   UNL     1      -4.865  26.407 -20.120  1.00  0.00    -0.000 C 
BRANCH   8   9
ATOM      9  C   UNL     1      -3.397  26.864 -20.096  1.00  0.00    -0.000 C 
BRANCH   9  10
ATOM     10  C   UNL     1      -3.100  27.842 -18.950  1.00  0.00    -0.003 C 
ATOM     11  C   UNL     1      -2.539  29.158 -19.483  1.00  0.00     0.004 C 
ENDBRANCH   9  10
ENDBRANCH   8   9
ENDBRANCH   7   8
ENDBRANCH   1   7
TORSDOF 7
ENDMDL
MODEL 4
REMARK VINA RESULT:    -4.311      8.346      9.514
REMARK INTER + INTRA:          -6.324
REMARK INTER:                  -5.856
REMARK INTRA:                  -0.469
REMARK UNBOUND:                -0.249
REMARK SMILES CCCCCCCCC(=O)[O-]
REMARK SMILES IDX 6 1 7 2 8 3 9 4 10 5 11 6 5 7 4 8 3 9 2 10 1 11
REMARK H PARENT
REMARK Flexibility Score: inf
ROOT
ATOM      1  C   UNL     1      -5.916  27.239 -19.728  1.00  0.00     0.000 C 
ENDROOT
BRANCH   1   2
ATOM      2  C   UNL     1      -5.066  28.066 -20.703  1.00  0.00     0.006 C 
BRANCH   2   3
ATOM      3  C   UNL     1      -3.571  27.729 -20.600  1.00  0.00     0.053 C 
BRANCH   3   4
ATOM      4  C   UNL     1      -2.922  28.431 -19.448  1.00  0.00     0.041 C 
ATOM      5  O   UNL     1      -2.527  29.621 -19.571  1.00  0.00    -0.550 OA
ATOM      6  O   UNL     1      -2.721  27.763 -18.247  1.00  0.00    -0.550 OA
ENDBRANCH   3   4
ENDBRANCH   2   3
ENDBRANCH   1   2
BRANCH   1   7
ATOM      7  C   UNL     1      -6.533  28.131 -18.644  1.00  0.00     0.000 C 
BRANCH   7   8
ATOM      8  C   UNL     1      -6.476  29.611 -19.051  1.00  0.00    -0.000 C 
BRANCH   8   9
ATOM      9  C   UNL     1      -6.859  30.556 -17.900  1.00  0.00    -0.000 C 
BRANCH   9  10
ATOM     10  C   UNL     1      -6.822  32.035 -18.313  1.00  0.00    -0.003 C 
ATOM     11  C   UNL     1      -6.749  32.180 -19.830  1.00  0.00     0.004 C 
ENDBRANCH   9  10
ENDBRANCH   8   9
ENDBRANCH   7   8
ENDBRANCH   1   7
TORSDOF 7
ENDMDL
MODEL 5
REMARK VINA RESULT:    -4.132      8.310      9.679
REMARK INTER + INTRA:          -6.072
REMARK INTER:                  -5.453
REMARK INTRA:                  -0.619
REMARK UNBOUND:                -0.249
REMARK SMILES CCCCCCCCC(=O)[O-]
REMARK SMILES IDX 6 1 7 2 8 3 9 4 10 5 11 6 5 7 4 8 3 9 2 10 1 11
REMARK H PARENT
REMARK Flexibility Score: inf
ROOT
ATOM      1  C   UNL     1      -6.622  30.858 -20.275  1.00  0.00     0.000 C 
ENDROOT
BRANCH   1   2
ATOM      2  C   UNL     1      -6.024  30.644 -18.876  1.00  0.00     0.006 C 
BRANCH   2   3
ATOM      3  C   UNL     1      -7.051  30.077 -17.887  1.00  0.00     0.053 C 
BRANCH   3   4
ATOM      4  C   UNL     1      -6.781  28.639 -17.568  1.00  0.00     0.041 C 
ATOM      5  O   UNL     1      -6.759  28.248 -16.371  1.00  0.00    -0.550 OA
ATOM      6  O   UNL     1      -6.520  27.736 -18.590  1.00  0.00    -0.550 OA
ENDBRANCH   3   4
ENDBRANCH   2   3
ENDBRANCH   1   2
BRANCH   1   7
ATOM      7  C   UNL     1      -6.052  29.848 -21.278  1.00  0.00     0.000 C 
BRANCH   7   8
ATOM      8  C   UNL     1      -4.517  29.907 -21.304  1.00  0.00    -0.000 C 
BRANCH   8   9
ATOM      9  C   UNL     1      -3.877  28.540 -21.600  1.00  0.00    -0.000 C 
BRANCH   9  10
ATOM     10  C   UNL     1      -3.255  27.895 -20.354  1.00  0.00    -0.003 C 
ATOM     11  C   UNL     1      -2.646  28.951 -19.435  1.00  0.00     0.004 C 
ENDBRANCH   9  10
ENDBRANCH   8   9
ENDBRANCH   7   8
ENDBRANCH   1   7
TORSDOF 7
ENDMDL
MODEL 6
REMARK VINA RESULT:    -4.122      8.169      9.082
REMARK INTER + INTRA:          -6.058
REMARK INTER:                  -5.500
REMARK INTRA:                  -0.558
REMARK UNBOUND:                -0.249
REMARK SMILES CCCCCCCCC(=O)[O-]
REMARK SMILES IDX 6 1 7 2 8 3 9 4 10 5 11 6 5 7 4 8 3 9 2 10 1 11
REMARK H PARENT
REMARK Flexibility Score: inf
ROOT
ATOM      1  C   UNL     1      -5.669  28.563 -20.857  1.00  0.00     0.000 C 
ENDROOT
BRANCH   1   2
ATOM      2  C   UNL     1      -4.343  28.503 -21.630  1.00  0.00     0.006 C 
BRANCH   2   3
ATOM      3  C   UNL     1      -3.242  27.782 -20.839  1.00  0.00     0.053 C 
BRANCH   3   4
ATOM      4  C   UNL     1      -2.909  28.501 -19.569  1.00  0.00     0.041 C 
ATOM      5  O   UNL     1      -3.017  27.913 -18.459  1.00  0.00    -0.550 OA
ATOM      6  O   UNL     1      -2.509  29.831 -19.605  1.00  0.00    -0.550 OA
ENDBRANCH   3   4
ENDBRANCH   2   3
ENDBRANCH   1   2
BRANCH   1   7
ATOM      7  C   UNL     1      -6.555  29.703 -21.373  1.00  0.00     0.000 C 
BRANCH   7   8
ATOM      8  C   UNL     1      -6.740  30.785 -20.297  1.00  0.00    -0.000 C 
BRANCH   8   9
ATOM      9  C   UNL     1      -6.027  30.437 -18.981  1.00  0.00    -0.000 C 
BRANCH   9  10
ATOM     10  C   UNL     1      -7.008  30.130 -17.840  1.00  0.00    -0.003 C 
ATOM     11  C   UNL     1      -6.990  28.645 -17.485  1.00  0.00     0.004 C 
ENDBRANCH   9  10
ENDBRANCH   8   9
ENDBRANCH   7   8
ENDBRANCH   1   7
TORSDOF 7
ENDMDL
MODEL 7
REMARK VINA RESULT:    -4.121      7.527      8.583
REMARK INTER + INTRA:          -6.056
REMARK INTER:                  -5.213
REMARK INTRA:                  -0.843
REMARK UNBOUND:                -0.249
REMARK SMILES CCCCCCCCC(=O)[O-]
REMARK SMILES IDX 6 1 7 2 8 3 9 4 10 5 11 6 5 7 4 8 3 9 2 10 1 11
REMARK H PARENT
REMARK Flexibility Score: inf
ROOT
ATOM      1  C   UNL     1      -6.476  29.612 -18.759  1.00  0.00     0.000 C 
ENDROOT
BRANCH   1   2
ATOM      2  C   UNL     1      -6.437  30.200 -20.177  1.00  0.00     0.006 C 
BRANCH   2   3
ATOM      3  C   UNL     1      -5.332  31.253 -20.339  1.00  0.00     0.053 C 
BRANCH   3   4
ATOM      4  C   UNL     1      -4.369  30.886 -21.426  1.00  0.00     0.041 C 
ATOM      5  O   UNL     1      -3.191  31.332 -21.407  1.00  0.00    -0.550 OA
ATOM      6  O   UNL     1      -4.781  30.078 -22.478  1.00  0.00    -0.550 OA
ENDBRANCH   3   4
ENDBRANCH   2   3
ENDBRANCH   1   2
BRANCH   1   7
ATOM      7  C   UNL     1      -6.426  28.079 -18.798  1.00  0.00     0.000 C 
BRANCH   7   8
ATOM      8  C   UNL     1      -5.941  27.580 -20.167  1.00  0.00    -0.000 C 
BRANCH   8   9
ATOM      9  C   UNL     1      -4.685  26.699 -20.065  1.00  0.00    -0.000 C 
BRANCH   9  10
ATOM     10  C   UNL     1      -3.403  27.450 -20.457  1.00  0.00    -0.003 C 
ATOM     11  C   UNL     1      -2.868  28.271 -19.288  1.00  0.00     0.004 C 
ENDBRANCH   9  10
ENDBRANCH   8   9
ENDBRANCH   7   8
ENDBRANCH   1   7
TORSDOF 7
ENDMDL
MODEL 8
REMARK VINA RESULT:    -4.117      8.218      9.340
REMARK INTER + INTRA:          -6.051
REMARK INTER:                  -5.323
REMARK INTRA:                  -0.728
REMARK UNBOUND:                -0.249
REMARK SMILES CCCCCCCCC(=O)[O-]
REMARK SMILES IDX 6 1 7 2 8 3 9 4 10 5 11 6 5 7 4 8 3 9 2 10 1 11
REMARK H PARENT
REMARK Flexibility Score: inf
ROOT
ATOM      1  C   UNL     1      -3.902  30.309 -20.145  1.00  0.00     0.000 C 
ENDROOT
BRANCH   1   2
ATOM      2  C   UNL     1      -3.769  28.966 -19.411  1.00  0.00     0.006 C 
BRANCH   2   3
ATOM      3  C   UNL     1      -3.604  27.788 -20.381  1.00  0.00     0.053 C 
BRANCH   3   4
ATOM      4  C   UNL     1      -4.617  26.713 -20.129  1.00  0.00     0.041 C 
ATOM      5  O   UNL     1      -4.310  25.503 -20.293  1.00  0.00    -0.550 OA
ATOM      6  O   UNL     1      -5.908  27.049 -19.744  1.00  0.00    -0.550 OA
ENDBRANCH   3   4
ENDBRANCH   2   3
ENDBRANCH   1   2
BRANCH   1   7
ATOM      7  C   UNL     1      -5.067  30.278 -21.140  1.00  0.00     0.000 C 
BRANCH   7   8
ATOM      8  C   UNL     1      -6.408  30.504 -20.425  1.00  0.00    -0.000 C 
BRANCH   8   9
ATOM      9  C   UNL     1      -6.431  31.807 -19.609  1.00  0.00    -0.000 C 
BRANCH   9  10
ATOM     10  C   UNL     1      -6.931  31.597 -18.172  1.00  0.00    -0.003 C 
ATOM     11  C   UNL     1      -6.993  30.112 -17.824  1.00  0.00     0.004 C 
ENDBRANCH   9  10
ENDBRANCH   8   9
ENDBRANCH   7   8
ENDBRANCH   1   7
TORSDOF 7
ENDMDL
MODEL 9
REMARK VINA RESULT:    -4.097      8.462      9.586
REMARK INTER + INTRA:          -6.022
REMARK INTER:                  -5.370
REMARK INTRA:                  -0.653
REMARK UNBOUND:                -0.249
REMARK SMILES CCCCCCCCC(=O)[O-]
REMARK SMILES IDX 6 1 7 2 8 3 9 4 10 5 11 6 5 7 4 8 3 9 2 10 1 11
REMARK H PARENT
REMARK Flexibility Score: inf
ROOT
ATOM      1  C   UNL     1      -3.757  30.414 -20.766  1.00  0.00     0.000 C 
ENDROOT
BRANCH   1   2
ATOM      2  C   UNL     1      -4.747  31.388 -20.110  1.00  0.00     0.006 C 
BRANCH   2   3
ATOM      3  C   UNL     1      -6.163  30.804 -20.021  1.00  0.00     0.053 C 
BRANCH   3   4
ATOM      4  C   UNL     1      -6.668  30.784 -18.611  1.00  0.00     0.041 C 
ATOM      5  O   UNL     1      -6.832  29.688 -18.012  1.00  0.00    -0.550 OA
ATOM      6  O   UNL     1      -6.989  31.973 -17.968  1.00  0.00    -0.550 OA
ENDBRANCH   3   4
ENDBRANCH   2   3
ENDBRANCH   1   2
BRANCH   1   7
ATOM      7  C   UNL     1      -2.672  29.980 -19.773  1.00  0.00     0.000 C 
BRANCH   7   8
ATOM      8  C   UNL     1      -2.836  28.501 -19.391  1.00  0.00    -0.000 C 
BRANCH   8   9
ATOM      9  C   UNL     1      -3.318  27.637 -20.568  1.00  0.00    -0.000 C 
BRANCH   9  10
ATOM     10  C   UNL     1      -4.340  26.573 -20.141  1.00  0.00    -0.003 C 
ATOM     11  C   UNL     1      -5.764  27.116 -20.227  1.00  0.00     0.004 C 
ENDBRANCH   9  10
ENDBRANCH   8   9
ENDBRANCH   7   8
ENDBRANCH   1   7
TORSDOF 7
ENDMDL
