MODEL 1
REMARK VINA RESULT:    -4.633      0.000      0.000
REMARK INTER + INTRA:          -9.635
REMARK INTER:                  -8.696
REMARK INTRA:                  -0.939
REMARK UNBOUND:                -0.939
REMARK SMILES O=C([O-])CCCCCCCCCCCCCCC(=O)[O-]
REMARK SMILES IDX 10 1 9 2 8 3 7 4 6 5 5 6 4 7 2 8 1 9 3 10 11 11 12 12 13 13
REMARK SMILES IDX 14 14 15 15 16 16 17 17 18 18 19 19 20 20
REMARK H PARENT
REMARK Flexibility Score: inf
ROOT
ATOM      1  C   UNL     1      19.208  25.364   3.995  1.00  0.00     0.000 C 
ENDROOT
BRANCH   1   2
ATOM      2  C   UNL     1      19.226  25.781   2.515  1.00  0.00     0.000 C 
BRANCH   2   3
ATOM      3  C   UNL     1      19.503  24.604   1.566  1.00  0.00     0.000 C 
BRANCH   3   4
ATOM      4  C   UNL     1      19.015  24.864   0.128  1.00  0.00     0.000 C 
BRANCH   4   5
ATOM      5  C   UNL     1      18.642  26.325  -0.184  1.00  0.00     0.000 C 
BRANCH   5   6
ATOM      6  C   UNL     1      17.243  26.467  -0.807  1.00  0.00     0.006 C 
BRANCH   6   7
ATOM      7  C   UNL     1      16.879  25.270  -1.696  1.00  0.00     0.053 C 
BRANCH   7   8
ATOM      8  C   UNL     1      15.440  25.303  -2.117  1.00  0.00     0.041 C 
ATOM      9  O   UNL     1      14.525  25.220  -1.255  1.00  0.00    -0.550 OA
ATOM     10  O   UNL     1      15.111  25.400  -3.464  1.00  0.00    -0.550 OA
ENDBRANCH   7   8
ENDBRANCH   6   7
ENDBRANCH   5   6
ENDBRANCH   4   5
ENDBRANCH   3   4
ENDBRANCH   2   3
ENDBRANCH   1   2
BRANCH   1  11
ATOM     11  C   UNL     1      18.894  23.869   4.214  1.00  0.00     0.000 C 
BRANCH  11  12
ATOM     12  C   UNL     1      18.075  23.632   5.496  1.00  0.00     0.000 C 
BRANCH  12  13
ATOM     13  C   UNL     1      16.627  23.207   5.208  1.00  0.00     0.000 C 
BRANCH  13  14
ATOM     14  C   UNL     1      16.316  21.787   5.708  1.00  0.00     0.000 C 
BRANCH  14  15
ATOM     15  C   UNL     1      14.808  21.545   5.893  1.00  0.00     0.000 C 
BRANCH  15  16
ATOM     16  C   UNL     1      13.948  22.569   5.133  1.00  0.00     0.006 C 
BRANCH  16  17
ATOM     17  C   UNL     1      13.313  21.968   3.872  1.00  0.00     0.053 C 
BRANCH  17  18
ATOM     18  C   UNL     1      12.263  22.869   3.298  1.00  0.00     0.041 C 
ATOM     19  O   UNL     1      12.098  24.027   3.762  1.00  0.00    -0.550 OA
ATOM     20  O   UNL     1      11.490  22.441   2.225  1.00  0.00    -0.550 OA
ENDBRANCH  17  18
ENDBRANCH  16  17
ENDBRANCH  15  16
ENDBRANCH  14  15
ENDBRANCH  13  14
ENDBRANCH  12  13
ENDBRANCH  11  12
ENDBRANCH   1  11
TORSDOF 15
ENDMDL
MODEL 2
REMARK VINA RESULT:    -4.528      0.317      6.446
REMARK INTER + INTRA:          -9.438
REMARK INTER:                  -8.485
REMARK INTRA:                  -0.954
REMARK UNBOUND:                -0.939
REMARK SMILES O=C([O-])CCCCCCCCCCCCCCC(=O)[O-]
REMARK SMILES IDX 10 1 9 2 8 3 7 4 6 5 5 6 4 7 2 8 1 9 3 10 11 11 12 12 13 13
REMARK SMILES IDX 14 14 15 15 16 16 17 17 18 18 19 19 20 20
REMARK H PARENT
REMARK Flexibility Score: inf
ROOT
ATOM      1  C   UNL     1      18.893  23.857   4.283  1.00  0.00     0.000 C 
ENDROOT
BRANCH   1   2
ATOM      2  C   UNL     1      18.073  23.579   5.554  1.00  0.00     0.000 C 
BRANCH   2   3
ATOM      3  C   UNL     1      16.608  23.222   5.254  1.00  0.00     0.000 C 
BRANCH   3   4
ATOM      4  C   UNL     1      16.243  21.784   5.667  1.00  0.00     0.000 C 
BRANCH   4   5
ATOM      5  C   UNL     1      14.735  21.505   5.806  1.00  0.00     0.000 C 
BRANCH   5   6
ATOM      6  C   UNL     1      13.861  22.640   5.244  1.00  0.00     0.006 C 
BRANCH   6   7
ATOM      7  C   UNL     1      13.239  22.277   3.888  1.00  0.00     0.053 C 
BRANCH   7   8
ATOM      8  C   UNL     1      12.096  23.182   3.538  1.00  0.00     0.041 C 
ATOM      9  O   UNL     1      12.186  24.423   3.734  1.00  0.00    -0.550 OA
ATOM     10  O   UNL     1      10.921  22.650   3.020  1.00  0.00    -0.550 OA
ENDBRANCH   7   8
ENDBRANCH   6   7
ENDBRANCH   5   6
ENDBRANCH   4   5
ENDBRANCH   3   4
ENDBRANCH   2   3
ENDBRANCH   1   2
BRANCH   1  11
ATOM     11  C   UNL     1      19.263  25.345   4.097  1.00  0.00     0.000 C 
BRANCH  11  12
ATOM     12  C   UNL     1      19.248  25.762   2.615  1.00  0.00     0.000 C 
BRANCH  12  13
ATOM     13  C   UNL     1      19.207  24.562   1.658  1.00  0.00     0.000 C 
BRANCH  13  14
ATOM     14  C   UNL     1      19.013  24.981   0.191  1.00  0.00     0.000 C 
BRANCH  14  15
ATOM     15  C   UNL     1      18.447  26.405   0.056  1.00  0.00     0.000 C 
BRANCH  15  16
ATOM     16  C   UNL     1      17.466  26.543  -1.120  1.00  0.00     0.006 C 
BRANCH  16  17
ATOM     17  C   UNL     1      16.881  25.191  -1.546  1.00  0.00     0.053 C 
BRANCH  17  18
ATOM     18  C   UNL     1      15.454  25.319  -1.983  1.00  0.00     0.041 C 
ATOM     19  O   UNL     1      14.532  25.389  -1.128  1.00  0.00    -0.550 OA
ATOM     20  O   UNL     1      15.145  25.395  -3.336  1.00  0.00    -0.550 OA
ENDBRANCH  17  18
ENDBRANCH  16  17
ENDBRANCH  15  16
ENDBRANCH  14  15
ENDBRANCH  13  14
ENDBRANCH  12  13
ENDBRANCH  11  12
ENDBRANCH   1  11
TORSDOF 15
ENDMDL
MODEL 3
REMARK VINA RESULT:    -4.514      0.897      6.553
REMARK INTER + INTRA:          -9.411
REMARK INTER:                  -8.602
REMARK INTRA:                  -0.808
REMARK UNBOUND:                -0.939
REMARK SMILES O=C([O-])CCCCCCCCCCCCCCC(=O)[O-]
REMARK SMILES IDX 10 1 9 2 8 3 7 4 6 5 5 6 4 7 2 8 1 9 3 10 11 11 12 12 13 13
REMARK SMILES IDX 14 14 15 15 16 16 17 17 18 18 19 19 20 20
REMARK H PARENT
REMARK Flexibility Score: inf
ROOT
ATOM      1  C   UNL     1      19.596  23.635   3.888  1.00  0.00     0.000 C 
ENDROOT
BRANCH   1   2
ATOM      2  C   UNL     1      18.561  24.421   4.710  1.00  0.00     0.000 C 
BRANCH   2   3
ATOM      3  C   UNL     1      17.783  23.534   5.695  1.00  0.00     0.000 C 
BRANCH   3   4
ATOM      4  C   UNL     1      16.757  22.620   5.000  1.00  0.00     0.000 C 
BRANCH   4   5
ATOM      5  C   UNL     1      15.934  21.722   5.943  1.00  0.00     0.000 C 
BRANCH   5   6
ATOM      6  C   UNL     1      14.452  21.629   5.541  1.00  0.00     0.006 C 
BRANCH   6   7
ATOM      7  C   UNL     1      13.829  23.011   5.297  1.00  0.00     0.053 C 
BRANCH   7   8
ATOM      8  C   UNL     1      12.923  23.012   4.102  1.00  0.00     0.041 C 
ATOM      9  O   UNL     1      12.838  21.990   3.369  1.00  0.00    -0.550 OA
ATOM     10  O   UNL     1      12.193  24.151   3.783  1.00  0.00    -0.550 OA
ENDBRANCH   7   8
ENDBRANCH   6   7
ENDBRANCH   5   6
ENDBRANCH   4   5
ENDBRANCH   3   4
ENDBRANCH   2   3
ENDBRANCH   1   2
BRANCH   1  11
ATOM     11  C   UNL     1      20.305  24.483   2.810  1.00  0.00     0.000 C 
BRANCH  11  12
ATOM     12  C   UNL     1      19.409  24.721   1.581  1.00  0.00     0.000 C 
BRANCH  12  13
ATOM     13  C   UNL     1      18.869  26.157   1.507  1.00  0.00     0.000 C 
BRANCH  13  14
ATOM     14  C   UNL     1      18.750  26.671   0.062  1.00  0.00     0.000 C 
BRANCH  14  15
ATOM     15  C   UNL     1      18.845  25.539  -0.974  1.00  0.00     0.000 C 
BRANCH  15  16
ATOM     16  C   UNL     1      17.479  24.901  -1.280  1.00  0.00     0.006 C 
BRANCH  16  17
ATOM     17  C   UNL     1      16.489  25.912  -1.873  1.00  0.00     0.053 C 
BRANCH  17  18
ATOM     18  C   UNL     1      15.243  25.242  -2.367  1.00  0.00     0.041 C 
ATOM     19  O   UNL     1      14.551  24.536  -1.588  1.00  0.00    -0.550 OA
ATOM     20  O   UNL     1      14.829  25.427  -3.680  1.00  0.00    -0.550 OA
ENDBRANCH  17  18
ENDBRANCH  16  17
ENDBRANCH  15  16
ENDBRANCH  14  15
ENDBRANCH  13  14
ENDBRANCH  12  13
ENDBRANCH  11  12
ENDBRANCH   1  11
TORSDOF 15
ENDMDL
MODEL 4
REMARK VINA RESULT:    -3.271     14.592     17.306
REMARK INTER + INTRA:          -7.078
REMARK INTER:                  -5.329
REMARK INTRA:                  -1.749
REMARK UNBOUND:                -0.939
REMARK SMILES O=C([O-])CCCCCCCCCCCCCCC(=O)[O-]
REMARK SMILES IDX 10 1 9 2 8 3 7 4 6 5 5 6 4 7 2 8 1 9 3 10 11 11 12 12 13 13
REMARK SMILES IDX 14 14 15 15 16 16 17 17 18 18 19 19 20 20
REMARK H PARENT
REMARK Flexibility Score: inf
ROOT
ATOM      1  C   UNL     1      22.981  32.527  14.809  1.00  0.00     0.000 C 
ENDROOT
BRANCH   1   2
ATOM      2  C   UNL     1      23.624  33.067  13.521  1.00  0.00     0.000 C 
BRANCH   2   3
ATOM      3  C   UNL     1      22.673  33.024  12.314  1.00  0.00     0.000 C 
BRANCH   3   4
ATOM      4  C   UNL     1      22.031  34.389  12.006  1.00  0.00     0.000 C 
BRANCH   4   5
ATOM      5  C   UNL     1      20.867  34.791  12.931  1.00  0.00     0.000 C 
BRANCH   5   6
ATOM      6  C   UNL     1      19.541  34.106  12.557  1.00  0.00     0.006 C 
BRANCH   6   7
ATOM      7  C   UNL     1      19.241  34.203  11.054  1.00  0.00     0.053 C 
BRANCH   7   8
ATOM      8  C   UNL     1      17.951  33.527  10.698  1.00  0.00     0.041 C 
ATOM      9  O   UNL     1      17.957  32.471  10.011  1.00  0.00    -0.550 OA
ATOM     10  O   UNL     1      16.741  34.080  11.102  1.00  0.00    -0.550 OA
ENDBRANCH   7   8
ENDBRANCH   6   7
ENDBRANCH   5   6
ENDBRANCH   4   5
ENDBRANCH   3   4
ENDBRANCH   2   3
ENDBRANCH   1   2
BRANCH   1  11
ATOM     11  C   UNL     1      22.788  33.599  15.903  1.00  0.00     0.000 C 
BRANCH  11  12
ATOM     12  C   UNL     1      23.912  34.651  15.887  1.00  0.00     0.000 C 
BRANCH  12  13
ATOM     13  C   UNL     1      23.481  35.974  15.236  1.00  0.00     0.000 C 
BRANCH  13  14
ATOM     14  C   UNL     1      24.515  36.502  14.228  1.00  0.00     0.000 C 
BRANCH  14  15
ATOM     15  C   UNL     1      25.949  36.466  14.784  1.00  0.00     0.000 C 
BRANCH  15  16
ATOM     16  C   UNL     1      26.990  36.101  13.712  1.00  0.00     0.006 C 
BRANCH  16  17
ATOM     17  C   UNL     1      27.005  34.598  13.408  1.00  0.00     0.053 C 
BRANCH  17  18
ATOM     18  C   UNL     1      26.798  34.325  11.950  1.00  0.00     0.041 C 
ATOM     19  O   UNL     1      26.577  33.153  11.548  1.00  0.00    -0.550 OA
ATOM     20  O   UNL     1      26.815  35.374  11.037  1.00  0.00    -0.550 OA
ENDBRANCH  17  18
ENDBRANCH  16  17
ENDBRANCH  15  16
ENDBRANCH  14  15
ENDBRANCH  13  14
ENDBRANCH  12  13
ENDBRANCH  11  12
ENDBRANCH   1  11
TORSDOF 15
ENDMDL
MODEL 5
REMARK VINA RESULT:    -3.234     14.604     16.975
REMARK INTER + INTRA:          -7.009
REMARK INTER:                  -4.932
REMARK INTRA:                  -2.077
REMARK UNBOUND:                -0.939
REMARK SMILES O=C([O-])CCCCCCCCCCCCCCC(=O)[O-]
REMARK SMILES IDX 10 1 9 2 8 3 7 4 6 5 5 6 4 7 2 8 1 9 3 10 11 11 12 12 13 13
REMARK SMILES IDX 14 14 15 15 16 16 17 17 18 18 19 19 20 20
REMARK H PARENT
REMARK Flexibility Score: inf
ROOT
ATOM      1  C   UNL     1      21.806  34.300  15.817  1.00  0.00     0.000 C 
ENDROOT
BRANCH   1   2
ATOM      2  C   UNL     1      23.039  35.179  16.086  1.00  0.00     0.000 C 
BRANCH   2   3
ATOM      3  C   UNL     1      23.113  36.403  15.159  1.00  0.00     0.000 C 
BRANCH   3   4
ATOM      4  C   UNL     1      24.509  36.607  14.543  1.00  0.00     0.000 C 
BRANCH   4   5
ATOM      5  C   UNL     1      25.650  35.838  15.236  1.00  0.00     0.000 C 
BRANCH   5   6
ATOM      6  C   UNL     1      26.793  35.468  14.274  1.00  0.00     0.006 C 
BRANCH   6   7
ATOM      7  C   UNL     1      26.638  34.050  13.707  1.00  0.00     0.053 C 
BRANCH   7   8
ATOM      8  C   UNL     1      26.471  34.060  12.217  1.00  0.00     0.041 C 
ATOM      9  O   UNL     1      26.341  32.977  11.586  1.00  0.00    -0.550 OA
ATOM     10  O   UNL     1      26.486  35.265  11.523  1.00  0.00    -0.550 OA
ENDBRANCH   7   8
ENDBRANCH   6   7
ENDBRANCH   5   6
ENDBRANCH   4   5
ENDBRANCH   3   4
ENDBRANCH   2   3
ENDBRANCH   1   2
BRANCH   1  11
ATOM     11  C   UNL     1      22.154  32.864  15.369  1.00  0.00     0.000 C 
BRANCH  11  12
ATOM     12  C   UNL     1      23.271  32.844  14.310  1.00  0.00     0.000 C 
BRANCH  12  13
ATOM     13  C   UNL     1      22.731  32.834  12.872  1.00  0.00     0.000 C 
BRANCH  13  14
ATOM     14  C   UNL     1      22.641  34.243  12.264  1.00  0.00     0.000 C 
BRANCH  14  15
ATOM     15  C   UNL     1      21.214  34.814  12.311  1.00  0.00     0.000 C 
BRANCH  15  16
ATOM     16  C   UNL     1      20.249  34.073  11.371  1.00  0.00     0.006 C 
BRANCH  16  17
ATOM     17  C   UNL     1      18.802  34.113  11.878  1.00  0.00     0.053 C 
BRANCH  17  18
ATOM     18  C   UNL     1      17.834  33.662  10.828  1.00  0.00     0.041 C 
ATOM     19  O   UNL     1      16.618  33.982  10.906  1.00  0.00    -0.550 OA
ATOM     20  O   UNL     1      18.281  32.917   9.744  1.00  0.00    -0.550 OA
ENDBRANCH  17  18
ENDBRANCH  16  17
ENDBRANCH  15  16
ENDBRANCH  14  15
ENDBRANCH  13  14
ENDBRANCH  12  13
ENDBRANCH  11  12
ENDBRANCH   1  11
TORSDOF 15
ENDMDL
MODEL 6
REMARK VINA RESULT:    -3.162      1.202      2.351
REMARK INTER + INTRA:          -6.874
REMARK INTER:                  -6.083
REMARK INTRA:                  -0.791
REMARK UNBOUND:                -0.939
REMARK SMILES O=C([O-])CCCCCCCCCCCCCCC(=O)[O-]
REMARK SMILES IDX 10 1 9 2 8 3 7 4 6 5 5 6 4 7 2 8 1 9 3 10 11 11 12 12 13 13
REMARK SMILES IDX 14 14 15 15 16 16 17 17 18 18 19 19 20 20
REMARK H PARENT
REMARK Flexibility Score: inf
ROOT
ATOM      1  C   UNL     1      18.045  23.066   4.474  1.00  0.00     0.000 C 
ENDROOT
BRANCH   1   2
ATOM      2  C   UNL     1      18.746  24.434   4.427  1.00  0.00     0.000 C 
BRANCH   2   3
ATOM      3  C   UNL     1      19.748  24.553   3.267  1.00  0.00     0.000 C 
BRANCH   3   4
ATOM      4  C   UNL     1      19.242  25.455   2.126  1.00  0.00     0.000 C 
BRANCH   4   5
ATOM      5  C   UNL     1      19.162  24.780   0.743  1.00  0.00     0.000 C 
BRANCH   5   6
ATOM      6  C   UNL     1      18.908  25.781  -0.398  1.00  0.00     0.006 C 
BRANCH   6   7
ATOM      7  C   UNL     1      17.439  26.219  -0.470  1.00  0.00     0.053 C 
BRANCH   7   8
ATOM      8  C   UNL     1      16.613  25.270  -1.286  1.00  0.00     0.041 C 
ATOM      9  O   UNL     1      16.204  25.608  -2.430  1.00  0.00    -0.550 OA
ATOM     10  O   UNL     1      16.272  24.024  -0.773  1.00  0.00    -0.550 OA
ENDBRANCH   7   8
ENDBRANCH   6   7
ENDBRANCH   5   6
ENDBRANCH   4   5
ENDBRANCH   3   4
ENDBRANCH   2   3
ENDBRANCH   1   2
BRANCH   1  11
ATOM     11  C   UNL     1      17.045  22.921   5.641  1.00  0.00     0.000 C 
BRANCH  11  12
ATOM     12  C   UNL     1      16.245  21.608   5.558  1.00  0.00     0.000 C 
BRANCH  12  13
ATOM     13  C   UNL     1      14.727  21.837   5.513  1.00  0.00     0.000 C 
BRANCH  13  14
ATOM     14  C   UNL     1      14.357  23.294   5.186  1.00  0.00     0.000 C 
BRANCH  14  15
ATOM     15  C   UNL     1      12.836  23.515   5.129  1.00  0.00     0.000 C 
BRANCH  15  16
ATOM     16  C   UNL     1      12.333  23.802   3.704  1.00  0.00     0.006 C 
BRANCH  16  17
ATOM     17  C   UNL     1      12.088  22.514   2.908  1.00  0.00     0.053 C 
BRANCH  17  18
ATOM     18  C   UNL     1      10.688  22.448   2.380  1.00  0.00     0.041 C 
ATOM     19  O   UNL     1      10.474  22.091   1.191  1.00  0.00    -0.550 OA
ATOM     20  O   UNL     1       9.616  22.748   3.212  1.00  0.00    -0.550 OA
ENDBRANCH  17  18
ENDBRANCH  16  17
ENDBRANCH  15  16
ENDBRANCH  14  15
ENDBRANCH  13  14
ENDBRANCH  12  13
ENDBRANCH  11  12
ENDBRANCH   1  11
TORSDOF 15
ENDMDL
MODEL 7
REMARK VINA RESULT:    -3.097     15.046     17.767
REMARK INTER + INTRA:          -6.751
REMARK INTER:                  -5.212
REMARK INTRA:                  -1.539
REMARK UNBOUND:                -0.939
REMARK SMILES O=C([O-])CCCCCCCCCCCCCCC(=O)[O-]
REMARK SMILES IDX 10 1 9 2 8 3 7 4 6 5 5 6 4 7 2 8 1 9 3 10 11 11 12 12 13 13
REMARK SMILES IDX 14 14 15 15 16 16 17 17 18 18 19 19 20 20
REMARK H PARENT
REMARK Flexibility Score: inf
ROOT
ATOM      1  C   UNL     1      23.564  36.376  14.333  1.00  0.00     0.000 C 
ENDROOT
BRANCH   1   2
ATOM      2  C   UNL     1      22.238  35.986  15.009  1.00  0.00     0.000 C 
BRANCH   2   3
ATOM      3  C   UNL     1      21.896  34.497  14.839  1.00  0.00     0.000 C 
BRANCH   3   4
ATOM      4  C   UNL     1      21.976  34.025  13.376  1.00  0.00     0.000 C 
BRANCH   4   5
ATOM      5  C   UNL     1      21.025  34.745  12.401  1.00  0.00     0.000 C 
BRANCH   5   6
ATOM      6  C   UNL     1      19.689  34.006  12.212  1.00  0.00     0.006 C 
BRANCH   6   7
ATOM      7  C   UNL     1      19.156  34.128  10.778  1.00  0.00     0.053 C 
BRANCH   7   8
ATOM      8  C   UNL     1      17.831  33.446  10.615  1.00  0.00     0.041 C 
ATOM      9  O   UNL     1      16.790  33.954  11.111  1.00  0.00    -0.550 OA
ATOM     10  O   UNL     1      17.751  32.234   9.938  1.00  0.00    -0.550 OA
ENDBRANCH   7   8
ENDBRANCH   6   7
ENDBRANCH   5   6
ENDBRANCH   4   5
ENDBRANCH   3   4
ENDBRANCH   2   3
ENDBRANCH   1   2
BRANCH   1  11
ATOM     11  C   UNL     1      24.472  37.262  15.213  1.00  0.00     0.000 C 
BRANCH  11  12
ATOM     12  C   UNL     1      25.950  37.171  14.793  1.00  0.00     0.000 C 
BRANCH  12  13
ATOM     13  C   UNL     1      26.207  37.738  13.389  1.00  0.00     0.000 C 
BRANCH  13  14
ATOM     14  C   UNL     1      27.094  36.818  12.533  1.00  0.00     0.000 C 
BRANCH  14  15
ATOM     15  C   UNL     1      26.281  35.750  11.782  1.00  0.00     0.000 C 
BRANCH  15  16
ATOM     16  C   UNL     1      26.661  34.319  12.195  1.00  0.00     0.006 C 
BRANCH  16  17
ATOM     17  C   UNL     1      25.551  33.635  13.003  1.00  0.00     0.053 C 
BRANCH  17  18
ATOM     18  C   UNL     1      25.935  33.470  14.441  1.00  0.00     0.041 C 
ATOM     19  O   UNL     1      27.038  33.910  14.858  1.00  0.00    -0.550 OA
ATOM     20  O   UNL     1      25.057  32.860  15.329  1.00  0.00    -0.550 OA
ENDBRANCH  17  18
ENDBRANCH  16  17
ENDBRANCH  15  16
ENDBRANCH  14  15
ENDBRANCH  13  14
ENDBRANCH  12  13
ENDBRANCH  11  12
ENDBRANCH   1  11
TORSDOF 15
ENDMDL
MODEL 8
REMARK VINA RESULT:    -2.819     15.272     16.890
REMARK INTER + INTRA:          -6.229
REMARK INTER:                  -5.121
REMARK INTRA:                  -1.108
REMARK UNBOUND:                -0.939
REMARK SMILES O=C([O-])CCCCCCCCCCCCCCC(=O)[O-]
REMARK SMILES IDX 10 1 9 2 8 3 7 4 6 5 5 6 4 7 2 8 1 9 3 10 11 11 12 12 13 13
REMARK SMILES IDX 14 14 15 15 16 16 17 17 18 18 19 19 20 20
REMARK H PARENT
REMARK Flexibility Score: inf
ROOT
ATOM      1  C   UNL     1      24.066  35.123  13.735  1.00  0.00     0.000 C 
ENDROOT
BRANCH   1   2
ATOM      2  C   UNL     1      24.697  36.524  13.670  1.00  0.00     0.000 C 
BRANCH   2   3
ATOM      3  C   UNL     1      26.213  36.485  13.420  1.00  0.00     0.000 C 
BRANCH   3   4
ATOM      4  C   UNL     1      26.620  37.142  12.088  1.00  0.00     0.000 C 
BRANCH   4   5
ATOM      5  C   UNL     1      26.155  36.398  10.822  1.00  0.00     0.000 C 
BRANCH   5   6
ATOM      6  C   UNL     1      27.125  35.284  10.392  1.00  0.00     0.006 C 
BRANCH   6   7
ATOM      7  C   UNL     1      27.098  34.088  11.354  1.00  0.00     0.053 C 
BRANCH   7   8
ATOM      8  C   UNL     1      26.413  32.899  10.748  1.00  0.00     0.041 C 
ATOM      9  O   UNL     1      25.653  32.180  11.450  1.00  0.00    -0.550 OA
ATOM     10  O   UNL     1      26.637  32.571   9.416  1.00  0.00    -0.550 OA
ENDBRANCH   7   8
ENDBRANCH   6   7
ENDBRANCH   5   6
ENDBRANCH   4   5
ENDBRANCH   3   4
ENDBRANCH   2   3
ENDBRANCH   1   2
BRANCH   1  11
ATOM     11  C   UNL     1      24.316  34.391  15.070  1.00  0.00     0.000 C 
BRANCH  11  12
ATOM     12  C   UNL     1      24.461  32.870  14.878  1.00  0.00     0.000 C 
BRANCH  12  13
ATOM     13  C   UNL     1      23.126  32.180  14.558  1.00  0.00     0.000 C 
BRANCH  13  14
ATOM     14  C   UNL     1      22.093  32.340  15.686  1.00  0.00     0.000 C 
BRANCH  14  15
ATOM     15  C   UNL     1      21.261  33.626  15.543  1.00  0.00     0.000 C 
BRANCH  15  16
ATOM     16  C   UNL     1      20.337  33.599  14.314  1.00  0.00     0.006 C 
BRANCH  16  17
ATOM     17  C   UNL     1      20.445  34.884  13.482  1.00  0.00     0.053 C 
BRANCH  17  18
ATOM     18  C   UNL     1      20.404  34.597  12.013  1.00  0.00     0.041 C 
ATOM     19  O   UNL     1      21.413  34.820  11.294  1.00  0.00    -0.550 OA
ATOM     20  O   UNL     1      19.260  34.051  11.443  1.00  0.00    -0.550 OA
ENDBRANCH  17  18
ENDBRANCH  16  17
ENDBRANCH  15  16
ENDBRANCH  14  15
ENDBRANCH  13  14
ENDBRANCH  12  13
ENDBRANCH  11  12
ENDBRANCH   1  11
TORSDOF 15
ENDMDL
MODEL 9
REMARK VINA RESULT:    -2.518     14.765     17.093
REMARK INTER + INTRA:          -5.666
REMARK INTER:                  -4.457
REMARK INTRA:                  -1.209
REMARK UNBOUND:                -0.939
REMARK SMILES O=C([O-])CCCCCCCCCCCCCCC(=O)[O-]
REMARK SMILES IDX 10 1 9 2 8 3 7 4 6 5 5 6 4 7 2 8 1 9 3 10 11 11 12 12 13 13
REMARK SMILES IDX 14 14 15 15 16 16 17 17 18 18 19 19 20 20
REMARK H PARENT
REMARK Flexibility Score: inf
ROOT
ATOM      1  C   UNL     1      23.113  36.536  14.723  1.00  0.00     0.000 C 
ENDROOT
BRANCH   1   2
ATOM      2  C   UNL     1      24.028  37.631  15.297  1.00  0.00     0.000 C 
BRANCH   2   3
ATOM      3  C   UNL     1      25.259  37.903  14.417  1.00  0.00     0.000 C 
BRANCH   3   4
ATOM      4  C   UNL     1      26.354  36.831  14.567  1.00  0.00     0.000 C 
BRANCH   4   5
ATOM      5  C   UNL     1      27.121  36.492  13.276  1.00  0.00     0.000 C 
BRANCH   5   6
ATOM      6  C   UNL     1      26.474  35.347  12.477  1.00  0.00     0.006 C 
BRANCH   6   7
ATOM      7  C   UNL     1      25.764  34.334  13.385  1.00  0.00     0.053 C 
BRANCH   7   8
ATOM      8  C   UNL     1      25.265  33.148  12.615  1.00  0.00     0.041 C 
ATOM      9  O   UNL     1      25.865  32.769  11.574  1.00  0.00    -0.550 OA
ATOM     10  O   UNL     1      24.120  32.478  13.034  1.00  0.00    -0.550 OA
ENDBRANCH   7   8
ENDBRANCH   6   7
ENDBRANCH   5   6
ENDBRANCH   4   5
ENDBRANCH   3   4
ENDBRANCH   2   3
ENDBRANCH   1   2
BRANCH   1  11
ATOM     11  C   UNL     1      23.264  35.170  15.425  1.00  0.00     0.000 C 
BRANCH  11  12
ATOM     12  C   UNL     1      21.901  34.519  15.724  1.00  0.00     0.000 C 
BRANCH  12  13
ATOM     13  C   UNL     1      20.866  34.768  14.616  1.00  0.00     0.000 C 
BRANCH  13  14
ATOM     14  C   UNL     1      21.048  33.826  13.414  1.00  0.00     0.000 C 
BRANCH  14  15
ATOM     15  C   UNL     1      21.338  34.588  12.109  1.00  0.00     0.000 C 
BRANCH  15  16
ATOM     16  C   UNL     1      20.177  34.503  11.105  1.00  0.00     0.006 C 
BRANCH  16  17
ATOM     17  C   UNL     1      18.899  33.945  11.744  1.00  0.00     0.053 C 
BRANCH  17  18
ATOM     18  C   UNL     1      17.884  33.562  10.711  1.00  0.00     0.041 C 
ATOM     19  O   UNL     1      18.205  32.806   9.756  1.00  0.00    -0.550 OA
ATOM     20  O   UNL     1      16.575  34.014  10.821  1.00  0.00    -0.550 OA
ENDBRANCH  17  18
ENDBRANCH  16  17
ENDBRANCH  15  16
ENDBRANCH  14  15
ENDBRANCH  13  14
ENDBRANCH  12  13
ENDBRANCH  11  12
ENDBRANCH   1  11
TORSDOF 15
ENDMDL
