MODEL 1
REMARK VINA RESULT:    -3.367      0.000      0.000
REMARK INTER + INTRA:          -3.714
REMARK INTER:                  -3.859
REMARK INTRA:                   0.146
REMARK UNBOUND:                 0.146
REMARK SMILES CC(C)[C@H]([NH3+])C(=O)[O-]
REMARK SMILES IDX 4 1 5 2 6 6 7 7 8 8 2 9 1 10 3 11
REMARK H PARENT 5 3 5 4 5 5
REMARK Flexibility Score: inf
ROOT
ATOM      1  C   UNL     1      13.181  13.896  46.964  1.00  0.00     0.230 C 
ENDROOT
BRANCH   1   2
ATOM      2  N   UNL     1      12.477  12.757  46.352  1.00  0.00    -0.350 N 
ATOM      3  H   UNL     1      13.007  12.403  45.525  1.00  0.00     0.345 HD
ATOM      4  H   UNL     1      11.508  13.019  46.057  1.00  0.00     0.345 HD
ATOM      5  H   UNL     1      12.412  11.976  47.045  1.00  0.00     0.345 HD
ENDBRANCH   1   2
BRANCH   1   6
ATOM      6  C   UNL     1      12.417  14.427  48.153  1.00  0.00     0.099 C 
ATOM      7  O   UNL     1      11.157  14.408  48.174  1.00  0.00    -0.544 OA
ATOM      8  O   UNL     1      13.108  14.988  49.219  1.00  0.00    -0.544 OA
ENDBRANCH   1   6
BRANCH   1   9
ATOM      9  C   UNL     1      13.493  15.037  45.950  1.00  0.00     0.047 C 
ATOM     10  C   UNL     1      14.642  15.957  46.391  1.00  0.00     0.014 C 
ATOM     11  C   UNL     1      12.244  15.870  45.622  1.00  0.00     0.014 C 
ENDBRANCH   1   9
TORSDOF 3
ENDMDL
MODEL 2
REMARK VINA RESULT:    -3.249      1.830      2.580
REMARK INTER + INTRA:          -3.578
REMARK INTER:                  -3.776
REMARK INTRA:                   0.197
REMARK UNBOUND:                 0.146
REMARK SMILES CC(C)[C@H]([NH3+])C(=O)[O-]
REMARK SMILES IDX 4 1 5 2 6 6 7 7 8 8 2 9 1 10 3 11
REMARK H PARENT 5 3 5 4 5 5
REMARK Flexibility Score: inf
ROOT
ATOM      1  C   UNL     1      12.179  14.010  46.725  1.00  0.00     0.230 C 
ENDROOT
BRANCH   1   2
ATOM      2  N   UNL     1      12.478  12.738  46.047  1.00  0.00    -0.350 N 
ATOM      3  H   UNL     1      11.619  12.148  45.982  1.00  0.00     0.345 HD
ATOM      4  H   UNL     1      13.228  12.206  46.544  1.00  0.00     0.345 HD
ATOM      5  H   UNL     1      12.802  12.932  45.071  1.00  0.00     0.345 HD
ENDBRANCH   1   2
BRANCH   1   6
ATOM      6  C   UNL     1      11.642  15.029  45.749  1.00  0.00     0.099 C 
ATOM      7  O   UNL     1      11.660  14.808  44.508  1.00  0.00    -0.544 OA
ATOM      8  O   UNL     1      11.166  16.246  46.218  1.00  0.00    -0.544 OA
ENDBRANCH   1   6
BRANCH   1   9
ATOM      9  C   UNL     1      13.395  14.583  47.513  1.00  0.00     0.047 C 
ATOM     10  C   UNL     1      13.031  15.111  48.910  1.00  0.00     0.014 C 
ATOM     11  C   UNL     1      14.137  15.665  46.715  1.00  0.00     0.014 C 
ENDBRANCH   1   9
TORSDOF 3
ENDMDL
MODEL 3
REMARK VINA RESULT:    -3.171     19.598     20.082
REMARK INTER + INTRA:          -3.489
REMARK INTER:                  -3.437
REMARK INTRA:                  -0.052
REMARK UNBOUND:                 0.146
REMARK SMILES CC(C)[C@H]([NH3+])C(=O)[O-]
REMARK SMILES IDX 4 1 5 2 6 6 7 7 8 8 2 9 1 10 3 11
REMARK H PARENT 5 3 5 4 5 5
REMARK Flexibility Score: inf
ROOT
ATOM      1  C   UNL     1      27.996   5.217  38.859  1.00  0.00     0.230 C 
ENDROOT
BRANCH   1   2
ATOM      2  N   UNL     1      29.124   5.942  38.252  1.00  0.00    -0.350 N 
ATOM      3  H   UNL     1      30.031   5.599  38.643  1.00  0.00     0.345 HD
ATOM      4  H   UNL     1      29.047   6.973  38.410  1.00  0.00     0.345 HD
ATOM      5  H   UNL     1      29.137   5.765  37.221  1.00  0.00     0.345 HD
ENDBRANCH   1   2
BRANCH   1   6
ATOM      6  C   UNL     1      28.126   5.177  40.363  1.00  0.00     0.099 C 
ATOM      7  O   UNL     1      27.922   4.111  41.001  1.00  0.00    -0.544 OA
ATOM      8  O   UNL     1      28.425   6.342  41.058  1.00  0.00    -0.544 OA
ENDBRANCH   1   6
BRANCH   1   9
ATOM      9  C   UNL     1      27.809   3.782  38.279  1.00  0.00     0.047 C 
ATOM     10  C   UNL     1      29.125   3.116  37.846  1.00  0.00     0.014 C 
ATOM     11  C   UNL     1      26.799   3.760  37.122  1.00  0.00     0.014 C 
ENDBRANCH   1   9
TORSDOF 3
ENDMDL
MODEL 4
REMARK VINA RESULT:    -3.063      1.655      2.505
REMARK INTER + INTRA:          -3.366
REMARK INTER:                  -3.664
REMARK INTRA:                   0.298
REMARK UNBOUND:                 0.146
REMARK SMILES CC(C)[C@H]([NH3+])C(=O)[O-]
REMARK SMILES IDX 4 1 5 2 6 6 7 7 8 8 2 9 1 10 3 11
REMARK H PARENT 5 3 5 4 5 5
REMARK Flexibility Score: inf
ROOT
ATOM      1  C   UNL     1      13.210  15.630  46.995  1.00  0.00     0.230 C 
ENDROOT
BRANCH   1   2
ATOM      2  N   UNL     1      14.658  15.892  47.019  1.00  0.00    -0.350 N 
ATOM      3  H   UNL     1      14.842  16.904  47.204  1.00  0.00     0.345 HD
ATOM      4  H   UNL     1      15.112  15.616  46.119  1.00  0.00     0.345 HD
ATOM      5  H   UNL     1      15.098  15.344  47.794  1.00  0.00     0.345 HD
ENDBRANCH   1   2
BRANCH   1   6
ATOM      6  C   UNL     1      12.728  15.142  48.340  1.00  0.00     0.099 C 
ATOM      7  O   UNL     1      13.532  14.982  49.297  1.00  0.00    -0.544 OA
ATOM      8  O   UNL     1      11.389  14.818  48.515  1.00  0.00    -0.544 OA
ENDBRANCH   1   6
BRANCH   1   9
ATOM      9  C   UNL     1      12.785  14.647  45.863  1.00  0.00     0.047 C 
ATOM     10  C   UNL     1      11.495  15.062  45.138  1.00  0.00     0.014 C 
ATOM     11  C   UNL     1      12.666  13.203  46.373  1.00  0.00     0.014 C 
ENDBRANCH   1   9
TORSDOF 3
ENDMDL
MODEL 5
REMARK VINA RESULT:    -3.036     19.474     20.019
REMARK INTER + INTRA:          -3.334
REMARK INTER:                  -3.325
REMARK INTRA:                  -0.009
REMARK UNBOUND:                 0.146
REMARK SMILES CC(C)[C@H]([NH3+])C(=O)[O-]
REMARK SMILES IDX 4 1 5 2 6 6 7 7 8 8 2 9 1 10 3 11
REMARK H PARENT 5 3 5 4 5 5
REMARK Flexibility Score: inf
ROOT
ATOM      1  C   UNL     1      27.982   4.665  40.236  1.00  0.00     0.230 C 
ENDROOT
BRANCH   1   2
ATOM      2  N   UNL     1      27.999   3.769  41.403  1.00  0.00    -0.350 N 
ATOM      3  H   UNL     1      27.468   4.193  42.197  1.00  0.00     0.345 HD
ATOM      4  H   UNL     1      28.976   3.561  41.712  1.00  0.00     0.345 HD
ATOM      5  H   UNL     1      27.531   2.867  41.156  1.00  0.00     0.345 HD
ENDBRANCH   1   2
BRANCH   1   6
ATOM      6  C   UNL     1      28.133   3.883  38.953  1.00  0.00     0.099 C 
ATOM      7  O   UNL     1      29.090   3.080  38.795  1.00  0.00    -0.544 OA
ATOM      8  O   UNL     1      27.235   4.087  37.914  1.00  0.00    -0.544 OA
ENDBRANCH   1   6
BRANCH   1   9
ATOM      9  C   UNL     1      29.044   5.802  40.323  1.00  0.00     0.047 C 
ATOM     10  C   UNL     1      28.840   6.746  41.519  1.00  0.00     0.014 C 
ATOM     11  C   UNL     1      29.125   6.610  39.019  1.00  0.00     0.014 C 
ENDBRANCH   1   9
TORSDOF 3
ENDMDL
MODEL 6
REMARK VINA RESULT:    -2.833      2.197      3.218
REMARK INTER + INTRA:          -3.102
REMARK INTER:                  -3.246
REMARK INTRA:                   0.144
REMARK UNBOUND:                 0.146
REMARK SMILES CC(C)[C@H]([NH3+])C(=O)[O-]
REMARK SMILES IDX 4 1 5 2 6 6 7 7 8 8 2 9 1 10 3 11
REMARK H PARENT 5 3 5 4 5 5
REMARK Flexibility Score: inf
ROOT
ATOM      1  C   UNL     1      13.514  15.055  46.180  1.00  0.00     0.230 C 
ENDROOT
BRANCH   1   2
ATOM      2  N   UNL     1      14.322  16.162  46.719  1.00  0.00    -0.350 N 
ATOM      3  H   UNL     1      14.435  16.061  47.753  1.00  0.00     0.345 HD
ATOM      4  H   UNL     1      13.890  17.090  46.506  1.00  0.00     0.345 HD
ATOM      5  H   UNL     1      15.277  16.136  46.292  1.00  0.00     0.345 HD
ENDBRANCH   1   2
BRANCH   1   6
ATOM      6  C   UNL     1      12.164  15.548  45.718  1.00  0.00     0.099 C 
ATOM      7  O   UNL     1      11.581  16.492  46.315  1.00  0.00    -0.544 OA
ATOM      8  O   UNL     1      11.532  14.921  44.652  1.00  0.00    -0.544 OA
ENDBRANCH   1   6
BRANCH   1   9
ATOM      9  C   UNL     1      13.362  13.869  47.179  1.00  0.00     0.047 C 
ATOM     10  C   UNL     1      13.065  12.524  46.497  1.00  0.00     0.014 C 
ATOM     11  C   UNL     1      12.307  14.160  48.257  1.00  0.00     0.014 C 
ENDBRANCH   1   9
TORSDOF 3
ENDMDL
MODEL 7
REMARK VINA RESULT:    -2.592     19.387     19.912
REMARK INTER + INTRA:          -2.825
REMARK INTER:                  -3.295
REMARK INTRA:                   0.471
REMARK UNBOUND:                 0.146
REMARK SMILES CC(C)[C@H]([NH3+])C(=O)[O-]
REMARK SMILES IDX 4 1 5 2 6 6 7 7 8 8 2 9 1 10 3 11
REMARK H PARENT 5 3 5 4 5 5
REMARK Flexibility Score: inf
ROOT
ATOM      1  C   UNL     1      28.732   4.490  40.151  1.00  0.00     0.230 C 
ENDROOT
BRANCH   1   2
ATOM      2  N   UNL     1      28.104   3.981  41.381  1.00  0.00    -0.350 N 
ATOM      3  H   UNL     1      28.506   3.052  41.638  1.00  0.00     0.345 HD
ATOM      4  H   UNL     1      27.067   3.892  41.273  1.00  0.00     0.345 HD
ATOM      5  H   UNL     1      28.299   4.640  42.170  1.00  0.00     0.345 HD
ENDBRANCH   1   2
BRANCH   1   6
ATOM      6  C   UNL     1      28.739   6.000  40.134  1.00  0.00     0.099 C 
ATOM      7  O   UNL     1      29.090   6.633  39.103  1.00  0.00    -0.544 OA
ATOM      8  O   UNL     1      28.403   6.702  41.283  1.00  0.00    -0.544 OA
ENDBRANCH   1   6
BRANCH   1   9
ATOM      9  C   UNL     1      28.084   3.922  38.853  1.00  0.00     0.047 C 
ATOM     10  C   UNL     1      29.105   3.549  37.766  1.00  0.00     0.014 C 
ATOM     11  C   UNL     1      27.024   4.873  38.279  1.00  0.00     0.014 C 
ENDBRANCH   1   9
TORSDOF 3
ENDMDL
MODEL 8
REMARK VINA RESULT:    -1.738     20.077     20.582
REMARK INTER + INTRA:          -1.847
REMARK INTER:                  -1.972
REMARK INTRA:                   0.126
REMARK UNBOUND:                 0.146
REMARK SMILES CC(C)[C@H]([NH3+])C(=O)[O-]
REMARK SMILES IDX 4 1 5 2 6 6 7 7 8 8 2 9 1 10 3 11
REMARK H PARENT 5 3 5 4 5 5
REMARK Flexibility Score: inf
ROOT
ATOM      1  C   UNL     1      28.951   4.327  38.559  1.00  0.00     0.230 C 
ENDROOT
BRANCH   1   2
ATOM      2  N   UNL     1      29.125   5.756  38.248  1.00  0.00    -0.350 N 
ATOM      3  H   UNL     1      28.951   5.931  37.233  1.00  0.00     0.345 HD
ATOM      4  H   UNL     1      30.084   6.088  38.498  1.00  0.00     0.345 HD
ATOM      5  H   UNL     1      28.428   6.317  38.790  1.00  0.00     0.345 HD
ENDBRANCH   1   2
BRANCH   1   6
ATOM      6  C   UNL     1      27.679   3.793  37.947  1.00  0.00     0.099 C 
ATOM      7  O   UNL     1      27.633   2.630  37.463  1.00  0.00    -0.544 OA
ATOM      8  O   UNL     1      26.558   4.608  37.870  1.00  0.00    -0.544 OA
ENDBRANCH   1   6
BRANCH   1   9
ATOM      9  C   UNL     1      29.004   4.024  40.087  1.00  0.00     0.047 C 
ATOM     10  C   UNL     1      28.375   2.675  40.469  1.00  0.00     0.014 C 
ATOM     11  C   UNL     1      28.376   5.155  40.916  1.00  0.00     0.014 C 
ENDBRANCH   1   9
TORSDOF 3
ENDMDL
MODEL 9
REMARK VINA RESULT:    -0.952     19.634     20.152
REMARK INTER + INTRA:          -0.945
REMARK INTER:                  -0.892
REMARK INTRA:                  -0.053
REMARK UNBOUND:                 0.146
REMARK SMILES CC(C)[C@H]([NH3+])C(=O)[O-]
REMARK SMILES IDX 4 1 5 2 6 6 7 7 8 8 2 9 1 10 3 11
REMARK H PARENT 5 3 5 4 5 5
REMARK Flexibility Score: inf
ROOT
ATOM      1  C   UNL     1      28.681   4.760  38.916  1.00  0.00     0.230 C 
ENDROOT
BRANCH   1   2
ATOM      2  N   UNL     1      29.125   6.001  38.260  1.00  0.00    -0.350 N 
ATOM      3  H   UNL     1      29.737   5.782  37.442  1.00  0.00     0.345 HD
ATOM      4  H   UNL     1      29.642   6.622  38.923  1.00  0.00     0.345 HD
ATOM      5  H   UNL     1      28.292   6.522  37.901  1.00  0.00     0.345 HD
ENDBRANCH   1   2
BRANCH   1   6
ATOM      6  C   UNL     1      27.564   4.108  38.137  1.00  0.00     0.099 C 
ATOM      7  O   UNL     1      26.538   4.760  37.808  1.00  0.00    -0.544 OA
ATOM      8  O   UNL     1      27.645   2.759  37.819  1.00  0.00    -0.544 OA
ENDBRANCH   1   6
BRANCH   1   9
ATOM      9  C   UNL     1      28.271   4.970  40.405  1.00  0.00     0.047 C 
ATOM     10  C   UNL     1      28.748   6.307  40.993  1.00  0.00     0.014 C 
ATOM     11  C   UNL     1      28.734   3.806  41.294  1.00  0.00     0.014 C 
ENDBRANCH   1   9
TORSDOF 3
ENDMDL
