MODEL 1
REMARK VINA RESULT:    -5.212      0.000      0.000
REMARK INTER + INTRA:          -5.231
REMARK INTER:                  -5.669
REMARK INTRA:                   0.438
REMARK UNBOUND:                 0.438
REMARK SMILES C[C@H]1[C@H](C)CC[C@@]2(C(=O)[O-])CC[C@]3(C)C(=CC[C@H]4[C@@]5(C)CC[C@@H](O)C(C)(C)[C@H]5CC[C@@]43C)[C@H]12
REMARK SMILES IDX 7 1 6 2 11 3 33 4 5 5 12 6 15 7 2 8 3 9 13 10 16 11 1 12
REMARK SMILES IDX 4 13 14 14 31 15 17 16 18 17 30 18 32 19 19 20 29 21 28 22
REMARK SMILES IDX 21 23 20 24 25 25 22 26 23 27 26 28 27 29 8 30 9 31 10 32
REMARK SMILES IDX 24 33
REMARK H PARENT 24 34
REMARK Flexibility Score: inf
ROOT
ATOM      1  C   UNL     1      35.105 -47.829 211.746  1.00  0.00     0.017 C 
ATOM      2  C   UNL     1      35.485 -48.743 212.937  1.00  0.00     0.014 C 
ATOM      3  C   UNL     1      36.015 -46.574 211.696  1.00  0.00     0.014 C 
ATOM      4  C   UNL     1      35.410 -48.647 210.441  1.00  0.00     0.030 C 
ATOM      5  C   UNL     1      34.665 -50.051 212.914  1.00  0.00     0.004 C 
ATOM      6  C   UNL     1      35.703 -45.624 210.498  1.00  0.00     0.013 C 
ATOM      7  C   UNL     1      35.662 -47.776 209.188  1.00  0.00    -0.063 C 
ATOM      8  C   UNL     1      34.538 -49.934 210.306  1.00  0.00    -0.003 C 
ATOM      9  C   UNL     1      34.765 -50.834 211.574  1.00  0.00    -0.011 C 
ATOM     10  C   UNL     1      35.168 -46.307 209.164  1.00  0.00    -0.006 C 
ATOM     11  C   UNL     1      36.662 -48.198 208.363  1.00  0.00    -0.027 C 
ATOM     12  C   UNL     1      34.854 -50.724 209.020  1.00  0.00     0.008 C 
ATOM     13  C   UNL     1      33.791 -52.024 211.619  1.00  0.00     0.008 C 
ATOM     14  C   UNL     1      33.596 -46.295 209.188  1.00  0.00     0.017 C 
ATOM     15  C   UNL     1      35.670 -45.548 207.823  1.00  0.00    -0.020 C 
ATOM     16  C   UNL     1      37.348 -47.362 207.319  1.00  0.00     0.032 C 
ATOM     17  C   UNL     1      37.186 -45.852 207.589  1.00  0.00     0.006 C 
ATOM     18  C   UNL     1      35.503 -44.014 207.969  1.00  0.00     0.008 C 
ATOM     19  C   UNL     1      34.838 -46.051 206.585  1.00  0.00     0.012 C 
ATOM     20  C   UNL     1      38.059 -44.898 206.616  1.00  0.00    -0.025 C 
ATOM     21  C   UNL     1      35.957 -43.285 206.718  1.00  0.00     0.005 C 
ATOM     22  C   UNL     1      37.480 -43.412 206.457  1.00  0.00     0.003 C 
ATOM     23  C   UNL     1      38.260 -45.511 205.197  1.00  0.00     0.010 C 
ATOM     24  C   UNL     1      39.469 -44.842 207.306  1.00  0.00     0.012 C 
ATOM     25  C   UNL     1      37.885 -42.624 205.114  1.00  0.00    -0.006 C 
ATOM     26  C   UNL     1      39.193 -44.705 204.266  1.00  0.00     0.033 C 
ATOM     27  C   UNL     1      39.215 -43.174 204.516  1.00  0.00     0.120 C 
ATOM     28  C   UNL     1      36.784 -42.665 204.009  1.00  0.00     0.014 C 
ATOM     29  C   UNL     1      38.107 -41.129 205.466  1.00  0.00     0.014 C 
ENDROOT
BRANCH   1  30
ATOM     30  C   UNL     1      33.666 -47.374 212.010  1.00  0.00     0.048 C 
ATOM     31  O   UNL     1      32.674 -47.972 211.519  1.00  0.00    -0.550 OA
ATOM     32  O   UNL     1      33.426 -46.337 212.905  1.00  0.00    -0.550 OA
ENDBRANCH   1  30
BRANCH  27  33
ATOM     33  O   UNL     1      39.614 -42.470 203.360  1.00  0.00    -0.393 OA
ATOM     34  H   UNL     1      40.537 -42.737 203.115  1.00  0.00     0.210 HD
ENDBRANCH  27  33
TORSDOF 2
ENDMDL
MODEL 2
REMARK VINA RESULT:    -5.195     10.494     12.882
REMARK INTER + INTRA:          -5.213
REMARK INTER:                  -5.654
REMARK INTRA:                   0.442
REMARK UNBOUND:                 0.438
REMARK SMILES C[C@H]1[C@H](C)CC[C@@]2(C(=O)[O-])CC[C@]3(C)C(=CC[C@H]4[C@@]5(C)CC[C@@H](O)C(C)(C)[C@H]5CC[C@@]43C)[C@H]12
REMARK SMILES IDX 7 1 6 2 11 3 33 4 5 5 12 6 15 7 2 8 3 9 13 10 16 11 1 12
REMARK SMILES IDX 4 13 14 14 31 15 17 16 18 17 30 18 32 19 19 20 29 21 28 22
REMARK SMILES IDX 21 23 20 24 25 25 22 26 23 27 26 28 27 29 8 30 9 31 10 32
REMARK SMILES IDX 24 33
REMARK H PARENT 24 34
REMARK Flexibility Score: inf
ROOT
ATOM      1  C   UNL     1      24.711 -49.446 209.939  1.00  0.00     0.017 C 
ATOM      2  C   UNL     1      24.073 -49.694 211.327  1.00  0.00     0.014 C 
ATOM      3  C   UNL     1      23.899 -50.149 208.820  1.00  0.00     0.014 C 
ATOM      4  C   UNL     1      24.595 -47.903 209.665  1.00  0.00     0.030 C 
ATOM      5  C   UNL     1      24.806 -48.893 212.425  1.00  0.00     0.004 C 
ATOM      6  C   UNL     1      24.473 -49.912 207.389  1.00  0.00     0.013 C 
ATOM      7  C   UNL     1      24.621 -47.520 208.166  1.00  0.00    -0.063 C 
ATOM      8  C   UNL     1      25.401 -47.038 210.683  1.00  0.00    -0.003 C 
ATOM      9  C   UNL     1      24.900 -47.368 212.135  1.00  0.00    -0.011 C 
ATOM     10  C   UNL     1      25.197 -48.518 207.129  1.00  0.00    -0.006 C 
ATOM     11  C   UNL     1      23.760 -46.530 207.792  1.00  0.00    -0.027 C 
ATOM     12  C   UNL     1      25.272 -45.528 210.398  1.00  0.00     0.008 C 
ATOM     13  C   UNL     1      25.779 -46.710 213.212  1.00  0.00     0.008 C 
ATOM     14  C   UNL     1      26.738 -48.694 207.388  1.00  0.00     0.017 C 
ATOM     15  C   UNL     1      24.986 -47.971 205.619  1.00  0.00    -0.020 C 
ATOM     16  C   UNL     1      23.321 -46.239 206.386  1.00  0.00     0.032 C 
ATOM     17  C   UNL     1      23.520 -47.451 205.453  1.00  0.00     0.006 C 
ATOM     18  C   UNL     1      25.213 -49.107 204.590  1.00  0.00     0.008 C 
ATOM     19  C   UNL     1      25.993 -46.795 205.334  1.00  0.00     0.012 C 
ATOM     20  C   UNL     1      22.891 -47.271 203.973  1.00  0.00    -0.025 C 
ATOM     21  C   UNL     1      25.032 -48.612 203.167  1.00  0.00     0.005 C 
ATOM     22  C   UNL     1      23.575 -48.188 202.850  1.00  0.00     0.003 C 
ATOM     23  C   UNL     1      22.909 -45.790 203.488  1.00  0.00     0.010 C 
ATOM     24  C   UNL     1      21.387 -47.689 204.147  1.00  0.00     0.012 C 
ATOM     25  C   UNL     1      23.461 -47.668 201.332  1.00  0.00    -0.006 C 
ATOM     26  C   UNL     1      22.205 -45.538 202.136  1.00  0.00     0.033 C 
ATOM     27  C   UNL     1      22.229 -46.732 201.146  1.00  0.00     0.120 C 
ATOM     28  C   UNL     1      24.736 -46.923 200.829  1.00  0.00     0.014 C 
ATOM     29  C   UNL     1      23.268 -48.895 200.402  1.00  0.00     0.014 C 
ENDROOT
BRANCH   1  30
ATOM     30  C   UNL     1      26.104 -50.080 209.999  1.00  0.00     0.048 C 
ATOM     31  O   UNL     1      27.132 -49.414 210.288  1.00  0.00    -0.550 OA
ATOM     32  O   UNL     1      26.241 -51.455 209.838  1.00  0.00    -0.550 OA
ENDBRANCH   1  30
BRANCH  27  33
ATOM     33  O   UNL     1      22.083 -46.296 199.812  1.00  0.00    -0.393 OA
ATOM     34  H   UNL     1      21.880 -47.075 199.232  1.00  0.00     0.210 HD
ENDBRANCH  27  33
TORSDOF 2
ENDMDL
MODEL 3
REMARK VINA RESULT:    -5.171      6.165      8.319
REMARK INTER + INTRA:          -5.187
REMARK INTER:                  -5.627
REMARK INTRA:                   0.441
REMARK UNBOUND:                 0.438
REMARK SMILES C[C@H]1[C@H](C)CC[C@@]2(C(=O)[O-])CC[C@]3(C)C(=CC[C@H]4[C@@]5(C)CC[C@@H](O)C(C)(C)[C@H]5CC[C@@]43C)[C@H]12
REMARK SMILES IDX 7 1 6 2 11 3 33 4 5 5 12 6 15 7 2 8 3 9 13 10 16 11 1 12
REMARK SMILES IDX 4 13 14 14 31 15 17 16 18 17 30 18 32 19 19 20 29 21 28 22
REMARK SMILES IDX 21 23 20 24 25 25 22 26 23 27 26 28 27 29 8 30 9 31 10 32
REMARK SMILES IDX 24 33
REMARK H PARENT 24 34
REMARK Flexibility Score: inf
ROOT
ATOM      1  C   UNL     1      36.109 -52.816 201.750  1.00  0.00     0.017 C 
ATOM      2  C   UNL     1      36.674 -53.963 200.876  1.00  0.00     0.014 C 
ATOM      3  C   UNL     1      36.914 -52.672 203.068  1.00  0.00     0.014 C 
ATOM      4  C   UNL     1      36.341 -51.487 200.945  1.00  0.00     0.030 C 
ATOM      5  C   UNL     1      35.954 -54.025 199.511  1.00  0.00     0.004 C 
ATOM      6  C   UNL     1      36.414 -51.511 203.981  1.00  0.00     0.013 C 
ATOM      7  C   UNL     1      36.399 -50.214 201.822  1.00  0.00    -0.063 C 
ATOM      8  C   UNL     1      35.556 -51.443 199.596  1.00  0.00    -0.003 C 
ATOM      9  C   UNL     1      35.975 -52.683 198.727  1.00  0.00    -0.011 C 
ATOM     10  C   UNL     1      35.798 -50.238 203.250  1.00  0.00    -0.006 C 
ATOM     11  C   UNL     1      37.340 -49.292 201.466  1.00  0.00    -0.027 C 
ATOM     12  C   UNL     1      35.799 -50.133 198.821  1.00  0.00     0.008 C 
ATOM     13  C   UNL     1      35.102 -52.827 197.469  1.00  0.00     0.008 C 
ATOM     14  C   UNL     1      34.240 -50.422 203.147  1.00  0.00     0.017 C 
ATOM     15  C   UNL     1      36.105 -48.853 204.032  1.00  0.00    -0.020 C 
ATOM     16  C   UNL     1      37.853 -48.184 202.341  1.00  0.00     0.032 C 
ATOM     17  C   UNL     1      37.608 -48.467 203.838  1.00  0.00     0.006 C 
ATOM     18  C   UNL     1      35.842 -49.013 205.551  1.00  0.00     0.008 C 
ATOM     19  C   UNL     1      35.192 -47.706 203.459  1.00  0.00     0.012 C 
ATOM     20  C   UNL     1      38.306 -47.409 204.845  1.00  0.00    -0.025 C 
ATOM     21  C   UNL     1      36.112 -47.721 206.300  1.00  0.00     0.005 C 
ATOM     22  C   UNL     1      37.606 -47.308 206.283  1.00  0.00     0.003 C 
ATOM     23  C   UNL     1      38.408 -45.978 204.237  1.00  0.00     0.010 C 
ATOM     24  C   UNL     1      39.770 -47.953 205.010  1.00  0.00     0.012 C 
ATOM     25  C   UNL     1      37.815 -45.930 207.087  1.00  0.00    -0.006 C 
ATOM     26  C   UNL     1      39.180 -44.956 205.100  1.00  0.00     0.033 C 
ATOM     27  C   UNL     1      39.114 -45.201 206.630  1.00  0.00     0.120 C 
ATOM     28  C   UNL     1      36.614 -44.943 206.956  1.00  0.00     0.014 C 
ATOM     29  C   UNL     1      37.960 -46.256 208.597  1.00  0.00     0.014 C 
ENDROOT
BRANCH   1  30
ATOM     30  C   UNL     1      34.675 -53.223 202.100  1.00  0.00     0.048 C 
ATOM     31  O   UNL     1      33.683 -52.829 201.433  1.00  0.00    -0.550 OA
ATOM     32  O   UNL     1      34.451 -54.145 203.118  1.00  0.00    -0.550 OA
ENDBRANCH   1  30
BRANCH  27  33
ATOM     33  O   UNL     1      39.342 -44.010 207.352  1.00  0.00    -0.393 OA
ATOM     34  H   UNL     1      39.933 -43.414 206.824  1.00  0.00     0.210 HD
ENDBRANCH  27  33
TORSDOF 2
ENDMDL
MODEL 4
REMARK VINA RESULT:    -5.092      4.656      7.969
REMARK INTER + INTRA:          -5.100
REMARK INTER:                  -5.552
REMARK INTRA:                   0.452
REMARK UNBOUND:                 0.438
REMARK SMILES C[C@H]1[C@H](C)CC[C@@]2(C(=O)[O-])CC[C@]3(C)C(=CC[C@H]4[C@@]5(C)CC[C@@H](O)C(C)(C)[C@H]5CC[C@@]43C)[C@H]12
REMARK SMILES IDX 7 1 6 2 11 3 33 4 5 5 12 6 15 7 2 8 3 9 13 10 16 11 1 12
REMARK SMILES IDX 4 13 14 14 31 15 17 16 18 17 30 18 32 19 19 20 29 21 28 22
REMARK SMILES IDX 21 23 20 24 25 25 22 26 23 27 26 28 27 29 8 30 9 31 10 32
REMARK SMILES IDX 24 33
REMARK H PARENT 24 34
REMARK Flexibility Score: inf
ROOT
ATOM      1  C   UNL     1      37.455 -46.911 204.874  1.00  0.00     0.017 C 
ATOM      2  C   UNL     1      36.967 -47.418 206.253  1.00  0.00     0.014 C 
ATOM      3  C   UNL     1      36.308 -46.948 203.831  1.00  0.00     0.014 C 
ATOM      4  C   UNL     1      37.830 -45.397 205.064  1.00  0.00     0.030 C 
ATOM      5  C   UNL     1      38.072 -47.265 207.322  1.00  0.00     0.004 C 
ATOM      6  C   UNL     1      36.726 -46.418 202.424  1.00  0.00     0.013 C 
ATOM      7  C   UNL     1      37.778 -44.562 203.763  1.00  0.00    -0.063 C 
ATOM      8  C   UNL     1      39.013 -45.179 206.058  1.00  0.00    -0.003 C 
ATOM      9  C   UNL     1      38.635 -45.820 207.442  1.00  0.00    -0.011 C 
ATOM     10  C   UNL     1      37.835 -45.277 202.389  1.00  0.00    -0.006 C 
ATOM     11  C   UNL     1      37.260 -43.306 203.885  1.00  0.00    -0.027 C 
ATOM     12  C   UNL     1      39.364 -43.688 206.232  1.00  0.00     0.008 C 
ATOM     13  C   UNL     1      39.823 -45.829 208.418  1.00  0.00     0.008 C 
ATOM     14  C   UNL     1      39.246 -45.950 202.219  1.00  0.00     0.017 C 
ATOM     15  C   UNL     1      37.616 -44.223 201.177  1.00  0.00    -0.020 C 
ATOM     16  C   UNL     1      36.756 -42.454 202.755  1.00  0.00     0.032 C 
ATOM     17  C   UNL     1      36.404 -43.292 201.509  1.00  0.00     0.006 C 
ATOM     18  C   UNL     1      37.302 -44.969 199.855  1.00  0.00     0.008 C 
ATOM     19  C   UNL     1      38.912 -43.349 200.993  1.00  0.00     0.012 C 
ATOM     20  C   UNL     1      35.676 -42.464 200.325  1.00  0.00    -0.025 C 
ATOM     21  C   UNL     1      37.106 -43.999 198.705  1.00  0.00     0.005 C 
ATOM     22  C   UNL     1      35.849 -43.107 198.868  1.00  0.00     0.003 C 
ATOM     23  C   UNL     1      36.127 -40.972 200.269  1.00  0.00     0.010 C 
ATOM     24  C   UNL     1      34.158 -42.480 200.730  1.00  0.00     0.012 C 
ATOM     25  C   UNL     1      35.710 -42.102 197.618  1.00  0.00    -0.006 C 
ATOM     26  C   UNL     1      35.371 -40.101 199.243  1.00  0.00     0.033 C 
ATOM     27  C   UNL     1      34.853 -40.855 197.989  1.00  0.00     0.120 C 
ATOM     28  C   UNL     1      37.080 -41.619 197.051  1.00  0.00     0.014 C 
ATOM     29  C   UNL     1      34.988 -42.846 196.464  1.00  0.00     0.014 C 
ENDROOT
BRANCH   1  30
ATOM     30  C   UNL     1      38.546 -47.889 204.429  1.00  0.00     0.048 C 
ATOM     31  O   UNL     1      39.757 -47.723 204.727  1.00  0.00    -0.550 OA
ATOM     32  O   UNL     1      38.191 -49.061 203.768  1.00  0.00    -0.550 OA
ENDBRANCH   1  30
BRANCH  27  33
ATOM     33  O   UNL     1      34.681 -39.979 196.897  1.00  0.00    -0.393 OA
ATOM     34  H   UNL     1      35.507 -39.972 196.348  1.00  0.00     0.210 HD
ENDBRANCH  27  33
TORSDOF 2
ENDMDL
MODEL 5
REMARK VINA RESULT:    -5.075      6.213      8.377
REMARK INTER + INTRA:          -5.082
REMARK INTER:                  -5.524
REMARK INTRA:                   0.442
REMARK UNBOUND:                 0.438
REMARK SMILES C[C@H]1[C@H](C)CC[C@@]2(C(=O)[O-])CC[C@]3(C)C(=CC[C@H]4[C@@]5(C)CC[C@@H](O)C(C)(C)[C@H]5CC[C@@]43C)[C@H]12
REMARK SMILES IDX 7 1 6 2 11 3 33 4 5 5 12 6 15 7 2 8 3 9 13 10 16 11 1 12
REMARK SMILES IDX 4 13 14 14 31 15 17 16 18 17 30 18 32 19 19 20 29 21 28 22
REMARK SMILES IDX 21 23 20 24 25 25 22 26 23 27 26 28 27 29 8 30 9 31 10 32
REMARK SMILES IDX 24 33
REMARK H PARENT 24 34
REMARK Flexibility Score: inf
ROOT
ATOM      1  C   UNL     1      35.470 -37.769 206.705  1.00  0.00     0.017 C 
ATOM      2  C   UNL     1      35.883 -36.655 207.698  1.00  0.00     0.014 C 
ATOM      3  C   UNL     1      36.508 -37.905 205.561  1.00  0.00     0.014 C 
ATOM      4  C   UNL     1      35.517 -39.119 207.507  1.00  0.00     0.030 C 
ATOM      5  C   UNL     1      34.918 -36.602 208.903  1.00  0.00     0.004 C 
ATOM      6  C   UNL     1      36.167 -39.035 204.540  1.00  0.00     0.013 C 
ATOM      7  C   UNL     1      35.715 -40.375 206.625  1.00  0.00    -0.063 C 
ATOM      8  C   UNL     1      34.490 -39.171 208.680  1.00  0.00    -0.003 C 
ATOM      9  C   UNL     1      34.762 -37.960 209.644  1.00  0.00    -0.011 C 
ATOM     10  C   UNL     1      35.397 -40.306 205.110  1.00  0.00    -0.006 C 
ATOM     11  C   UNL     1      36.551 -41.327 207.129  1.00  0.00    -0.027 C 
ATOM     12  C   UNL     1      34.553 -40.502 209.455  1.00  0.00     0.008 C 
ATOM     13  C   UNL     1      33.669 -37.819 210.716  1.00  0.00     0.008 C 
ATOM     14  C   UNL     1      33.852 -40.086 204.920  1.00  0.00     0.017 C 
ATOM     15  C   UNL     1      35.818 -41.683 204.366  1.00  0.00    -0.020 C 
ATOM     16  C   UNL     1      37.198 -42.430 206.340  1.00  0.00     0.032 C 
ATOM     17  C   UNL     1      37.248 -42.110 204.832  1.00  0.00     0.006 C 
ATOM     18  C   UNL     1      35.851 -41.485 202.829  1.00  0.00     0.008 C 
ATOM     19  C   UNL     1      34.789 -42.818 204.727  1.00  0.00     0.012 C 
ATOM     20  C   UNL     1      38.102 -43.165 203.950  1.00  0.00    -0.025 C 
ATOM     21  C   UNL     1      36.232 -42.768 202.113  1.00  0.00     0.005 C 
ATOM     22  C   UNL     1      37.686 -43.219 202.403  1.00  0.00     0.003 C 
ATOM     23  C   UNL     1      38.057 -44.610 204.530  1.00  0.00     0.010 C 
ATOM     24  C   UNL     1      39.582 -42.654 204.078  1.00  0.00     0.012 C 
ATOM     25  C   UNL     1      38.015 -44.585 201.619  1.00  0.00    -0.006 C 
ATOM     26  C   UNL     1      38.957 -45.633 203.804  1.00  0.00     0.033 C 
ATOM     27  C   UNL     1      39.189 -45.356 202.295  1.00  0.00     0.120 C 
ATOM     28  C   UNL     1      36.791 -45.544 201.495  1.00  0.00     0.014 C 
ATOM     29  C   UNL     1      38.452 -44.232 200.173  1.00  0.00     0.014 C 
ENDROOT
BRANCH   1  30
ATOM     30  C   UNL     1      34.138 -37.318 206.100  1.00  0.00     0.048 C 
ATOM     31  O   UNL     1      33.030 -37.707 206.552  1.00  0.00    -0.550 OA
ATOM     32  O   UNL     1      34.130 -36.364 205.087  1.00  0.00    -0.550 OA
ENDBRANCH   1  30
BRANCH  27  33
ATOM     33  O   UNL     1      39.524 -46.537 201.601  1.00  0.00    -0.393 OA
ATOM     34  H   UNL     1      40.367 -46.908 201.971  1.00  0.00     0.210 HD
ENDBRANCH  27  33
TORSDOF 2
ENDMDL
MODEL 6
REMARK VINA RESULT:    -4.911     12.518     14.750
REMARK INTER + INTRA:          -4.904
REMARK INTER:                  -5.345
REMARK INTRA:                   0.441
REMARK UNBOUND:                 0.438
REMARK SMILES C[C@H]1[C@H](C)CC[C@@]2(C(=O)[O-])CC[C@]3(C)C(=CC[C@H]4[C@@]5(C)CC[C@@H](O)C(C)(C)[C@H]5CC[C@@]43C)[C@H]12
REMARK SMILES IDX 7 1 6 2 11 3 33 4 5 5 12 6 15 7 2 8 3 9 13 10 16 11 1 12
REMARK SMILES IDX 4 13 14 14 31 15 17 16 18 17 30 18 32 19 19 20 29 21 28 22
REMARK SMILES IDX 21 23 20 24 25 25 22 26 23 27 26 28 27 29 8 30 9 31 10 32
REMARK SMILES IDX 24 33
REMARK H PARENT 24 34
REMARK Flexibility Score: inf
ROOT
ATOM      1  C   UNL     1      26.090 -52.091 199.294  1.00  0.00     0.017 C 
ATOM      2  C   UNL     1      25.671 -53.560 199.036  1.00  0.00     0.014 C 
ATOM      3  C   UNL     1      25.219 -51.111 198.466  1.00  0.00     0.014 C 
ATOM      4  C   UNL     1      25.772 -51.797 200.804  1.00  0.00     0.030 C 
ATOM      5  C   UNL     1      26.451 -54.528 199.951  1.00  0.00     0.004 C 
ATOM      6  C   UNL     1      25.570 -49.610 198.705  1.00  0.00     0.013 C 
ATOM      7  C   UNL     1      25.559 -50.300 201.128  1.00  0.00    -0.063 C 
ATOM      8  C   UNL     1      26.606 -52.675 201.788  1.00  0.00    -0.003 C 
ATOM      9  C   UNL     1      26.340 -54.189 201.465  1.00  0.00    -0.011 C 
ATOM     10  C   UNL     1      26.098 -49.220 200.156  1.00  0.00    -0.006 C 
ATOM     11  C   UNL     1      24.554 -50.021 202.007  1.00  0.00    -0.027 C 
ATOM     12  C   UNL     1      26.278 -52.372 203.264  1.00  0.00     0.008 C 
ATOM     13  C   UNL     1      27.276 -55.120 202.253  1.00  0.00     0.008 C 
ATOM     14  C   UNL     1      27.669 -49.272 200.152  1.00  0.00     0.017 C 
ATOM     15  C   UNL     1      25.631 -47.738 200.618  1.00  0.00    -0.020 C 
ATOM     16  C   UNL     1      23.904 -48.679 202.196  1.00  0.00     0.032 C 
ATOM     17  C   UNL     1      24.109 -47.759 200.975  1.00  0.00     0.006 C 
ATOM     18  C   UNL     1      25.843 -46.717 199.472  1.00  0.00     0.008 C 
ATOM     19  C   UNL     1      26.459 -47.291 201.880  1.00  0.00     0.012 C 
ATOM     20  C   UNL     1      23.274 -46.373 201.030  1.00  0.00    -0.025 C 
ATOM     21  C   UNL     1      25.423 -45.320 199.889  1.00  0.00     0.005 C 
ATOM     22  C   UNL     1      23.900 -45.192 200.146  1.00  0.00     0.003 C 
ATOM     23  C   UNL     1      23.068 -45.853 202.485  1.00  0.00     0.010 C 
ATOM     24  C   UNL     1      21.861 -46.760 200.465  1.00  0.00     0.012 C 
ATOM     25  C   UNL     1      23.531 -43.690 200.591  1.00  0.00    -0.006 C 
ATOM     26  C   UNL     1      22.168 -44.604 202.609  1.00  0.00     0.033 C 
ATOM     27  C   UNL     1      22.191 -43.650 201.386  1.00  0.00     0.120 C 
ATOM     28  C   UNL     1      24.641 -43.002 201.445  1.00  0.00     0.014 C 
ATOM     29  C   UNL     1      23.352 -42.827 199.315  1.00  0.00     0.014 C 
ENDROOT
BRANCH   1  30
ATOM     30  C   UNL     1      27.539 -51.979 198.812  1.00  0.00     0.048 C 
ATOM     31  O   UNL     1      28.518 -52.097 199.594  1.00  0.00    -0.550 OA
ATOM     32  O   UNL     1      27.803 -51.849 197.452  1.00  0.00    -0.550 OA
ENDBRANCH   1  30
BRANCH  27  33
ATOM     33  O   UNL     1      21.824 -42.337 201.750  1.00  0.00    -0.393 OA
ATOM     34  H   UNL     1      22.639 -41.819 201.978  1.00  0.00     0.210 HD
ENDBRANCH  27  33
TORSDOF 2
ENDMDL
MODEL 7
REMARK VINA RESULT:    -4.853      5.575     10.929
REMARK INTER + INTRA:          -4.840
REMARK INTER:                  -5.278
REMARK INTRA:                   0.438
REMARK UNBOUND:                 0.438
REMARK SMILES C[C@H]1[C@H](C)CC[C@@]2(C(=O)[O-])CC[C@]3(C)C(=CC[C@H]4[C@@]5(C)CC[C@@H](O)C(C)(C)[C@H]5CC[C@@]43C)[C@H]12
REMARK SMILES IDX 7 1 6 2 11 3 33 4 5 5 12 6 15 7 2 8 3 9 13 10 16 11 1 12
REMARK SMILES IDX 4 13 14 14 31 15 17 16 18 17 30 18 32 19 19 20 29 21 28 22
REMARK SMILES IDX 21 23 20 24 25 25 22 26 23 27 26 28 27 29 8 30 9 31 10 32
REMARK SMILES IDX 24 33
REMARK H PARENT 24 34
REMARK Flexibility Score: inf
ROOT
ATOM      1  C   UNL     1      35.950 -40.869 198.774  1.00  0.00     0.017 C 
ATOM      2  C   UNL     1      36.299 -39.471 198.205  1.00  0.00     0.014 C 
ATOM      3  C   UNL     1      37.183 -41.809 198.733  1.00  0.00     0.014 C 
ATOM      4  C   UNL     1      35.607 -40.658 200.292  1.00  0.00     0.030 C 
ATOM      5  C   UNL     1      35.111 -38.498 198.360  1.00  0.00     0.004 C 
ATOM      6  C   UNL     1      36.906 -43.227 199.323  1.00  0.00     0.013 C 
ATOM      7  C   UNL     1      35.798 -41.918 201.169  1.00  0.00    -0.063 C 
ATOM      8  C   UNL     1      34.349 -39.762 200.517  1.00  0.00    -0.003 C 
ATOM      9  C   UNL     1      34.584 -38.374 199.818  1.00  0.00    -0.011 C 
ATOM     10  C   UNL     1      35.840 -43.316 200.502  1.00  0.00    -0.006 C 
ATOM     11  C   UNL     1      36.342 -41.706 202.401  1.00  0.00    -0.027 C 
ATOM     12  C   UNL     1      34.030 -39.565 202.013  1.00  0.00     0.008 C 
ATOM     13  C   UNL     1      33.315 -37.506 199.818  1.00  0.00     0.008 C 
ATOM     14  C   UNL     1      34.429 -43.632 199.883  1.00  0.00     0.017 C 
ATOM     15  C   UNL     1      36.196 -44.466 201.587  1.00  0.00    -0.020 C 
ATOM     16  C   UNL     1      36.969 -42.757 203.273  1.00  0.00     0.032 C 
ATOM     17  C   UNL     1      37.403 -43.997 202.465  1.00  0.00     0.006 C 
ATOM     18  C   UNL     1      36.601 -45.782 200.875  1.00  0.00     0.008 C 
ATOM     19  C   UNL     1      34.949 -44.730 202.510  1.00  0.00     0.012 C 
ATOM     20  C   UNL     1      38.257 -45.083 203.307  1.00  0.00    -0.025 C 
ATOM     21  C   UNL     1      36.928 -46.875 201.876  1.00  0.00     0.005 C 
ATOM     22  C   UNL     1      38.193 -46.573 202.719  1.00  0.00     0.003 C 
ATOM     23  C   UNL     1      37.859 -45.124 204.814  1.00  0.00     0.010 C 
ATOM     24  C   UNL     1      39.732 -44.550 203.226  1.00  0.00     0.012 C 
ATOM     25  C   UNL     1      38.471 -47.768 203.759  1.00  0.00    -0.006 C 
ATOM     26  C   UNL     1      38.728 -46.049 205.693  1.00  0.00     0.033 C 
ATOM     27  C   UNL     1      39.330 -47.279 204.964  1.00  0.00     0.120 C 
ATOM     28  C   UNL     1      37.171 -48.434 204.308  1.00  0.00     0.014 C 
ATOM     29  C   UNL     1      39.268 -48.882 203.030  1.00  0.00     0.014 C 
ENDROOT
BRANCH   1  30
ATOM     30  C   UNL     1      34.873 -41.441 197.848  1.00  0.00     0.048 C 
ATOM     31  O   UNL     1      33.645 -41.334 198.102  1.00  0.00    -0.550 OA
ATOM     32  O   UNL     1      35.241 -42.004 196.630  1.00  0.00    -0.550 OA
ENDBRANCH   1  30
BRANCH  27  33
ATOM     33  O   UNL     1      39.624 -48.321 205.870  1.00  0.00    -0.393 OA
ATOM     34  H   UNL     1      40.583 -48.561 205.795  1.00  0.00     0.210 HD
ENDBRANCH  27  33
TORSDOF 2
ENDMDL
MODEL 8
REMARK VINA RESULT:    -4.817      6.274      9.065
REMARK INTER + INTRA:          -4.801
REMARK INTER:                  -5.245
REMARK INTRA:                   0.444
REMARK UNBOUND:                 0.438
REMARK SMILES C[C@H]1[C@H](C)CC[C@@]2(C(=O)[O-])CC[C@]3(C)C(=CC[C@H]4[C@@]5(C)CC[C@@H](O)C(C)(C)[C@H]5CC[C@@]43C)[C@H]12
REMARK SMILES IDX 7 1 6 2 11 3 33 4 5 5 12 6 15 7 2 8 3 9 13 10 16 11 1 12
REMARK SMILES IDX 4 13 14 14 31 15 17 16 18 17 30 18 32 19 19 20 29 21 28 22
REMARK SMILES IDX 21 23 20 24 25 25 22 26 23 27 26 28 27 29 8 30 9 31 10 32
REMARK SMILES IDX 24 33
REMARK H PARENT 24 34
REMARK Flexibility Score: inf
ROOT
ATOM      1  C   UNL     1      36.022 -50.946 199.782  1.00  0.00     0.017 C 
ATOM      2  C   UNL     1      36.442 -51.551 198.420  1.00  0.00     0.014 C 
ATOM      3  C   UNL     1      37.184 -51.024 200.806  1.00  0.00     0.014 C 
ATOM      4  C   UNL     1      35.759 -49.419 199.529  1.00  0.00     0.030 C 
ATOM      5  C   UNL     1      35.331 -51.361 197.364  1.00  0.00     0.004 C 
ATOM      6  C   UNL     1      36.836 -50.402 202.194  1.00  0.00     0.013 C 
ATOM      7  C   UNL     1      35.900 -48.532 200.789  1.00  0.00    -0.063 C 
ATOM      8  C   UNL     1      34.576 -49.156 198.546  1.00  0.00    -0.003 C 
ATOM      9  C   UNL     1      34.876 -49.885 197.187  1.00  0.00    -0.011 C 
ATOM     10  C   UNL     1      35.818 -49.178 202.195  1.00  0.00    -0.006 C 
ATOM     11  C   UNL     1      36.510 -47.326 200.600  1.00  0.00    -0.027 C 
ATOM     12  C   UNL     1      34.335 -47.651 198.310  1.00  0.00     0.008 C 
ATOM     13  C   UNL     1      33.671 -49.846 196.233  1.00  0.00     0.008 C 
ATOM     14  C   UNL     1      34.364 -49.733 202.420  1.00  0.00     0.017 C 
ATOM     15  C   UNL     1      36.141 -48.091 203.353  1.00  0.00    -0.020 C 
ATOM     16  C   UNL     1      37.099 -46.465 201.680  1.00  0.00     0.032 C 
ATOM     17  C   UNL     1      37.413 -47.272 202.958  1.00  0.00     0.006 C 
ATOM     18  C   UNL     1      36.424 -48.799 204.702  1.00  0.00     0.008 C 
ATOM     19  C   UNL     1      34.918 -47.113 203.519  1.00  0.00     0.012 C 
ATOM     20  C   UNL     1      38.225 -46.449 204.090  1.00  0.00    -0.025 C 
ATOM     21  C   UNL     1      36.717 -47.797 205.803  1.00  0.00     0.005 C 
ATOM     22  C   UNL     1      38.034 -47.011 205.578  1.00  0.00     0.003 C 
ATOM     23  C   UNL     1      37.890 -44.927 204.084  1.00  0.00     0.010 C 
ATOM     24  C   UNL     1      39.729 -46.599 203.660  1.00  0.00     0.012 C 
ATOM     25  C   UNL     1      38.274 -45.965 206.777  1.00  0.00    -0.006 C 
ATOM     26  C   UNL     1      38.730 -44.070 205.056  1.00  0.00     0.033 C 
ATOM     27  C   UNL     1      39.215 -44.804 206.334  1.00  0.00     0.120 C 
ATOM     28  C   UNL     1      36.956 -45.353 207.345  1.00  0.00     0.014 C 
ATOM     29  C   UNL     1      38.961 -46.710 207.952  1.00  0.00     0.014 C 
ENDROOT
BRANCH   1  30
ATOM     30  C   UNL     1      34.870 -51.818 200.290  1.00  0.00     0.048 C 
ATOM     31  O   UNL     1      33.664 -51.517 200.092  1.00  0.00    -0.550 OA
ATOM     32  O   UNL     1      35.146 -53.039 200.897  1.00  0.00    -0.550 OA
ENDBRANCH   1  30
BRANCH  27  33
ATOM     33  O   UNL     1      39.475 -43.896 207.382  1.00  0.00    -0.393 OA
ATOM     34  H   UNL     1      40.451 -43.861 207.551  1.00  0.00     0.210 HD
ENDBRANCH  27  33
TORSDOF 2
ENDMDL
MODEL 9
REMARK VINA RESULT:    -4.803      1.836      8.275
REMARK INTER + INTRA:          -4.785
REMARK INTER:                  -5.286
REMARK INTRA:                   0.500
REMARK UNBOUND:                 0.438
REMARK SMILES C[C@H]1[C@H](C)CC[C@@]2(C(=O)[O-])CC[C@]3(C)C(=CC[C@H]4[C@@]5(C)CC[C@@H](O)C(C)(C)[C@H]5CC[C@@]43C)[C@H]12
REMARK SMILES IDX 7 1 6 2 11 3 33 4 5 5 12 6 15 7 2 8 3 9 13 10 16 11 1 12
REMARK SMILES IDX 4 13 14 14 31 15 17 16 18 17 30 18 32 19 19 20 29 21 28 22
REMARK SMILES IDX 21 23 20 24 25 25 22 26 23 27 26 28 27 29 8 30 9 31 10 32
REMARK SMILES IDX 24 33
REMARK H PARENT 24 34
REMARK Flexibility Score: inf
ROOT
ATOM      1  C   UNL     1      38.926 -45.788 205.222  1.00  0.00     0.017 C 
ATOM      2  C   UNL     1      39.997 -44.814 204.673  1.00  0.00     0.014 C 
ATOM      3  C   UNL     1      39.304 -46.286 206.641  1.00  0.00     0.014 C 
ATOM      4  C   UNL     1      37.606 -44.952 205.385  1.00  0.00     0.030 C 
ATOM      5  C   UNL     1      39.561 -44.221 203.315  1.00  0.00     0.004 C 
ATOM      6  C   UNL     1      38.248 -47.249 207.266  1.00  0.00     0.013 C 
ATOM      7  C   UNL     1      36.614 -45.527 206.424  1.00  0.00    -0.063 C 
ATOM      8  C   UNL     1      37.054 -44.407 204.031  1.00  0.00    -0.003 C 
ATOM      9  C   UNL     1      38.167 -43.534 203.347  1.00  0.00    -0.011 C 
ATOM     10  C   UNL     1      36.729 -47.011 206.854  1.00  0.00    -0.006 C 
ATOM     11  C   UNL     1      35.982 -44.610 207.211  1.00  0.00    -0.027 C 
ATOM     12  C   UNL     1      35.760 -43.589 204.212  1.00  0.00     0.008 C 
ATOM     13  C   UNL     1      37.780 -43.125 201.915  1.00  0.00     0.008 C 
ATOM     14  C   UNL     1      36.391 -47.930 205.624  1.00  0.00     0.017 C 
ATOM     15  C   UNL     1      35.691 -47.350 208.052  1.00  0.00    -0.020 C 
ATOM     16  C   UNL     1      35.285 -44.903 208.509  1.00  0.00     0.032 C 
ATOM     17  C   UNL     1      35.765 -46.227 209.139  1.00  0.00     0.006 C 
ATOM     18  C   UNL     1      36.056 -48.696 208.726  1.00  0.00     0.008 C 
ATOM     19  C   UNL     1      34.227 -47.428 207.480  1.00  0.00     0.012 C 
ATOM     20  C   UNL     1      35.199 -46.507 210.628  1.00  0.00    -0.025 C 
ATOM     21  C   UNL     1      35.088 -49.037 209.844  1.00  0.00     0.005 C 
ATOM     22  C   UNL     1      35.168 -48.056 211.041  1.00  0.00     0.003 C 
ATOM     23  C   UNL     1      33.781 -45.901 210.856  1.00  0.00     0.010 C 
ATOM     24  C   UNL     1      36.195 -45.734 211.564  1.00  0.00     0.012 C 
ATOM     25  C   UNL     1      34.111 -48.473 212.180  1.00  0.00    -0.006 C 
ATOM     26  C   UNL     1      33.243 -46.025 212.299  1.00  0.00     0.033 C 
ATOM     27  C   UNL     1      33.751 -47.260 213.089  1.00  0.00     0.120 C 
ATOM     28  C   UNL     1      32.792 -49.085 211.613  1.00  0.00     0.014 C 
ATOM     29  C   UNL     1      34.756 -49.563 213.077  1.00  0.00     0.014 C 
ENDROOT
BRANCH   1  30
ATOM     30  C   UNL     1      38.925 -46.988 204.271  1.00  0.00     0.048 C 
ATOM     31  O   UNL     1      38.273 -46.990 203.195  1.00  0.00    -0.550 OA
ATOM     32  O   UNL     1      39.749 -48.077 204.536  1.00  0.00    -0.550 OA
ENDBRANCH   1  30
BRANCH  27  33
ATOM     33  O   UNL     1      32.857 -47.612 214.123  1.00  0.00    -0.393 OA
ATOM     34  H   UNL     1      33.144 -48.471 214.527  1.00  0.00     0.210 HD
ENDBRANCH  27  33
TORSDOF 2
ENDMDL
