MODEL 1
REMARK VINA RESULT:    -3.371      0.000      0.000
REMARK INTER + INTRA:          -7.232
REMARK INTER:                  -6.328
REMARK INTRA:                  -0.905
REMARK UNBOUND:                -0.905
REMARK SMILES CCCCCCCCC=CCCCCCCCC(=O)[O-]
REMARK SMILES IDX 10 1 9 2 11 3 12 4 13 5 14 6 15 7 16 8 17 9 18 10 19 11
REMARK SMILES IDX 20 12 8 13 7 14 6 15 5 16 4 17 3 18 2 19 1 20
REMARK H PARENT
REMARK Flexibility Score: inf
ROOT
ATOM      1  C   UNL     1      -7.257  -6.019   6.990  1.00  0.00    -0.031 C 
ATOM      2  C   UNL     1      -6.240  -6.695   6.433  1.00  0.00    -0.031 C 
ENDROOT
BRANCH   1   3
ATOM      3  C   UNL     1      -7.942  -4.888   6.270  1.00  0.00     0.027 C 
BRANCH   3   4
ATOM      4  C   UNL     1      -8.583  -3.882   7.239  1.00  0.00     0.004 C 
BRANCH   4   5
ATOM      5  C   UNL     1      -8.824  -4.489   8.628  1.00  0.00     0.000 C 
BRANCH   5   6
ATOM      6  C   UNL     1      -9.374  -3.437   9.598  1.00  0.00     0.000 C 
BRANCH   6   7
ATOM      7  C   UNL     1      -9.154  -2.019   9.057  1.00  0.00     0.000 C 
BRANCH   7   8
ATOM      8  C   UNL     1      -9.949  -0.989   9.872  1.00  0.00     0.006 C 
BRANCH   8   9
ATOM      9  C   UNL     1     -11.348  -0.743   9.292  1.00  0.00     0.053 C 
BRANCH   9  10
ATOM     10  C   UNL     1     -11.293   0.047   8.020  1.00  0.00     0.041 C 
ATOM     11  O   UNL     1     -10.698   1.155   7.989  1.00  0.00    -0.550 OA
ATOM     12  O   UNL     1     -11.874  -0.456   6.862  1.00  0.00    -0.550 OA
ENDBRANCH   9  10
ENDBRANCH   8   9
ENDBRANCH   7   8
ENDBRANCH   6   7
ENDBRANCH   5   6
ENDBRANCH   4   5
ENDBRANCH   3   4
ENDBRANCH   1   3
BRANCH   2  13
ATOM     13  C   UNL     1      -5.550  -7.816   7.160  1.00  0.00     0.027 C 
BRANCH  13  14
ATOM     14  C   UNL     1      -4.028  -7.744   6.970  1.00  0.00     0.004 C 
BRANCH  14  15
ATOM     15  C   UNL     1      -3.624  -7.381   5.530  1.00  0.00     0.000 C 
BRANCH  15  16
ATOM     16  C   UNL     1      -2.106  -7.260   5.288  1.00  0.00     0.000 C 
BRANCH  16  17
ATOM     17  C   UNL     1      -1.666  -7.390   3.818  1.00  0.00    -0.000 C 
BRANCH  17  18
ATOM     18  C   UNL     1      -1.105  -6.080   3.245  1.00  0.00    -0.000 C 
BRANCH  18  19
ATOM     19  C   UNL     1      -1.207  -4.945   4.269  1.00  0.00    -0.003 C 
ATOM     20  C   UNL     1      -0.207  -3.834   3.964  1.00  0.00     0.004 C 
ENDBRANCH  18  19
ENDBRANCH  17  18
ENDBRANCH  16  17
ENDBRANCH  15  16
ENDBRANCH  14  15
ENDBRANCH  13  14
ENDBRANCH   2  13
TORSDOF 15
ENDMDL
MODEL 2
REMARK VINA RESULT:    -3.275      4.031      9.533
REMARK INTER + INTRA:          -7.051
REMARK INTER:                  -6.012
REMARK INTRA:                  -1.038
REMARK UNBOUND:                -0.905
REMARK SMILES CCCCCCCCC=CCCCCCCCC(=O)[O-]
REMARK SMILES IDX 10 1 9 2 11 3 12 4 13 5 14 6 15 7 16 8 17 9 18 10 19 11
REMARK SMILES IDX 20 12 8 13 7 14 6 15 5 16 4 17 3 18 2 19 1 20
REMARK H PARENT
REMARK Flexibility Score: inf
ROOT
ATOM      1  C   UNL     1      -8.208  -3.946   6.376  1.00  0.00    -0.031 C 
ATOM      2  C   UNL     1      -8.583  -4.070   7.659  1.00  0.00    -0.031 C 
ENDROOT
BRANCH   1   3
ATOM      3  C   UNL     1      -7.808  -5.140   5.551  1.00  0.00     0.027 C 
BRANCH   3   4
ATOM      4  C   UNL     1      -7.267  -6.291   6.414  1.00  0.00     0.004 C 
BRANCH   4   5
ATOM      5  C   UNL     1      -5.829  -6.671   6.037  1.00  0.00     0.000 C 
BRANCH   5   6
ATOM      6  C   UNL     1      -5.215  -7.606   7.086  1.00  0.00     0.000 C 
BRANCH   6   7
ATOM      7  C   UNL     1      -3.737  -7.880   6.784  1.00  0.00     0.000 C 
BRANCH   7   8
ATOM      8  C   UNL     1      -3.357  -7.372   5.385  1.00  0.00     0.006 C 
BRANCH   8   9
ATOM      9  C   UNL     1      -1.847  -7.141   5.242  1.00  0.00     0.053 C 
BRANCH   9  10
ATOM     10  C   UNL     1      -1.512  -6.423   3.970  1.00  0.00     0.041 C 
ATOM     11  O   UNL     1      -1.184  -5.208   3.997  1.00  0.00    -0.550 OA
ATOM     12  O   UNL     1      -1.532  -7.105   2.760  1.00  0.00    -0.550 OA
ENDBRANCH   9  10
ENDBRANCH   8   9
ENDBRANCH   7   8
ENDBRANCH   6   7
ENDBRANCH   5   6
ENDBRANCH   4   5
ENDBRANCH   3   4
ENDBRANCH   1   3
BRANCH   2  13
ATOM     13  C   UNL     1      -8.970  -2.874   8.483  1.00  0.00     0.027 C 
BRANCH  13  14
ATOM     14  C   UNL     1      -9.463  -3.298   9.875  1.00  0.00     0.004 C 
BRANCH  14  15
ATOM     15  C   UNL     1      -9.739  -2.100  10.800  1.00  0.00     0.000 C 
BRANCH  15  16
ATOM     16  C   UNL     1      -9.322  -0.727  10.234  1.00  0.00     0.000 C 
BRANCH  16  17
ATOM     17  C   UNL     1     -10.483   0.238   9.937  1.00  0.00    -0.000 C 
BRANCH  17  18
ATOM     18  C   UNL     1     -11.582  -0.398   9.073  1.00  0.00    -0.000 C 
BRANCH  18  19
ATOM     19  C   UNL     1     -11.206  -0.354   7.588  1.00  0.00    -0.003 C 
ATOM     20  C   UNL     1     -10.918   1.073   7.133  1.00  0.00     0.004 C 
ENDBRANCH  18  19
ENDBRANCH  17  18
ENDBRANCH  16  17
ENDBRANCH  15  16
ENDBRANCH  14  15
ENDBRANCH  13  14
ENDBRANCH   2  13
TORSDOF 15
ENDMDL
MODEL 3
REMARK VINA RESULT:    -3.217      1.651      2.159
REMARK INTER + INTRA:          -6.943
REMARK INTER:                  -6.307
REMARK INTRA:                  -0.636
REMARK UNBOUND:                -0.905
REMARK SMILES CCCCCCCCC=CCCCCCCCC(=O)[O-]
REMARK SMILES IDX 10 1 9 2 11 3 12 4 13 5 14 6 15 7 16 8 17 9 18 10 19 11
REMARK SMILES IDX 20 12 8 13 7 14 6 15 5 16 4 17 3 18 2 19 1 20
REMARK H PARENT
REMARK Flexibility Score: inf
ROOT
ATOM      1  C   UNL     1      -6.625  -5.988   5.705  1.00  0.00    -0.031 C 
ATOM      2  C   UNL     1      -6.641  -6.843   6.739  1.00  0.00    -0.031 C 
ENDROOT
BRANCH   1   3
ATOM      3  C   UNL     1      -7.849  -5.207   5.307  1.00  0.00     0.027 C 
BRANCH   3   4
ATOM      4  C   UNL     1      -7.738  -3.720   5.675  1.00  0.00     0.004 C 
BRANCH   4   5
ATOM      5  C   UNL     1      -8.580  -3.364   6.909  1.00  0.00     0.000 C 
BRANCH   5   6
ATOM      6  C   UNL     1      -8.555  -4.500   7.938  1.00  0.00     0.000 C 
BRANCH   6   7
ATOM      7  C   UNL     1      -9.182  -4.057   9.265  1.00  0.00     0.000 C 
BRANCH   7   8
ATOM      8  C   UNL     1      -9.328  -2.530   9.322  1.00  0.00     0.006 C 
BRANCH   8   9
ATOM      9  C   UNL     1      -9.608  -2.026  10.744  1.00  0.00     0.053 C 
BRANCH   9  10
ATOM     10  C   UNL     1      -9.102  -0.631  10.952  1.00  0.00     0.041 C 
ATOM     11  O   UNL     1      -9.775   0.352  10.548  1.00  0.00    -0.550 OA
ATOM     12  O   UNL     1      -7.902  -0.419  11.618  1.00  0.00    -0.550 OA
ENDBRANCH   9  10
ENDBRANCH   8   9
ENDBRANCH   7   8
ENDBRANCH   6   7
ENDBRANCH   5   6
ENDBRANCH   4   5
ENDBRANCH   3   4
ENDBRANCH   1   3
BRANCH   2  13
ATOM     13  C   UNL     1      -5.420  -7.631   7.126  1.00  0.00     0.027 C 
BRANCH  13  14
ATOM     14  C   UNL     1      -4.366  -7.599   6.010  1.00  0.00     0.004 C 
BRANCH  14  15
ATOM     15  C   UNL     1      -2.949  -7.920   6.518  1.00  0.00     0.000 C 
BRANCH  15  16
ATOM     16  C   UNL     1      -1.802  -7.353   5.659  1.00  0.00     0.000 C 
BRANCH  16  17
ATOM     17  C   UNL     1      -2.074  -7.319   4.144  1.00  0.00    -0.000 C 
BRANCH  17  18
ATOM     18  C   UNL     1      -1.365  -6.156   3.436  1.00  0.00    -0.000 C 
BRANCH  18  19
ATOM     19  C   UNL     1      -1.324  -4.912   4.331  1.00  0.00    -0.003 C 
ATOM     20  C   UNL     1      -0.255  -3.930   3.863  1.00  0.00     0.004 C 
ENDBRANCH  18  19
ENDBRANCH  17  18
ENDBRANCH  16  17
ENDBRANCH  15  16
ENDBRANCH  14  15
ENDBRANCH  13  14
ENDBRANCH   2  13
TORSDOF 15
ENDMDL
MODEL 4
REMARK VINA RESULT:    -3.068      3.692      9.420
REMARK INTER + INTRA:          -6.663
REMARK INTER:                  -5.689
REMARK INTRA:                  -0.974
REMARK UNBOUND:                -0.905
REMARK SMILES CCCCCCCCC=CCCCCCCCC(=O)[O-]
REMARK SMILES IDX 10 1 9 2 11 3 12 4 13 5 14 6 15 7 16 8 17 9 18 10 19 11
REMARK SMILES IDX 20 12 8 13 7 14 6 15 5 16 4 17 3 18 2 19 1 20
REMARK H PARENT
REMARK Flexibility Score: inf
ROOT
ATOM      1  C   UNL     1      -6.062  -6.623   6.371  1.00  0.00    -0.031 C 
ATOM      2  C   UNL     1      -7.220  -6.068   6.763  1.00  0.00    -0.031 C 
ENDROOT
BRANCH   1   3
ATOM      3  C   UNL     1      -5.437  -7.763   7.128  1.00  0.00     0.027 C 
BRANCH   3   4
ATOM      4  C   UNL     1      -3.918  -7.845   6.911  1.00  0.00     0.004 C 
BRANCH   4   5
ATOM      5  C   UNL     1      -3.502  -7.331   5.526  1.00  0.00     0.000 C 
BRANCH   5   6
ATOM      6  C   UNL     1      -1.987  -7.455   5.327  1.00  0.00     0.000 C 
BRANCH   6   7
ATOM      7  C   UNL     1      -1.641  -7.669   3.848  1.00  0.00     0.000 C 
BRANCH   7   8
ATOM      8  C   UNL     1      -1.513  -6.328   3.112  1.00  0.00     0.006 C 
BRANCH   8   9
ATOM      9  C   UNL     1      -0.305  -5.514   3.594  1.00  0.00     0.053 C 
BRANCH   9  10
ATOM     10  C   UNL     1      -0.704  -4.145   4.056  1.00  0.00     0.041 C 
ATOM     11  O   UNL     1      -1.684  -4.000   4.832  1.00  0.00    -0.550 OA
ATOM     12  O   UNL     1       0.026  -3.034   3.653  1.00  0.00    -0.550 OA
ENDBRANCH   9  10
ENDBRANCH   8   9
ENDBRANCH   7   8
ENDBRANCH   6   7
ENDBRANCH   5   6
ENDBRANCH   4   5
ENDBRANCH   3   4
ENDBRANCH   1   3
BRANCH   2  13
ATOM     13  C   UNL     1      -7.835  -4.921   6.011  1.00  0.00     0.027 C 
BRANCH  13  14
ATOM     14  C   UNL     1      -8.549  -3.953   6.967  1.00  0.00     0.004 C 
BRANCH  14  15
ATOM     15  C   UNL     1      -8.624  -4.487   8.409  1.00  0.00     0.000 C 
BRANCH  15  16
ATOM     16  C   UNL     1      -9.299  -3.541   9.422  1.00  0.00     0.000 C 
BRANCH  16  17
ATOM     17  C   UNL     1      -9.281  -2.050   9.038  1.00  0.00    -0.000 C 
BRANCH  17  18
ATOM     18  C   UNL     1      -9.989  -1.160  10.068  1.00  0.00    -0.000 C 
BRANCH  18  19
ATOM     19  C   UNL     1     -10.730  -0.007   9.381  1.00  0.00    -0.003 C 
ATOM     20  C   UNL     1     -11.017  -0.330   7.918  1.00  0.00     0.004 C 
ENDBRANCH  18  19
ENDBRANCH  17  18
ENDBRANCH  16  17
ENDBRANCH  15  16
ENDBRANCH  14  15
ENDBRANCH  13  14
ENDBRANCH   2  13
TORSDOF 15
ENDMDL
MODEL 5
REMARK VINA RESULT:    -3.038     10.931     12.264
REMARK INTER + INTRA:          -6.607
REMARK INTER:                  -5.998
REMARK INTRA:                  -0.608
REMARK UNBOUND:                -0.905
REMARK SMILES CCCCCCCCC=CCCCCCCCC(=O)[O-]
REMARK SMILES IDX 10 1 9 2 11 3 12 4 13 5 14 6 15 7 16 8 17 9 18 10 19 11
REMARK SMILES IDX 20 12 8 13 7 14 6 15 5 16 4 17 3 18 2 19 1 20
REMARK H PARENT
REMARK Flexibility Score: inf
ROOT
ATOM      1  C   UNL     1      -8.831 -14.719  12.982  1.00  0.00    -0.031 C 
ATOM      2  C   UNL     1      -8.974 -14.144  14.186  1.00  0.00    -0.031 C 
ENDROOT
BRANCH   1   3
ATOM      3  C   UNL     1     -10.014 -14.992  12.092  1.00  0.00     0.027 C 
BRANCH   3   4
ATOM      4  C   UNL     1     -10.183 -13.924  11.001  1.00  0.00     0.004 C 
BRANCH   4   5
ATOM      5  C   UNL     1     -10.085 -12.499  11.564  1.00  0.00     0.000 C 
BRANCH   5   6
ATOM      6  C   UNL     1     -11.383 -12.099  12.275  1.00  0.00     0.000 C 
BRANCH   6   7
ATOM      7  C   UNL     1     -11.141 -11.856  13.770  1.00  0.00     0.000 C 
BRANCH   7   8
ATOM      8  C   UNL     1     -11.813 -12.943  14.621  1.00  0.00     0.006 C 
BRANCH   8   9
ATOM      9  C   UNL     1     -12.514 -12.363  15.856  1.00  0.00     0.053 C 
BRANCH   9  10
ATOM     10  C   UNL     1     -13.466 -13.344  16.469  1.00  0.00     0.041 C 
ATOM     11  O   UNL     1     -13.030 -14.373  17.047  1.00  0.00    -0.550 OA
ATOM     12  O   UNL     1     -14.834 -13.105  16.427  1.00  0.00    -0.550 OA
ENDBRANCH   9  10
ENDBRANCH   8   9
ENDBRANCH   7   8
ENDBRANCH   6   7
ENDBRANCH   5   6
ENDBRANCH   4   5
ENDBRANCH   3   4
ENDBRANCH   1   3
BRANCH   2  13
ATOM     13  C   UNL     1      -7.791 -13.884  15.078  1.00  0.00     0.027 C 
BRANCH  13  14
ATOM     14  C   UNL     1      -7.177 -12.506  14.793  1.00  0.00     0.004 C 
BRANCH  14  15
ATOM     15  C   UNL     1      -7.583 -11.945  13.419  1.00  0.00     0.000 C 
BRANCH  15  16
ATOM     16  C   UNL     1      -6.441 -11.852  12.387  1.00  0.00     0.000 C 
BRANCH  16  17
ATOM     17  C   UNL     1      -6.465 -12.929  11.287  1.00  0.00    -0.000 C 
BRANCH  17  18
ATOM     18  C   UNL     1      -5.965 -14.295  11.778  1.00  0.00    -0.000 C 
BRANCH  18  19
ATOM     19  C   UNL     1      -5.436 -15.137  10.612  1.00  0.00    -0.003 C 
ATOM     20  C   UNL     1      -4.251 -15.996  11.045  1.00  0.00     0.004 C 
ENDBRANCH  18  19
ENDBRANCH  17  18
ENDBRANCH  16  17
ENDBRANCH  15  16
ENDBRANCH  14  15
ENDBRANCH  13  14
ENDBRANCH   2  13
TORSDOF 15
ENDMDL
MODEL 6
REMARK VINA RESULT:    -3.004      4.590     10.649
REMARK INTER + INTRA:          -6.543
REMARK INTER:                  -5.969
REMARK INTRA:                  -0.573
REMARK UNBOUND:                -0.905
REMARK SMILES CCCCCCCCC=CCCCCCCCC(=O)[O-]
REMARK SMILES IDX 10 1 9 2 11 3 12 4 13 5 14 6 15 7 16 8 17 9 18 10 19 11
REMARK SMILES IDX 20 12 8 13 7 14 6 15 5 16 4 17 3 18 2 19 1 20
REMARK H PARENT
REMARK Flexibility Score: inf
ROOT
ATOM      1  C   UNL     1     -10.935  -2.742  11.398  1.00  0.00    -0.031 C 
ATOM      2  C   UNL     1     -10.906  -4.084  11.387  1.00  0.00    -0.031 C 
ENDROOT
BRANCH   1   3
ATOM      3  C   UNL     1      -9.772  -1.923  10.906  1.00  0.00     0.027 C 
BRANCH   3   4
ATOM      4  C   UNL     1      -9.910  -1.542   9.424  1.00  0.00     0.004 C 
BRANCH   4   5
ATOM      5  C   UNL     1      -8.987  -2.374   8.523  1.00  0.00     0.000 C 
BRANCH   5   6
ATOM      6  C   UNL     1      -8.974  -3.844   8.957  1.00  0.00     0.000 C 
BRANCH   6   7
ATOM      7  C   UNL     1      -8.458  -4.747   7.830  1.00  0.00     0.000 C 
BRANCH   7   8
ATOM      8  C   UNL     1      -8.230  -3.945   6.541  1.00  0.00     0.006 C 
BRANCH   8   9
ATOM      9  C   UNL     1      -7.859  -4.845   5.355  1.00  0.00     0.053 C 
BRANCH   9  10
ATOM     10  C   UNL     1      -8.310  -4.261   4.051  1.00  0.00     0.041 C 
ATOM     11  O   UNL     1      -9.432  -4.571   3.573  1.00  0.00    -0.550 OA
ATOM     12  O   UNL     1      -7.503  -3.351   3.380  1.00  0.00    -0.550 OA
ENDBRANCH   9  10
ENDBRANCH   8   9
ENDBRANCH   7   8
ENDBRANCH   6   7
ENDBRANCH   5   6
ENDBRANCH   4   5
ENDBRANCH   3   4
ENDBRANCH   1   3
BRANCH   2  13
ATOM     13  C   UNL     1     -12.065  -4.899  11.891  1.00  0.00     0.027 C 
BRANCH  13  14
ATOM     14  C   UNL     1     -13.211  -3.994  12.367  1.00  0.00     0.004 C 
BRANCH  14  15
ATOM     15  C   UNL     1     -14.576  -4.704  12.354  1.00  0.00     0.000 C 
BRANCH  15  16
ATOM     16  C   UNL     1     -15.791  -3.790  12.613  1.00  0.00     0.000 C 
BRANCH  16  17
ATOM     17  C   UNL     1     -15.483  -2.498  13.391  1.00  0.00    -0.000 C 
BRANCH  17  18
ATOM     18  C   UNL     1     -16.165  -1.261  12.788  1.00  0.00    -0.000 C 
BRANCH  18  19
ATOM     19  C   UNL     1     -16.168  -1.328  11.257  1.00  0.00    -0.003 C 
ATOM     20  C   UNL     1     -17.217  -0.392  10.665  1.00  0.00     0.004 C 
ENDBRANCH  18  19
ENDBRANCH  17  18
ENDBRANCH  16  17
ENDBRANCH  15  16
ENDBRANCH  14  15
ENDBRANCH  13  14
ENDBRANCH   2  13
TORSDOF 15
ENDMDL
MODEL 7
REMARK VINA RESULT:    -2.943     11.068     12.787
REMARK INTER + INTRA:          -6.429
REMARK INTER:                  -4.940
REMARK INTRA:                  -1.489
REMARK UNBOUND:                -0.905
REMARK SMILES CCCCCCCCC=CCCCCCCCC(=O)[O-]
REMARK SMILES IDX 10 1 9 2 11 3 12 4 13 5 14 6 15 7 16 8 17 9 18 10 19 11
REMARK SMILES IDX 20 12 8 13 7 14 6 15 5 16 4 17 3 18 2 19 1 20
REMARK H PARENT
REMARK Flexibility Score: inf
ROOT
ATOM      1  C   UNL     1     -10.117 -12.789  11.625  1.00  0.00    -0.031 C 
ATOM      2  C   UNL     1     -10.520 -13.861  10.925  1.00  0.00    -0.031 C 
ENDROOT
BRANCH   1   3
ATOM      3  C   UNL     1     -11.026 -11.613  11.863  1.00  0.00     0.027 C 
BRANCH   3   4
ATOM      4  C   UNL     1     -11.549 -11.562  13.307  1.00  0.00     0.004 C 
BRANCH   4   5
ATOM      5  C   UNL     1     -10.696 -12.407  14.263  1.00  0.00     0.000 C 
BRANCH   5   6
ATOM      6  C   UNL     1     -11.565 -13.398  15.046  1.00  0.00     0.000 C 
BRANCH   6   7
ATOM      7  C   UNL     1     -12.411 -12.676  16.101  1.00  0.00     0.000 C 
BRANCH   7   8
ATOM      8  C   UNL     1     -13.616 -13.529  16.521  1.00  0.00     0.006 C 
BRANCH   8   9
ATOM      9  C   UNL     1     -14.927 -12.734  16.498  1.00  0.00     0.053 C 
BRANCH   9  10
ATOM     10  C   UNL     1     -16.103 -13.587  16.864  1.00  0.00     0.041 C 
ATOM     11  O   UNL     1     -16.425 -14.565  16.141  1.00  0.00    -0.550 OA
ATOM     12  O   UNL     1     -16.824 -13.320  18.021  1.00  0.00    -0.550 OA
ENDBRANCH   9  10
ENDBRANCH   8   9
ENDBRANCH   7   8
ENDBRANCH   6   7
ENDBRANCH   5   6
ENDBRANCH   4   5
ENDBRANCH   3   4
ENDBRANCH   1   3
BRANCH   2  13
ATOM     13  C   UNL     1      -9.605 -15.028  10.679  1.00  0.00     0.027 C 
BRANCH  13  14
ATOM     14  C   UNL     1      -8.561 -15.158  11.799  1.00  0.00     0.004 C 
BRANCH  14  15
ATOM     15  C   UNL     1      -7.119 -14.982  11.293  1.00  0.00     0.000 C 
BRANCH  15  16
ATOM     16  C   UNL     1      -6.299 -13.897  12.020  1.00  0.00     0.000 C 
BRANCH  16  17
ATOM     17  C   UNL     1      -6.826 -12.460  11.857  1.00  0.00    -0.000 C 
BRANCH  17  18
ATOM     18  C   UNL     1      -7.373 -11.872  13.166  1.00  0.00    -0.000 C 
BRANCH  18  19
ATOM     19  C   UNL     1      -7.352 -12.917  14.287  1.00  0.00    -0.003 C 
ATOM     20  C   UNL     1      -7.264 -12.254  15.658  1.00  0.00     0.004 C 
ENDBRANCH  18  19
ENDBRANCH  17  18
ENDBRANCH  16  17
ENDBRANCH  15  16
ENDBRANCH  14  15
ENDBRANCH  13  14
ENDBRANCH   2  13
TORSDOF 15
ENDMDL
MODEL 8
REMARK VINA RESULT:    -2.701      6.933      8.793
REMARK INTER + INTRA:          -5.973
REMARK INTER:                  -4.859
REMARK INTRA:                  -1.115
REMARK UNBOUND:                -0.905
REMARK SMILES CCCCCCCCC=CCCCCCCCC(=O)[O-]
REMARK SMILES IDX 10 1 9 2 11 3 12 4 13 5 14 6 15 7 16 8 17 9 18 10 19 11
REMARK SMILES IDX 20 12 8 13 7 14 6 15 5 16 4 17 3 18 2 19 1 20
REMARK H PARENT
REMARK Flexibility Score: inf
ROOT
ATOM      1  C   UNL     1     -11.589  -4.282  11.579  1.00  0.00    -0.031 C 
ATOM      2  C   UNL     1     -10.426  -4.419  10.923  1.00  0.00    -0.031 C 
ENDROOT
BRANCH   1   3
ATOM      3  C   UNL     1     -12.302  -5.465  12.178  1.00  0.00     0.027 C 
BRANCH   3   4
ATOM      4  C   UNL     1     -13.807  -5.211  12.356  1.00  0.00     0.004 C 
BRANCH   4   5
ATOM      5  C   UNL     1     -14.143  -3.714  12.383  1.00  0.00     0.000 C 
BRANCH   5   6
ATOM      6  C   UNL     1     -15.617  -3.489  12.738  1.00  0.00     0.000 C 
BRANCH   6   7
ATOM      7  C   UNL     1     -15.767  -2.408  13.815  1.00  0.00     0.000 C 
BRANCH   7   8
ATOM      8  C   UNL     1     -16.050  -1.037  13.186  1.00  0.00     0.006 C 
BRANCH   8   9
ATOM      9  C   UNL     1     -17.227  -1.081  12.203  1.00  0.00     0.053 C 
BRANCH   9  10
ATOM     10  C   UNL     1     -16.822  -0.645  10.828  1.00  0.00     0.041 C 
ATOM     11  O   UNL     1     -17.453   0.274  10.243  1.00  0.00    -0.550 OA
ATOM     12  O   UNL     1     -15.727  -1.232  10.206  1.00  0.00    -0.550 OA
ENDBRANCH   9  10
ENDBRANCH   8   9
ENDBRANCH   7   8
ENDBRANCH   6   7
ENDBRANCH   5   6
ENDBRANCH   4   5
ENDBRANCH   3   4
ENDBRANCH   1   3
BRANCH   2  13
ATOM     13  C   UNL     1      -9.723  -3.237  10.316  1.00  0.00     0.027 C 
BRANCH  13  14
ATOM     14  C   UNL     1      -9.567  -2.101  11.338  1.00  0.00     0.004 C 
BRANCH  14  15
ATOM     15  C   UNL     1      -9.029  -0.804  10.710  1.00  0.00     0.000 C 
BRANCH  15  16
ATOM     16  C   UNL     1     -10.089   0.287  10.454  1.00  0.00     0.000 C 
BRANCH  16  17
ATOM     17  C   UNL     1     -11.220  -0.113   9.491  1.00  0.00    -0.000 C 
BRANCH  17  18
ATOM     18  C   UNL     1     -10.701  -0.717   8.178  1.00  0.00    -0.000 C 
BRANCH  18  19
ATOM     19  C   UNL     1     -11.463  -0.151   6.974  1.00  0.00    -0.003 C 
ATOM     20  C   UNL     1     -11.033   1.281   6.673  1.00  0.00     0.004 C 
ENDBRANCH  18  19
ENDBRANCH  17  18
ENDBRANCH  16  17
ENDBRANCH  15  16
ENDBRANCH  14  15
ENDBRANCH  13  14
ENDBRANCH   2  13
TORSDOF 15
ENDMDL
MODEL 9
REMARK VINA RESULT:    -2.588      3.790      9.321
REMARK INTER + INTRA:          -5.762
REMARK INTER:                  -5.155
REMARK INTRA:                  -0.607
REMARK UNBOUND:                -0.905
REMARK SMILES CCCCCCCCC=CCCCCCCCC(=O)[O-]
REMARK SMILES IDX 10 1 9 2 11 3 12 4 13 5 14 6 15 7 16 8 17 9 18 10 19 11
REMARK SMILES IDX 20 12 8 13 7 14 6 15 5 16 4 17 3 18 2 19 1 20
REMARK H PARENT
REMARK Flexibility Score: inf
ROOT
ATOM      1  C   UNL     1      -7.072  -6.127   6.921  1.00  0.00    -0.031 C 
ATOM      2  C   UNL     1      -7.587  -5.026   6.351  1.00  0.00    -0.031 C 
ENDROOT
BRANCH   1   3
ATOM      3  C   UNL     1      -6.106  -7.018   6.186  1.00  0.00     0.027 C 
BRANCH   3   4
ATOM      4  C   UNL     1      -5.299  -7.915   7.138  1.00  0.00     0.004 C 
BRANCH   4   5
ATOM      5  C   UNL     1      -3.791  -7.843   6.863  1.00  0.00     0.000 C 
BRANCH   5   6
ATOM      6  C   UNL     1      -3.508  -7.132   5.534  1.00  0.00     0.000 C 
BRANCH   6   7
ATOM      7  C   UNL     1      -2.121  -7.501   4.995  1.00  0.00     0.000 C 
BRANCH   7   8
ATOM      8  C   UNL     1      -1.855  -6.820   3.645  1.00  0.00     0.006 C 
BRANCH   8   9
ATOM      9  C   UNL     1      -0.587  -5.957   3.669  1.00  0.00     0.053 C 
BRANCH   9  10
ATOM     10  C   UNL     1      -0.884  -4.543   4.067  1.00  0.00     0.041 C 
ATOM     11  O   UNL     1      -0.128  -3.609   3.693  1.00  0.00    -0.550 OA
ATOM     12  O   UNL     1      -2.012  -4.255   4.824  1.00  0.00    -0.550 OA
ENDBRANCH   9  10
ENDBRANCH   8   9
ENDBRANCH   7   8
ENDBRANCH   6   7
ENDBRANCH   5   6
ENDBRANCH   4   5
ENDBRANCH   3   4
ENDBRANCH   1   3
BRANCH   2  13
ATOM     13  C   UNL     1      -8.561  -4.146   7.083  1.00  0.00     0.027 C 
BRANCH  13  14
ATOM     14  C   UNL     1      -8.754  -4.619   8.531  1.00  0.00     0.004 C 
BRANCH  14  15
ATOM     15  C   UNL     1      -9.404  -3.549   9.426  1.00  0.00     0.000 C 
BRANCH  15  16
ATOM     16  C   UNL     1      -9.177  -2.092   8.974  1.00  0.00     0.000 C 
BRANCH  16  17
ATOM     17  C   UNL     1     -10.186  -1.070   9.529  1.00  0.00    -0.000 C 
BRANCH  17  18
ATOM     18  C   UNL     1      -9.609  -0.222  10.671  1.00  0.00    -0.000 C 
BRANCH  18  19
ATOM     19  C   UNL     1      -8.526  -0.993  11.434  1.00  0.00    -0.003 C 
ATOM     20  C   UNL     1      -7.498  -0.044  12.044  1.00  0.00     0.004 C 
ENDBRANCH  18  19
ENDBRANCH  17  18
ENDBRANCH  16  17
ENDBRANCH  15  16
ENDBRANCH  14  15
ENDBRANCH  13  14
ENDBRANCH   2  13
TORSDOF 15
ENDMDL
