MODEL 1
REMARK VINA RESULT:    -6.227      0.000      0.000
REMARK INTER + INTRA:          -7.857
REMARK INTER:                  -7.684
REMARK INTRA:                  -0.173
REMARK UNBOUND:                -0.173
REMARK SMILES [NH3+][C@H](Cc1ccc(O)cc1)C(=O)[O-]
REMARK SMILES IDX 3 1 2 2 1 3 11 7 12 8 13 9 4 10 5 11 10 12 6 13 9 14 7 15
REMARK SMILES IDX 8 16
REMARK H PARENT 1 4 1 5 1 6 8 17
REMARK Flexibility Score: inf
ROOT
ATOM      1  C   UNL     1       9.124   6.339 -26.779  1.00  0.00     0.107 C 
ENDROOT
BRANCH   1   2
ATOM      2  C   UNL     1       9.308   7.232 -28.024  1.00  0.00     0.232 C 
BRANCH   2   3
ATOM      3  N   UNL     1       8.039   7.877 -28.384  1.00  0.00    -0.350 N 
ATOM      4  H   UNL     1       7.898   8.735 -27.801  1.00  0.00     0.345 HD
ATOM      5  H   UNL     1       7.235   7.224 -28.235  1.00  0.00     0.345 HD
ATOM      6  H   UNL     1       8.062   8.166 -29.389  1.00  0.00     0.345 HD
ENDBRANCH   2   3
BRANCH   2   7
ATOM      7  C   UNL     1      10.374   8.271 -27.792  1.00  0.00     0.099 C 
ATOM      8  O   UNL     1      10.081   9.391 -27.295  1.00  0.00    -0.544 OA
ATOM      9  O   UNL     1      11.698   7.987 -28.105  1.00  0.00    -0.544 OA
ENDBRANCH   2   7
ENDBRANCH   1   2
BRANCH   1  10
ATOM     10  C   UNL     1       8.654   4.954 -27.149  1.00  0.00    -0.041 A 
ATOM     11  C   UNL     1       7.347   4.545 -26.840  1.00  0.00     0.008 A 
ATOM     12  C   UNL     1       9.503   4.078 -27.844  1.00  0.00     0.008 A 
ATOM     13  C   UNL     1       6.900   3.272 -27.209  1.00  0.00     0.046 A 
ATOM     14  C   UNL     1       9.054   2.805 -28.212  1.00  0.00     0.046 A 
ATOM     15  C   UNL     1       7.751   2.399 -27.894  1.00  0.00     0.115 A 
BRANCH  15  16
ATOM     16  O   UNL     1       7.292   1.135 -28.256  1.00  0.00    -0.508 OA
ATOM     17  H   UNL     1       6.471   0.726 -27.828  1.00  0.00     0.293 HD
ENDBRANCH  15  16
ENDBRANCH   1  10
TORSDOF 5
ENDMDL
MODEL 2
REMARK VINA RESULT:    -6.176      0.861      1.666
REMARK INTER + INTRA:          -7.793
REMARK INTER:                  -7.610
REMARK INTRA:                  -0.183
REMARK UNBOUND:                -0.173
REMARK SMILES [NH3+][C@H](Cc1ccc(O)cc1)C(=O)[O-]
REMARK SMILES IDX 3 1 2 2 1 3 11 7 12 8 13 9 4 10 5 11 10 12 6 13 9 14 7 15
REMARK SMILES IDX 8 16
REMARK H PARENT 1 4 1 5 1 6 8 17
REMARK Flexibility Score: inf
ROOT
ATOM      1  C   UNL     1       9.146   6.540 -26.813  1.00  0.00     0.107 C 
ENDROOT
BRANCH   1   2
ATOM      2  C   UNL     1       8.908   7.555 -27.950  1.00  0.00     0.232 C 
BRANCH   2   3
ATOM      3  N   UNL     1       8.291   8.779 -27.424  1.00  0.00    -0.350 N 
ATOM      4  H   UNL     1       7.440   9.018 -27.985  1.00  0.00     0.345 HD
ATOM      5  H   UNL     1       8.964   9.580 -27.463  1.00  0.00     0.345 HD
ATOM      6  H   UNL     1       7.996   8.629 -26.432  1.00  0.00     0.345 HD
ENDBRANCH   2   3
BRANCH   2   7
ATOM      7  C   UNL     1      10.196   7.884 -28.660  1.00  0.00     0.099 C 
ATOM      8  O   UNL     1      11.234   8.168 -28.006  1.00  0.00    -0.544 OA
ATOM      9  O   UNL     1      10.250   7.852 -30.049  1.00  0.00    -0.544 OA
ENDBRANCH   2   7
ENDBRANCH   1   2
BRANCH   1  10
ATOM     10  C   UNL     1       8.620   5.172 -27.167  1.00  0.00    -0.041 A 
ATOM     11  C   UNL     1       9.402   4.289 -27.930  1.00  0.00     0.008 A 
ATOM     12  C   UNL     1       7.363   4.751 -26.702  1.00  0.00     0.008 A 
ATOM     13  C   UNL     1       8.927   3.009 -28.235  1.00  0.00     0.046 A 
ATOM     14  C   UNL     1       6.890   3.470 -27.008  1.00  0.00     0.046 A 
ATOM     15  C   UNL     1       7.672   2.596 -27.777  1.00  0.00     0.115 A 
BRANCH  15  16
ATOM     16  O   UNL     1       7.212   1.319 -28.087  1.00  0.00    -0.508 OA
ATOM     17  H   UNL     1       6.491   0.868 -27.538  1.00  0.00     0.293 HD
ENDBRANCH  15  16
ENDBRANCH   1  10
TORSDOF 5
ENDMDL
MODEL 3
REMARK VINA RESULT:    -5.748      2.393      5.537
REMARK INTER + INTRA:          -7.265
REMARK INTER:                  -7.033
REMARK INTRA:                  -0.232
REMARK UNBOUND:                -0.173
REMARK SMILES [NH3+][C@H](Cc1ccc(O)cc1)C(=O)[O-]
REMARK SMILES IDX 3 1 2 2 1 3 11 7 12 8 13 9 4 10 5 11 10 12 6 13 9 14 7 15
REMARK SMILES IDX 8 16
REMARK H PARENT 1 4 1 5 1 6 8 17
REMARK Flexibility Score: inf
ROOT
ATOM      1  C   UNL     1       9.703   4.881 -26.665  1.00  0.00     0.107 C 
ENDROOT
BRANCH   1   2
ATOM      2  C   UNL     1       9.058   3.676 -27.382  1.00  0.00     0.232 C 
BRANCH   2   3
ATOM      3  N   UNL     1       9.946   2.508 -27.322  1.00  0.00    -0.350 N 
ATOM      4  H   UNL     1       9.462   1.719 -26.833  1.00  0.00     0.345 HD
ATOM      5  H   UNL     1      10.829   2.740 -26.811  1.00  0.00     0.345 HD
ATOM      6  H   UNL     1      10.184   2.194 -28.291  1.00  0.00     0.345 HD
ENDBRANCH   2   3
BRANCH   2   7
ATOM      7  C   UNL     1       7.717   3.343 -26.780  1.00  0.00     0.099 C 
ATOM      8  O   UNL     1       7.443   2.162 -26.438  1.00  0.00    -0.544 OA
ATOM      9  O   UNL     1       6.780   4.349 -26.578  1.00  0.00    -0.544 OA
ENDBRANCH   2   7
ENDBRANCH   1   2
BRANCH   1  10
ATOM     10  C   UNL     1      10.023   5.997 -27.628  1.00  0.00    -0.041 A 
ATOM     11  C   UNL     1      11.204   6.743 -27.479  1.00  0.00     0.008 A 
ATOM     12  C   UNL     1       9.166   6.273 -28.707  1.00  0.00     0.008 A 
ATOM     13  C   UNL     1      11.516   7.759 -28.388  1.00  0.00     0.046 A 
ATOM     14  C   UNL     1       9.480   7.290 -29.615  1.00  0.00     0.046 A 
ATOM     15  C   UNL     1      10.657   8.036 -29.456  1.00  0.00     0.115 A 
BRANCH  15  16
ATOM     16  O   UNL     1      10.981   9.050 -30.355  1.00  0.00    -0.508 OA
ATOM     17  H   UNL     1      11.090   8.865 -31.344  1.00  0.00     0.293 HD
ENDBRANCH  15  16
ENDBRANCH   1  10
TORSDOF 5
ENDMDL
MODEL 4
REMARK VINA RESULT:    -5.667      2.061      5.553
REMARK INTER + INTRA:          -7.165
REMARK INTER:                  -6.936
REMARK INTRA:                  -0.229
REMARK UNBOUND:                -0.173
REMARK SMILES [NH3+][C@H](Cc1ccc(O)cc1)C(=O)[O-]
REMARK SMILES IDX 3 1 2 2 1 3 11 7 12 8 13 9 4 10 5 11 10 12 6 13 9 14 7 15
REMARK SMILES IDX 8 16
REMARK H PARENT 1 4 1 5 1 6 8 17
REMARK Flexibility Score: inf
ROOT
ATOM      1  C   UNL     1       9.131   4.215 -26.349  1.00  0.00     0.107 C 
ENDROOT
BRANCH   1   2
ATOM      2  C   UNL     1       9.087   3.362 -27.634  1.00  0.00     0.232 C 
BRANCH   2   3
ATOM      3  N   UNL     1      10.020   2.233 -27.533  1.00  0.00    -0.350 N 
ATOM      4  H   UNL     1      10.081   1.910 -26.539  1.00  0.00     0.345 HD
ATOM      5  H   UNL     1      10.974   2.509 -27.864  1.00  0.00     0.345 HD
ATOM      6  H   UNL     1       9.675   1.435 -28.115  1.00  0.00     0.345 HD
ENDBRANCH   2   3
BRANCH   2   7
ATOM      7  C   UNL     1       7.691   2.863 -27.905  1.00  0.00     0.099 C 
ATOM      8  O   UNL     1       6.701   3.385 -27.327  1.00  0.00    -0.544 OA
ATOM      9  O   UNL     1       7.488   1.834 -28.817  1.00  0.00    -0.544 OA
ENDBRANCH   2   7
ENDBRANCH   1   2
BRANCH   1  10
ATOM     10  C   UNL     1       9.287   5.683 -26.659  1.00  0.00    -0.041 A 
ATOM     11  C   UNL     1      10.303   6.119 -27.525  1.00  0.00     0.008 A 
ATOM     12  C   UNL     1       8.393   6.622 -26.120  1.00  0.00     0.008 A 
ATOM     13  C   UNL     1      10.431   7.476 -27.836  1.00  0.00     0.046 A 
ATOM     14  C   UNL     1       8.523   7.980 -26.432  1.00  0.00     0.046 A 
ATOM     15  C   UNL     1       9.544   8.409 -27.291  1.00  0.00     0.115 A 
BRANCH  15  16
ATOM     16  O   UNL     1       9.682   9.758 -27.610  1.00  0.00    -0.508 OA
ATOM     17  H   UNL     1       9.088  10.465 -27.193  1.00  0.00     0.293 HD
ENDBRANCH  15  16
ENDBRANCH   1  10
TORSDOF 5
ENDMDL
MODEL 5
REMARK VINA RESULT:    -5.606     10.246     11.905
REMARK INTER + INTRA:          -7.090
REMARK INTER:                  -6.851
REMARK INTRA:                  -0.239
REMARK UNBOUND:                -0.173
REMARK SMILES [NH3+][C@H](Cc1ccc(O)cc1)C(=O)[O-]
REMARK SMILES IDX 3 1 2 2 1 3 11 7 12 8 13 9 4 10 5 11 10 12 6 13 9 14 7 15
REMARK SMILES IDX 8 16
REMARK H PARENT 1 4 1 5 1 6 8 17
REMARK Flexibility Score: inf
ROOT
ATOM      1  C   UNL     1      10.898  -6.041 -29.372  1.00  0.00     0.107 C 
ENDROOT
BRANCH   1   2
ATOM      2  C   UNL     1      10.584  -4.624 -28.849  1.00  0.00     0.232 C 
BRANCH   2   3
ATOM      3  N   UNL     1       9.321  -4.622 -28.101  1.00  0.00    -0.350 N 
ATOM      4  H   UNL     1       9.490  -4.941 -27.118  1.00  0.00     0.345 HD
ATOM      5  H   UNL     1       8.621  -5.255 -28.552  1.00  0.00     0.345 HD
ATOM      6  H   UNL     1       8.932  -3.652 -28.066  1.00  0.00     0.345 HD
ENDBRANCH   2   3
BRANCH   2   7
ATOM      7  C   UNL     1      11.704  -4.106 -27.985  1.00  0.00     0.099 C 
ATOM      8  O   UNL     1      12.888  -4.086 -28.415  1.00  0.00    -0.544 OA
ATOM      9  O   UNL     1      11.430  -3.623 -26.711  1.00  0.00    -0.544 OA
ENDBRANCH   2   7
ENDBRANCH   1   2
BRANCH   1  10
ATOM     10  C   UNL     1      11.056  -6.060 -30.872  1.00  0.00    -0.041 A 
ATOM     11  C   UNL     1      11.144  -4.856 -31.590  1.00  0.00     0.008 A 
ATOM     12  C   UNL     1      11.162  -7.280 -31.561  1.00  0.00     0.008 A 
ATOM     13  C   UNL     1      11.320  -4.872 -32.977  1.00  0.00     0.046 A 
ATOM     14  C   UNL     1      11.339  -7.294 -32.949  1.00  0.00     0.046 A 
ATOM     15  C   UNL     1      11.417  -6.088 -33.660  1.00  0.00     0.115 A 
BRANCH  15  16
ATOM     16  O   UNL     1      11.594  -6.089 -35.041  1.00  0.00    -0.508 OA
ATOM     17  H   UNL     1      11.202  -6.818 -35.625  1.00  0.00     0.293 HD
ENDBRANCH  15  16
ENDBRANCH   1  10
TORSDOF 5
ENDMDL
MODEL 6
REMARK VINA RESULT:    -5.594      2.296      5.201
REMARK INTER + INTRA:          -7.075
REMARK INTER:                  -6.933
REMARK INTRA:                  -0.142
REMARK UNBOUND:                -0.173
REMARK SMILES [NH3+][C@H](Cc1ccc(O)cc1)C(=O)[O-]
REMARK SMILES IDX 3 1 2 2 1 3 11 7 12 8 13 9 4 10 5 11 10 12 6 13 9 14 7 15
REMARK SMILES IDX 8 16
REMARK H PARENT 1 4 1 5 1 6 8 17
REMARK Flexibility Score: inf
ROOT
ATOM      1  C   UNL     1       6.837   7.166 -27.673  1.00  0.00     0.107 C 
ENDROOT
BRANCH   1   2
ATOM      2  C   UNL     1       6.735   6.239 -26.444  1.00  0.00     0.232 C 
BRANCH   2   3
ATOM      3  N   UNL     1       5.330   5.942 -26.140  1.00  0.00    -0.350 N 
ATOM      4  H   UNL     1       5.264   5.046 -25.602  1.00  0.00     0.345 HD
ATOM      5  H   UNL     1       4.771   5.856 -27.021  1.00  0.00     0.345 HD
ATOM      6  H   UNL     1       4.926   6.706 -25.552  1.00  0.00     0.345 HD
ENDBRANCH   2   3
BRANCH   2   7
ATOM      7  C   UNL     1       7.503   4.961 -26.664  1.00  0.00     0.099 C 
ATOM      8  O   UNL     1       6.974   3.993 -27.272  1.00  0.00    -0.544 OA
ATOM      9  O   UNL     1       8.814   4.855 -26.216  1.00  0.00    -0.544 OA
ENDBRANCH   2   7
ENDBRANCH   1   2
BRANCH   1  10
ATOM     10  C   UNL     1       8.268   7.537 -27.975  1.00  0.00    -0.041 A 
ATOM     11  C   UNL     1       8.877   7.098 -29.162  1.00  0.00     0.008 A 
ATOM     12  C   UNL     1       8.990   8.360 -27.096  1.00  0.00     0.008 A 
ATOM     13  C   UNL     1      10.193   7.466 -29.457  1.00  0.00     0.046 A 
ATOM     14  C   UNL     1      10.307   8.727 -27.393  1.00  0.00     0.046 A 
ATOM     15  C   UNL     1      10.912   8.279 -28.576  1.00  0.00     0.115 A 
BRANCH  15  16
ATOM     16  O   UNL     1      12.222   8.639 -28.883  1.00  0.00    -0.508 OA
ATOM     17  H   UNL     1      12.473   9.597 -29.092  1.00  0.00     0.293 HD
ENDBRANCH  15  16
ENDBRANCH   1  10
TORSDOF 5
ENDMDL
MODEL 7
REMARK VINA RESULT:    -5.517      1.930      5.462
REMARK INTER + INTRA:          -6.980
REMARK INTER:                  -6.766
REMARK INTRA:                  -0.214
REMARK UNBOUND:                -0.173
REMARK SMILES [NH3+][C@H](Cc1ccc(O)cc1)C(=O)[O-]
REMARK SMILES IDX 3 1 2 2 1 3 11 7 12 8 13 9 4 10 5 11 10 12 6 13 9 14 7 15
REMARK SMILES IDX 8 16
REMARK H PARENT 1 4 1 5 1 6 8 17
REMARK Flexibility Score: inf
ROOT
ATOM      1  C   UNL     1       8.516   5.525 -28.066  1.00  0.00     0.107 C 
ENDROOT
BRANCH   1   2
ATOM      2  C   UNL     1       8.541   4.624 -26.814  1.00  0.00     0.232 C 
BRANCH   2   3
ATOM      3  N   UNL     1       7.481   5.016 -25.877  1.00  0.00    -0.350 N 
ATOM      4  H   UNL     1       7.625   6.008 -25.572  1.00  0.00     0.345 HD
ATOM      5  H   UNL     1       7.480   4.394 -25.036  1.00  0.00     0.345 HD
ATOM      6  H   UNL     1       6.550   4.953 -26.350  1.00  0.00     0.345 HD
ENDBRANCH   2   3
BRANCH   2   7
ATOM      7  C   UNL     1       8.395   3.172 -27.189  1.00  0.00     0.099 C 
ATOM      8  O   UNL     1       7.274   2.708 -27.531  1.00  0.00    -0.544 OA
ATOM      9  O   UNL     1       9.507   2.339 -27.183  1.00  0.00    -0.544 OA
ENDBRANCH   2   7
ENDBRANCH   1   2
BRANCH   1  10
ATOM     10  C   UNL     1       9.780   6.340 -28.192  1.00  0.00    -0.041 A 
ATOM     11  C   UNL     1       9.777   7.540 -28.921  1.00  0.00     0.008 A 
ATOM     12  C   UNL     1      10.958   5.930 -27.548  1.00  0.00     0.008 A 
ATOM     13  C   UNL     1      10.939   8.311 -29.016  1.00  0.00     0.046 A 
ATOM     14  C   UNL     1      12.120   6.702 -27.643  1.00  0.00     0.046 A 
ATOM     15  C   UNL     1      12.113   7.896 -28.379  1.00  0.00     0.115 A 
BRANCH  15  16
ATOM     16  O   UNL     1      13.263   8.674 -28.480  1.00  0.00    -0.508 OA
ATOM     17  H   UNL     1      13.895   8.789 -27.697  1.00  0.00     0.293 HD
ENDBRANCH  15  16
ENDBRANCH   1  10
TORSDOF 5
ENDMDL
MODEL 8
REMARK VINA RESULT:    -5.410     10.594     11.895
REMARK INTER + INTRA:          -6.848
REMARK INTER:                  -6.622
REMARK INTRA:                  -0.226
REMARK UNBOUND:                -0.173
REMARK SMILES [NH3+][C@H](Cc1ccc(O)cc1)C(=O)[O-]
REMARK SMILES IDX 3 1 2 2 1 3 11 7 12 8 13 9 4 10 5 11 10 12 6 13 9 14 7 15
REMARK SMILES IDX 8 16
REMARK H PARENT 1 4 1 5 1 6 8 17
REMARK Flexibility Score: inf
ROOT
ATOM      1  C   UNL     1      11.064  -5.513 -33.133  1.00  0.00     0.107 C 
ENDROOT
BRANCH   1   2
ATOM      2  C   UNL     1      12.574  -5.603 -33.437  1.00  0.00     0.232 C 
BRANCH   2   3
ATOM      3  N   UNL     1      12.797  -6.220 -34.751  1.00  0.00    -0.350 N 
ATOM      4  H   UNL     1      13.611  -5.764 -35.225  1.00  0.00     0.345 HD
ATOM      5  H   UNL     1      11.948  -6.122 -35.355  1.00  0.00     0.345 HD
ATOM      6  H   UNL     1      13.016  -7.236 -34.632  1.00  0.00     0.345 HD
ENDBRANCH   2   3
BRANCH   2   7
ATOM      7  C   UNL     1      13.219  -4.242 -33.384  1.00  0.00     0.099 C 
ATOM      8  O   UNL     1      14.424  -4.116 -33.041  1.00  0.00    -0.544 OA
ATOM      9  O   UNL     1      12.487  -3.114 -33.740  1.00  0.00    -0.544 OA
ENDBRANCH   2   7
ENDBRANCH   1   2
BRANCH   1  10
ATOM     10  C   UNL     1      10.804  -5.283 -31.665  1.00  0.00    -0.041 A 
ATOM     11  C   UNL     1      10.170  -4.105 -31.235  1.00  0.00     0.008 A 
ATOM     12  C   UNL     1      11.152  -6.261 -30.719  1.00  0.00     0.008 A 
ATOM     13  C   UNL     1       9.902  -3.904 -29.877  1.00  0.00     0.046 A 
ATOM     14  C   UNL     1      10.883  -6.057 -29.361  1.00  0.00     0.046 A 
ATOM     15  C   UNL     1      10.257  -4.876 -28.938  1.00  0.00     0.115 A 
BRANCH  15  16
ATOM     16  O   UNL     1       9.983  -4.663 -27.589  1.00  0.00    -0.508 OA
ATOM     17  H   UNL     1       9.088  -4.911 -27.185  1.00  0.00     0.293 HD
ENDBRANCH  15  16
ENDBRANCH   1  10
TORSDOF 5
ENDMDL
MODEL 9
REMARK VINA RESULT:    -5.342      9.693     11.448
REMARK INTER + INTRA:          -6.764
REMARK INTER:                  -6.546
REMARK INTRA:                  -0.218
REMARK UNBOUND:                -0.173
REMARK SMILES [NH3+][C@H](Cc1ccc(O)cc1)C(=O)[O-]
REMARK SMILES IDX 3 1 2 2 1 3 11 7 12 8 13 9 4 10 5 11 10 12 6 13 9 14 7 15
REMARK SMILES IDX 8 16
REMARK H PARENT 1 4 1 5 1 6 8 17
REMARK Flexibility Score: inf
ROOT
ATOM      1  C   UNL     1      12.831  -5.193 -31.286  1.00  0.00     0.107 C 
ENDROOT
BRANCH   1   2
ATOM      2  C   UNL     1      13.582  -4.202 -32.198  1.00  0.00     0.232 C 
BRANCH   2   3
ATOM      3  N   UNL     1      14.827  -3.758 -31.559  1.00  0.00    -0.350 N 
ATOM      4  H   UNL     1      14.679  -2.829 -31.100  1.00  0.00     0.345 HD
ATOM      5  H   UNL     1      15.597  -3.676 -32.263  1.00  0.00     0.345 HD
ATOM      6  H   UNL     1      15.110  -4.444 -30.821  1.00  0.00     0.345 HD
ENDBRANCH   2   3
BRANCH   2   7
ATOM      7  C   UNL     1      13.877  -4.819 -33.541  1.00  0.00     0.099 C 
ATOM      8  O   UNL     1      15.011  -5.309 -33.786  1.00  0.00    -0.544 OA
ATOM      9  O   UNL     1      12.884  -4.871 -34.512  1.00  0.00    -0.544 OA
ENDBRANCH   2   7
ENDBRANCH   1   2
BRANCH   1  10
ATOM     10  C   UNL     1      11.541  -4.607 -30.767  1.00  0.00    -0.041 A 
ATOM     11  C   UNL     1      11.211  -4.717 -29.406  1.00  0.00     0.008 A 
ATOM     12  C   UNL     1      10.680  -3.909 -31.629  1.00  0.00     0.008 A 
ATOM     13  C   UNL     1      10.030  -4.149 -28.918  1.00  0.00     0.046 A 
ATOM     14  C   UNL     1       9.499  -3.342 -31.139  1.00  0.00     0.046 A 
ATOM     15  C   UNL     1       9.171  -3.461 -29.781  1.00  0.00     0.115 A 
BRANCH  15  16
ATOM     16  O   UNL     1       7.999  -2.899 -29.282  1.00  0.00    -0.508 OA
ATOM     17  H   UNL     1       7.795  -1.914 -29.392  1.00  0.00     0.293 HD
ENDBRANCH  15  16
ENDBRANCH   1  10
TORSDOF 5
ENDMDL
