MODEL 1
REMARK VINA RESULT:    -5.579      0.000      0.000
REMARK INTER + INTRA:          -6.068
REMARK INTER:                  -6.068
REMARK INTRA:                   0.000
REMARK UNBOUND:                 0.000
REMARK SMILES Cc1cc(O)c2c(c1)C(=O)c1cc(O)cc(O)c1C2=O
REMARK SMILES IDX 1 1 2 2 8 3 7 4 6 5 4 6 3 7 19 8 20 9 18 10 11 11 9 12 10 13
REMARK SMILES IDX 12 14 13 15 15 16 16 17 5 18 17 20 14 22
REMARK H PARENT 5 19 17 21 14 23
REMARK Flexibility Score: inf
ROOT
ATOM      1  C   UNL     1      41.512  16.510  -1.709  1.00  0.00     0.044 C 
ATOM      2  C   UNL     1      42.764  16.734  -2.505  1.00  0.00    -0.047 A 
ATOM      3  C   UNL     1      43.815  15.813  -2.438  1.00  0.00     0.016 A 
ATOM      4  C   UNL     1      44.974  15.992  -3.214  1.00  0.00     0.038 A 
ATOM      5  C   UNL     1      45.070  17.095  -4.091  1.00  0.00     0.076 A 
ATOM      6  C   UNL     1      44.021  18.050  -4.120  1.00  0.00     0.127 A 
ATOM      7  C   UNL     1      42.870  17.840  -3.354  1.00  0.00     0.050 A 
ATOM      8  C   UNL     1      46.244  17.168  -5.001  1.00  0.00     0.201 C 
ATOM      9  O   UNL     1      46.132  17.727  -6.124  1.00  0.00    -0.288 OA
ATOM     10  C   UNL     1      47.484  16.421  -4.667  1.00  0.00     0.076 A 
ATOM     11  C   UNL     1      47.382  15.318  -3.789  1.00  0.00     0.041 A 
ATOM     12  C   UNL     1      46.095  15.028  -3.113  1.00  0.00     0.194 C 
ATOM     13  O   UNL     1      45.964  13.974  -2.432  1.00  0.00    -0.289 OA
ATOM     14  C   UNL     1      48.504  14.504  -3.557  1.00  0.00     0.059 A 
ATOM     15  C   UNL     1      49.725  14.786  -4.177  1.00  0.00     0.120 A 
ATOM     16  C   UNL     1      49.839  15.896  -5.011  1.00  0.00     0.093 A 
ATOM     17  C   UNL     1      48.743  16.734  -5.243  1.00  0.00     0.131 A 
ENDROOT
BRANCH   6  18
ATOM     18  O   UNL     1      44.093  19.229  -4.866  1.00  0.00    -0.507 OA
ATOM     19  H   UNL     1      43.905  19.275  -5.858  1.00  0.00     0.293 HD
ENDBRANCH   6  18
BRANCH  17  20
ATOM     20  O   UNL     1      48.957  17.877  -6.016  1.00  0.00    -0.507 OA
ATOM     21  H   UNL     1      48.224  18.526  -6.267  1.00  0.00     0.293 HD
ENDBRANCH  17  20
BRANCH  15  22
ATOM     22  O   UNL     1      50.836  13.974  -3.959  1.00  0.00    -0.508 OA
ATOM     23  H   UNL     1      51.699  14.347  -3.581  1.00  0.00     0.293 HD
ENDBRANCH  15  22
TORSDOF 3
ENDMDL
MODEL 2
REMARK VINA RESULT:    -5.279      1.863      3.660
REMARK INTER + INTRA:          -5.742
REMARK INTER:                  -5.742
REMARK INTRA:                   0.000
REMARK UNBOUND:                 0.000
REMARK SMILES Cc1cc(O)c2c(c1)C(=O)c1cc(O)cc(O)c1C2=O
REMARK SMILES IDX 1 1 2 2 8 3 7 4 6 5 4 6 3 7 19 8 20 9 18 10 11 11 9 12 10 13
REMARK SMILES IDX 12 14 13 15 15 16 16 17 5 18 17 20 14 22
REMARK H PARENT 5 19 17 21 14 23
REMARK Flexibility Score: inf
ROOT
ATOM      1  C   UNL     1      43.644  18.891  -5.352  1.00  0.00     0.044 C 
ATOM      2  C   UNL     1      44.630  17.841  -4.933  1.00  0.00    -0.047 A 
ATOM      3  C   UNL     1      45.959  17.909  -5.366  1.00  0.00     0.016 A 
ATOM      4  C   UNL     1      46.900  16.955  -4.943  1.00  0.00     0.038 A 
ATOM      5  C   UNL     1      46.512  15.932  -4.050  1.00  0.00     0.076 A 
ATOM      6  C   UNL     1      45.154  15.840  -3.651  1.00  0.00     0.127 A 
ATOM      7  C   UNL     1      44.239  16.812  -4.069  1.00  0.00     0.050 A 
ATOM      8  C   UNL     1      47.567  15.033  -3.511  1.00  0.00     0.201 C 
ATOM      9  O   UNL     1      47.435  14.529  -2.364  1.00  0.00    -0.288 OA
ATOM     10  C   UNL     1      48.852  14.883  -4.241  1.00  0.00     0.076 A 
ATOM     11  C   UNL     1      49.236  15.910  -5.133  1.00  0.00     0.041 A 
ATOM     12  C   UNL     1      48.298  17.018  -5.433  1.00  0.00     0.194 C 
ATOM     13  O   UNL     1      48.682  18.001  -6.125  1.00  0.00    -0.289 OA
ATOM     14  C   UNL     1      50.505  15.873  -5.737  1.00  0.00     0.059 A 
ATOM     15  C   UNL     1      51.385  14.820  -5.473  1.00  0.00     0.120 A 
ATOM     16  C   UNL     1      50.994  13.785  -4.625  1.00  0.00     0.093 A 
ATOM     17  C   UNL     1      49.729  13.788  -4.028  1.00  0.00     0.131 A 
ENDROOT
BRANCH   6  18
ATOM     18  O   UNL     1      44.664  14.789  -2.871  1.00  0.00    -0.507 OA
ATOM     19  H   UNL     1      44.422  13.882  -3.244  1.00  0.00     0.293 HD
ENDBRANCH   6  18
BRANCH  17  20
ATOM     20  O   UNL     1      49.374  12.673  -3.264  1.00  0.00    -0.507 OA
ATOM     21  H   UNL     1      48.511  12.606  -2.743  1.00  0.00     0.293 HD
ENDBRANCH  17  20
BRANCH  15  22
ATOM     22  O   UNL     1      52.648  14.786  -6.059  1.00  0.00    -0.508 OA
ATOM     23  H   UNL     1      53.401  15.381  -5.732  1.00  0.00     0.293 HD
ENDBRANCH  15  22
TORSDOF 3
ENDMDL
MODEL 3
REMARK VINA RESULT:    -5.167      1.729      6.489
REMARK INTER + INTRA:          -5.620
REMARK INTER:                  -5.620
REMARK INTRA:                   0.000
REMARK UNBOUND:                 0.000
REMARK SMILES Cc1cc(O)c2c(c1)C(=O)c1cc(O)cc(O)c1C2=O
REMARK SMILES IDX 1 1 2 2 8 3 7 4 6 5 4 6 3 7 19 8 20 9 18 10 11 11 9 12 10 13
REMARK SMILES IDX 12 14 13 15 15 16 16 17 5 18 17 20 14 22
REMARK H PARENT 5 19 17 21 14 23
REMARK Flexibility Score: inf
ROOT
ATOM      1  C   UNL     1      49.660  16.426  -5.850  1.00  0.00     0.044 C 
ATOM      2  C   UNL     1      48.373  16.377  -5.080  1.00  0.00    -0.047 A 
ATOM      3  C   UNL     1      47.312  17.221  -5.427  1.00  0.00     0.016 A 
ATOM      4  C   UNL     1      46.087  17.151  -4.739  1.00  0.00     0.038 A 
ATOM      5  C   UNL     1      45.914  16.203  -3.707  1.00  0.00     0.076 A 
ATOM      6  C   UNL     1      47.008  15.384  -3.328  1.00  0.00     0.127 A 
ATOM      7  C   UNL     1      48.210  15.456  -4.040  1.00  0.00     0.050 A 
ATOM      8  C   UNL     1      44.561  16.061  -3.106  1.00  0.00     0.201 C 
ATOM      9  O   UNL     1      44.193  14.946  -2.651  1.00  0.00    -0.288 OA
ATOM     10  C   UNL     1      43.584  17.175  -3.214  1.00  0.00     0.076 A 
ATOM     11  C   UNL     1      43.763  18.120  -4.249  1.00  0.00     0.041 A 
ATOM     12  C   UNL     1      44.980  18.070  -5.094  1.00  0.00     0.194 C 
ATOM     13  O   UNL     1      45.084  18.827  -6.098  1.00  0.00    -0.289 OA
ATOM     14  C   UNL     1      42.787  19.106  -4.471  1.00  0.00     0.059 A 
ATOM     15  C   UNL     1      41.647  19.170  -3.664  1.00  0.00     0.120 A 
ATOM     16  C   UNL     1      41.488  18.265  -2.617  1.00  0.00     0.093 A 
ATOM     17  C   UNL     1      42.454  17.285  -2.363  1.00  0.00     0.131 A 
ENDROOT
BRANCH   6  18
ATOM     18  O   UNL     1      46.957  14.510  -2.239  1.00  0.00    -0.507 OA
ATOM     19  H   UNL     1      47.454  14.667  -1.373  1.00  0.00     0.293 HD
ENDBRANCH   6  18
BRANCH  17  20
ATOM     20  O   UNL     1      42.270  16.474  -1.241  1.00  0.00    -0.507 OA
ATOM     21  H   UNL     1      42.894  16.471  -0.446  1.00  0.00     0.293 HD
ENDBRANCH  17  20
BRANCH  15  22
ATOM     22  O   UNL     1      40.671  20.138  -3.888  1.00  0.00    -0.508 OA
ATOM     23  H   UNL     1      40.905  21.049  -4.269  1.00  0.00     0.293 HD
ENDBRANCH  15  22
TORSDOF 3
ENDMDL
MODEL 4
REMARK VINA RESULT:    -5.089      1.634      6.238
REMARK INTER + INTRA:          -5.535
REMARK INTER:                  -5.535
REMARK INTRA:                   0.000
REMARK UNBOUND:                 0.000
REMARK SMILES Cc1cc(O)c2c(c1)C(=O)c1cc(O)cc(O)c1C2=O
REMARK SMILES IDX 1 1 2 2 8 3 7 4 6 5 4 6 3 7 19 8 20 9 18 10 11 11 9 12 10 13
REMARK SMILES IDX 12 14 13 15 15 16 16 17 5 18 17 20 14 22
REMARK H PARENT 5 19 17 21 14 23
REMARK Flexibility Score: inf
ROOT
ATOM      1  C   UNL     1      50.331  14.164  -4.250  1.00  0.00     0.044 C 
ATOM      2  C   UNL     1      48.902  14.401  -3.860  1.00  0.00    -0.047 A 
ATOM      3  C   UNL     1      48.201  15.493  -4.384  1.00  0.00     0.016 A 
ATOM      4  C   UNL     1      46.848  15.699  -4.059  1.00  0.00     0.038 A 
ATOM      5  C   UNL     1      46.180  14.781  -3.219  1.00  0.00     0.076 A 
ATOM      6  C   UNL     1      46.908  13.703  -2.653  1.00  0.00     0.127 A 
ATOM      7  C   UNL     1      48.247  13.507  -3.006  1.00  0.00     0.050 A 
ATOM      8  C   UNL     1      44.716  14.951  -3.019  1.00  0.00     0.201 C 
ATOM      9  O   UNL     1      43.993  13.943  -2.801  1.00  0.00    -0.288 OA
ATOM     10  C   UNL     1      44.087  16.274  -3.263  1.00  0.00     0.076 A 
ATOM     11  C   UNL     1      44.760  17.188  -4.105  1.00  0.00     0.041 A 
ATOM     12  C   UNL     1      46.123  16.875  -4.595  1.00  0.00     0.194 C 
ATOM     13  O   UNL     1      46.675  17.624  -5.448  1.00  0.00    -0.289 OA
ATOM     14  C   UNL     1      44.134  18.392  -4.471  1.00  0.00     0.059 A 
ATOM     15  C   UNL     1      42.857  18.700  -3.996  1.00  0.00     0.120 A 
ATOM     16  C   UNL     1      42.207  17.820  -3.132  1.00  0.00     0.093 A 
ATOM     17  C   UNL     1      42.816  16.624  -2.737  1.00  0.00     0.131 A 
ENDROOT
BRANCH   6  18
ATOM     18  O   UNL     1      46.354  12.826  -1.717  1.00  0.00    -0.507 OA
ATOM     19  H   UNL     1      45.942  11.935  -1.962  1.00  0.00     0.293 HD
ENDBRANCH   6  18
BRANCH  17  20
ATOM     20  O   UNL     1      42.143  15.838  -1.799  1.00  0.00    -0.507 OA
ATOM     21  H   UNL     1      41.147  15.669  -1.825  1.00  0.00     0.293 HD
ENDBRANCH  17  20
BRANCH  15  22
ATOM     22  O   UNL     1      42.228  19.887  -4.366  1.00  0.00    -0.508 OA
ATOM     23  H   UNL     1      41.787  20.490  -3.680  1.00  0.00     0.293 HD
ENDBRANCH  15  22
TORSDOF 3
ENDMDL
MODEL 5
REMARK VINA RESULT:    -5.052      1.564      3.566
REMARK INTER + INTRA:          -5.495
REMARK INTER:                  -5.495
REMARK INTRA:                   0.000
REMARK UNBOUND:                 0.000
REMARK SMILES Cc1cc(O)c2c(c1)C(=O)c1cc(O)cc(O)c1C2=O
REMARK SMILES IDX 1 1 2 2 8 3 7 4 6 5 4 6 3 7 19 8 20 9 18 10 11 11 9 12 10 13
REMARK SMILES IDX 12 14 13 15 15 16 16 17 5 18 17 20 14 22
REMARK H PARENT 5 19 17 21 14 23
REMARK Flexibility Score: inf
ROOT
ATOM      1  C   UNL     1      41.729  16.090  -3.931  1.00  0.00     0.044 C 
ATOM      2  C   UNL     1      43.104  15.510  -3.767  1.00  0.00    -0.047 A 
ATOM      3  C   UNL     1      44.226  16.226  -4.198  1.00  0.00     0.016 A 
ATOM      4  C   UNL     1      45.520  15.710  -4.009  1.00  0.00     0.038 A 
ATOM      5  C   UNL     1      45.695  14.472  -3.352  1.00  0.00     0.076 A 
ATOM      6  C   UNL     1      44.552  13.730  -2.959  1.00  0.00     0.127 A 
ATOM      7  C   UNL     1      43.275  14.272  -3.140  1.00  0.00     0.050 A 
ATOM      8  C   UNL     1      47.081  14.033  -3.040  1.00  0.00     0.201 C 
ATOM      9  O   UNL     1      47.297  13.316  -2.028  1.00  0.00    -0.288 OA
ATOM     10  C   UNL     1      48.223  14.593  -3.807  1.00  0.00     0.076 A 
ATOM     11  C   UNL     1      48.043  15.832  -4.462  1.00  0.00     0.041 A 
ATOM     12  C   UNL     1      46.701  16.461  -4.497  1.00  0.00     0.194 C 
ATOM     13  O   UNL     1      46.561  17.624  -4.967  1.00  0.00    -0.289 OA
ATOM     14  C   UNL     1      49.136  16.461  -5.081  1.00  0.00     0.059 A 
ATOM     15  C   UNL     1      50.399  15.862  -5.068  1.00  0.00     0.120 A 
ATOM     16  C   UNL     1      50.571  14.621  -4.458  1.00  0.00     0.093 A 
ATOM     17  C   UNL     1      49.495  13.965  -3.852  1.00  0.00     0.131 A 
ENDROOT
BRANCH   6  18
ATOM     18  O   UNL     1      44.635  12.445  -2.417  1.00  0.00    -0.507 OA
ATOM     19  H   UNL     1      44.636  11.602  -2.975  1.00  0.00     0.293 HD
ENDBRANCH   6  18
BRANCH  17  20
ATOM     20  O   UNL     1      49.724  12.685  -3.343  1.00  0.00    -0.507 OA
ATOM     21  H   UNL     1      50.137  11.936  -3.881  1.00  0.00     0.293 HD
ENDBRANCH  17  20
BRANCH  15  22
ATOM     22  O   UNL     1      51.489  16.488  -5.669  1.00  0.00    -0.508 OA
ATOM     23  H   UNL     1      51.608  16.493  -6.676  1.00  0.00     0.293 HD
ENDBRANCH  15  22
TORSDOF 3
ENDMDL
MODEL 6
REMARK VINA RESULT:    -4.850      1.514      6.431
REMARK INTER + INTRA:          -5.275
REMARK INTER:                  -5.275
REMARK INTRA:                   0.000
REMARK UNBOUND:                 0.000
REMARK SMILES Cc1cc(O)c2c(c1)C(=O)c1cc(O)cc(O)c1C2=O
REMARK SMILES IDX 1 1 2 2 8 3 7 4 6 5 4 6 3 7 19 8 20 9 18 10 11 11 9 12 10 13
REMARK SMILES IDX 12 14 13 15 15 16 16 17 5 18 17 20 14 22
REMARK H PARENT 5 19 17 21 14 23
REMARK Flexibility Score: inf
ROOT
ATOM      1  C   UNL     1      52.000  15.916  -5.187  1.00  0.00     0.044 C 
ATOM      2  C   UNL     1      50.670  15.376  -4.750  1.00  0.00    -0.047 A 
ATOM      3  C   UNL     1      49.516  16.157  -4.879  1.00  0.00     0.016 A 
ATOM      4  C   UNL     1      48.259  15.643  -4.514  1.00  0.00     0.038 A 
ATOM      5  C   UNL     1      48.153  14.318  -4.038  1.00  0.00     0.076 A 
ATOM      6  C   UNL     1      49.331  13.548  -3.865  1.00  0.00     0.127 A 
ATOM      7  C   UNL     1      50.568  14.072  -4.254  1.00  0.00     0.050 A 
ATOM      8  C   UNL     1      46.793  13.764  -3.804  1.00  0.00     0.201 C 
ATOM      9  O   UNL     1      46.587  12.529  -3.945  1.00  0.00    -0.288 OA
ATOM     10  C   UNL     1      45.648  14.685  -3.590  1.00  0.00     0.076 A 
ATOM     11  C   UNL     1      45.760  16.010  -4.069  1.00  0.00     0.041 A 
ATOM     12  C   UNL     1      47.047  16.489  -4.626  1.00  0.00     0.194 C 
ATOM     13  O   UNL     1      47.117  17.625  -5.171  1.00  0.00    -0.289 OA
ATOM     14  C   UNL     1      44.650  16.870  -4.011  1.00  0.00     0.059 A 
ATOM     15  C   UNL     1      43.439  16.430  -3.468  1.00  0.00     0.120 A 
ATOM     16  C   UNL     1      43.337  15.137  -2.958  1.00  0.00     0.093 A 
ATOM     17  C   UNL     1      44.433  14.268  -2.986  1.00  0.00     0.131 A 
ENDROOT
BRANCH   6  18
ATOM     18  O   UNL     1      49.326  12.276  -3.286  1.00  0.00    -0.507 OA
ATOM     19  H   UNL     1      50.164  11.743  -3.100  1.00  0.00     0.293 HD
ENDBRANCH   6  18
BRANCH  17  20
ATOM     20  O   UNL     1      44.283  13.021  -2.375  1.00  0.00    -0.507 OA
ATOM     21  H   UNL     1      44.993  12.593  -1.797  1.00  0.00     0.293 HD
ENDBRANCH  17  20
BRANCH  15  22
ATOM     22  O   UNL     1      42.333  17.275  -3.420  1.00  0.00    -0.508 OA
ATOM     23  H   UNL     1      42.428  18.262  -3.204  1.00  0.00     0.293 HD
ENDBRANCH  15  22
TORSDOF 3
ENDMDL
MODEL 7
REMARK VINA RESULT:    -4.841      1.520      2.303
REMARK INTER + INTRA:          -5.266
REMARK INTER:                  -5.266
REMARK INTRA:                   0.000
REMARK UNBOUND:                 0.000
REMARK SMILES Cc1cc(O)c2c(c1)C(=O)c1cc(O)cc(O)c1C2=O
REMARK SMILES IDX 1 1 2 2 8 3 7 4 6 5 4 6 3 7 19 8 20 9 18 10 11 11 9 12 10 13
REMARK SMILES IDX 12 14 13 15 15 16 16 17 5 18 17 20 14 22
REMARK H PARENT 5 19 17 21 14 23
REMARK Flexibility Score: inf
ROOT
ATOM      1  C   UNL     1      39.974  19.299  -3.001  1.00  0.00     0.044 C 
ATOM      2  C   UNL     1      41.376  18.959  -3.413  1.00  0.00    -0.047 A 
ATOM      3  C   UNL     1      41.940  17.732  -3.045  1.00  0.00     0.016 A 
ATOM      4  C   UNL     1      43.237  17.386  -3.463  1.00  0.00     0.038 A 
ATOM      5  C   UNL     1      43.969  18.269  -4.286  1.00  0.00     0.076 A 
ATOM      6  C   UNL     1      43.411  19.530  -4.617  1.00  0.00     0.127 A 
ATOM      7  C   UNL     1      42.112  19.845  -4.206  1.00  0.00     0.050 A 
ATOM      8  C   UNL     1      45.273  17.804  -4.828  1.00  0.00     0.201 C 
ATOM      9  O   UNL     1      45.678  18.233  -5.941  1.00  0.00    -0.288 OA
ATOM     10  C   UNL     1      46.002  16.701  -4.152  1.00  0.00     0.076 A 
ATOM     11  C   UNL     1      45.264  15.819  -3.330  1.00  0.00     0.041 A 
ATOM     12  C   UNL     1      43.837  16.097  -3.042  1.00  0.00     0.194 C 
ATOM     13  O   UNL     1      43.141  15.250  -2.418  1.00  0.00    -0.289 OA
ATOM     14  C   UNL     1      45.888  14.684  -2.784  1.00  0.00     0.059 A 
ATOM     15  C   UNL     1      47.239  14.429  -3.036  1.00  0.00     0.120 A 
ATOM     16  C   UNL     1      47.980  15.317  -3.813  1.00  0.00     0.093 A 
ATOM     17  C   UNL     1      47.388  16.465  -4.351  1.00  0.00     0.131 A 
ENDROOT
BRANCH   6  18
ATOM     18  O   UNL     1      44.118  20.509  -5.322  1.00  0.00    -0.507 OA
ATOM     19  H   UNL     1      43.859  21.486  -5.333  1.00  0.00     0.293 HD
ENDBRANCH   6  18
BRANCH  17  20
ATOM     20  O   UNL     1      48.214  17.354  -5.041  1.00  0.00    -0.507 OA
ATOM     21  H   UNL     1      49.134  17.623  -4.721  1.00  0.00     0.293 HD
ENDBRANCH  17  20
BRANCH  15  22
ATOM     22  O   UNL     1      47.859  13.298  -2.508  1.00  0.00    -0.508 OA
ATOM     23  H   UNL     1      47.574  12.363  -2.776  1.00  0.00     0.293 HD
ENDBRANCH  15  22
TORSDOF 3
ENDMDL
MODEL 8
REMARK VINA RESULT:    -4.818      2.356      5.688
REMARK INTER + INTRA:          -5.240
REMARK INTER:                  -5.240
REMARK INTRA:                   0.000
REMARK UNBOUND:                 0.000
REMARK SMILES Cc1cc(O)c2c(c1)C(=O)c1cc(O)cc(O)c1C2=O
REMARK SMILES IDX 1 1 2 2 8 3 7 4 6 5 4 6 3 7 19 8 20 9 18 10 11 11 9 12 10 13
REMARK SMILES IDX 12 14 13 15 15 16 16 17 5 18 17 20 14 22
REMARK H PARENT 5 19 17 21 14 23
REMARK Flexibility Score: inf
ROOT
ATOM      1  C   UNL     1      52.447  15.434  -5.733  1.00  0.00     0.044 C 
ATOM      2  C   UNL     1      50.984  15.465  -5.401  1.00  0.00    -0.047 A 
ATOM      3  C   UNL     1      50.415  14.442  -4.634  1.00  0.00     0.016 A 
ATOM      4  C   UNL     1      49.055  14.484  -4.280  1.00  0.00     0.038 A 
ATOM      5  C   UNL     1      48.259  15.582  -4.677  1.00  0.00     0.076 A 
ATOM      6  C   UNL     1      48.830  16.592  -5.493  1.00  0.00     0.127 A 
ATOM      7  C   UNL     1      50.190  16.539  -5.816  1.00  0.00     0.050 A 
ATOM      8  C   UNL     1      46.868  15.663  -4.159  1.00  0.00     0.201 C 
ATOM      9  O   UNL     1      46.331  16.788  -3.980  1.00  0.00    -0.288 OA
ATOM     10  C   UNL     1      46.186  14.433  -3.679  1.00  0.00     0.076 A 
ATOM     11  C   UNL     1      46.988  13.338  -3.283  1.00  0.00     0.041 A 
ATOM     12  C   UNL     1      48.454  13.381  -3.494  1.00  0.00     0.194 C 
ATOM     13  O   UNL     1      49.186  12.466  -3.027  1.00  0.00    -0.289 OA
ATOM     14  C   UNL     1      46.389  12.211  -2.694  1.00  0.00     0.059 A 
ATOM     15  C   UNL     1      45.005  12.158  -2.511  1.00  0.00     0.120 A 
ATOM     16  C   UNL     1      44.207  13.218  -2.937  1.00  0.00     0.093 A 
ATOM     17  C   UNL     1      44.776  14.343  -3.544  1.00  0.00     0.131 A 
ENDROOT
BRANCH   6  18
ATOM     18  O   UNL     1      48.082  17.643  -6.029  1.00  0.00    -0.507 OA
ATOM     19  H   UNL     1      48.494  18.485  -6.409  1.00  0.00     0.293 HD
ENDBRANCH   6  18
BRANCH  17  20
ATOM     20  O   UNL     1      43.907  15.324  -4.027  1.00  0.00    -0.507 OA
ATOM     21  H   UNL     1      42.963  15.131  -4.333  1.00  0.00     0.293 HD
ENDBRANCH  17  20
BRANCH  15  22
ATOM     22  O   UNL     1      44.409  11.048  -1.917  1.00  0.00    -0.508 OA
ATOM     23  H   UNL     1      43.603  10.592  -2.332  1.00  0.00     0.293 HD
ENDBRANCH  15  22
TORSDOF 3
ENDMDL
MODEL 9
REMARK VINA RESULT:    -4.799      2.542      4.199
REMARK INTER + INTRA:          -5.219
REMARK INTER:                  -5.219
REMARK INTRA:                   0.000
REMARK UNBOUND:                 0.000
REMARK SMILES Cc1cc(O)c2c(c1)C(=O)c1cc(O)cc(O)c1C2=O
REMARK SMILES IDX 1 1 2 2 8 3 7 4 6 5 4 6 3 7 19 8 20 9 18 10 11 11 9 12 10 13
REMARK SMILES IDX 12 14 13 15 15 16 16 17 5 18 17 20 14 22
REMARK H PARENT 5 19 17 21 14 23
REMARK Flexibility Score: inf
ROOT
ATOM      1  C   UNL     1      39.631  20.631  -0.123  1.00  0.00     0.044 C 
ATOM      2  C   UNL     1      40.734  20.075  -0.975  1.00  0.00    -0.047 A 
ATOM      3  C   UNL     1      40.872  18.692  -1.134  1.00  0.00     0.016 A 
ATOM      4  C   UNL     1      41.874  18.163  -1.965  1.00  0.00     0.038 A 
ATOM      5  C   UNL     1      42.734  19.033  -2.671  1.00  0.00     0.076 A 
ATOM      6  C   UNL     1      42.619  20.433  -2.470  1.00  0.00     0.127 A 
ATOM      7  C   UNL     1      41.602  20.937  -1.654  1.00  0.00     0.050 A 
ATOM      8  C   UNL     1      43.682  18.440  -3.652  1.00  0.00     0.201 C 
ATOM      9  O   UNL     1      44.030  19.103  -4.664  1.00  0.00    -0.288 OA
ATOM     10  C   UNL     1      44.065  17.010  -3.536  1.00  0.00     0.076 A 
ATOM     11  C   UNL     1      43.200  16.143  -2.829  1.00  0.00     0.041 A 
ATOM     12  C   UNL     1      42.032  16.695  -2.103  1.00  0.00     0.194 C 
ATOM     13  O   UNL     1      41.188  15.917  -1.579  1.00  0.00    -0.289 OA
ATOM     14  C   UNL     1      43.455  14.761  -2.814  1.00  0.00     0.059 A 
ATOM     15  C   UNL     1      44.567  14.238  -3.481  1.00  0.00     0.120 A 
ATOM     16  C   UNL     1      45.443  15.094  -4.145  1.00  0.00     0.093 A 
ATOM     17  C   UNL     1      45.223  16.476  -4.158  1.00  0.00     0.131 A 
ENDROOT
BRANCH   6  18
ATOM     18  O   UNL     1      43.508  21.353  -3.032  1.00  0.00    -0.507 OA
ATOM     19  H   UNL     1      43.269  22.316  -3.221  1.00  0.00     0.293 HD
ENDBRANCH   6  18
BRANCH  17  20
ATOM     20  O   UNL     1      46.193  17.277  -4.765  1.00  0.00    -0.507 OA
ATOM     21  H   UNL     1      47.184  17.177  -4.598  1.00  0.00     0.293 HD
ENDBRANCH  17  20
BRANCH  15  22
ATOM     22  O   UNL     1      44.816  12.868  -3.480  1.00  0.00    -0.508 OA
ATOM     23  H   UNL     1      44.712  12.309  -4.320  1.00  0.00     0.293 HD
ENDBRANCH  15  22
TORSDOF 3
ENDMDL
