MODEL 1
REMARK VINA RESULT:    -0.213      0.000      0.000
REMARK INTER + INTRA:          -0.483
REMARK INTER:                  -0.225
REMARK INTRA:                  -0.258
REMARK UNBOUND:                -0.258
REMARK SMILES O=c1cc(-c2ccccc2)oc2ccccc12
REMARK SMILES IDX 4 1 3 2 2 3 1 4 17 5 16 6 15 7 14 8 13 9 12 10 11 11 5 12
REMARK SMILES IDX 8 13 7 14 9 15 6 16 10 17
REMARK H PARENT
REMARK Flexibility Score: inf
ROOT
ATOM      1  C   UNL     1     160.117 145.259 171.516  1.00  0.00     0.138 A 
ATOM      2  C   UNL     1     158.726 145.193 171.288  1.00  0.00     0.100 A 
ATOM      3  C   UNL     1     158.241 145.216 169.978  1.00  0.00     0.193 A 
ATOM      4  O   UNL     1     156.999 145.158 169.774  1.00  0.00    -0.289 OA
ATOM      5  C   UNL     1     159.144 145.302 168.910  1.00  0.00     0.065 A 
ATOM      6  C   UNL     1     158.724 145.329 167.567  1.00  0.00     0.016 A 
ATOM      7  C   UNL     1     159.667 145.417 166.539  1.00  0.00     0.001 A 
ATOM      8  C   UNL     1     161.031 145.477 166.840  1.00  0.00     0.004 A 
ATOM      9  C   UNL     1     161.458 145.451 168.170  1.00  0.00     0.048 A 
ATOM     10  C   UNL     1     160.523 145.364 169.208  1.00  0.00     0.138 A 
ATOM     11  O   UNL     1     160.939 145.340 170.469  1.00  0.00    -0.456 OA
ENDROOT
BRANCH   1  12
ATOM     12  C   UNL     1     160.718 145.240 172.886  1.00  0.00     0.017 A 
ATOM     13  C   UNL     1     161.775 145.154 175.502  1.00  0.00     0.000 A 
ATOM     14  C   UNL     1     162.499 145.760 174.475  1.00  0.00     0.001 A 
ATOM     15  C   UNL     1     160.529 144.591 175.234  1.00  0.00     0.001 A 
ATOM     16  C   UNL     1     161.981 145.806 173.177  1.00  0.00     0.012 A 
ATOM     17  C   UNL     1     160.003 144.631 173.938  1.00  0.00     0.012 A 
ENDBRANCH   1  12
TORSDOF 1
ENDMDL
MODEL 2
REMARK VINA RESULT:    -0.206      1.437      2.892
REMARK INTER + INTRA:          -0.477
REMARK INTER:                  -0.221
REMARK INTRA:                  -0.256
REMARK UNBOUND:                -0.258
REMARK SMILES O=c1cc(-c2ccccc2)oc2ccccc12
REMARK SMILES IDX 4 1 3 2 2 3 1 4 17 5 16 6 15 7 14 8 13 9 12 10 11 11 5 12
REMARK SMILES IDX 8 13 7 14 9 15 6 16 10 17
REMARK H PARENT
REMARK Flexibility Score: inf
ROOT
ATOM      1  C   UNL     1     161.104 145.156 172.528  1.00  0.00     0.138 A 
ATOM      2  C   UNL     1     162.132 145.278 171.568  1.00  0.00     0.100 A 
ATOM      3  C   UNL     1     161.801 145.395 170.216  1.00  0.00     0.193 A 
ATOM      4  O   UNL     1     162.719 145.504 169.359  1.00  0.00    -0.289 OA
ATOM      5  C   UNL     1     160.453 145.392 169.833  1.00  0.00     0.065 A 
ATOM      6  C   UNL     1     160.051 145.507 168.489  1.00  0.00     0.016 A 
ATOM      7  C   UNL     1     158.691 145.498 168.161  1.00  0.00     0.001 A 
ATOM      8  C   UNL     1     157.727 145.375 169.166  1.00  0.00     0.004 A 
ATOM      9  C   UNL     1     158.117 145.260 170.503  1.00  0.00     0.048 A 
ATOM     10  C   UNL     1     159.475 145.268 170.843  1.00  0.00     0.138 A 
ATOM     11  O   UNL     1     159.835 145.157 172.117  1.00  0.00    -0.456 OA
ENDROOT
BRANCH   1  12
ATOM     12  C   UNL     1     161.371 145.026 173.994  1.00  0.00     0.017 A 
ATOM     13  C   UNL     1     161.956 144.835 176.749  1.00  0.00     0.000 A 
ATOM     14  C   UNL     1     160.805 144.237 176.235  1.00  0.00     0.001 A 
ATOM     15  C   UNL     1     162.816 145.527 175.899  1.00  0.00     0.001 A 
ATOM     16  C   UNL     1     160.510 144.328 174.872  1.00  0.00     0.012 A 
ATOM     17  C   UNL     1     162.529 145.624 174.533  1.00  0.00     0.012 A 
ENDBRANCH   1  12
TORSDOF 1
ENDMDL
MODEL 3
REMARK VINA RESULT:     0.748      1.157      2.469
REMARK INTER + INTRA:           0.533
REMARK INTER:                   0.781
REMARK INTRA:                  -0.248
REMARK UNBOUND:                -0.258
REMARK SMILES O=c1cc(-c2ccccc2)oc2ccccc12
REMARK SMILES IDX 4 1 3 2 2 3 1 4 17 5 16 6 15 7 14 8 13 9 12 10 11 11 5 12
REMARK SMILES IDX 8 13 7 14 9 15 6 16 10 17
REMARK H PARENT
REMARK Flexibility Score: inf
ROOT
ATOM      1  C   UNL     1     161.001 145.164 171.371  1.00  0.00     0.138 A 
ATOM      2  C   UNL     1     162.259 145.108 170.734  1.00  0.00     0.100 A 
ATOM      3  C   UNL     1     162.330 145.186 169.341  1.00  0.00     0.193 A 
ATOM      4  O   UNL     1     163.453 145.136 168.772  1.00  0.00    -0.289 OA
ATOM      5  C   UNL     1     161.150 145.321 168.597  1.00  0.00     0.065 A 
ATOM      6  C   UNL     1     161.150 145.406 167.192  1.00  0.00     0.016 A 
ATOM      7  C   UNL     1     159.943 145.539 166.498  1.00  0.00     0.001 A 
ATOM      8  C   UNL     1     158.733 145.588 167.196  1.00  0.00     0.004 A 
ATOM      9  C   UNL     1     158.724 145.505 168.591  1.00  0.00     0.048 A 
ATOM     10  C   UNL     1     159.925 145.371 169.296  1.00  0.00     0.138 A 
ATOM     11  O   UNL     1     159.904 145.292 170.622  1.00  0.00    -0.456 OA
ENDROOT
BRANCH   1  12
ATOM     12  C   UNL     1     160.837 145.087 172.856  1.00  0.00     0.017 A 
ATOM     13  C   UNL     1     160.450 144.881 175.644  1.00  0.00     0.000 A 
ATOM     14  C   UNL     1     161.491 145.659 175.138  1.00  0.00     0.001 A 
ATOM     15  C   UNL     1     159.600 144.206 174.770  1.00  0.00     0.001 A 
ATOM     16  C   UNL     1     161.688 145.764 173.758  1.00  0.00     0.012 A 
ATOM     17  C   UNL     1     159.790 144.306 173.388  1.00  0.00     0.012 A 
ENDBRANCH   1  12
TORSDOF 1
ENDMDL
MODEL 4
REMARK VINA RESULT:     0.959      2.305      3.165
REMARK INTER + INTRA:           0.756
REMARK INTER:                   0.979
REMARK INTRA:                  -0.223
REMARK UNBOUND:                -0.258
REMARK SMILES O=c1cc(-c2ccccc2)oc2ccccc12
REMARK SMILES IDX 4 1 3 2 2 3 1 4 17 5 16 6 15 7 14 8 13 9 12 10 11 11 5 12
REMARK SMILES IDX 8 13 7 14 9 15 6 16 10 17
REMARK H PARENT
REMARK Flexibility Score: inf
ROOT
ATOM      1  C   UNL     1     160.915 145.930 173.019  1.00  0.00     0.138 A 
ATOM      2  C   UNL     1     160.894 145.156 171.840  1.00  0.00     0.100 A 
ATOM      3  C   UNL     1     160.492 145.742 170.638  1.00  0.00     0.193 A 
ATOM      4  O   UNL     1     160.473 145.050 169.585  1.00  0.00    -0.289 OA
ATOM      5  C   UNL     1     160.116 147.092 170.621  1.00  0.00     0.065 A 
ATOM      6  C   UNL     1     159.701 147.744 169.445  1.00  0.00     0.016 A 
ATOM      7  C   UNL     1     159.336 149.094 169.483  1.00  0.00     0.001 A 
ATOM      8  C   UNL     1     159.382 149.800 170.689  1.00  0.00     0.004 A 
ATOM      9  C   UNL     1     159.793 149.160 171.862  1.00  0.00     0.048 A 
ATOM     10  C   UNL     1     160.160 147.810 171.835  1.00  0.00     0.138 A 
ATOM     11  O   UNL     1     160.548 147.211 172.956  1.00  0.00    -0.456 OA
ENDROOT
BRANCH   1  12
ATOM     12  C   UNL     1     161.332 145.381 174.347  1.00  0.00     0.017 A 
ATOM     13  C   UNL     1     162.035 144.294 176.855  1.00  0.00     0.000 A 
ATOM     14  C   UNL     1     162.910 145.158 176.198  1.00  0.00     0.001 A 
ATOM     15  C   UNL     1     160.812 143.968 176.271  1.00  0.00     0.001 A 
ATOM     16  C   UNL     1     162.568 145.699 174.955  1.00  0.00     0.012 A 
ATOM     17  C   UNL     1     160.461 144.504 175.028  1.00  0.00     0.012 A 
ENDBRANCH   1  12
TORSDOF 1
ENDMDL
MODEL 5
REMARK VINA RESULT:     0.965      1.800      2.636
REMARK INTER + INTRA:           0.763
REMARK INTER:                   1.012
REMARK INTRA:                  -0.249
REMARK UNBOUND:                -0.258
REMARK SMILES O=c1cc(-c2ccccc2)oc2ccccc12
REMARK SMILES IDX 4 1 3 2 2 3 1 4 17 5 16 6 15 7 14 8 13 9 12 10 11 11 5 12
REMARK SMILES IDX 8 13 7 14 9 15 6 16 10 17
REMARK H PARENT
REMARK Flexibility Score: inf
ROOT
ATOM      1  C   UNL     1     160.801 145.860 173.113  1.00  0.00     0.138 A 
ATOM      2  C   UNL     1     160.932 147.212 172.732  1.00  0.00     0.100 A 
ATOM      3  C   UNL     1     160.466 147.624 171.482  1.00  0.00     0.193 A 
ATOM      4  O   UNL     1     160.583 148.832 171.142  1.00  0.00    -0.289 OA
ATOM      5  C   UNL     1     159.872 146.687 170.624  1.00  0.00     0.065 A 
ATOM      6  C   UNL     1     159.382 147.035 169.352  1.00  0.00     0.016 A 
ATOM      7  C   UNL     1     158.799 146.061 168.535  1.00  0.00     0.001 A 
ATOM      8  C   UNL     1     158.702 144.738 168.979  1.00  0.00     0.004 A 
ATOM      9  C   UNL     1     159.187 144.384 170.241  1.00  0.00     0.048 A 
ATOM     10  C   UNL     1     159.772 145.351 171.066  1.00  0.00     0.138 A 
ATOM     11  O   UNL     1     160.230 145.003 172.264  1.00  0.00    -0.456 OA
ENDROOT
BRANCH   1  12
ATOM     12  C   UNL     1     161.273 145.336 174.432  1.00  0.00     0.017 A 
ATOM     13  C   UNL     1     162.084 144.291 176.926  1.00  0.00     0.000 A 
ATOM     14  C   UNL     1     162.888 145.217 176.262  1.00  0.00     0.001 A 
ATOM     15  C   UNL     1     160.879 143.883 176.356  1.00  0.00     0.001 A 
ATOM     16  C   UNL     1     162.492 145.738 175.026  1.00  0.00     0.012 A 
ATOM     17  C   UNL     1     160.475 144.398 175.121  1.00  0.00     0.012 A 
ENDBRANCH   1  12
TORSDOF 1
ENDMDL
MODEL 6
REMARK VINA RESULT:     2.071      1.261      6.266
REMARK INTER + INTRA:           1.934
REMARK INTER:                   2.179
REMARK INTRA:                  -0.245
REMARK UNBOUND:                -0.258
REMARK SMILES O=c1cc(-c2ccccc2)oc2ccccc12
REMARK SMILES IDX 4 1 3 2 2 3 1 4 17 5 16 6 15 7 14 8 13 9 12 10 11 11 5 12
REMARK SMILES IDX 8 13 7 14 9 15 6 16 10 17
REMARK H PARENT
REMARK Flexibility Score: inf
ROOT
ATOM      1  C   UNL     1     160.411 145.529 170.297  1.00  0.00     0.138 A 
ATOM      2  C   UNL     1     161.415 146.406 170.758  1.00  0.00     0.100 A 
ATOM      3  C   UNL     1     161.705 146.464 172.123  1.00  0.00     0.193 A 
ATOM      4  O   UNL     1     162.602 147.248 172.535  1.00  0.00    -0.289 OA
ATOM      5  C   UNL     1     160.996 145.648 173.015  1.00  0.00     0.065 A 
ATOM      6  C   UNL     1     161.238 145.656 174.401  1.00  0.00     0.016 A 
ATOM      7  C   UNL     1     160.500 144.822 175.247  1.00  0.00     0.001 A 
ATOM      8  C   UNL     1     159.520 143.976 174.719  1.00  0.00     0.004 A 
ATOM      9  C   UNL     1     159.273 143.961 173.344  1.00  0.00     0.048 A 
ATOM     10  C   UNL     1     160.004 144.792 172.488  1.00  0.00     0.138 A 
ATOM     11  O   UNL     1     159.761 144.770 171.182  1.00  0.00    -0.456 OA
ENDROOT
BRANCH   1  12
ATOM     12  C   UNL     1     160.038 145.405 168.854  1.00  0.00     0.017 A 
ATOM     13  C   UNL     1     159.430 145.169 166.107  1.00  0.00     0.000 A 
ATOM     14  C   UNL     1     158.402 145.237 167.047  1.00  0.00     0.001 A 
ATOM     15  C   UNL     1     160.758 145.217 166.527  1.00  0.00     0.001 A 
ATOM     16  C   UNL     1     158.697 145.354 168.409  1.00  0.00     0.012 A 
ATOM     17  C   UNL     1     161.063 145.334 167.887  1.00  0.00     0.012 A 
ENDBRANCH   1  12
TORSDOF 1
ENDMDL
MODEL 7
REMARK VINA RESULT:     2.496      3.558      5.843
REMARK INTER + INTRA:           2.383
REMARK INTER:                   2.624
REMARK INTRA:                  -0.241
REMARK UNBOUND:                -0.258
REMARK SMILES O=c1cc(-c2ccccc2)oc2ccccc12
REMARK SMILES IDX 4 1 3 2 2 3 1 4 17 5 16 6 15 7 14 8 13 9 12 10 11 11 5 12
REMARK SMILES IDX 8 13 7 14 9 15 6 16 10 17
REMARK H PARENT
REMARK Flexibility Score: inf
ROOT
ATOM      1  C   UNL     1     159.684 148.023 170.349  1.00  0.00     0.138 A 
ATOM      2  C   UNL     1     159.051 146.886 169.805  1.00  0.00     0.100 A 
ATOM      3  C   UNL     1     159.132 145.664 170.477  1.00  0.00     0.193 A 
ATOM      4  O   UNL     1     158.567 144.649 169.990  1.00  0.00    -0.289 OA
ATOM      5  C   UNL     1     159.841 145.587 171.684  1.00  0.00     0.065 A 
ATOM      6  C   UNL     1     159.962 144.389 172.411  1.00  0.00     0.016 A 
ATOM      7  C   UNL     1     160.682 144.366 173.610  1.00  0.00     0.001 A 
ATOM      8  C   UNL     1     161.283 145.534 174.090  1.00  0.00     0.004 A 
ATOM      9  C   UNL     1     161.168 146.728 173.374  1.00  0.00     0.048 A 
ATOM     10  C   UNL     1     160.451 146.762 172.174  1.00  0.00     0.138 A 
ATOM     11  O   UNL     1     160.348 147.903 171.500  1.00  0.00    -0.456 OA
ENDROOT
BRANCH   1  12
ATOM     12  C   UNL     1     159.645 149.368 169.695  1.00  0.00     0.017 A 
ATOM     13  C   UNL     1     159.544 151.944 168.546  1.00  0.00     0.000 A 
ATOM     14  C   UNL     1     159.935 150.850 167.775  1.00  0.00     0.001 A 
ATOM     15  C   UNL     1     159.204 151.763 169.885  1.00  0.00     0.001 A 
ATOM     16  C   UNL     1     159.987 149.571 168.338  1.00  0.00     0.012 A 
ATOM     17  C   UNL     1     159.253 150.488 170.457  1.00  0.00     0.012 A 
ENDBRANCH   1  12
TORSDOF 1
ENDMDL
