MODEL 1
REMARK VINA RESULT:    -3.898      0.000      0.000
REMARK INTER + INTRA:         -12.482
REMARK INTER:                  -8.455
REMARK INTRA:                  -4.027
REMARK UNBOUND:                -4.027
REMARK SMILES CCCCCCCCCCCCCCCCCCCCCC(=O)[O-]
REMARK SMILES IDX 12 1 11 2 10 3 9 4 8 5 7 6 6 7 5 8 4 9 3 10 2 11 1 12 13 13
REMARK SMILES IDX 14 14 15 15 16 16 17 17 18 18 19 19 20 20 21 21 22 22 23 23
REMARK SMILES IDX 24 24
REMARK H PARENT
REMARK Flexibility Score: inf
ROOT
ATOM      1  C   UNL     1     -46.519 -54.263  38.645  1.00  0.00     0.000 C 
ENDROOT
BRANCH   1   2
ATOM      2  C   UNL     1     -46.585 -54.929  40.027  1.00  0.00     0.000 C 
BRANCH   2   3
ATOM      3  C   UNL     1     -47.792 -54.419  40.825  1.00  0.00     0.000 C 
BRANCH   3   4
ATOM      4  C   UNL     1     -47.445 -54.270  42.312  1.00  0.00    -0.000 C 
BRANCH   4   5
ATOM      5  C   UNL     1     -48.036 -52.974  42.888  1.00  0.00    -0.000 C 
BRANCH   5   6
ATOM      6  C   UNL     1     -48.655 -52.066  41.807  1.00  0.00    -0.000 C 
BRANCH   6   7
ATOM      7  C   UNL     1     -47.914 -50.736  41.573  1.00  0.00    -0.000 C 
BRANCH   7   8
ATOM      8  C   UNL     1     -46.645 -50.836  40.705  1.00  0.00    -0.000 C 
BRANCH   8   9
ATOM      9  C   UNL     1     -45.333 -50.873  41.519  1.00  0.00    -0.000 C 
BRANCH   9  10
ATOM     10  C   UNL     1     -44.489 -52.122  41.222  1.00  0.00    -0.000 C 
BRANCH  10  11
ATOM     11  C   UNL     1     -43.897 -52.062  39.810  1.00  0.00    -0.003 C 
ATOM     12  C   UNL     1     -42.375 -51.958  39.854  1.00  0.00     0.004 C 
ENDBRANCH  10  11
ENDBRANCH   9  10
ENDBRANCH   8   9
ENDBRANCH   7   8
ENDBRANCH   6   7
ENDBRANCH   5   6
ENDBRANCH   4   5
ENDBRANCH   3   4
ENDBRANCH   2   3
ENDBRANCH   1   2
BRANCH   1  13
ATOM     13  C   UNL     1     -47.754 -53.399  38.340  1.00  0.00     0.000 C 
BRANCH  13  14
ATOM     14  C   UNL     1     -47.574 -52.533  37.081  1.00  0.00     0.000 C 
BRANCH  14  15
ATOM     15  C   UNL     1     -46.511 -51.438  37.270  1.00  0.00     0.000 C 
BRANCH  15  16
ATOM     16  C   UNL     1     -47.083 -50.025  37.061  1.00  0.00     0.000 C 
BRANCH  16  17
ATOM     17  C   UNL     1     -46.017 -48.928  37.212  1.00  0.00     0.000 C 
BRANCH  17  18
ATOM     18  C   UNL     1     -44.589 -49.493  37.310  1.00  0.00     0.000 C 
BRANCH  18  19
ATOM     19  C   UNL     1     -43.686 -48.645  38.231  1.00  0.00     0.000 C 
BRANCH  19  20
ATOM     20  C   UNL     1     -44.442 -47.979  39.393  1.00  0.00     0.006 C 
BRANCH  20  21
ATOM     21  C   UNL     1     -43.507 -47.368  40.442  1.00  0.00     0.053 C 
BRANCH  21  22
ATOM     22  C   UNL     1     -43.637 -45.877  40.456  1.00  0.00     0.041 C 
ATOM     23  O   UNL     1     -44.746 -45.341  40.719  1.00  0.00    -0.550 OA
ATOM     24  O   UNL     1     -42.547 -45.080  40.129  1.00  0.00    -0.550 OA
ENDBRANCH  21  22
ENDBRANCH  20  21
ENDBRANCH  19  20
ENDBRANCH  18  19
ENDBRANCH  17  18
ENDBRANCH  16  17
ENDBRANCH  15  16
ENDBRANCH  14  15
ENDBRANCH  13  14
ENDBRANCH   1  13
TORSDOF 20
ENDMDL
MODEL 2
REMARK VINA RESULT:    -3.765      2.118      4.591
REMARK INTER + INTRA:         -12.194
REMARK INTER:                  -9.276
REMARK INTRA:                  -2.919
REMARK UNBOUND:                -4.027
REMARK SMILES CCCCCCCCCCCCCCCCCCCCCC(=O)[O-]
REMARK SMILES IDX 12 1 11 2 10 3 9 4 8 5 7 6 6 7 5 8 4 9 3 10 2 11 1 12 13 13
REMARK SMILES IDX 14 14 15 15 16 16 17 17 18 18 19 19 20 20 21 21 22 22 23 23
REMARK SMILES IDX 24 24
REMARK H PARENT
REMARK Flexibility Score: inf
ROOT
ATOM      1  C   UNL     1     -49.148 -53.309  41.040  1.00  0.00     0.000 C 
ENDROOT
BRANCH   1   2
ATOM      2  C   UNL     1     -48.707 -52.086  41.858  1.00  0.00     0.000 C 
BRANCH   2   3
ATOM      3  C   UNL     1     -47.652 -51.270  41.100  1.00  0.00     0.000 C 
BRANCH   3   4
ATOM      4  C   UNL     1     -46.273 -51.406  41.759  1.00  0.00    -0.000 C 
BRANCH   4   5
ATOM      5  C   UNL     1     -45.151 -51.274  40.718  1.00  0.00    -0.000 C 
BRANCH   5   6
ATOM      6  C   UNL     1     -44.814 -49.808  40.384  1.00  0.00    -0.000 C 
BRANCH   6   7
ATOM      7  C   UNL     1     -43.357 -49.559  39.948  1.00  0.00    -0.000 C 
BRANCH   7   8
ATOM      8  C   UNL     1     -43.035 -48.110  39.535  1.00  0.00    -0.000 C 
BRANCH   8   9
ATOM      9  C   UNL     1     -44.281 -47.208  39.399  1.00  0.00    -0.000 C 
BRANCH   9  10
ATOM     10  C   UNL     1     -44.282 -46.046  40.404  1.00  0.00    -0.000 C 
BRANCH  10  11
ATOM     11  C   UNL     1     -42.922 -45.339  40.426  1.00  0.00    -0.003 C 
ATOM     12  C   UNL     1     -42.309 -45.368  41.824  1.00  0.00     0.004 C 
ENDBRANCH  10  11
ENDBRANCH   9  10
ENDBRANCH   8   9
ENDBRANCH   7   8
ENDBRANCH   6   7
ENDBRANCH   5   6
ENDBRANCH   4   5
ENDBRANCH   3   4
ENDBRANCH   2   3
ENDBRANCH   1   2
BRANCH   1  13
ATOM     13  C   UNL     1     -48.013 -54.323  40.825  1.00  0.00     0.000 C 
BRANCH  13  14
ATOM     14  C   UNL     1     -47.936 -54.827  39.373  1.00  0.00     0.000 C 
BRANCH  14  15
ATOM     15  C   UNL     1     -46.919 -54.037  38.533  1.00  0.00     0.000 C 
BRANCH  15  16
ATOM     16  C   UNL     1     -47.559 -52.832  37.820  1.00  0.00     0.000 C 
BRANCH  16  17
ATOM     17  C   UNL     1     -46.514 -51.874  37.227  1.00  0.00     0.000 C 
BRANCH  17  18
ATOM     18  C   UNL     1     -47.041 -50.436  37.074  1.00  0.00     0.000 C 
BRANCH  18  19
ATOM     19  C   UNL     1     -45.904 -49.419  36.838  1.00  0.00     0.000 C 
BRANCH  19  20
ATOM     20  C   UNL     1     -44.534 -50.071  36.587  1.00  0.00     0.006 C 
BRANCH  20  21
ATOM     21  C   UNL     1     -43.976 -49.772  35.191  1.00  0.00     0.053 C 
BRANCH  21  22
ATOM     22  C   UNL     1     -42.822 -48.824  35.280  1.00  0.00     0.041 C 
ATOM     23  O   UNL     1     -42.064 -48.842  36.285  1.00  0.00    -0.550 OA
ATOM     24  O   UNL     1     -42.612 -47.886  34.276  1.00  0.00    -0.550 OA
ENDBRANCH  21  22
ENDBRANCH  20  21
ENDBRANCH  19  20
ENDBRANCH  18  19
ENDBRANCH  17  18
ENDBRANCH  16  17
ENDBRANCH  15  16
ENDBRANCH  14  15
ENDBRANCH  13  14
ENDBRANCH   1  13
TORSDOF 20
ENDMDL
MODEL 3
REMARK VINA RESULT:    -3.730      1.346      3.408
REMARK INTER + INTRA:         -12.119
REMARK INTER:                  -8.662
REMARK INTRA:                  -3.457
REMARK UNBOUND:                -4.027
REMARK SMILES CCCCCCCCCCCCCCCCCCCCCC(=O)[O-]
REMARK SMILES IDX 12 1 11 2 10 3 9 4 8 5 7 6 6 7 5 8 4 9 3 10 2 11 1 12 13 13
REMARK SMILES IDX 14 14 15 15 16 16 17 17 18 18 19 19 20 20 21 21 22 22 23 23
REMARK SMILES IDX 24 24
REMARK H PARENT
REMARK Flexibility Score: inf
ROOT
ATOM      1  C   UNL     1     -43.725 -51.891  38.116  1.00  0.00     0.000 C 
ENDROOT
BRANCH   1   2
ATOM      2  C   UNL     1     -44.493 -52.303  39.381  1.00  0.00     0.000 C 
BRANCH   2   3
ATOM      3  C   UNL     1     -44.043 -51.475  40.590  1.00  0.00     0.000 C 
BRANCH   3   4
ATOM      4  C   UNL     1     -45.242 -50.812  41.280  1.00  0.00    -0.000 C 
BRANCH   4   5
ATOM      5  C   UNL     1     -46.494 -50.880  40.394  1.00  0.00    -0.000 C 
BRANCH   5   6
ATOM      6  C   UNL     1     -47.785 -51.122  41.200  1.00  0.00    -0.000 C 
BRANCH   6   7
ATOM      7  C   UNL     1     -47.669 -52.181  42.312  1.00  0.00    -0.000 C 
BRANCH   7   8
ATOM      8  C   UNL     1     -48.179 -53.585  41.937  1.00  0.00    -0.000 C 
BRANCH   8   9
ATOM      9  C   UNL     1     -47.187 -54.401  41.079  1.00  0.00    -0.000 C 
BRANCH   9  10
ATOM     10  C   UNL     1     -47.845 -55.006  39.829  1.00  0.00    -0.000 C 
BRANCH  10  11
ATOM     11  C   UNL     1     -47.178 -54.486  38.551  1.00  0.00    -0.003 C 
ATOM     12  C   UNL     1     -47.937 -53.292  37.980  1.00  0.00     0.004 C 
ENDBRANCH  10  11
ENDBRANCH   9  10
ENDBRANCH   8   9
ENDBRANCH   7   8
ENDBRANCH   6   7
ENDBRANCH   5   6
ENDBRANCH   4   5
ENDBRANCH   3   4
ENDBRANCH   2   3
ENDBRANCH   1   2
BRANCH   1  13
ATOM     13  C   UNL     1     -44.601 -51.914  36.853  1.00  0.00     0.000 C 
BRANCH  13  14
ATOM     14  C   UNL     1     -44.957 -50.503  36.354  1.00  0.00     0.000 C 
BRANCH  14  15
ATOM     15  C   UNL     1     -46.233 -49.953  37.014  1.00  0.00     0.000 C 
BRANCH  15  16
ATOM     16  C   UNL     1     -46.066 -48.497  37.485  1.00  0.00     0.000 C 
BRANCH  16  17
ATOM     17  C   UNL     1     -44.646 -48.199  37.992  1.00  0.00     0.000 C 
BRANCH  17  18
ATOM     18  C   UNL     1     -44.613 -47.811  39.481  1.00  0.00     0.000 C 
BRANCH  18  19
ATOM     19  C   UNL     1     -43.185 -47.487  39.969  1.00  0.00     0.000 C 
BRANCH  19  20
ATOM     20  C   UNL     1     -42.939 -45.988  40.208  1.00  0.00     0.006 C 
BRANCH  20  21
ATOM     21  C   UNL     1     -42.494 -45.676  41.641  1.00  0.00     0.053 C 
BRANCH  21  22
ATOM     22  C   UNL     1     -41.518 -44.543  41.652  1.00  0.00     0.041 C 
ATOM     23  O   UNL     1     -41.338 -43.851  40.615  1.00  0.00    -0.550 OA
ATOM     24  O   UNL     1     -40.769 -44.280  42.792  1.00  0.00    -0.550 OA
ENDBRANCH  21  22
ENDBRANCH  20  21
ENDBRANCH  19  20
ENDBRANCH  18  19
ENDBRANCH  17  18
ENDBRANCH  16  17
ENDBRANCH  15  16
ENDBRANCH  14  15
ENDBRANCH  13  14
ENDBRANCH   1  13
TORSDOF 20
ENDMDL
MODEL 4
REMARK VINA RESULT:    -3.651      3.789      7.141
REMARK INTER + INTRA:         -11.947
REMARK INTER:                  -8.257
REMARK INTRA:                  -3.690
REMARK UNBOUND:                -4.027
REMARK SMILES CCCCCCCCCCCCCCCCCCCCCC(=O)[O-]
REMARK SMILES IDX 12 1 11 2 10 3 9 4 8 5 7 6 6 7 5 8 4 9 3 10 2 11 1 12 13 13
REMARK SMILES IDX 14 14 15 15 16 16 17 17 18 18 19 19 20 20 21 21 22 22 23 23
REMARK SMILES IDX 24 24
REMARK H PARENT
REMARK Flexibility Score: inf
ROOT
ATOM      1  C   UNL     1     -43.822 -49.447  40.845  1.00  0.00     0.000 C 
ENDROOT
BRANCH   1   2
ATOM      2  C   UNL     1     -42.923 -49.297  39.609  1.00  0.00     0.000 C 
BRANCH   2   3
ATOM      3  C   UNL     1     -43.426 -48.171  38.698  1.00  0.00     0.000 C 
BRANCH   3   4
ATOM      4  C   UNL     1     -44.933 -47.949  38.878  1.00  0.00    -0.000 C 
BRANCH   4   5
ATOM      5  C   UNL     1     -45.696 -48.267  37.583  1.00  0.00    -0.000 C 
BRANCH   5   6
ATOM      6  C   UNL     1     -46.500 -49.579  37.669  1.00  0.00    -0.000 C 
BRANCH   6   7
ATOM      7  C   UNL     1     -45.966 -50.728  36.794  1.00  0.00    -0.000 C 
BRANCH   7   8
ATOM      8  C   UNL     1     -44.573 -51.258  37.185  1.00  0.00    -0.000 C 
BRANCH   8   9
ATOM      9  C   UNL     1     -43.532 -51.178  36.048  1.00  0.00    -0.000 C 
BRANCH   9  10
ATOM     10  C   UNL     1     -43.914 -50.156  34.966  1.00  0.00    -0.000 C 
BRANCH  10  11
ATOM     11  C   UNL     1     -43.113 -48.859  35.129  1.00  0.00    -0.003 C 
ATOM     12  C   UNL     1     -41.614 -49.141  35.186  1.00  0.00     0.004 C 
ENDBRANCH  10  11
ENDBRANCH   9  10
ENDBRANCH   8   9
ENDBRANCH   7   8
ENDBRANCH   6   7
ENDBRANCH   5   6
ENDBRANCH   4   5
ENDBRANCH   3   4
ENDBRANCH   2   3
ENDBRANCH   1   2
BRANCH   1  13
ATOM     13  C   UNL     1     -43.819 -50.875  41.415  1.00  0.00     0.000 C 
BRANCH  13  14
ATOM     14  C   UNL     1     -45.199 -51.551  41.323  1.00  0.00     0.000 C 
BRANCH  14  15
ATOM     15  C   UNL     1     -46.313 -50.559  40.950  1.00  0.00     0.000 C 
BRANCH  15  16
ATOM     16  C   UNL     1     -47.710 -51.076  41.339  1.00  0.00     0.000 C 
BRANCH  16  17
ATOM     17  C   UNL     1     -47.769 -52.609  41.427  1.00  0.00     0.000 C 
BRANCH  17  18
ATOM     18  C   UNL     1     -48.673 -53.234  40.349  1.00  0.00     0.000 C 
BRANCH  18  19
ATOM     19  C   UNL     1     -47.978 -53.303  38.972  1.00  0.00     0.000 C 
BRANCH  19  20
ATOM     20  C   UNL     1     -46.577 -53.934  39.018  1.00  0.00     0.006 C 
BRANCH  20  21
ATOM     21  C   UNL     1     -46.503 -55.280  38.288  1.00  0.00     0.053 C 
BRANCH  21  22
ATOM     22  C   UNL     1     -47.140 -56.357  39.109  1.00  0.00     0.041 C 
ATOM     23  O   UNL     1     -46.580 -56.766  40.160  1.00  0.00    -0.550 OA
ATOM     24  O   UNL     1     -48.326 -56.945  38.687  1.00  0.00    -0.550 OA
ENDBRANCH  21  22
ENDBRANCH  20  21
ENDBRANCH  19  20
ENDBRANCH  18  19
ENDBRANCH  17  18
ENDBRANCH  16  17
ENDBRANCH  15  16
ENDBRANCH  14  15
ENDBRANCH  13  14
ENDBRANCH   1  13
TORSDOF 20
ENDMDL
MODEL 5
REMARK VINA RESULT:    -3.626      2.772      4.064
REMARK INTER + INTRA:         -11.893
REMARK INTER:                  -8.926
REMARK INTRA:                  -2.967
REMARK UNBOUND:                -4.027
REMARK SMILES CCCCCCCCCCCCCCCCCCCCCC(=O)[O-]
REMARK SMILES IDX 12 1 11 2 10 3 9 4 8 5 7 6 6 7 5 8 4 9 3 10 2 11 1 12 13 13
REMARK SMILES IDX 14 14 15 15 16 16 17 17 18 18 19 19 20 20 21 21 22 22 23 23
REMARK SMILES IDX 24 24
REMARK H PARENT
REMARK Flexibility Score: inf
ROOT
ATOM      1  C   UNL     1     -47.626 -54.569  39.588  1.00  0.00     0.000 C 
ENDROOT
BRANCH   1   2
ATOM      2  C   UNL     1     -48.423 -53.473  40.311  1.00  0.00     0.000 C 
BRANCH   2   3
ATOM      3  C   UNL     1     -48.141 -53.493  41.818  1.00  0.00     0.000 C 
BRANCH   3   4
ATOM      4  C   UNL     1     -47.469 -52.189  42.269  1.00  0.00    -0.000 C 
BRANCH   4   5
ATOM      5  C   UNL     1     -47.777 -51.044  41.293  1.00  0.00    -0.000 C 
BRANCH   5   6
ATOM      6  C   UNL     1     -46.506 -50.368  40.744  1.00  0.00    -0.000 C 
BRANCH   6   7
ATOM      7  C   UNL     1     -45.216 -51.199  40.880  1.00  0.00    -0.000 C 
BRANCH   7   8
ATOM      8  C   UNL     1     -44.026 -50.706  40.035  1.00  0.00    -0.000 C 
BRANCH   8   9
ATOM      9  C   UNL     1     -43.370 -49.415  40.572  1.00  0.00    -0.000 C 
BRANCH   9  10
ATOM     10  C   UNL     1     -43.849 -48.156  39.832  1.00  0.00    -0.000 C 
BRANCH  10  11
ATOM     11  C   UNL     1     -43.085 -46.916  40.309  1.00  0.00    -0.003 C 
ATOM     12  C   UNL     1     -44.019 -45.719  40.462  1.00  0.00     0.004 C 
ENDBRANCH  10  11
ENDBRANCH   9  10
ENDBRANCH   8   9
ENDBRANCH   7   8
ENDBRANCH   6   7
ENDBRANCH   5   6
ENDBRANCH   4   5
ENDBRANCH   3   4
ENDBRANCH   2   3
ENDBRANCH   1   2
BRANCH   1  13
ATOM     13  C   UNL     1     -46.993 -54.078  38.275  1.00  0.00     0.000 C 
BRANCH  13  14
ATOM     14  C   UNL     1     -47.552 -52.718  37.821  1.00  0.00     0.000 C 
BRANCH  14  15
ATOM     15  C   UNL     1     -46.461 -51.799  37.247  1.00  0.00     0.000 C 
BRANCH  15  16
ATOM     16  C   UNL     1     -46.950 -50.351  37.069  1.00  0.00     0.000 C 
BRANCH  16  17
ATOM     17  C   UNL     1     -45.799 -49.333  37.079  1.00  0.00     0.000 C 
BRANCH  17  18
ATOM     18  C   UNL     1     -44.634 -49.741  36.160  1.00  0.00     0.000 C 
BRANCH  18  19
ATOM     19  C   UNL     1     -43.473 -48.724  36.201  1.00  0.00     0.000 C 
BRANCH  19  20
ATOM     20  C   UNL     1     -42.890 -48.397  34.816  1.00  0.00     0.006 C 
BRANCH  20  21
ATOM     21  C   UNL     1     -41.368 -48.569  34.753  1.00  0.00     0.053 C 
BRANCH  21  22
ATOM     22  C   UNL     1     -40.985 -49.974  35.096  1.00  0.00     0.041 C 
ATOM     23  O   UNL     1     -40.346 -50.216  36.154  1.00  0.00    -0.550 OA
ATOM     24  O   UNL     1     -41.290 -51.012  34.224  1.00  0.00    -0.550 OA
ENDBRANCH  21  22
ENDBRANCH  20  21
ENDBRANCH  19  20
ENDBRANCH  18  19
ENDBRANCH  17  18
ENDBRANCH  16  17
ENDBRANCH  15  16
ENDBRANCH  14  15
ENDBRANCH  13  14
ENDBRANCH   1  13
TORSDOF 20
ENDMDL
MODEL 6
REMARK VINA RESULT:    -3.590      2.518      5.513
REMARK INTER + INTRA:         -11.815
REMARK INTER:                  -8.321
REMARK INTRA:                  -3.494
REMARK UNBOUND:                -4.027
REMARK SMILES CCCCCCCCCCCCCCCCCCCCCC(=O)[O-]
REMARK SMILES IDX 12 1 11 2 10 3 9 4 8 5 7 6 6 7 5 8 4 9 3 10 2 11 1 12 13 13
REMARK SMILES IDX 14 14 15 15 16 16 17 17 18 18 19 19 20 20 21 21 22 22 23 23
REMARK SMILES IDX 24 24
REMARK H PARENT
REMARK Flexibility Score: inf
ROOT
ATOM      1  C   UNL     1     -48.035 -53.417  38.368  1.00  0.00     0.000 C 
ENDROOT
BRANCH   1   2
ATOM      2  C   UNL     1     -47.652 -52.596  37.127  1.00  0.00     0.000 C 
BRANCH   2   3
ATOM      3  C   UNL     1     -46.213 -52.078  37.235  1.00  0.00     0.000 C 
BRANCH   3   4
ATOM      4  C   UNL     1     -46.148 -50.570  36.959  1.00  0.00    -0.000 C 
BRANCH   4   5
ATOM      5  C   UNL     1     -44.756 -50.162  36.454  1.00  0.00    -0.000 C 
BRANCH   5   6
ATOM      6  C   UNL     1     -44.367 -48.728  36.862  1.00  0.00    -0.000 C 
BRANCH   6   7
ATOM      7  C   UNL     1     -45.251 -48.102  37.958  1.00  0.00    -0.000 C 
BRANCH   7   8
ATOM      8  C   UNL     1     -44.557 -47.886  39.316  1.00  0.00    -0.000 C 
BRANCH   8   9
ATOM      9  C   UNL     1     -43.017 -47.814  39.227  1.00  0.00    -0.000 C 
BRANCH   9  10
ATOM     10  C   UNL     1     -42.396 -47.008  40.378  1.00  0.00    -0.000 C 
BRANCH  10  11
ATOM     11  C   UNL     1     -42.829 -45.539  40.316  1.00  0.00    -0.003 C 
ATOM     12  C   UNL     1     -41.840 -44.642  41.056  1.00  0.00     0.004 C 
ENDBRANCH  10  11
ENDBRANCH   9  10
ENDBRANCH   8   9
ENDBRANCH   7   8
ENDBRANCH   6   7
ENDBRANCH   5   6
ENDBRANCH   4   5
ENDBRANCH   3   4
ENDBRANCH   2   3
ENDBRANCH   1   2
BRANCH   1  13
ATOM     13  C   UNL     1     -46.812 -53.979  39.111  1.00  0.00     0.000 C 
BRANCH  13  14
ATOM     14  C   UNL     1     -47.148 -54.437  40.541  1.00  0.00     0.000 C 
BRANCH  14  15
ATOM     15  C   UNL     1     -48.325 -53.655  41.146  1.00  0.00     0.000 C 
BRANCH  15  16
ATOM     16  C   UNL     1     -47.858 -52.530  42.087  1.00  0.00     0.000 C 
BRANCH  16  17
ATOM     17  C   UNL     1     -48.052 -51.132  41.478  1.00  0.00     0.000 C 
BRANCH  17  18
ATOM     18  C   UNL     1     -46.844 -50.673  40.641  1.00  0.00     0.000 C 
BRANCH  18  19
ATOM     19  C   UNL     1     -45.501 -51.100  41.270  1.00  0.00     0.000 C 
BRANCH  19  20
ATOM     20  C   UNL     1     -44.414 -51.438  40.236  1.00  0.00     0.006 C 
BRANCH  20  21
ATOM     21  C   UNL     1     -42.995 -51.187  40.756  1.00  0.00     0.053 C 
BRANCH  21  22
ATOM     22  C   UNL     1     -42.252 -52.478  40.898  1.00  0.00     0.041 C 
ATOM     23  O   UNL     1     -42.815 -53.567  40.612  1.00  0.00    -0.550 OA
ATOM     24  O   UNL     1     -40.954 -52.483  41.394  1.00  0.00    -0.550 OA
ENDBRANCH  21  22
ENDBRANCH  20  21
ENDBRANCH  19  20
ENDBRANCH  18  19
ENDBRANCH  17  18
ENDBRANCH  16  17
ENDBRANCH  15  16
ENDBRANCH  14  15
ENDBRANCH  13  14
ENDBRANCH   1  13
TORSDOF 20
ENDMDL
MODEL 7
REMARK VINA RESULT:    -3.588      3.141      4.287
REMARK INTER + INTRA:         -11.809
REMARK INTER:                  -8.036
REMARK INTRA:                  -3.774
REMARK UNBOUND:                -4.027
REMARK SMILES CCCCCCCCCCCCCCCCCCCCCC(=O)[O-]
REMARK SMILES IDX 12 1 11 2 10 3 9 4 8 5 7 6 6 7 5 8 4 9 3 10 2 11 1 12 13 13
REMARK SMILES IDX 14 14 15 15 16 16 17 17 18 18 19 19 20 20 21 21 22 22 23 23
REMARK SMILES IDX 24 24
REMARK H PARENT
REMARK Flexibility Score: inf
ROOT
ATOM      1  C   UNL     1     -46.129 -51.551  37.093  1.00  0.00     0.000 C 
ENDROOT
BRANCH   1   2
ATOM      2  C   UNL     1     -46.297 -53.046  37.404  1.00  0.00     0.000 C 
BRANCH   2   3
ATOM      3  C   UNL     1     -47.670 -53.325  38.029  1.00  0.00     0.000 C 
BRANCH   3   4
ATOM      4  C   UNL     1     -47.639 -54.604  38.876  1.00  0.00    -0.000 C 
BRANCH   4   5
ATOM      5  C   UNL     1     -48.001 -54.305  40.338  1.00  0.00    -0.000 C 
BRANCH   5   6
ATOM      6  C   UNL     1     -49.020 -53.157  40.480  1.00  0.00    -0.000 C 
BRANCH   6   7
ATOM      7  C   UNL     1     -48.793 -52.232  41.691  1.00  0.00    -0.000 C 
BRANCH   7   8
ATOM      8  C   UNL     1     -47.803 -51.076  41.456  1.00  0.00    -0.000 C 
BRANCH   8   9
ATOM      9  C   UNL     1     -46.356 -51.394  41.892  1.00  0.00    -0.000 C 
BRANCH   9  10
ATOM     10  C   UNL     1     -45.346 -51.243  40.744  1.00  0.00    -0.000 C 
BRANCH  10  11
ATOM     11  C   UNL     1     -44.558 -52.540  40.532  1.00  0.00    -0.003 C 
ATOM     12  C   UNL     1     -43.347 -52.309  39.632  1.00  0.00     0.004 C 
ENDBRANCH  10  11
ENDBRANCH   9  10
ENDBRANCH   8   9
ENDBRANCH   7   8
ENDBRANCH   6   7
ENDBRANCH   5   6
ENDBRANCH   4   5
ENDBRANCH   3   4
ENDBRANCH   2   3
ENDBRANCH   1   2
BRANCH   1  13
ATOM     13  C   UNL     1     -47.202 -50.678  37.765  1.00  0.00     0.000 C 
BRANCH  13  14
ATOM     14  C   UNL     1     -47.038 -49.183  37.440  1.00  0.00     0.000 C 
BRANCH  14  15
ATOM     15  C   UNL     1     -45.576 -48.805  37.147  1.00  0.00     0.000 C 
BRANCH  15  16
ATOM     16  C   UNL     1     -44.819 -48.371  38.415  1.00  0.00     0.000 C 
BRANCH  16  17
ATOM     17  C   UNL     1     -43.302 -48.587  38.299  1.00  0.00     0.000 C 
BRANCH  17  18
ATOM     18  C   UNL     1     -42.918 -49.508  37.127  1.00  0.00     0.000 C 
BRANCH  18  19
ATOM     19  C   UNL     1     -42.021 -48.796  36.093  1.00  0.00     0.000 C 
BRANCH  19  20
ATOM     20  C   UNL     1     -42.535 -48.910  34.648  1.00  0.00     0.006 C 
BRANCH  20  21
ATOM     21  C   UNL     1     -43.658 -49.941  34.492  1.00  0.00     0.053 C 
BRANCH  21  22
ATOM     22  C   UNL     1     -43.119 -51.225  33.945  1.00  0.00     0.041 C 
ATOM     23  O   UNL     1     -43.091 -52.258  34.664  1.00  0.00    -0.550 OA
ATOM     24  O   UNL     1     -42.601 -51.270  32.656  1.00  0.00    -0.550 OA
ENDBRANCH  21  22
ENDBRANCH  20  21
ENDBRANCH  19  20
ENDBRANCH  18  19
ENDBRANCH  17  18
ENDBRANCH  16  17
ENDBRANCH  15  16
ENDBRANCH  14  15
ENDBRANCH  13  14
ENDBRANCH   1  13
TORSDOF 20
ENDMDL
MODEL 8
REMARK VINA RESULT:    -3.574      1.480      4.084
REMARK INTER + INTRA:         -11.780
REMARK INTER:                  -8.454
REMARK INTRA:                  -3.327
REMARK UNBOUND:                -4.027
REMARK SMILES CCCCCCCCCCCCCCCCCCCCCC(=O)[O-]
REMARK SMILES IDX 12 1 11 2 10 3 9 4 8 5 7 6 6 7 5 8 4 9 3 10 2 11 1 12 13 13
REMARK SMILES IDX 14 14 15 15 16 16 17 17 18 18 19 19 20 20 21 21 22 22 23 23
REMARK SMILES IDX 24 24
REMARK H PARENT
REMARK Flexibility Score: inf
ROOT
ATOM      1  C   UNL     1     -47.918 -53.801  40.327  1.00  0.00     0.000 C 
ENDROOT
BRANCH   1   2
ATOM      2  C   UNL     1     -47.951 -53.632  38.801  1.00  0.00     0.000 C 
BRANCH   2   3
ATOM      3  C   UNL     1     -46.563 -53.868  38.193  1.00  0.00     0.000 C 
BRANCH   3   4
ATOM      4  C   UNL     1     -45.958 -52.557  37.676  1.00  0.00    -0.000 C 
BRANCH   4   5
ATOM      5  C   UNL     1     -47.051 -51.617  37.146  1.00  0.00    -0.000 C 
BRANCH   5   6
ATOM      6  C   UNL     1     -47.010 -50.223  37.801  1.00  0.00    -0.000 C 
BRANCH   6   7
ATOM      7  C   UNL     1     -46.238 -49.153  37.006  1.00  0.00    -0.000 C 
BRANCH   7   8
ATOM      8  C   UNL     1     -45.170 -48.384  37.807  1.00  0.00    -0.000 C 
BRANCH   8   9
ATOM      9  C   UNL     1     -43.760 -49.007  37.728  1.00  0.00    -0.000 C 
BRANCH   9  10
ATOM     10  C   UNL     1     -43.528 -49.783  36.422  1.00  0.00    -0.000 C 
BRANCH  10  11
ATOM     11  C   UNL     1     -42.864 -48.894  35.366  1.00  0.00    -0.003 C 
ATOM     12  C   UNL     1     -43.296 -49.294  33.958  1.00  0.00     0.004 C 
ENDBRANCH  10  11
ENDBRANCH   9  10
ENDBRANCH   8   9
ENDBRANCH   7   8
ENDBRANCH   6   7
ENDBRANCH   5   6
ENDBRANCH   4   5
ENDBRANCH   3   4
ENDBRANCH   2   3
ENDBRANCH   1   2
BRANCH   1  13
ATOM     13  C   UNL     1     -48.760 -52.746  41.063  1.00  0.00     0.000 C 
BRANCH  13  14
ATOM     14  C   UNL     1     -47.986 -51.439  41.310  1.00  0.00     0.000 C 
BRANCH  14  15
ATOM     15  C   UNL     1     -46.490 -51.684  41.568  1.00  0.00     0.000 C 
BRANCH  15  16
ATOM     16  C   UNL     1     -45.602 -50.597  40.936  1.00  0.00     0.000 C 
BRANCH  16  17
ATOM     17  C   UNL     1     -44.203 -51.117  40.570  1.00  0.00     0.000 C 
BRANCH  17  18
ATOM     18  C   UNL     1     -43.089 -50.480  41.420  1.00  0.00     0.000 C 
BRANCH  18  19
ATOM     19  C   UNL     1     -43.190 -48.940  41.456  1.00  0.00     0.000 C 
BRANCH  19  20
ATOM     20  C   UNL     1     -41.936 -48.227  40.922  1.00  0.00     0.006 C 
BRANCH  20  21
ATOM     21  C   UNL     1     -42.265 -46.975  40.102  1.00  0.00     0.053 C 
BRANCH  21  22
ATOM     22  C   UNL     1     -42.936 -45.948  40.958  1.00  0.00     0.041 C 
ATOM     23  O   UNL     1     -43.953 -45.337  40.536  1.00  0.00    -0.550 OA
ATOM     24  O   UNL     1     -42.409 -45.628  42.204  1.00  0.00    -0.550 OA
ENDBRANCH  21  22
ENDBRANCH  20  21
ENDBRANCH  19  20
ENDBRANCH  18  19
ENDBRANCH  17  18
ENDBRANCH  16  17
ENDBRANCH  15  16
ENDBRANCH  14  15
ENDBRANCH  13  14
ENDBRANCH   1  13
TORSDOF 20
ENDMDL
MODEL 9
REMARK VINA RESULT:    -3.533      1.252      4.348
REMARK INTER + INTRA:         -11.690
REMARK INTER:                  -8.476
REMARK INTRA:                  -3.215
REMARK UNBOUND:                -4.027
REMARK SMILES CCCCCCCCCCCCCCCCCCCCCC(=O)[O-]
REMARK SMILES IDX 12 1 11 2 10 3 9 4 8 5 7 6 6 7 5 8 4 9 3 10 2 11 1 12 13 13
REMARK SMILES IDX 14 14 15 15 16 16 17 17 18 18 19 19 20 20 21 21 22 22 23 23
REMARK SMILES IDX 24 24
REMARK H PARENT
REMARK Flexibility Score: inf
ROOT
ATOM      1  C   UNL     1     -45.678 -48.754  37.158  1.00  0.00     0.000 C 
ENDROOT
BRANCH   1   2
ATOM      2  C   UNL     1     -46.887 -49.687  37.319  1.00  0.00     0.000 C 
BRANCH   2   3
ATOM      3  C   UNL     1     -46.695 -50.633  38.510  1.00  0.00     0.000 C 
BRANCH   3   4
ATOM      4  C   UNL     1     -46.236 -52.021  38.044  1.00  0.00    -0.000 C 
BRANCH   4   5
ATOM      5  C   UNL     1     -47.366 -52.756  37.307  1.00  0.00    -0.000 C 
BRANCH   5   6
ATOM      6  C   UNL     1     -48.251 -53.593  38.251  1.00  0.00    -0.000 C 
BRANCH   6   7
ATOM      7  C   UNL     1     -47.505 -54.249  39.429  1.00  0.00    -0.000 C 
BRANCH   7   8
ATOM      8  C   UNL     1     -48.314 -54.363  40.735  1.00  0.00    -0.000 C 
BRANCH   8   9
ATOM      9  C   UNL     1     -49.049 -53.064  41.130  1.00  0.00    -0.000 C 
BRANCH   9  10
ATOM     10  C   UNL     1     -48.095 -51.980  41.654  1.00  0.00    -0.000 C 
BRANCH  10  11
ATOM     11  C   UNL     1     -47.130 -52.556  42.697  1.00  0.00    -0.003 C 
ATOM     12  C   UNL     1     -47.858 -52.891  43.996  1.00  0.00     0.004 C 
ENDBRANCH  10  11
ENDBRANCH   9  10
ENDBRANCH   8   9
ENDBRANCH   7   8
ENDBRANCH   6   7
ENDBRANCH   5   6
ENDBRANCH   4   5
ENDBRANCH   3   4
ENDBRANCH   2   3
ENDBRANCH   1   2
BRANCH   1  13
ATOM     13  C   UNL     1     -44.518 -49.408  36.390  1.00  0.00     0.000 C 
BRANCH  13  14
ATOM     14  C   UNL     1     -43.162 -48.742  36.684  1.00  0.00     0.000 C 
BRANCH  14  15
ATOM     15  C   UNL     1     -42.105 -49.751  37.163  1.00  0.00     0.000 C 
BRANCH  15  16
ATOM     16  C   UNL     1     -42.723 -50.906  37.972  1.00  0.00     0.000 C 
BRANCH  16  17
ATOM     17  C   UNL     1     -42.411 -50.806  39.474  1.00  0.00     0.000 C 
BRANCH  17  18
ATOM     18  C   UNL     1     -43.648 -50.448  40.317  1.00  0.00     0.000 C 
BRANCH  18  19
ATOM     19  C   UNL     1     -43.895 -48.926  40.375  1.00  0.00     0.000 C 
BRANCH  19  20
ATOM     20  C   UNL     1     -42.635 -48.108  40.705  1.00  0.00     0.006 C 
BRANCH  20  21
ATOM     21  C   UNL     1     -42.465 -46.882  39.800  1.00  0.00     0.053 C 
BRANCH  21  22
ATOM     22  C   UNL     1     -43.014 -45.659  40.465  1.00  0.00     0.041 C 
ATOM     23  O   UNL     1     -42.236 -44.827  41.002  1.00  0.00    -0.550 OA
ATOM     24  O   UNL     1     -44.388 -45.463  40.536  1.00  0.00    -0.550 OA
ENDBRANCH  21  22
ENDBRANCH  20  21
ENDBRANCH  19  20
ENDBRANCH  18  19
ENDBRANCH  17  18
ENDBRANCH  16  17
ENDBRANCH  15  16
ENDBRANCH  14  15
ENDBRANCH  13  14
ENDBRANCH   1  13
TORSDOF 20
ENDMDL
