MODEL 1
REMARK VINA RESULT:    -4.471      0.000      0.000
REMARK INTER + INTRA:          -5.572
REMARK INTER:                  -5.386
REMARK INTRA:                  -0.186
REMARK UNBOUND:                -0.186
REMARK SMILES [NH3+][C@H](Cc1cnc[nH]1)C(=O)[O-]
REMARK SMILES IDX 3 1 2 2 1 3 9 7 10 8 11 9 4 10 5 11 8 12 6 13 7 14
REMARK H PARENT 1 4 1 5 1 6 8 15
REMARK Flexibility Score: inf
ROOT
ATOM      1  C   UNL     1     -15.921 -10.280  43.326  1.00  0.00     0.127 C 
ENDROOT
BRANCH   1   2
ATOM      2  C   UNL     1     -16.184  -9.330  44.511  1.00  0.00     0.233 C 
BRANCH   2   3
ATOM      3  N   UNL     1     -15.160  -9.478  45.556  1.00  0.00    -0.350 N 
ATOM      4  H   UNL     1     -14.206  -9.446  45.131  1.00  0.00     0.345 HD
ATOM      5  H   UNL     1     -15.269 -10.406  46.029  1.00  0.00     0.345 HD
ATOM      6  H   UNL     1     -15.245  -8.718  46.270  1.00  0.00     0.345 HD
ENDBRANCH   2   3
BRANCH   2   7
ATOM      7  C   UNL     1     -16.228  -7.907  44.024  1.00  0.00     0.099 C 
ATOM      8  O   UNL     1     -15.397  -7.060  44.446  1.00  0.00    -0.544 OA
ATOM      9  O   UNL     1     -17.179  -7.524  43.085  1.00  0.00    -0.544 OA
ENDBRANCH   2   7
ENDBRANCH   1   2
BRANCH   1  10
ATOM     10  C   UNL     1     -17.042 -11.260  43.140  1.00  0.00     0.041 A 
ATOM     11  C   UNL     1     -18.340 -11.111  43.574  1.00  0.00     0.134 A 
ATOM     12  N   UNL     1     -16.913 -12.471  42.578  1.00  0.00    -0.348 N 
ATOM     13  N   UNL     1     -19.035 -12.225  43.274  1.00  0.00    -0.245 NA
ATOM     14  C   UNL     1     -18.135 -13.029  42.668  1.00  0.00     0.196 A 
ATOM     15  H   UNL     1     -16.052 -12.897  42.168  1.00  0.00     0.167 HD
ENDBRANCH   1  10
TORSDOF 4
ENDMDL
MODEL 2
REMARK VINA RESULT:    -4.429      3.684      4.339
REMARK INTER + INTRA:          -5.521
REMARK INTER:                  -5.380
REMARK INTRA:                  -0.141
REMARK UNBOUND:                -0.186
REMARK SMILES [NH3+][C@H](Cc1cnc[nH]1)C(=O)[O-]
REMARK SMILES IDX 3 1 2 2 1 3 9 7 10 8 11 9 4 10 5 11 8 12 6 13 7 14
REMARK H PARENT 1 4 1 5 1 6 8 15
REMARK Flexibility Score: inf
ROOT
ATOM      1  C   UNL     1     -18.522  -8.623  43.716  1.00  0.00     0.127 C 
ENDROOT
BRANCH   1   2
ATOM      2  C   UNL     1     -17.398  -7.823  43.026  1.00  0.00     0.233 C 
BRANCH   2   3
ATOM      3  N   UNL     1     -16.441  -7.288  44.005  1.00  0.00    -0.350 N 
ATOM      4  H   UNL     1     -16.873  -6.499  44.535  1.00  0.00     0.345 HD
ATOM      5  H   UNL     1     -15.598  -6.917  43.509  1.00  0.00     0.345 HD
ATOM      6  H   UNL     1     -16.143  -8.032  44.678  1.00  0.00     0.345 HD
ENDBRANCH   2   3
BRANCH   2   7
ATOM      7  C   UNL     1     -16.690  -8.697  42.028  1.00  0.00     0.099 C 
ATOM      8  O   UNL     1     -16.107  -8.189  41.033  1.00  0.00    -0.544 OA
ATOM      9  O   UNL     1     -16.656 -10.075  42.210  1.00  0.00    -0.544 OA
ENDBRANCH   2   7
ENDBRANCH   1   2
BRANCH   1  10
ATOM     10  C   UNL     1     -19.875  -8.050  43.417  1.00  0.00     0.041 A 
ATOM     11  C   UNL     1     -20.850  -8.619  42.628  1.00  0.00     0.134 A 
ATOM     12  N   UNL     1     -20.304  -6.846  43.827  1.00  0.00    -0.348 N 
ATOM     13  N   UNL     1     -21.900  -7.779  42.550  1.00  0.00    -0.245 NA
ATOM     14  C   UNL     1     -21.532  -6.712  43.292  1.00  0.00     0.196 A 
ATOM     15  H   UNL     1     -19.794  -6.156  44.422  1.00  0.00     0.167 HD
ENDBRANCH   1  10
TORSDOF 4
ENDMDL
MODEL 3
REMARK VINA RESULT:    -4.425      3.265      3.893
REMARK INTER + INTRA:          -5.516
REMARK INTER:                  -5.338
REMARK INTRA:                  -0.178
REMARK UNBOUND:                -0.186
REMARK SMILES [NH3+][C@H](Cc1cnc[nH]1)C(=O)[O-]
REMARK SMILES IDX 3 1 2 2 1 3 9 7 10 8 11 9 4 10 5 11 8 12 6 13 7 14
REMARK H PARENT 1 4 1 5 1 6 8 15
REMARK Flexibility Score: inf
ROOT
ATOM      1  C   UNL     1     -17.091  -8.124  42.992  1.00  0.00     0.127 C 
ENDROOT
BRANCH   1   2
ATOM      2  C   UNL     1     -16.598  -8.985  41.812  1.00  0.00     0.233 C 
BRANCH   2   3
ATOM      3  N   UNL     1     -16.250  -8.155  40.649  1.00  0.00    -0.350 N 
ATOM      4  H   UNL     1     -17.106  -7.688  40.273  1.00  0.00     0.345 HD
ATOM      5  H   UNL     1     -15.855  -8.756  39.890  1.00  0.00     0.345 HD
ATOM      6  H   UNL     1     -15.547  -7.425  40.910  1.00  0.00     0.345 HD
ENDBRANCH   2   3
BRANCH   2   7
ATOM      7  C   UNL     1     -15.413  -9.806  42.239  1.00  0.00     0.099 C 
ATOM      8  O   UNL     1     -14.298  -9.666  41.669  1.00  0.00    -0.544 OA
ATOM      9  O   UNL     1     -15.537 -10.714  43.284  1.00  0.00    -0.544 OA
ENDBRANCH   2   7
ENDBRANCH   1   2
BRANCH   1  10
ATOM     10  C   UNL     1     -18.542  -8.363  43.287  1.00  0.00     0.041 A 
ATOM     11  C   UNL     1     -19.252  -9.514  43.025  1.00  0.00     0.134 A 
ATOM     12  N   UNL     1     -19.381  -7.445  43.791  1.00  0.00    -0.348 N 
ATOM     13  N   UNL     1     -20.539  -9.326  43.375  1.00  0.00    -0.245 NA
ATOM     14  C   UNL     1     -20.579  -8.057  43.838  1.00  0.00     0.196 A 
ATOM     15  H   UNL     1     -19.159  -6.465  44.075  1.00  0.00     0.167 HD
ENDBRANCH   1  10
TORSDOF 4
ENDMDL
MODEL 4
REMARK VINA RESULT:    -4.364      3.777      5.141
REMARK INTER + INTRA:          -5.442
REMARK INTER:                  -5.352
REMARK INTRA:                  -0.091
REMARK UNBOUND:                -0.186
REMARK SMILES [NH3+][C@H](Cc1cnc[nH]1)C(=O)[O-]
REMARK SMILES IDX 3 1 2 2 1 3 9 7 10 8 11 9 4 10 5 11 8 12 6 13 7 14
REMARK H PARENT 1 4 1 5 1 6 8 15
REMARK Flexibility Score: inf
ROOT
ATOM      1  C   UNL     1     -17.880 -12.034  43.472  1.00  0.00     0.127 C 
ENDROOT
BRANCH   1   2
ATOM      2  C   UNL     1     -18.198 -13.135  42.440  1.00  0.00     0.233 C 
BRANCH   2   3
ATOM      3  N   UNL     1     -17.034 -14.001  42.202  1.00  0.00    -0.350 N 
ATOM      4  H   UNL     1     -16.220 -13.671  42.767  1.00  0.00     0.345 HD
ATOM      5  H   UNL     1     -16.762 -13.958  41.193  1.00  0.00     0.345 HD
ATOM      6  H   UNL     1     -17.251 -14.992  42.457  1.00  0.00     0.345 HD
ENDBRANCH   2   3
BRANCH   2   7
ATOM      7  C   UNL     1     -19.369 -13.953  42.911  1.00  0.00     0.099 C 
ATOM      8  O   UNL     1     -20.126 -14.523  42.081  1.00  0.00    -0.544 OA
ATOM      9  O   UNL     1     -19.610 -14.101  44.272  1.00  0.00    -0.544 OA
ENDBRANCH   2   7
ENDBRANCH   1   2
BRANCH   1  10
ATOM     10  C   UNL     1     -17.161 -10.876  42.846  1.00  0.00     0.041 A 
ATOM     11  C   UNL     1     -17.734  -9.722  42.360  1.00  0.00     0.134 A 
ATOM     12  N   UNL     1     -15.842 -10.837  42.603  1.00  0.00    -0.348 N 
ATOM     13  N   UNL     1     -16.773  -8.947  41.821  1.00  0.00    -0.245 NA
ATOM     14  C   UNL     1     -15.636  -9.657  41.988  1.00  0.00     0.196 A 
ATOM     15  H   UNL     1     -15.129 -11.565  42.830  1.00  0.00     0.167 HD
ENDBRANCH   1  10
TORSDOF 4
ENDMDL
MODEL 5
REMARK VINA RESULT:    -4.363      1.615      1.908
REMARK INTER + INTRA:          -5.442
REMARK INTER:                  -5.308
REMARK INTRA:                  -0.134
REMARK UNBOUND:                -0.186
REMARK SMILES [NH3+][C@H](Cc1cnc[nH]1)C(=O)[O-]
REMARK SMILES IDX 3 1 2 2 1 3 9 7 10 8 11 9 4 10 5 11 8 12 6 13 7 14
REMARK H PARENT 1 4 1 5 1 6 8 15
REMARK Flexibility Score: inf
ROOT
ATOM      1  C   UNL     1     -17.381 -10.934  42.736  1.00  0.00     0.127 C 
ENDROOT
BRANCH   1   2
ATOM      2  C   UNL     1     -15.979 -10.592  43.280  1.00  0.00     0.233 C 
BRANCH   2   3
ATOM      3  N   UNL     1     -15.036 -10.297  42.191  1.00  0.00    -0.350 N 
ATOM      4  H   UNL     1     -14.774 -11.178  41.695  1.00  0.00     0.345 HD
ATOM      5  H   UNL     1     -14.162  -9.878  42.584  1.00  0.00     0.345 HD
ATOM      6  H   UNL     1     -15.459  -9.629  41.505  1.00  0.00     0.345 HD
ENDBRANCH   2   3
BRANCH   2   7
ATOM      7  C   UNL     1     -16.069  -9.423  44.223  1.00  0.00     0.099 C 
ATOM      8  O   UNL     1     -15.281  -9.329  45.201  1.00  0.00    -0.544 OA
ATOM      9  O   UNL     1     -17.013  -8.427  44.006  1.00  0.00    -0.544 OA
ENDBRANCH   2   7
ENDBRANCH   1   2
BRANCH   1  10
ATOM     10  C   UNL     1     -17.768 -12.349  43.050  1.00  0.00     0.041 A 
ATOM     11  C   UNL     1     -18.814 -12.753  43.850  1.00  0.00     0.134 A 
ATOM     12  N   UNL     1     -17.093 -13.434  42.644  1.00  0.00    -0.348 N 
ATOM     13  N   UNL     1     -18.805 -14.097  43.939  1.00  0.00    -0.245 NA
ATOM     14  C   UNL     1     -17.745 -14.476  43.192  1.00  0.00     0.196 A 
ATOM     15  H   UNL     1     -16.239 -13.468  42.043  1.00  0.00     0.167 HD
ENDBRANCH   1  10
TORSDOF 4
ENDMDL
MODEL 6
REMARK VINA RESULT:    -4.363      3.646      5.028
REMARK INTER + INTRA:          -5.441
REMARK INTER:                  -5.350
REMARK INTRA:                  -0.091
REMARK UNBOUND:                -0.186
REMARK SMILES [NH3+][C@H](Cc1cnc[nH]1)C(=O)[O-]
REMARK SMILES IDX 3 1 2 2 1 3 9 7 10 8 11 9 4 10 5 11 8 12 6 13 7 14
REMARK H PARENT 1 4 1 5 1 6 8 15
REMARK Flexibility Score: inf
ROOT
ATOM      1  C   UNL     1     -19.181  -8.468  43.012  1.00  0.00     0.127 C 
ENDROOT
BRANCH   1   2
ATOM      2  C   UNL     1     -20.244  -8.064  44.052  1.00  0.00     0.233 C 
BRANCH   2   3
ATOM      3  N   UNL     1     -20.379  -6.602  44.144  1.00  0.00    -0.350 N 
ATOM      4  H   UNL     1     -19.599  -6.206  44.715  1.00  0.00     0.345 HD
ATOM      5  H   UNL     1     -21.279  -6.359  44.618  1.00  0.00     0.345 HD
ATOM      6  H   UNL     1     -20.365  -6.168  43.192  1.00  0.00     0.345 HD
ENDBRANCH   2   3
BRANCH   2   7
ATOM      7  C   UNL     1     -21.567  -8.688  43.699  1.00  0.00     0.099 C 
ATOM      8  O   UNL     1     -21.657  -9.930  43.507  1.00  0.00    -0.544 OA
ATOM      9  O   UNL     1     -22.705  -7.896  43.603  1.00  0.00    -0.544 OA
ENDBRANCH   2   7
ENDBRANCH   1   2
BRANCH   1  10
ATOM     10  C   UNL     1     -17.795  -8.410  43.583  1.00  0.00     0.041 A 
ATOM     11  C   UNL     1     -17.079  -9.465  44.104  1.00  0.00     0.134 A 
ATOM     12  N   UNL     1     -17.077  -7.287  43.734  1.00  0.00    -0.348 N 
ATOM     13  N   UNL     1     -15.901  -9.009  44.573  1.00  0.00    -0.245 NA
ATOM     14  C   UNL     1     -15.935  -7.680  44.330  1.00  0.00     0.196 A 
ATOM     15  H   UNL     1     -17.346  -6.316  43.461  1.00  0.00     0.167 HD
ENDBRANCH   1  10
TORSDOF 4
ENDMDL
MODEL 7
REMARK VINA RESULT:    -4.342      2.655      3.265
REMARK INTER + INTRA:          -5.417
REMARK INTER:                  -5.149
REMARK INTRA:                  -0.267
REMARK UNBOUND:                -0.186
REMARK SMILES [NH3+][C@H](Cc1cnc[nH]1)C(=O)[O-]
REMARK SMILES IDX 3 1 2 2 1 3 9 7 10 8 11 9 4 10 5 11 8 12 6 13 7 14
REMARK H PARENT 1 4 1 5 1 6 8 15
REMARK Flexibility Score: inf
ROOT
ATOM      1  C   UNL     1     -17.089  -9.053  42.671  1.00  0.00     0.127 C 
ENDROOT
BRANCH   1   2
ATOM      2  C   UNL     1     -16.341  -9.884  43.733  1.00  0.00     0.233 C 
BRANCH   2   3
ATOM      3  N   UNL     1     -15.491 -10.911  43.111  1.00  0.00    -0.350 N 
ATOM      4  H   UNL     1     -15.613 -10.897  42.074  1.00  0.00     0.345 HD
ATOM      5  H   UNL     1     -15.774 -11.859  43.454  1.00  0.00     0.345 HD
ATOM      6  H   UNL     1     -14.484 -10.749  43.343  1.00  0.00     0.345 HD
ENDBRANCH   2   3
BRANCH   2   7
ATOM      7  C   UNL     1     -15.512  -8.977  44.601  1.00  0.00     0.099 C 
ATOM      8  O   UNL     1     -14.639  -9.453  45.374  1.00  0.00    -0.544 OA
ATOM      9  O   UNL     1     -15.692  -7.600  44.537  1.00  0.00    -0.544 OA
ENDBRANCH   2   7
ENDBRANCH   1   2
BRANCH   1  10
ATOM     10  C   UNL     1     -18.482  -8.713  43.112  1.00  0.00     0.041 A 
ATOM     11  C   UNL     1     -19.632  -9.400  42.794  1.00  0.00     0.134 A 
ATOM     12  N   UNL     1     -18.812  -7.629  43.831  1.00  0.00    -0.348 N 
ATOM     13  N   UNL     1     -20.690  -8.756  43.325  1.00  0.00    -0.245 NA
ATOM     14  C   UNL     1     -20.153  -7.685  43.948  1.00  0.00     0.196 A 
ATOM     15  H   UNL     1     -18.174  -6.895  44.209  1.00  0.00     0.167 HD
ENDBRANCH   1  10
TORSDOF 4
ENDMDL
MODEL 8
REMARK VINA RESULT:    -4.315      3.382      4.175
REMARK INTER + INTRA:          -5.384
REMARK INTER:                  -5.163
REMARK INTRA:                  -0.221
REMARK UNBOUND:                -0.186
REMARK SMILES [NH3+][C@H](Cc1cnc[nH]1)C(=O)[O-]
REMARK SMILES IDX 3 1 2 2 1 3 9 7 10 8 11 9 4 10 5 11 8 12 6 13 7 14
REMARK H PARENT 1 4 1 5 1 6 8 15
REMARK Flexibility Score: inf
ROOT
ATOM      1  C   UNL     1     -19.027  -8.595  42.956  1.00  0.00     0.127 C 
ENDROOT
BRANCH   1   2
ATOM      2  C   UNL     1     -20.261  -8.307  43.835  1.00  0.00     0.233 C 
BRANCH   2   3
ATOM      3  N   UNL     1     -20.246  -6.930  44.349  1.00  0.00    -0.350 N 
ATOM      4  H   UNL     1     -20.738  -6.885  45.270  1.00  0.00     0.345 HD
ATOM      5  H   UNL     1     -20.751  -6.298  43.685  1.00  0.00     0.345 HD
ATOM      6  H   UNL     1     -19.264  -6.588  44.467  1.00  0.00     0.345 HD
ENDBRANCH   2   3
BRANCH   2   7
ATOM      7  C   UNL     1     -21.518  -8.555  43.046  1.00  0.00     0.099 C 
ATOM      8  O   UNL     1     -21.913  -7.717  42.192  1.00  0.00    -0.544 OA
ATOM      9  O   UNL     1     -22.242  -9.725  43.242  1.00  0.00    -0.544 OA
ENDBRANCH   2   7
ENDBRANCH   1   2
BRANCH   1  10
ATOM     10  C   UNL     1     -18.584 -10.023  43.072  1.00  0.00     0.041 A 
ATOM     11  C   UNL     1     -17.333 -10.519  42.777  1.00  0.00     0.134 A 
ATOM     12  N   UNL     1     -19.381 -11.045  43.417  1.00  0.00    -0.348 N 
ATOM     13  N   UNL     1     -17.338 -11.855  42.949  1.00  0.00    -0.245 NA
ATOM     14  C   UNL     1     -18.600 -12.139  43.339  1.00  0.00     0.196 A 
ATOM     15  H   UNL     1     -20.392 -11.007  43.679  1.00  0.00     0.167 HD
ENDBRANCH   1  10
TORSDOF 4
ENDMDL
MODEL 9
REMARK VINA RESULT:    -4.242      3.201      4.096
REMARK INTER + INTRA:          -5.295
REMARK INTER:                  -5.114
REMARK INTRA:                  -0.181
REMARK UNBOUND:                -0.186
REMARK SMILES [NH3+][C@H](Cc1cnc[nH]1)C(=O)[O-]
REMARK SMILES IDX 3 1 2 2 1 3 9 7 10 8 11 9 4 10 5 11 8 12 6 13 7 14
REMARK H PARENT 1 4 1 5 1 6 8 15
REMARK Flexibility Score: inf
ROOT
ATOM      1  C   UNL     1     -15.603  -9.528  42.259  1.00  0.00     0.127 C 
ENDROOT
BRANCH   1   2
ATOM      2  C   UNL     1     -15.468  -8.109  41.673  1.00  0.00     0.233 C 
BRANCH   2   3
ATOM      3  N   UNL     1     -16.119  -8.006  40.358  1.00  0.00    -0.350 N 
ATOM      4  H   UNL     1     -16.841  -7.251  40.374  1.00  0.00     0.345 HD
ATOM      5  H   UNL     1     -16.602  -8.907  40.131  1.00  0.00     0.345 HD
ATOM      6  H   UNL     1     -15.417  -7.796  39.611  1.00  0.00     0.345 HD
ENDBRANCH   2   3
BRANCH   2   7
ATOM      7  C   UNL     1     -16.057  -7.105  42.626  1.00  0.00     0.099 C 
ATOM      8  O   UNL     1     -16.207  -5.904  42.277  1.00  0.00    -0.544 OA
ATOM      9  O   UNL     1     -16.460  -7.505  43.894  1.00  0.00    -0.544 OA
ENDBRANCH   2   7
ENDBRANCH   1   2
BRANCH   1  10
ATOM     10  C   UNL     1     -14.283 -10.060  42.733  1.00  0.00     0.041 A 
ATOM     11  C   UNL     1     -13.921 -10.311  44.038  1.00  0.00     0.134 A 
ATOM     12  N   UNL     1     -13.227 -10.302  41.941  1.00  0.00    -0.348 N 
ATOM     13  N   UNL     1     -12.639 -10.724  44.068  1.00  0.00    -0.245 NA
ATOM     14  C   UNL     1     -12.250 -10.706  42.775  1.00  0.00     0.196 A 
ATOM     15  H   UNL     1     -13.168 -10.190  40.904  1.00  0.00     0.167 HD
ENDBRANCH   1  10
TORSDOF 4
ENDMDL
