MODEL 1
REMARK VINA RESULT:     7.737      0.000      0.000
REMARK INTER + INTRA:          14.123
REMARK INTER:                  14.521
REMARK INTRA:                  -0.398
REMARK UNBOUND:                -0.398
REMARK SMILES CCCCCCCCC=CCCCCCCCC(=O)[O-]
REMARK SMILES IDX 10 1 9 2 11 3 12 4 13 5 14 6 15 7 16 8 17 9 18 10 19 11
REMARK SMILES IDX 20 12 8 13 7 14 6 15 5 16 4 17 3 18 2 19 1 20
REMARK H PARENT
REMARK Flexibility Score: inf
ROOT
ATOM      1  C   UNL     1       3.833  23.962  42.801  1.00  0.00    -0.031 C 
ATOM      2  C   UNL     1       4.896  23.424  43.431  1.00  0.00    -0.031 C 
ENDROOT
BRANCH   1   3
ATOM      3  C   UNL     1       3.509  25.434  42.751  1.00  0.00     0.027 C 
BRANCH   3   4
ATOM      4  C   UNL     1       2.001  25.671  42.588  1.00  0.00     0.004 C 
BRANCH   4   5
ATOM      5  C   UNL     1       1.248  24.419  42.108  1.00  0.00     0.000 C 
BRANCH   5   6
ATOM      6  C   UNL     1       1.563  24.029  40.648  1.00  0.00     0.000 C 
BRANCH   6   7
ATOM      7  C   UNL     1       1.920  25.251  39.785  1.00  0.00     0.000 C 
BRANCH   7   8
ATOM      8  C   UNL     1       0.705  26.141  39.464  1.00  0.00     0.006 C 
BRANCH   8   9
ATOM      9  C   UNL     1       0.734  27.511  40.163  1.00  0.00     0.053 C 
BRANCH   9  10
ATOM     10  C   UNL     1      -0.082  28.541  39.443  1.00  0.00     0.041 C 
ATOM     11  O   UNL     1      -0.506  28.314  38.280  1.00  0.00    -0.550 OA
ATOM     12  O   UNL     1      -0.406  29.739  40.070  1.00  0.00    -0.550 OA
ENDBRANCH   9  10
ENDBRANCH   8   9
ENDBRANCH   7   8
ENDBRANCH   6   7
ENDBRANCH   5   6
ENDBRANCH   4   5
ENDBRANCH   3   4
ENDBRANCH   1   3
BRANCH   2  13
ATOM     13  C   UNL     1       5.935  24.198  44.205  1.00  0.00     0.027 C 
BRANCH  13  14
ATOM     14  C   UNL     1       7.260  23.428  44.228  1.00  0.00     0.004 C 
BRANCH  14  15
ATOM     15  C   UNL     1       8.231  23.971  43.168  1.00  0.00     0.000 C 
BRANCH  15  16
ATOM     16  C   UNL     1       8.083  25.485  42.951  1.00  0.00     0.000 C 
BRANCH  16  17
ATOM     17  C   UNL     1       9.256  26.286  43.536  1.00  0.00    -0.000 C 
BRANCH  17  18
ATOM     18  C   UNL     1      10.372  25.347  44.022  1.00  0.00    -0.000 C 
BRANCH  18  19
ATOM     19  C   UNL     1      11.593  26.108  44.558  1.00  0.00    -0.003 C 
ATOM     20  C   UNL     1      12.895  25.696  43.871  1.00  0.00     0.004 C 
ENDBRANCH  18  19
ENDBRANCH  17  18
ENDBRANCH  16  17
ENDBRANCH  15  16
ENDBRANCH  14  15
ENDBRANCH  13  14
ENDBRANCH   2  13
TORSDOF 15
ENDMDL
MODEL 2
REMARK VINA RESULT:     8.245      4.519      9.066
REMARK INTER + INTRA:          15.077
REMARK INTER:                  14.834
REMARK INTRA:                   0.244
REMARK UNBOUND:                -0.398
REMARK SMILES CCCCCCCCC=CCCCCCCCC(=O)[O-]
REMARK SMILES IDX 10 1 9 2 11 3 12 4 13 5 14 6 15 7 16 8 17 9 18 10 19 11
REMARK SMILES IDX 20 12 8 13 7 14 6 15 5 16 4 17 3 18 2 19 1 20
REMARK H PARENT
REMARK Flexibility Score: inf
ROOT
ATOM      1  C   UNL     1       4.283  23.661  43.128  1.00  0.00    -0.031 C 
ATOM      2  C   UNL     1       3.236  24.395  42.701  1.00  0.00    -0.031 C 
ENDROOT
BRANCH   1   3
ATOM      3  C   UNL     1       5.540  24.220  43.744  1.00  0.00     0.027 C 
BRANCH   3   4
ATOM      4  C   UNL     1       6.392  23.113  44.381  1.00  0.00     0.004 C 
BRANCH   4   5
ATOM      5  C   UNL     1       7.902  23.380  44.261  1.00  0.00     0.000 C 
BRANCH   5   6
ATOM      6  C   UNL     1       8.287  24.211  43.019  1.00  0.00     0.000 C 
BRANCH   6   7
ATOM      7  C   UNL     1       8.196  25.724  43.281  1.00  0.00     0.000 C 
BRANCH   7   8
ATOM      8  C   UNL     1       9.569  26.385  43.499  1.00  0.00     0.006 C 
BRANCH   8   9
ATOM      9  C   UNL     1      10.714  25.383  43.724  1.00  0.00     0.053 C 
BRANCH   9  10
ATOM     10  C   UNL     1      11.838  25.965  44.527  1.00  0.00     0.041 C 
ATOM     11  O   UNL     1      13.020  25.907  44.098  1.00  0.00    -0.550 OA
ATOM     12  O   UNL     1      11.576  26.604  45.734  1.00  0.00    -0.550 OA
ENDBRANCH   9  10
ENDBRANCH   8   9
ENDBRANCH   7   8
ENDBRANCH   6   7
ENDBRANCH   5   6
ENDBRANCH   4   5
ENDBRANCH   3   4
ENDBRANCH   1   3
BRANCH   2  13
ATOM     13  C   UNL     1       3.148  25.901  42.754  1.00  0.00     0.027 C 
BRANCH  13  14
ATOM     14  C   UNL     1       1.694  26.353  42.579  1.00  0.00     0.004 C 
BRANCH  14  15
ATOM     15  C   UNL     1       1.514  27.127  41.264  1.00  0.00     0.000 C 
BRANCH  15  16
ATOM     16  C   UNL     1       1.019  26.235  40.115  1.00  0.00     0.000 C 
BRANCH  16  17
ATOM     17  C   UNL     1       2.076  25.220  39.655  1.00  0.00    -0.000 C 
BRANCH  17  18
ATOM     18  C   UNL     1       1.822  23.841  40.284  1.00  0.00    -0.000 C 
BRANCH  18  19
ATOM     19  C   UNL     1       0.327  23.544  40.472  1.00  0.00    -0.003 C 
ATOM     20  C   UNL     1      -0.047  23.294  41.934  1.00  0.00     0.004 C 
ENDBRANCH  18  19
ENDBRANCH  17  18
ENDBRANCH  16  17
ENDBRANCH  15  16
ENDBRANCH  14  15
ENDBRANCH  13  14
ENDBRANCH   2  13
TORSDOF 15
ENDMDL
MODEL 3
REMARK VINA RESULT:     8.409      2.037      2.670
REMARK INTER + INTRA:          15.385
REMARK INTER:                  15.473
REMARK INTRA:                  -0.088
REMARK UNBOUND:                -0.398
REMARK SMILES CCCCCCCCC=CCCCCCCCC(=O)[O-]
REMARK SMILES IDX 10 1 9 2 11 3 12 4 13 5 14 6 15 7 16 8 17 9 18 10 19 11
REMARK SMILES IDX 20 12 8 13 7 14 6 15 5 16 4 17 3 18 2 19 1 20
REMARK H PARENT
REMARK Flexibility Score: inf
ROOT
ATOM      1  C   UNL     1       3.896  24.201  42.933  1.00  0.00    -0.031 C 
ATOM      2  C   UNL     1       4.988  23.554  43.387  1.00  0.00    -0.031 C 
ENDROOT
BRANCH   1   3
ATOM      3  C   UNL     1       3.574  25.649  43.199  1.00  0.00     0.027 C 
BRANCH   3   4
ATOM      4  C   UNL     1       2.175  26.016  42.685  1.00  0.00     0.004 C 
BRANCH   4   5
ATOM      5  C   UNL     1       2.206  27.081  41.576  1.00  0.00     0.000 C 
BRANCH   5   6
ATOM      6  C   UNL     1       0.944  27.084  40.687  1.00  0.00     0.000 C 
BRANCH   6   7
ATOM      7  C   UNL     1       0.882  25.857  39.762  1.00  0.00     0.000 C 
BRANCH   7   8
ATOM      8  C   UNL     1       2.134  24.967  39.852  1.00  0.00     0.006 C 
BRANCH   8   9
ATOM      9  C   UNL     1       1.882  23.598  40.507  1.00  0.00     0.053 C 
BRANCH   9  10
ATOM     10  C   UNL     1       0.452  23.411  40.915  1.00  0.00     0.041 C 
ATOM     11  O   UNL     1      -0.386  22.949  40.097  1.00  0.00    -0.550 OA
ATOM     12  O   UNL     1       0.050  23.714  42.212  1.00  0.00    -0.550 OA
ENDBRANCH   9  10
ENDBRANCH   8   9
ENDBRANCH   7   8
ENDBRANCH   6   7
ENDBRANCH   5   6
ENDBRANCH   4   5
ENDBRANCH   3   4
ENDBRANCH   1   3
BRANCH   2  13
ATOM     13  C   UNL     1       6.067  24.162  44.248  1.00  0.00     0.027 C 
BRANCH  13  14
ATOM     14  C   UNL     1       7.373  23.375  44.096  1.00  0.00     0.004 C 
BRANCH  14  15
ATOM     15  C   UNL     1       8.325  24.074  43.113  1.00  0.00     0.000 C 
BRANCH  15  16
ATOM     16  C   UNL     1       8.128  25.598  43.081  1.00  0.00     0.000 C 
BRANCH  16  17
ATOM     17  C   UNL     1       9.430  26.369  43.348  1.00  0.00    -0.000 C 
BRANCH  17  18
ATOM     18  C   UNL     1      10.367  25.564  44.260  1.00  0.00    -0.000 C 
BRANCH  18  19
ATOM     19  C   UNL     1      11.675  26.307  44.568  1.00  0.00    -0.003 C 
ATOM     20  C   UNL     1      12.897  25.641  43.936  1.00  0.00     0.004 C 
ENDBRANCH  18  19
ENDBRANCH  17  18
ENDBRANCH  16  17
ENDBRANCH  15  16
ENDBRANCH  14  15
ENDBRANCH  13  14
ENDBRANCH   2  13
TORSDOF 15
ENDMDL
MODEL 4
REMARK VINA RESULT:     8.514      4.487      9.326
REMARK INTER + INTRA:          15.581
REMARK INTER:                  15.281
REMARK INTRA:                   0.299
REMARK UNBOUND:                -0.398
REMARK SMILES CCCCCCCCC=CCCCCCCCC(=O)[O-]
REMARK SMILES IDX 10 1 9 2 11 3 12 4 13 5 14 6 15 7 16 8 17 9 18 10 19 11
REMARK SMILES IDX 20 12 8 13 7 14 6 15 5 16 4 17 3 18 2 19 1 20
REMARK H PARENT
REMARK Flexibility Score: inf
ROOT
ATOM      1  C   UNL     1       4.351  23.534  42.970  1.00  0.00    -0.031 C 
ATOM      2  C   UNL     1       3.312  24.226  42.463  1.00  0.00    -0.031 C 
ENDROOT
BRANCH   1   3
ATOM      3  C   UNL     1       5.412  24.103  43.877  1.00  0.00     0.027 C 
BRANCH   3   4
ATOM      4  C   UNL     1       6.380  23.014  44.361  1.00  0.00     0.004 C 
BRANCH   4   5
ATOM      5  C   UNL     1       7.842  23.489  44.400  1.00  0.00     0.000 C 
BRANCH   5   6
ATOM      6  C   UNL     1       8.331  24.095  43.068  1.00  0.00     0.000 C 
BRANCH   6   7
ATOM      7  C   UNL     1       8.228  25.630  43.054  1.00  0.00     0.000 C 
BRANCH   7   8
ATOM      8  C   UNL     1       9.501  26.326  43.567  1.00  0.00     0.006 C 
BRANCH   8   9
ATOM      9  C   UNL     1      10.750  25.429  43.556  1.00  0.00     0.053 C 
BRANCH   9  10
ATOM     10  C   UNL     1      11.813  25.910  44.498  1.00  0.00     0.041 C 
ATOM     11  O   UNL     1      13.027  25.831  44.177  1.00  0.00    -0.550 OA
ATOM     12  O   UNL     1      11.460  26.480  45.717  1.00  0.00    -0.550 OA
ENDBRANCH   9  10
ENDBRANCH   8   9
ENDBRANCH   7   8
ENDBRANCH   6   7
ENDBRANCH   5   6
ENDBRANCH   4   5
ENDBRANCH   3   4
ENDBRANCH   1   3
BRANCH   2  13
ATOM     13  C   UNL     1       3.038  25.690  42.705  1.00  0.00     0.027 C 
BRANCH  13  14
ATOM     14  C   UNL     1       1.561  26.003  42.449  1.00  0.00     0.004 C 
BRANCH  14  15
ATOM     15  C   UNL     1       0.924  24.941  41.539  1.00  0.00     0.000 C 
BRANCH  15  16
ATOM     16  C   UNL     1       1.397  25.049  40.081  1.00  0.00     0.000 C 
BRANCH  16  17
ATOM     17  C   UNL     1       0.781  26.249  39.346  1.00  0.00    -0.000 C 
BRANCH  17  18
ATOM     18  C   UNL     1       0.709  27.478  40.266  1.00  0.00    -0.000 C 
BRANCH  18  19
ATOM     19  C   UNL     1      -0.201  28.582  39.708  1.00  0.00    -0.003 C 
ATOM     20  C   UNL     1      -0.555  28.369  38.236  1.00  0.00     0.004 C 
ENDBRANCH  18  19
ENDBRANCH  17  18
ENDBRANCH  16  17
ENDBRANCH  15  16
ENDBRANCH  14  15
ENDBRANCH  13  14
ENDBRANCH   2  13
TORSDOF 15
ENDMDL
MODEL 5
REMARK VINA RESULT:     8.785      1.815      2.095
REMARK INTER + INTRA:          16.090
REMARK INTER:                  16.908
REMARK INTRA:                  -0.818
REMARK UNBOUND:                -0.398
REMARK SMILES CCCCCCCCC=CCCCCCCCC(=O)[O-]
REMARK SMILES IDX 10 1 9 2 11 3 12 4 13 5 14 6 15 7 16 8 17 9 18 10 19 11
REMARK SMILES IDX 20 12 8 13 7 14 6 15 5 16 4 17 3 18 2 19 1 20
REMARK H PARENT
REMARK Flexibility Score: inf
ROOT
ATOM      1  C   UNL     1       4.162  24.302  43.086  1.00  0.00    -0.031 C 
ATOM      2  C   UNL     1       5.309  24.266  43.794  1.00  0.00    -0.031 C 
ENDROOT
BRANCH   1   3
ATOM      3  C   UNL     1       3.391  23.091  42.626  1.00  0.00     0.027 C 
BRANCH   3   4
ATOM      4  C   UNL     1       2.704  23.344  41.276  1.00  0.00     0.004 C 
BRANCH   4   5
ATOM      5  C   UNL     1       1.170  23.388  41.385  1.00  0.00     0.000 C 
BRANCH   5   6
ATOM      6  C   UNL     1       0.497  24.243  40.291  1.00  0.00     0.000 C 
BRANCH   6   7
ATOM      7  C   UNL     1       1.439  25.326  39.737  1.00  0.00     0.000 C 
BRANCH   7   8
ATOM      8  C   UNL     1       0.769  26.706  39.615  1.00  0.00     0.006 C 
BRANCH   8   9
ATOM      9  C   UNL     1       0.979  27.612  40.841  1.00  0.00     0.053 C 
BRANCH   9  10
ATOM     10  C   UNL     1       1.961  27.040  41.818  1.00  0.00     0.041 C 
ATOM     11  O   UNL     1       3.189  27.293  41.703  1.00  0.00    -0.550 OA
ATOM     12  O   UNL     1       1.517  26.256  42.877  1.00  0.00    -0.550 OA
ENDBRANCH   9  10
ENDBRANCH   8   9
ENDBRANCH   7   8
ENDBRANCH   6   7
ENDBRANCH   5   6
ENDBRANCH   4   5
ENDBRANCH   3   4
ENDBRANCH   1   3
BRANCH   2  13
ATOM     13  C   UNL     1       6.024  23.012  44.235  1.00  0.00     0.027 C 
BRANCH  13  14
ATOM     14  C   UNL     1       7.541  23.204  44.134  1.00  0.00     0.004 C 
BRANCH  14  15
ATOM     15  C   UNL     1       7.883  24.529  43.435  1.00  0.00     0.000 C 
BRANCH  15  16
ATOM     16  C   UNL     1       9.396  24.738  43.272  1.00  0.00     0.000 C 
BRANCH  16  17
ATOM     17  C   UNL     1       9.861  26.115  43.771  1.00  0.00    -0.000 C 
BRANCH  17  18
ATOM     18  C   UNL     1      10.915  25.969  44.879  1.00  0.00    -0.000 C 
BRANCH  18  19
ATOM     19  C   UNL     1      12.312  26.424  44.430  1.00  0.00    -0.003 C 
ATOM     20  C   UNL     1      13.125  25.298  43.791  1.00  0.00     0.004 C 
ENDBRANCH  18  19
ENDBRANCH  17  18
ENDBRANCH  16  17
ENDBRANCH  15  16
ENDBRANCH  14  15
ENDBRANCH  13  14
ENDBRANCH   2  13
TORSDOF 15
ENDMDL
MODEL 6
REMARK VINA RESULT:     9.072      1.211      2.499
REMARK INTER + INTRA:          16.628
REMARK INTER:                  16.787
REMARK INTRA:                  -0.159
REMARK UNBOUND:                -0.398
REMARK SMILES CCCCCCCCC=CCCCCCCCC(=O)[O-]
REMARK SMILES IDX 10 1 9 2 11 3 12 4 13 5 14 6 15 7 16 8 17 9 18 10 19 11
REMARK SMILES IDX 20 12 8 13 7 14 6 15 5 16 4 17 3 18 2 19 1 20
REMARK H PARENT
REMARK Flexibility Score: inf
ROOT
ATOM      1  C   UNL     1       6.629  23.286  44.506  1.00  0.00    -0.031 C 
ATOM      2  C   UNL     1       7.924  23.141  44.160  1.00  0.00    -0.031 C 
ENDROOT
BRANCH   1   3
ATOM      3  C   UNL     1       5.650  24.211  43.829  1.00  0.00     0.027 C 
BRANCH   3   4
ATOM      4  C   UNL     1       4.378  23.465  43.402  1.00  0.00     0.004 C 
BRANCH   4   5
ATOM      5  C   UNL     1       3.373  24.369  42.668  1.00  0.00     0.000 C 
BRANCH   5   6
ATOM      6  C   UNL     1       2.839  23.761  41.354  1.00  0.00     0.000 C 
BRANCH   6   7
ATOM      7  C   UNL     1       1.302  23.758  41.298  1.00  0.00     0.000 C 
BRANCH   7   8
ATOM      8  C   UNL     1       0.740  24.524  40.087  1.00  0.00     0.006 C 
BRANCH   8   9
ATOM      9  C   UNL     1       1.529  25.796  39.733  1.00  0.00     0.053 C 
BRANCH   9  10
ATOM     10  C   UNL     1       1.150  26.966  40.590  1.00  0.00     0.041 C 
ATOM     11  O   UNL     1       1.640  27.091  41.743  1.00  0.00    -0.550 OA
ATOM     12  O   UNL     1       0.284  27.938  40.103  1.00  0.00    -0.550 OA
ENDBRANCH   9  10
ENDBRANCH   8   9
ENDBRANCH   7   8
ENDBRANCH   6   7
ENDBRANCH   5   6
ENDBRANCH   4   5
ENDBRANCH   3   4
ENDBRANCH   1   3
BRANCH   2  13
ATOM     13  C   UNL     1       8.619  23.887  43.047  1.00  0.00     0.027 C 
BRANCH  13  14
ATOM     14  C   UNL     1       8.045  25.302  42.919  1.00  0.00     0.004 C 
BRANCH  14  15
ATOM     15  C   UNL     1       9.164  26.354  42.946  1.00  0.00     0.000 C 
BRANCH  15  16
ATOM     16  C   UNL     1       9.628  26.686  44.373  1.00  0.00     0.000 C 
BRANCH  16  17
ATOM     17  C   UNL     1      10.712  25.725  44.883  1.00  0.00    -0.000 C 
BRANCH  17  18
ATOM     18  C   UNL     1      12.000  26.486  45.233  1.00  0.00    -0.000 C 
BRANCH  18  19
ATOM     19  C   UNL     1      13.052  26.413  44.116  1.00  0.00    -0.003 C 
ATOM     20  C   UNL     1      13.124  25.033  43.461  1.00  0.00     0.004 C 
ENDBRANCH  18  19
ENDBRANCH  17  18
ENDBRANCH  16  17
ENDBRANCH  15  16
ENDBRANCH  14  15
ENDBRANCH  13  14
ENDBRANCH   2  13
TORSDOF 15
ENDMDL
MODEL 7
REMARK VINA RESULT:     9.095      3.650      8.723
REMARK INTER + INTRA:          16.672
REMARK INTER:                  16.531
REMARK INTRA:                   0.141
REMARK UNBOUND:                -0.398
REMARK SMILES CCCCCCCCC=CCCCCCCCC(=O)[O-]
REMARK SMILES IDX 10 1 9 2 11 3 12 4 13 5 14 6 15 7 16 8 17 9 18 10 19 11
REMARK SMILES IDX 20 12 8 13 7 14 6 15 5 16 4 17 3 18 2 19 1 20
REMARK H PARENT
REMARK Flexibility Score: inf
ROOT
ATOM      1  C   UNL     1       2.214  23.664  40.519  1.00  0.00    -0.031 C 
ATOM      2  C   UNL     1       1.214  24.566  40.457  1.00  0.00    -0.031 C 
ENDROOT
BRANCH   1   3
ATOM      3  C   UNL     1       2.786  23.092  41.791  1.00  0.00     0.027 C 
BRANCH   3   4
ATOM      4  C   UNL     1       3.701  24.102  42.498  1.00  0.00     0.004 C 
BRANCH   4   5
ATOM      5  C   UNL     1       4.504  23.475  43.651  1.00  0.00     0.000 C 
BRANCH   5   6
ATOM      6  C   UNL     1       5.853  24.176  43.917  1.00  0.00     0.000 C 
BRANCH   6   7
ATOM      7  C   UNL     1       6.889  23.227  44.542  1.00  0.00     0.000 C 
BRANCH   7   8
ATOM      8  C   UNL     1       8.309  23.428  43.984  1.00  0.00     0.006 C 
BRANCH   8   9
ATOM      9  C   UNL     1       8.395  24.476  42.862  1.00  0.00     0.053 C 
BRANCH   9  10
ATOM     10  C   UNL     1       9.095  25.728  43.297  1.00  0.00     0.041 C 
ATOM     11  O   UNL     1       8.559  26.851  43.110  1.00  0.00    -0.550 OA
ATOM     12  O   UNL     1      10.325  25.653  43.942  1.00  0.00    -0.550 OA
ENDBRANCH   9  10
ENDBRANCH   8   9
ENDBRANCH   7   8
ENDBRANCH   6   7
ENDBRANCH   5   6
ENDBRANCH   4   5
ENDBRANCH   3   4
ENDBRANCH   1   3
BRANCH   2  13
ATOM     13  C   UNL     1       0.506  25.167  41.646  1.00  0.00     0.027 C 
BRANCH  13  14
ATOM     14  C   UNL     1       1.471  26.049  42.447  1.00  0.00     0.004 C 
BRANCH  14  15
ATOM     15  C   UNL     1       2.062  27.159  41.564  1.00  0.00     0.000 C 
BRANCH  15  16
ATOM     16  C   UNL     1       1.171  27.492  40.356  1.00  0.00     0.000 C 
BRANCH  16  17
ATOM     17  C   UNL     1       0.436  28.831  40.514  1.00  0.00    -0.000 C 
BRANCH  17  18
ATOM     18  C   UNL     1      -0.693  28.961  39.479  1.00  0.00    -0.000 C 
BRANCH  18  19
ATOM     19  C   UNL     1      -0.607  27.898  38.374  1.00  0.00    -0.003 C 
ATOM     20  C   UNL     1      -0.387  28.502  36.987  1.00  0.00     0.004 C 
ENDBRANCH  18  19
ENDBRANCH  17  18
ENDBRANCH  16  17
ENDBRANCH  15  16
ENDBRANCH  14  15
ENDBRANCH  13  14
ENDBRANCH   2  13
TORSDOF 15
ENDMDL
MODEL 8
REMARK VINA RESULT:     9.334      1.040      2.078
REMARK INTER + INTRA:          17.121
REMARK INTER:                  17.713
REMARK INTRA:                  -0.591
REMARK UNBOUND:                -0.398
REMARK SMILES CCCCCCCCC=CCCCCCCCC(=O)[O-]
REMARK SMILES IDX 10 1 9 2 11 3 12 4 13 5 14 6 15 7 16 8 17 9 18 10 19 11
REMARK SMILES IDX 20 12 8 13 7 14 6 15 5 16 4 17 3 18 2 19 1 20
REMARK H PARENT
REMARK Flexibility Score: inf
ROOT
ATOM      1  C   UNL     1       5.783  23.646  44.233  1.00  0.00    -0.031 C 
ATOM      2  C   UNL     1       7.120  23.476  44.211  1.00  0.00    -0.031 C 
ENDROOT
BRANCH   1   3
ATOM      3  C   UNL     1       4.988  24.395  43.193  1.00  0.00     0.027 C 
BRANCH   3   4
ATOM      4  C   UNL     1       3.738  23.609  42.771  1.00  0.00     0.004 C 
BRANCH   4   5
ATOM      5  C   UNL     1       2.943  24.308  41.655  1.00  0.00     0.000 C 
BRANCH   5   6
ATOM      6  C   UNL     1       1.457  23.894  41.603  1.00  0.00     0.000 C 
BRANCH   6   7
ATOM      7  C   UNL     1       0.672  24.678  40.538  1.00  0.00     0.000 C 
BRANCH   7   8
ATOM      8  C   UNL     1       1.440  25.897  39.995  1.00  0.00     0.006 C 
BRANCH   8   9
ATOM      9  C   UNL     1       1.025  27.232  40.637  1.00  0.00     0.053 C 
BRANCH   9  10
ATOM     10  C   UNL     1       0.160  28.059  39.735  1.00  0.00     0.041 C 
ATOM     11  O   UNL     1      -0.357  27.547  38.708  1.00  0.00    -0.550 OA
ATOM     12  O   UNL     1      -0.106  29.388  40.048  1.00  0.00    -0.550 OA
ENDBRANCH   9  10
ENDBRANCH   8   9
ENDBRANCH   7   8
ENDBRANCH   6   7
ENDBRANCH   5   6
ENDBRANCH   4   5
ENDBRANCH   3   4
ENDBRANCH   1   3
BRANCH   2  13
ATOM     13  C   UNL     1       8.051  24.016  43.153  1.00  0.00     0.027 C 
BRANCH  13  14
ATOM     14  C   UNL     1       8.005  25.548  43.138  1.00  0.00     0.004 C 
BRANCH  14  15
ATOM     15  C   UNL     1       9.423  26.140  43.105  1.00  0.00     0.000 C 
BRANCH  15  16
ATOM     16  C   UNL     1      10.464  25.220  43.762  1.00  0.00     0.000 C 
BRANCH  16  17
ATOM     17  C   UNL     1      11.882  25.810  43.727  1.00  0.00    -0.000 C 
BRANCH  17  18
ATOM     18  C   UNL     1      12.358  26.176  45.141  1.00  0.00    -0.000 C 
BRANCH  18  19
ATOM     19  C   UNL     1      11.203  26.266  46.149  1.00  0.00    -0.003 C 
ATOM     20  C   UNL     1      11.503  25.538  47.460  1.00  0.00     0.004 C 
ENDBRANCH  18  19
ENDBRANCH  17  18
ENDBRANCH  16  17
ENDBRANCH  15  16
ENDBRANCH  14  15
ENDBRANCH  13  14
ENDBRANCH   2  13
TORSDOF 15
ENDMDL
MODEL 9
REMARK VINA RESULT:     9.464      5.429      8.219
REMARK INTER + INTRA:          17.364
REMARK INTER:                  18.411
REMARK INTRA:                  -1.047
REMARK UNBOUND:                -0.398
REMARK SMILES CCCCCCCCC=CCCCCCCCC(=O)[O-]
REMARK SMILES IDX 10 1 9 2 11 3 12 4 13 5 14 6 15 7 16 8 17 9 18 10 19 11
REMARK SMILES IDX 20 12 8 13 7 14 6 15 5 16 4 17 3 18 2 19 1 20
REMARK H PARENT
REMARK Flexibility Score: inf
ROOT
ATOM      1  C   UNL     1       2.093  23.381  41.207  1.00  0.00    -0.031 C 
ATOM      2  C   UNL     1       2.773  24.488  41.567  1.00  0.00    -0.031 C 
ENDROOT
BRANCH   1   3
ATOM      3  C   UNL     1       0.663  23.083  41.578  1.00  0.00     0.027 C 
BRANCH   3   4
ATOM      4  C   UNL     1      -0.285  23.324  40.395  1.00  0.00     0.004 C 
BRANCH   4   5
ATOM      5  C   UNL     1      -1.404  22.273  40.303  1.00  0.00     0.000 C 
BRANCH   5   6
ATOM      6  C   UNL     1      -1.665  21.771  38.867  1.00  0.00     0.000 C 
BRANCH   6   7
ATOM      7  C   UNL     1      -2.222  22.878  37.956  1.00  0.00     0.000 C 
BRANCH   7   8
ATOM      8  C   UNL     1      -3.720  22.707  37.644  1.00  0.00     0.006 C 
BRANCH   8   9
ATOM      9  C   UNL     1      -4.648  23.098  38.806  1.00  0.00     0.053 C 
BRANCH   9  10
ATOM     10  C   UNL     1      -6.091  23.137  38.402  1.00  0.00     0.041 C 
ATOM     11  O   UNL     1      -6.447  22.685  37.283  1.00  0.00    -0.550 OA
ATOM     12  O   UNL     1      -7.048  23.641  39.276  1.00  0.00    -0.550 OA
ENDBRANCH   9  10
ENDBRANCH   8   9
ENDBRANCH   7   8
ENDBRANCH   6   7
ENDBRANCH   5   6
ENDBRANCH   4   5
ENDBRANCH   3   4
ENDBRANCH   1   3
BRANCH   2  13
ATOM     13  C   UNL     1       2.225  25.611  42.414  1.00  0.00     0.027 C 
BRANCH  13  14
ATOM     14  C   UNL     1       1.681  26.731  41.521  1.00  0.00     0.004 C 
BRANCH  14  15
ATOM     15  C   UNL     1       1.662  26.298  40.046  1.00  0.00     0.000 C 
BRANCH  15  16
ATOM     16  C   UNL     1       0.362  26.697  39.330  1.00  0.00     0.000 C 
BRANCH  16  17
ATOM     17  C   UNL     1      -0.155  28.077  39.763  1.00  0.00    -0.000 C 
BRANCH  17  18
ATOM     18  C   UNL     1      -0.403  28.977  38.543  1.00  0.00    -0.000 C 
BRANCH  18  19
ATOM     19  C   UNL     1      -0.484  28.184  37.230  1.00  0.00    -0.003 C 
ATOM     20  C   UNL     1      -1.923  27.903  36.796  1.00  0.00     0.004 C 
ENDBRANCH  18  19
ENDBRANCH  17  18
ENDBRANCH  16  17
ENDBRANCH  15  16
ENDBRANCH  14  15
ENDBRANCH  13  14
ENDBRANCH   2  13
TORSDOF 15
ENDMDL
