MODEL 1
REMARK VINA RESULT:    -3.807      0.000      0.000
REMARK INTER + INTRA:          -4.046
REMARK INTER:                  -4.030
REMARK INTRA:                  -0.016
REMARK UNBOUND:                -0.016
REMARK SMILES O=C([O-])c1cccnc1
REMARK SMILES IDX 4 1 5 2 9 3 6 4 8 5 7 6 2 7 1 8 3 9
REMARK H PARENT
REMARK Flexibility Score: inf
ROOT
ATOM      1  C   UNL     1       9.328   6.770 -19.450  1.00  0.00     0.016 A 
ATOM      2  C   UNL     1      10.292   6.188 -18.611  1.00  0.00     0.013 A 
ATOM      3  C   UNL     1       9.598   6.844 -20.829  1.00  0.00     0.120 A 
ATOM      4  C   UNL     1      11.484   5.697 -19.148  1.00  0.00     0.021 A 
ATOM      5  N   UNL     1      10.767   6.359 -21.325  1.00  0.00    -0.264 NA
ATOM      6  C   UNL     1      11.706   5.793 -20.522  1.00  0.00     0.111 A 
ENDROOT
BRANCH   1   7
ATOM      7  C   UNL     1       8.062   7.293 -18.894  1.00  0.00     0.073 C 
ATOM      8  O   UNL     1       7.981   8.487 -18.498  1.00  0.00    -0.545 OA
ATOM      9  O   UNL     1       6.942   6.475 -18.799  1.00  0.00    -0.545 OA
ENDBRANCH   1   7
TORSDOF 1
ENDMDL
MODEL 2
REMARK VINA RESULT:    -3.730      1.748      2.761
REMARK INTER + INTRA:          -3.964
REMARK INTER:                  -3.946
REMARK INTRA:                  -0.018
REMARK UNBOUND:                -0.016
REMARK SMILES O=C([O-])c1cccnc1
REMARK SMILES IDX 4 1 5 2 9 3 6 4 8 5 7 6 2 7 1 8 3 9
REMARK H PARENT
REMARK Flexibility Score: inf
ROOT
ATOM      1  C   UNL     1       7.534   7.247 -19.309  1.00  0.00     0.016 A 
ATOM      2  C   UNL     1       7.251   7.255 -20.684  1.00  0.00     0.013 A 
ATOM      3  C   UNL     1       8.855   6.989 -18.899  1.00  0.00     0.120 A 
ATOM      4  C   UNL     1       8.267   7.013 -21.610  1.00  0.00     0.021 A 
ATOM      5  N   UNL     1       9.825   6.755 -19.822  1.00  0.00    -0.264 NA
ATOM      6  C   UNL     1       9.561   6.761 -21.155  1.00  0.00     0.111 A 
ENDROOT
BRANCH   1   7
ATOM      7  C   UNL     1       6.467   7.503 -18.318  1.00  0.00     0.073 C 
ATOM      8  O   UNL     1       5.471   6.735 -18.236  1.00  0.00    -0.545 OA
ATOM      9  O   UNL     1       6.547   8.596 -17.462  1.00  0.00    -0.545 OA
ENDBRANCH   1   7
TORSDOF 1
ENDMDL
MODEL 3
REMARK VINA RESULT:    -3.711      2.878      4.381
REMARK INTER + INTRA:          -3.944
REMARK INTER:                  -3.928
REMARK INTRA:                  -0.016
REMARK UNBOUND:                -0.016
REMARK SMILES O=C([O-])c1cccnc1
REMARK SMILES IDX 4 1 5 2 9 3 6 4 8 5 7 6 2 7 1 8 3 9
REMARK H PARENT
REMARK Flexibility Score: inf
ROOT
ATOM      1  C   UNL     1       7.907   7.281 -18.823  1.00  0.00     0.016 A 
ATOM      2  C   UNL     1       6.813   6.410 -18.693  1.00  0.00     0.013 A 
ATOM      3  C   UNL     1       7.714   8.645 -18.540  1.00  0.00     0.120 A 
ATOM      4  C   UNL     1       5.570   6.903 -18.288  1.00  0.00     0.021 A 
ATOM      5  N   UNL     1       6.493   9.097 -18.148  1.00  0.00    -0.264 NA
ATOM      6  C   UNL     1       5.428   8.263 -18.018  1.00  0.00     0.111 A 
ENDROOT
BRANCH   1   7
ATOM      7  C   UNL     1       9.228   6.772 -19.250  1.00  0.00     0.073 C 
ATOM      8  O   UNL     1       9.584   6.847 -20.457  1.00  0.00    -0.545 OA
ATOM      9  O   UNL     1      10.096   6.202 -18.326  1.00  0.00    -0.545 OA
ENDBRANCH   1   7
TORSDOF 1
ENDMDL
MODEL 4
REMARK VINA RESULT:    -3.688      3.582      4.513
REMARK INTER + INTRA:          -3.920
REMARK INTER:                  -3.904
REMARK INTRA:                  -0.016
REMARK UNBOUND:                -0.016
REMARK SMILES O=C([O-])c1cccnc1
REMARK SMILES IDX 4 1 5 2 9 3 6 4 8 5 7 6 2 7 1 8 3 9
REMARK H PARENT
REMARK Flexibility Score: inf
ROOT
ATOM      1  C   UNL     1       7.103   7.243 -20.271  1.00  0.00     0.016 A 
ATOM      2  C   UNL     1       6.732   6.390 -19.219  1.00  0.00     0.013 A 
ATOM      3  C   UNL     1       6.567   8.542 -20.301  1.00  0.00     0.120 A 
ATOM      4  C   UNL     1       5.851   6.839 -18.232  1.00  0.00     0.021 A 
ATOM      5  N   UNL     1       5.711   8.953 -19.328  1.00  0.00    -0.264 NA
ATOM      6  C   UNL     1       5.345   8.136 -18.305  1.00  0.00     0.111 A 
ENDROOT
BRANCH   1   7
ATOM      7  C   UNL     1       8.036   6.780 -21.321  1.00  0.00     0.073 C 
ATOM      8  O   UNL     1       9.265   7.049 -21.250  1.00  0.00    -0.545 OA
ATOM      9  O   UNL     1       7.569   6.041 -22.402  1.00  0.00    -0.545 OA
ENDBRANCH   1   7
TORSDOF 1
ENDMDL
MODEL 5
REMARK VINA RESULT:    -3.676     16.074     17.053
REMARK INTER + INTRA:          -3.907
REMARK INTER:                  -3.886
REMARK INTRA:                  -0.021
REMARK UNBOUND:                -0.016
REMARK SMILES O=C([O-])c1cccnc1
REMARK SMILES IDX 4 1 5 2 9 3 6 4 8 5 7 6 2 7 1 8 3 9
REMARK H PARENT
REMARK Flexibility Score: inf
ROOT
ATOM      1  C   UNL     1      18.691  -4.769 -10.976  1.00  0.00     0.016 A 
ATOM      2  C   UNL     1      19.498  -5.910 -10.842  1.00  0.00     0.013 A 
ATOM      3  C   UNL     1      18.826  -3.986 -12.137  1.00  0.00     0.120 A 
ATOM      4  C   UNL     1      20.407  -6.246 -11.847  1.00  0.00     0.021 A 
ATOM      5  N   UNL     1      19.720  -4.337 -13.100  1.00  0.00    -0.264 NA
ATOM      6  C   UNL     1      20.506  -5.439 -12.980  1.00  0.00     0.111 A 
ENDROOT
BRANCH   1   7
ATOM      7  C   UNL     1      17.723  -4.402  -9.920  1.00  0.00     0.073 C 
ATOM      8  O   UNL     1      16.633  -3.844 -10.216  1.00  0.00    -0.545 OA
ATOM      9  O   UNL     1      18.004  -4.667  -8.584  1.00  0.00    -0.545 OA
ENDBRANCH   1   7
TORSDOF 1
ENDMDL
MODEL 6
REMARK VINA RESULT:    -3.613     16.852     17.914
REMARK INTER + INTRA:          -3.840
REMARK INTER:                  -3.817
REMARK INTRA:                  -0.023
REMARK UNBOUND:                -0.016
REMARK SMILES O=C([O-])c1cccnc1
REMARK SMILES IDX 4 1 5 2 9 3 6 4 8 5 7 6 2 7 1 8 3 9
REMARK H PARENT
REMARK Flexibility Score: inf
ROOT
ATOM      1  C   UNL     1      19.451  -5.465 -11.816  1.00  0.00     0.016 A 
ATOM      2  C   UNL     1      20.412  -6.439 -11.500  1.00  0.00     0.013 A 
ATOM      3  C   UNL     1      18.473  -5.153 -10.855  1.00  0.00     0.120 A 
ATOM      4  C   UNL     1      20.384  -7.072 -10.256  1.00  0.00     0.021 A 
ATOM      5  N   UNL     1      18.470  -5.785  -9.651  1.00  0.00    -0.264 NA
ATOM      6  C   UNL     1      19.395  -6.729  -9.335  1.00  0.00     0.111 A 
ENDROOT
BRANCH   1   7
ATOM      7  C   UNL     1      19.469  -4.788 -13.130  1.00  0.00     0.073 C 
ATOM      8  O   UNL     1      20.031  -5.327 -14.121  1.00  0.00    -0.545 OA
ATOM      9  O   UNL     1      18.866  -3.546 -13.291  1.00  0.00    -0.545 OA
ENDBRANCH   1   7
TORSDOF 1
ENDMDL
MODEL 7
REMARK VINA RESULT:    -3.481      2.750      2.976
REMARK INTER + INTRA:          -3.701
REMARK INTER:                  -3.679
REMARK INTRA:                  -0.022
REMARK UNBOUND:                -0.016
REMARK SMILES O=C([O-])c1cccnc1
REMARK SMILES IDX 4 1 5 2 9 3 6 4 8 5 7 6 2 7 1 8 3 9
REMARK H PARENT
REMARK Flexibility Score: inf
ROOT
ATOM      1  C   UNL     1       7.691   7.805 -20.656  1.00  0.00     0.016 A 
ATOM      2  C   UNL     1       8.253   6.761 -21.409  1.00  0.00     0.013 A 
ATOM      3  C   UNL     1       8.060   9.126 -20.965  1.00  0.00     0.120 A 
ATOM      4  C   UNL     1       9.154   7.045 -22.438  1.00  0.00     0.021 A 
ATOM      5  N   UNL     1       8.940   9.375 -21.972  1.00  0.00    -0.264 NA
ATOM      6  C   UNL     1       9.489   8.372 -22.707  1.00  0.00     0.111 A 
ENDROOT
BRANCH   1   7
ATOM      7  C   UNL     1       6.736   7.517 -19.565  1.00  0.00     0.073 C 
ATOM      8  O   UNL     1       5.871   8.369 -19.230  1.00  0.00    -0.545 OA
ATOM      9  O   UNL     1       6.779   6.300 -18.894  1.00  0.00    -0.545 OA
ENDBRANCH   1   7
TORSDOF 1
ENDMDL
MODEL 8
REMARK VINA RESULT:    -3.480      3.690      4.612
REMARK INTER + INTRA:          -3.700
REMARK INTER:                  -3.679
REMARK INTRA:                  -0.021
REMARK UNBOUND:                -0.016
REMARK SMILES O=C([O-])c1cccnc1
REMARK SMILES IDX 4 1 5 2 9 3 6 4 8 5 7 6 2 7 1 8 3 9
REMARK H PARENT
REMARK Flexibility Score: inf
ROOT
ATOM      1  C   UNL     1       5.206   8.437 -18.753  1.00  0.00     0.016 A 
ATOM      2  C   UNL     1       5.507   7.195 -18.171  1.00  0.00     0.013 A 
ATOM      3  C   UNL     1       6.012   8.894 -19.811  1.00  0.00     0.120 A 
ATOM      4  C   UNL     1       6.583   6.442 -18.645  1.00  0.00     0.021 A 
ATOM      5  N   UNL     1       7.054   8.140 -20.252  1.00  0.00    -0.264 NA
ATOM      6  C   UNL     1       7.354   6.937 -19.697  1.00  0.00     0.111 A 
ENDROOT
BRANCH   1   7
ATOM      7  C   UNL     1       4.068   9.244 -18.261  1.00  0.00     0.073 C 
ATOM      8  O   UNL     1       3.392   9.950 -19.056  1.00  0.00    -0.545 OA
ATOM      9  O   UNL     1       3.729   9.234 -16.913  1.00  0.00    -0.545 OA
ENDBRANCH   1   7
TORSDOF 1
ENDMDL
MODEL 9
REMARK VINA RESULT:    -3.466      3.011      4.056
REMARK INTER + INTRA:          -3.685
REMARK INTER:                  -3.665
REMARK INTRA:                  -0.019
REMARK UNBOUND:                -0.016
REMARK SMILES O=C([O-])c1cccnc1
REMARK SMILES IDX 4 1 5 2 9 3 6 4 8 5 7 6 2 7 1 8 3 9
REMARK H PARENT
REMARK Flexibility Score: inf
ROOT
ATOM      1  C   UNL     1       9.948   6.663 -20.808  1.00  0.00     0.016 A 
ATOM      2  C   UNL     1       8.978   6.723 -21.821  1.00  0.00     0.013 A 
ATOM      3  C   UNL     1       9.528   6.776 -19.471  1.00  0.00     0.120 A 
ATOM      4  C   UNL     1       7.632   6.891 -21.492  1.00  0.00     0.021 A 
ATOM      5  N   UNL     1       8.210   6.939 -19.178  1.00  0.00    -0.264 NA
ATOM      6  C   UNL     1       7.263   6.999 -20.151  1.00  0.00     0.111 A 
ENDROOT
BRANCH   1   7
ATOM      7  C   UNL     1      11.378   6.485 -21.143  1.00  0.00     0.073 C 
ATOM      8  O   UNL     1      11.925   7.208 -22.018  1.00  0.00    -0.545 OA
ATOM      9  O   UNL     1      12.138   5.516 -20.499  1.00  0.00    -0.545 OA
ENDBRANCH   1   7
TORSDOF 1
ENDMDL
