MODEL 1
REMARK VINA RESULT:    -3.579      0.000      0.000
REMARK INTER + INTRA:          -4.728
REMARK INTER:                  -5.044
REMARK INTRA:                   0.315
REMARK UNBOUND:                 0.315
REMARK SMILES CC1=CCC(=C(C)C)C(=O)CC(C)=CCC1
REMARK SMILES IDX 12 1 14 2 13 3 15 4 16 5 2 6 1 7 3 8 11 10 9 11 10 12 5 13
REMARK SMILES IDX 6 14 7 15 8 16 4 17
REMARK H PARENT
REMARK Flexibility Score: 60.00
ROOT
ATOM      1  C   UNL     1      25.297  28.910  28.988  1.00  0.00    -0.070 C 
ATOM      2  C   UNL     1      25.343  29.941  29.863  1.00  0.00    -0.027 C 
ATOM      3  C   UNL     1      26.313  28.897  27.872  1.00  0.00     0.039 C 
ENDROOT
BRANCH   2   4
ATOM      4  C   UNL     1      24.499  30.100  31.104  1.00  0.00     0.032 C 
BRANCH   4   5
ATOM      5  C   UNL     1      23.108  30.688  30.803  1.00  0.00     0.034 C 
BRANCH   5   6
ATOM      6  C   UNL     1      21.990  29.839  31.379  1.00  0.00    -0.077 C 
ATOM      7  C   UNL     1      21.861  29.749  32.879  1.00  0.00     0.039 C 
ATOM      8  C   UNL     1      21.116  29.136  30.625  1.00  0.00    -0.023 CG0
ATOM      9  G   UNL     1      21.107  29.072  29.116  1.00  0.00     0.000 G0
ENDBRANCH   5   6
ENDBRANCH   4   5
ENDBRANCH   2   4
BRANCH   1  10
ATOM     10  C   UNL     1      24.330  27.743  29.108  1.00  0.00     0.111 C 
BRANCH  10  11
ATOM     11  C   UNL     1      23.169  27.884  28.156  1.00  0.00     0.163 C 
ATOM     12  O   UNL     1      23.420  28.137  26.946  1.00  0.00    -0.294 OA
BRANCH  11  13
ATOM     13  C   UNL     1      21.748  27.785  28.618  1.00  0.00    -0.002 C 
ATOM     14  C   UNL     1      21.091  26.588  28.670  1.00  0.00    -0.069 C 
ATOM     15  C   UNL     1      19.644  26.502  29.103  1.00  0.00     0.039 C 
ATOM     16  C   UNL     1      21.785  25.287  28.334  1.00  0.00     0.039 C 
BRANCH  13  17
ATOM     17  C   UNL     1      21.090  29.066  29.099  1.00  0.00     0.066 CG0
ATOM     18  G   UNL     1      21.124  29.123  30.608  1.00  0.00     0.000 G0
ENDBRANCH  13  17
ENDBRANCH  11  13
ENDBRANCH  10  11
ENDBRANCH   1  10
TORSDOF 0
ENDMDL
MODEL 2
REMARK VINA RESULT:    -3.571      2.827      5.762
REMARK INTER + INTRA:          -4.718
REMARK INTER:                  -5.109
REMARK INTRA:                   0.391
REMARK UNBOUND:                 0.315
REMARK SMILES CC1=CCC(=C(C)C)C(=O)CC(C)=CCC1
REMARK SMILES IDX 12 1 14 2 13 3 15 4 16 5 2 6 1 7 3 8 11 10 9 11 10 12 5 13
REMARK SMILES IDX 6 14 7 15 8 16 4 17
REMARK H PARENT
REMARK Flexibility Score: 60.00
ROOT
ATOM      1  C   UNL     1      17.909  26.107  27.615  1.00  0.00    -0.070 C 
ATOM      2  C   UNL     1      18.928  25.226  27.479  1.00  0.00    -0.027 C 
ATOM      3  C   UNL     1      16.509  25.545  27.686  1.00  0.00     0.039 C 
ENDROOT
BRANCH   2   4
ATOM      4  C   UNL     1      20.401  25.555  27.493  1.00  0.00     0.032 C 
BRANCH   4   5
ATOM      5  C   UNL     1      20.946  25.775  28.917  1.00  0.00     0.034 C 
BRANCH   5   6
ATOM      6  C   UNL     1      21.764  27.048  29.026  1.00  0.00    -0.077 C 
ATOM      7  C   UNL     1      23.074  27.122  28.283  1.00  0.00     0.039 C 
ATOM      8  C   UNL     1      21.398  28.113  29.773  1.00  0.00    -0.023 CG0
ATOM      9  G   UNL     1      20.146  28.214  30.612  1.00  0.00     0.000 G0
ENDBRANCH   5   6
ENDBRANCH   4   5
ENDBRANCH   2   4
BRANCH   1  10
ATOM     10  C   UNL     1      18.102  27.606  27.767  1.00  0.00     0.111 C 
BRANCH  10  11
ATOM     11  C   UNL     1      18.019  28.033  29.211  1.00  0.00     0.163 C 
ATOM     12  O   UNL     1      17.015  27.668  29.881  1.00  0.00    -0.294 OA
BRANCH  11  13
ATOM     13  C   UNL     1      19.057  28.910  29.839  1.00  0.00    -0.002 C 
ATOM     14  C   UNL     1      18.981  30.273  29.775  1.00  0.00    -0.069 C 
ATOM     15  C   UNL     1      20.053  31.152  30.381  1.00  0.00     0.039 C 
ATOM     16  C   UNL     1      17.806  30.973  29.129  1.00  0.00     0.039 C 
BRANCH  13  17
ATOM     17  C   UNL     1      20.162  28.219  30.619  1.00  0.00     0.066 CG0
ATOM     18  G   UNL     1      21.400  28.111  29.762  1.00  0.00     0.000 G0
ENDBRANCH  13  17
ENDBRANCH  11  13
ENDBRANCH  10  11
ENDBRANCH   1  10
TORSDOF 0
ENDMDL
MODEL 3
REMARK VINA RESULT:    -3.548      3.886      7.601
REMARK INTER + INTRA:          -4.685
REMARK INTER:                  -5.193
REMARK INTRA:                   0.507
REMARK UNBOUND:                 0.315
REMARK SMILES CC1=CCC(=C(C)C)C(=O)CC(C)=CCC1
REMARK SMILES IDX 12 1 14 2 13 3 15 4 16 5 2 6 1 7 3 8 11 10 9 11 10 12 5 13
REMARK SMILES IDX 6 14 7 15 8 16 4 17
REMARK H PARENT
REMARK Flexibility Score: 60.00
ROOT
ATOM      1  C   UNL     1      16.454  23.980  27.177  1.00  0.00    -0.070 C 
ATOM      2  C   UNL     1      16.971  22.888  26.569  1.00  0.00    -0.027 C 
ATOM      3  C   UNL     1      15.226  23.784  28.033  1.00  0.00     0.039 C 
ENDROOT
BRANCH   2   4
ATOM      4  C   UNL     1      18.244  22.834  25.759  1.00  0.00     0.032 C 
BRANCH   4   5
ATOM      5  C   UNL     1      19.508  22.857  26.639  1.00  0.00     0.034 C 
BRANCH   5   6
ATOM      6  C   UNL     1      20.445  23.989  26.264  1.00  0.00    -0.077 C 
ATOM      7  C   UNL     1      21.104  23.953  24.908  1.00  0.00     0.039 C 
ATOM      8  C   UNL     1      20.745  25.019  27.086  1.00  0.00    -0.023 CG0
ATOM      9  G   UNL     1      20.216  25.211  28.488  1.00  0.00     0.000 G0
ENDBRANCH   5   6
ENDBRANCH   4   5
ENDBRANCH   2   4
BRANCH   1  10
ATOM     10  C   UNL     1      17.076  25.365  27.101  1.00  0.00     0.111 C 
BRANCH  10  11
ATOM     11  C   UNL     1      17.707  25.763  28.411  1.00  0.00     0.163 C 
ATOM     12  O   UNL     1      16.998  25.707  29.453  1.00  0.00    -0.294 OA
BRANCH  11  13
ATOM     13  C   UNL     1      19.115  26.266  28.493  1.00  0.00    -0.002 C 
ATOM     14  C   UNL     1      19.396  27.597  28.624  1.00  0.00    -0.069 C 
ATOM     15  C   UNL     1      20.823  28.100  28.669  1.00  0.00     0.039 C 
ATOM     16  C   UNL     1      18.300  28.629  28.768  1.00  0.00     0.039 C 
BRANCH  13  17
ATOM     17  C   UNL     1      20.219  25.224  28.499  1.00  0.00     0.066 CG0
ATOM     18  G   UNL     1      20.732  25.013  27.095  1.00  0.00     0.000 G0
ENDBRANCH  13  17
ENDBRANCH  11  13
ENDBRANCH  10  11
ENDBRANCH   1  10
TORSDOF 0
ENDMDL
MODEL 4
REMARK VINA RESULT:    -3.498      2.730      5.048
REMARK INTER + INTRA:          -4.615
REMARK INTER:                  -5.114
REMARK INTRA:                   0.500
REMARK UNBOUND:                 0.315
REMARK SMILES CC1=CCC(=C(C)C)C(=O)CC(C)=CCC1
REMARK SMILES IDX 12 1 14 2 13 3 15 4 16 5 2 6 1 7 3 8 11 10 9 11 10 12 5 13
REMARK SMILES IDX 6 14 7 15 8 16 4 17
REMARK H PARENT
REMARK Flexibility Score: 60.00
ROOT
ATOM      1  C   UNL     1      19.814  24.792  27.772  1.00  0.00    -0.070 C 
ATOM      2  C   UNL     1      21.117  25.157  27.745  1.00  0.00    -0.027 C 
ATOM      3  C   UNL     1      19.360  23.760  26.768  1.00  0.00     0.039 C 
ENDROOT
BRANCH   2   4
ATOM      4  C   UNL     1      21.806  26.086  28.715  1.00  0.00     0.032 C 
BRANCH   4   5
ATOM      5  C   UNL     1      21.816  27.548  28.231  1.00  0.00     0.034 C 
BRANCH   5   6
ATOM      6  C   UNL     1      21.189  28.490  29.241  1.00  0.00    -0.077 C 
ATOM      7  C   UNL     1      22.007  28.901  30.440  1.00  0.00     0.039 C 
ATOM      8  C   UNL     1      19.927  28.965  29.142  1.00  0.00    -0.023 CG0
ATOM      9  G   UNL     1      18.947  28.641  28.040  1.00  0.00     0.000 G0
ENDBRANCH   5   6
ENDBRANCH   4   5
ENDBRANCH   2   4
BRANCH   1  10
ATOM     10  C   UNL     1      18.812  25.309  28.790  1.00  0.00     0.111 C 
BRANCH  10  11
ATOM     11  C   UNL     1      17.858  26.302  28.175  1.00  0.00     0.163 C 
ATOM     12  O   UNL     1      17.092  25.900  27.258  1.00  0.00    -0.294 OA
BRANCH  11  13
ATOM     13  C   UNL     1      17.838  27.742  28.585  1.00  0.00    -0.002 C 
ATOM     14  C   UNL     1      16.905  28.228  29.458  1.00  0.00    -0.069 C 
ATOM     15  C   UNL     1      16.869  29.692  29.838  1.00  0.00     0.039 C 
ATOM     16  C   UNL     1      15.886  27.323  30.115  1.00  0.00     0.039 C 
BRANCH  13  17
ATOM     17  C   UNL     1      18.948  28.627  28.047  1.00  0.00     0.066 CG0
ATOM     18  G   UNL     1      19.925  28.952  29.152  1.00  0.00     0.000 G0
ENDBRANCH  13  17
ENDBRANCH  11  13
ENDBRANCH  10  11
ENDBRANCH   1  10
TORSDOF 0
ENDMDL
MODEL 5
REMARK VINA RESULT:    -3.420      2.328      5.382
REMARK INTER + INTRA:          -4.504
REMARK INTER:                  -5.215
REMARK INTRA:                   0.711
REMARK UNBOUND:                 0.315
REMARK SMILES CC1=CCC(=C(C)C)C(=O)CC(C)=CCC1
REMARK SMILES IDX 12 1 14 2 13 3 15 4 16 5 2 6 1 7 3 8 11 10 9 11 10 12 5 13
REMARK SMILES IDX 6 14 7 15 8 16 4 17
REMARK H PARENT
REMARK Flexibility Score: 60.00
ROOT
ATOM      1  C   UNL     1      19.826  24.998  27.639  1.00  0.00    -0.070 C 
ATOM      2  C   UNL     1      18.525  24.757  27.356  1.00  0.00    -0.027 C 
ATOM      3  C   UNL     1      20.847  24.612  26.596  1.00  0.00     0.039 C 
ENDROOT
BRANCH   2   4
ATOM      4  C   UNL     1      17.338  25.154  28.201  1.00  0.00     0.032 C 
BRANCH   4   5
ATOM      5  C   UNL     1      16.826  26.570  27.876  1.00  0.00     0.034 C 
BRANCH   5   6
ATOM      6  C   UNL     1      16.958  27.511  29.058  1.00  0.00    -0.077 C 
ATOM      7  C   UNL     1      15.897  27.467  30.129  1.00  0.00     0.039 C 
ATOM      8  C   UNL     1      17.960  28.408  29.196  1.00  0.00    -0.023 CG0
ATOM      9  G   UNL     1      19.090  28.625  28.218  1.00  0.00     0.000 G0
ENDBRANCH   5   6
ENDBRANCH   4   5
ENDBRANCH   2   4
BRANCH   1  10
ATOM     10  C   UNL     1      20.302  25.691  28.905  1.00  0.00     0.111 C 
BRANCH  10  11
ATOM     11  C   UNL     1      21.026  26.977  28.596  1.00  0.00     0.163 C 
ATOM     12  O   UNL     1      22.190  26.902  28.115  1.00  0.00    -0.294 OA
BRANCH  11  13
ATOM     13  C   UNL     1      20.426  28.316  28.891  1.00  0.00    -0.002 C 
ATOM     14  C   UNL     1      21.067  29.234  29.674  1.00  0.00    -0.069 C 
ATOM     15  C   UNL     1      20.437  30.571  29.999  1.00  0.00     0.039 C 
ATOM     16  C   UNL     1      22.452  28.978  30.225  1.00  0.00     0.039 C 
BRANCH  13  17
ATOM     17  C   UNL     1      19.103  28.641  28.221  1.00  0.00     0.066 CG0
ATOM     18  G   UNL     1      17.968  28.409  29.190  1.00  0.00     0.000 G0
ENDBRANCH  13  17
ENDBRANCH  11  13
ENDBRANCH  10  11
ENDBRANCH   1  10
TORSDOF 0
ENDMDL
MODEL 6
REMARK VINA RESULT:    -3.370      5.571      7.677
REMARK INTER + INTRA:          -4.433
REMARK INTER:                  -5.044
REMARK INTRA:                   0.611
REMARK UNBOUND:                 0.315
REMARK SMILES CC1=CCC(=C(C)C)C(=O)CC(C)=CCC1
REMARK SMILES IDX 12 1 14 2 13 3 15 4 16 5 2 6 1 7 3 8 11 10 9 11 10 12 5 13
REMARK SMILES IDX 6 14 7 15 8 16 4 17
REMARK H PARENT
REMARK Flexibility Score: 60.00
ROOT
ATOM      1  C   UNL     1      17.878  25.736  27.791  1.00  0.00    -0.070 C 
ATOM      2  C   UNL     1      16.817  24.905  27.670  1.00  0.00    -0.027 C 
ATOM      3  C   UNL     1      19.244  25.107  27.921  1.00  0.00     0.039 C 
ENDROOT
BRANCH   2   4
ATOM      4  C   UNL     1      15.385  25.314  27.425  1.00  0.00     0.032 C 
BRANCH   4   5
ATOM      5  C   UNL     1      14.427  24.804  28.518  1.00  0.00     0.034 C 
BRANCH   5   6
ATOM      6  C   UNL     1      14.871  25.220  29.908  1.00  0.00    -0.077 C 
ATOM      7  C   UNL     1      15.040  24.148  30.955  1.00  0.00     0.039 C 
ATOM      8  C   UNL     1      15.101  26.502  30.270  1.00  0.00    -0.023 CG0
ATOM      9  G   UNL     1      14.952  27.711  29.378  1.00  0.00     0.000 G0
ENDBRANCH   5   6
ENDBRANCH   4   5
ENDBRANCH   2   4
BRANCH   1  10
ATOM     10  C   UNL     1      17.776  27.252  27.734  1.00  0.00     0.111 C 
BRANCH  10  11
ATOM     11  C   UNL     1      17.508  27.841  29.096  1.00  0.00     0.163 C 
ATOM     12  O   UNL     1      18.383  27.688  29.992  1.00  0.00    -0.294 OA
BRANCH  11  13
ATOM     13  C   UNL     1      16.227  28.546  29.417  1.00  0.00    -0.002 C 
ATOM     14  C   UNL     1      16.188  29.889  29.667  1.00  0.00    -0.069 C 
ATOM     15  C   UNL     1      14.895  30.587  30.027  1.00  0.00     0.039 C 
ATOM     16  C   UNL     1      17.426  30.752  29.559  1.00  0.00     0.039 C 
BRANCH  13  17
ATOM     17  C   UNL     1      14.957  27.715  29.381  1.00  0.00     0.066 CG0
ATOM     18  G   UNL     1      15.108  26.510  30.278  1.00  0.00     0.000 G0
ENDBRANCH  13  17
ENDBRANCH  11  13
ENDBRANCH  10  11
ENDBRANCH   1  10
TORSDOF 0
ENDMDL
MODEL 7
REMARK VINA RESULT:    -3.368      4.086      6.015
REMARK INTER + INTRA:          -4.431
REMARK INTER:                  -4.818
REMARK INTRA:                   0.387
REMARK UNBOUND:                 0.315
REMARK SMILES CC1=CCC(=C(C)C)C(=O)CC(C)=CCC1
REMARK SMILES IDX 12 1 14 2 13 3 15 4 16 5 2 6 1 7 3 8 11 10 9 11 10 12 5 13
REMARK SMILES IDX 6 14 7 15 8 16 4 17
REMARK H PARENT
REMARK Flexibility Score: 60.00
ROOT
ATOM      1  C   UNL     1      20.576  30.628  30.168  1.00  0.00    -0.070 C 
ATOM      2  C   UNL     1      21.119  29.407  29.957  1.00  0.00    -0.027 C 
ATOM      3  C   UNL     1      21.364  31.605  31.007  1.00  0.00     0.039 C 
ENDROOT
BRANCH   2   4
ATOM      4  C   UNL     1      20.560  28.321  29.070  1.00  0.00     0.032 C 
BRANCH   4   5
ATOM      5  C   UNL     1      19.380  27.574  29.720  1.00  0.00     0.034 C 
BRANCH   5   6
ATOM      6  C   UNL     1      18.126  27.635  28.868  1.00  0.00    -0.077 C 
ATOM      7  C   UNL     1      18.157  26.996  27.503  1.00  0.00     0.039 C 
ATOM      8  C   UNL     1      16.986  28.252  29.253  1.00  0.00    -0.023 CG0
ATOM      9  G   UNL     1      16.773  28.975  30.562  1.00  0.00     0.000 G0
ENDBRANCH   5   6
ENDBRANCH   4   5
ENDBRANCH   2   4
BRANCH   1  10
ATOM     10  C   UNL     1      19.262  31.086  29.557  1.00  0.00     0.111 C 
BRANCH  10  11
ATOM     11  C   UNL     1      18.158  31.134  30.584  1.00  0.00     0.163 C 
ATOM     12  O   UNL     1      18.395  31.705  31.683  1.00  0.00    -0.294 OA
BRANCH  11  13
ATOM     13  C   UNL     1      16.830  30.483  30.352  1.00  0.00    -0.002 C 
ATOM     14  C   UNL     1      15.753  31.191  29.898  1.00  0.00    -0.069 C 
ATOM     15  C   UNL     1      14.404  30.533  29.702  1.00  0.00     0.039 C 
ATOM     16  C   UNL     1      15.861  32.654  29.533  1.00  0.00     0.039 C 
BRANCH  13  17
ATOM     17  C   UNL     1      16.750  28.983  30.574  1.00  0.00     0.066 CG0
ATOM     18  G   UNL     1      16.987  28.261  29.269  1.00  0.00     0.000 G0
ENDBRANCH  13  17
ENDBRANCH  11  13
ENDBRANCH  10  11
ENDBRANCH   1  10
TORSDOF 0
ENDMDL
MODEL 8
REMARK VINA RESULT:    -3.314      3.504      5.596
REMARK INTER + INTRA:          -4.355
REMARK INTER:                  -4.775
REMARK INTRA:                   0.421
REMARK UNBOUND:                 0.315
REMARK SMILES CC1=CCC(=C(C)C)C(=O)CC(C)=CCC1
REMARK SMILES IDX 12 1 14 2 13 3 15 4 16 5 2 6 1 7 3 8 11 10 9 11 10 12 5 13
REMARK SMILES IDX 6 14 7 15 8 16 4 17
REMARK H PARENT
REMARK Flexibility Score: 60.00
ROOT
ATOM      1  C   UNL     1      19.105  28.448  28.336  1.00  0.00    -0.070 C 
ATOM      2  C   UNL     1      20.294  27.931  28.726  1.00  0.00    -0.027 C 
ATOM      3  C   UNL     1      18.044  27.480  27.872  1.00  0.00     0.039 C 
ENDROOT
BRANCH   2   4
ATOM      4  C   UNL     1      21.450  28.697  29.321  1.00  0.00     0.032 C 
BRANCH   4   5
ATOM      5  C   UNL     1      21.200  29.107  30.784  1.00  0.00     0.034 C 
BRANCH   5   6
ATOM      6  C   UNL     1      21.423  30.591  31.009  1.00  0.00    -0.077 C 
ATOM      7  C   UNL     1      22.809  31.146  30.792  1.00  0.00     0.039 C 
ATOM      8  C   UNL     1      20.457  31.442  31.418  1.00  0.00    -0.023 CG0
ATOM      9  G   UNL     1      19.024  31.070  31.720  1.00  0.00     0.000 G0
ENDBRANCH   5   6
ENDBRANCH   4   5
ENDBRANCH   2   4
BRANCH   1  10
ATOM     10  C   UNL     1      18.763  29.927  28.406  1.00  0.00     0.111 C 
BRANCH  10  11
ATOM     11  C   UNL     1      17.856  30.233  29.571  1.00  0.00     0.163 C 
ATOM     12  O   UNL     1      16.815  29.534  29.712  1.00  0.00    -0.294 OA
BRANCH  11  13
ATOM     13  C   UNL     1      18.130  31.361  30.515  1.00  0.00    -0.002 C 
ATOM     14  C   UNL     1      17.565  32.594  30.345  1.00  0.00    -0.069 C 
ATOM     15  C   UNL     1      17.877  33.740  31.283  1.00  0.00     0.039 C 
ATOM     16  C   UNL     1      16.574  32.867  29.236  1.00  0.00     0.039 C 
BRANCH  13  17
ATOM     17  C   UNL     1      19.007  31.056  31.717  1.00  0.00     0.066 CG0
ATOM     18  G   UNL     1      20.438  31.427  31.413  1.00  0.00     0.000 G0
ENDBRANCH  13  17
ENDBRANCH  11  13
ENDBRANCH  10  11
ENDBRANCH   1  10
TORSDOF 0
ENDMDL
MODEL 9
REMARK VINA RESULT:    -3.224      7.390     10.109
REMARK INTER + INTRA:          -4.229
REMARK INTER:                  -4.796
REMARK INTRA:                   0.568
REMARK UNBOUND:                 0.315
REMARK SMILES CC1=CCC(=C(C)C)C(=O)CC(C)=CCC1
REMARK SMILES IDX 12 1 14 2 13 3 15 4 16 5 2 6 1 7 3 8 11 10 9 11 10 12 5 13
REMARK SMILES IDX 6 14 7 15 8 16 4 17
REMARK H PARENT
REMARK Flexibility Score: 60.00
ROOT
ATOM      1  C   UNL     1      28.854  31.302  30.183  1.00  0.00    -0.070 C 
ATOM      2  C   UNL     1      28.765  31.921  31.383  1.00  0.00    -0.027 C 
ATOM      3  C   UNL     1      27.577  31.115  29.400  1.00  0.00     0.039 C 
ENDROOT
BRANCH   2   4
ATOM      4  C   UNL     1      29.917  32.304  32.279  1.00  0.00     0.032 C 
BRANCH   4   5
ATOM      5  C   UNL     1      30.563  33.642  31.875  1.00  0.00     0.034 C 
BRANCH   5   6
ATOM      6  C   UNL     1      32.047  33.500  31.593  1.00  0.00    -0.077 C 
ATOM      7  C   UNL     1      32.981  33.305  32.761  1.00  0.00     0.039 C 
ATOM      8  C   UNL     1      32.586  33.563  30.355  1.00  0.00    -0.023 CG0
ATOM      9  G   UNL     1      31.822  33.787  29.072  1.00  0.00     0.000 G0
ENDBRANCH   5   6
ENDBRANCH   4   5
ENDBRANCH   2   4
BRANCH   1  10
ATOM     10  C   UNL     1      30.165  30.853  29.558  1.00  0.00     0.111 C 
BRANCH  10  11
ATOM     11  C   UNL     1      30.516  31.682  28.348  1.00  0.00     0.163 C 
ATOM     12  O   UNL     1      29.731  31.653  27.361  1.00  0.00    -0.294 OA
BRANCH  11  13
ATOM     13  C   UNL     1      31.779  32.481  28.273  1.00  0.00    -0.002 C 
ATOM     14  C   UNL     1      32.825  32.100  27.480  1.00  0.00    -0.069 C 
ATOM     15  C   UNL     1      34.113  32.894  27.438  1.00  0.00     0.039 C 
ATOM     16  C   UNL     1      32.736  30.890  26.577  1.00  0.00     0.039 C 
BRANCH  13  17
ATOM     17  C   UNL     1      31.822  33.778  29.062  1.00  0.00     0.066 CG0
ATOM     18  G   UNL     1      32.571  33.565  30.356  1.00  0.00     0.000 G0
ENDBRANCH  13  17
ENDBRANCH  11  13
ENDBRANCH  10  11
ENDBRANCH   1  10
TORSDOF 0
ENDMDL
