MODEL 1
REMARK VINA RESULT:    -3.949      0.000      0.000
REMARK INTER + INTRA:          -4.864
REMARK INTER:                  -4.526
REMARK INTRA:                  -0.338
REMARK UNBOUND:                -0.338
REMARK SMILES COC(=O)c1ccccc1O
REMARK SMILES IDX 5 1 6 2 7 3 8 4 9 5 10 6 3 7 4 8 2 9 1 10 11 11
REMARK H PARENT 11 12
REMARK Flexibility Score: inf
ROOT
ATOM      1  C   UNL     1     169.279 186.446  31.639  1.00  0.00     0.101 A 
ATOM      2  C   UNL     1     169.516 187.095  32.865  1.00  0.00     0.019 A 
ATOM      3  C   UNL     1     170.689 186.855  33.584  1.00  0.00     0.001 A 
ATOM      4  C   UNL     1     171.642 185.965  33.089  1.00  0.00     0.004 A 
ATOM      5  C   UNL     1     171.433 185.327  31.866  1.00  0.00     0.047 A 
ATOM      6  C   UNL     1     170.272 185.573  31.122  1.00  0.00     0.130 A 
ENDROOT
BRANCH   1   7
ATOM      7  C   UNL     1     167.986 186.681  30.961  1.00  0.00     0.341 C 
ATOM      8  O   UNL     1     167.588 187.855  30.730  1.00  0.00    -0.246 OA
BRANCH   7   9
ATOM      9  O   UNL     1     167.233 185.586  30.521  1.00  0.00    -0.465 OA
ATOM     10  C   UNL     1     166.568 184.702  31.416  1.00  0.00     0.282 C 
ENDBRANCH   7   9
ENDBRANCH   1   7
BRANCH   6  11
ATOM     11  O   UNL     1     170.161 184.963  29.871  1.00  0.00    -0.507 OA
ATOM     12  H   UNL     1     170.944 184.558  29.377  1.00  0.00     0.293 HD
ENDBRANCH   6  11
TORSDOF 3
ENDMDL
MODEL 2
REMARK VINA RESULT:    -3.743      3.423      6.618
REMARK INTER + INTRA:          -4.628
REMARK INTER:                  -4.360
REMARK INTRA:                  -0.267
REMARK UNBOUND:                -0.338
REMARK SMILES COC(=O)c1ccccc1O
REMARK SMILES IDX 5 1 6 2 7 3 8 4 9 5 10 6 3 7 4 8 2 9 1 10 11 11
REMARK H PARENT 11 12
REMARK Flexibility Score: inf
ROOT
ATOM      1  C   UNL     1     164.904 182.819  31.477  1.00  0.00     0.101 A 
ATOM      2  C   UNL     1     164.345 181.934  32.417  1.00  0.00     0.019 A 
ATOM      3  C   UNL     1     163.237 181.150  32.087  1.00  0.00     0.001 A 
ATOM      4  C   UNL     1     162.674 181.237  30.815  1.00  0.00     0.004 A 
ATOM      5  C   UNL     1     163.227 182.093  29.863  1.00  0.00     0.047 A 
ATOM      6  C   UNL     1     164.350 182.871  30.170  1.00  0.00     0.130 A 
ENDROOT
BRANCH   1   7
ATOM      7  C   UNL     1     166.027 183.680  31.906  1.00  0.00     0.341 C 
ATOM      8  O   UNL     1     166.653 183.431  32.972  1.00  0.00    -0.246 OA
BRANCH   7   9
ATOM      9  O   UNL     1     166.431 184.741  31.089  1.00  0.00    -0.465 OA
ATOM     10  C   UNL     1     167.703 185.365  31.213  1.00  0.00     0.282 C 
ENDBRANCH   7   9
ENDBRANCH   1   7
BRANCH   6  11
ATOM     11  O   UNL     1     164.901 183.649  29.149  1.00  0.00    -0.507 OA
ATOM     12  H   UNL     1     165.841 183.526  28.800  1.00  0.00     0.293 HD
ENDBRANCH   6  11
TORSDOF 3
ENDMDL
MODEL 3
REMARK VINA RESULT:    -3.728      2.994      4.713
REMARK INTER + INTRA:          -4.611
REMARK INTER:                  -4.262
REMARK INTRA:                  -0.348
REMARK UNBOUND:                -0.338
REMARK SMILES COC(=O)c1ccccc1O
REMARK SMILES IDX 5 1 6 2 7 3 8 4 9 5 10 6 3 7 4 8 2 9 1 10 11 11
REMARK H PARENT 11 12
REMARK Flexibility Score: inf
ROOT
ATOM      1  C   UNL     1     171.392 184.899  32.449  1.00  0.00     0.101 A 
ATOM      2  C   UNL     1     170.676 184.566  31.285  1.00  0.00     0.019 A 
ATOM      3  C   UNL     1     169.621 185.369  30.842  1.00  0.00     0.001 A 
ATOM      4  C   UNL     1     169.269 186.514  31.555  1.00  0.00     0.004 A 
ATOM      5  C   UNL     1     169.981 186.871  32.700  1.00  0.00     0.047 A 
ATOM      6  C   UNL     1     171.054 186.089  33.146  1.00  0.00     0.130 A 
ENDROOT
BRANCH   1   7
ATOM      7  C   UNL     1     172.447 183.972  32.912  1.00  0.00     0.341 C 
ATOM      8  O   UNL     1     173.246 183.448  32.088  1.00  0.00    -0.246 OA
BRANCH   7   9
ATOM      9  O   UNL     1     172.591 183.724  34.282  1.00  0.00    -0.465 OA
ATOM     10  C   UNL     1     171.683 182.910  35.015  1.00  0.00     0.282 C 
ENDBRANCH   7   9
ENDBRANCH   1   7
BRANCH   6  11
ATOM     11  O   UNL     1     171.773 186.544  34.254  1.00  0.00    -0.507 OA
ATOM     12  H   UNL     1     172.043 185.950  35.025  1.00  0.00     0.293 HD
ENDBRANCH   6  11
TORSDOF 3
ENDMDL
MODEL 4
REMARK VINA RESULT:    -3.701      2.430      4.032
REMARK INTER + INTRA:          -4.579
REMARK INTER:                  -4.227
REMARK INTRA:                  -0.352
REMARK UNBOUND:                -0.338
REMARK SMILES COC(=O)c1ccccc1O
REMARK SMILES IDX 5 1 6 2 7 3 8 4 9 5 10 6 3 7 4 8 2 9 1 10 11 11
REMARK H PARENT 11 12
REMARK Flexibility Score: inf
ROOT
ATOM      1  C   UNL     1     170.110 185.310  32.635  1.00  0.00     0.101 A 
ATOM      2  C   UNL     1     168.848 184.971  33.157  1.00  0.00     0.019 A 
ATOM      3  C   UNL     1     167.712 184.989  32.344  1.00  0.00     0.001 A 
ATOM      4  C   UNL     1     167.820 185.344  31.000  1.00  0.00     0.004 A 
ATOM      5  C   UNL     1     169.066 185.664  30.460  1.00  0.00     0.047 A 
ATOM      6  C   UNL     1     170.218 185.631  31.255  1.00  0.00     0.130 A 
ENDROOT
BRANCH   1   7
ATOM      7  C   UNL     1     171.263 185.349  33.559  1.00  0.00     0.341 C 
ATOM      8  O   UNL     1     171.162 185.908  34.685  1.00  0.00    -0.246 OA
BRANCH   7   9
ATOM      9  O   UNL     1     172.453 184.706  33.201  1.00  0.00    -0.465 OA
ATOM     10  C   UNL     1     172.538 183.299  33.007  1.00  0.00     0.282 C 
ENDBRANCH   7   9
ENDBRANCH   1   7
BRANCH   6  11
ATOM     11  O   UNL     1     171.443 185.886  30.635  1.00  0.00    -0.507 OA
ATOM     12  H   UNL     1     172.233 185.257  30.680  1.00  0.00     0.293 HD
ENDBRANCH   6  11
TORSDOF 3
ENDMDL
MODEL 5
REMARK VINA RESULT:    -3.678      1.158      1.639
REMARK INTER + INTRA:          -4.553
REMARK INTER:                  -4.288
REMARK INTRA:                  -0.265
REMARK UNBOUND:                -0.338
REMARK SMILES COC(=O)c1ccccc1O
REMARK SMILES IDX 5 1 6 2 7 3 8 4 9 5 10 6 3 7 4 8 2 9 1 10 11 11
REMARK H PARENT 11 12
REMARK Flexibility Score: inf
ROOT
ATOM      1  C   UNL     1     169.631 186.385  31.876  1.00  0.00     0.101 A 
ATOM      2  C   UNL     1     169.996 186.828  33.161  1.00  0.00     0.019 A 
ATOM      3  C   UNL     1     171.112 186.293  33.810  1.00  0.00     0.001 A 
ATOM      4  C   UNL     1     171.878 185.310  33.185  1.00  0.00     0.004 A 
ATOM      5  C   UNL     1     171.543 184.873  31.903  1.00  0.00     0.047 A 
ATOM      6  C   UNL     1     170.441 185.414  31.230  1.00  0.00     0.130 A 
ENDROOT
BRANCH   1   7
ATOM      7  C   UNL     1     168.397 186.931  31.272  1.00  0.00     0.341 C 
ATOM      8  O   UNL     1     168.133 186.721  30.056  1.00  0.00    -0.246 OA
BRANCH   7   9
ATOM      9  O   UNL     1     167.491 187.633  32.074  1.00  0.00    -0.465 OA
ATOM     10  C   UNL     1     167.087 188.968  31.790  1.00  0.00     0.282 C 
ENDBRANCH   7   9
ENDBRANCH   1   7
BRANCH   6  11
ATOM     11  O   UNL     1     170.206 184.989  29.920  1.00  0.00    -0.507 OA
ATOM     12  H   UNL     1     169.295 185.004  29.484  1.00  0.00     0.293 HD
ENDBRANCH   6  11
TORSDOF 3
ENDMDL
MODEL 6
REMARK VINA RESULT:    -3.623     21.047     22.384
REMARK INTER + INTRA:          -4.491
REMARK INTER:                  -4.233
REMARK INTRA:                  -0.258
REMARK UNBOUND:                -0.338
REMARK SMILES COC(=O)c1ccccc1O
REMARK SMILES IDX 5 1 6 2 7 3 8 4 9 5 10 6 3 7 4 8 2 9 1 10 11 11
REMARK H PARENT 11 12
REMARK Flexibility Score: inf
ROOT
ATOM      1  C   UNL     1     162.882 170.160  17.331  1.00  0.00     0.101 A 
ATOM      2  C   UNL     1     162.136 170.767  16.305  1.00  0.00     0.019 A 
ATOM      3  C   UNL     1     162.735 171.097  15.087  1.00  0.00     0.001 A 
ATOM      4  C   UNL     1     164.086 170.824  14.877  1.00  0.00     0.004 A 
ATOM      5  C   UNL     1     164.837 170.205  15.876  1.00  0.00     0.047 A 
ATOM      6  C   UNL     1     164.247 169.848  17.095  1.00  0.00     0.130 A 
ENDROOT
BRANCH   1   7
ATOM      7  C   UNL     1     162.214 169.904  18.626  1.00  0.00     0.341 C 
ATOM      8  O   UNL     1     162.759 169.168  19.493  1.00  0.00    -0.246 OA
BRANCH   7   9
ATOM      9  O   UNL     1     160.998 170.536  18.908  1.00  0.00    -0.465 OA
ATOM     10  C   UNL     1     160.750 171.211  20.136  1.00  0.00     0.282 C 
ENDBRANCH   7   9
ENDBRANCH   1   7
BRANCH   6  11
ATOM     11  O   UNL     1     165.034 169.161  18.021  1.00  0.00    -0.507 OA
ATOM     12  H   UNL     1     164.757 168.290  18.452  1.00  0.00     0.293 HD
ENDBRANCH   6  11
TORSDOF 3
ENDMDL
MODEL 7
REMARK VINA RESULT:    -3.615      1.233      2.149
REMARK INTER + INTRA:          -4.481
REMARK INTER:                  -4.328
REMARK INTRA:                  -0.153
REMARK UNBOUND:                -0.338
REMARK SMILES COC(=O)c1ccccc1O
REMARK SMILES IDX 5 1 6 2 7 3 8 4 9 5 10 6 3 7 4 8 2 9 1 10 11 11
REMARK H PARENT 11 12
REMARK Flexibility Score: inf
ROOT
ATOM      1  C   UNL     1     169.028 186.362  31.096  1.00  0.00     0.101 A 
ATOM      2  C   UNL     1     170.127 185.521  30.842  1.00  0.00     0.019 A 
ATOM      3  C   UNL     1     171.277 185.591  31.632  1.00  0.00     0.001 A 
ATOM      4  C   UNL     1     171.345 186.501  32.687  1.00  0.00     0.004 A 
ATOM      5  C   UNL     1     170.258 187.329  32.966  1.00  0.00     0.047 A 
ATOM      6  C   UNL     1     169.090 187.257  32.197  1.00  0.00     0.130 A 
ENDROOT
BRANCH   1   7
ATOM      7  C   UNL     1     167.870 186.297  30.180  1.00  0.00     0.341 C 
ATOM      8  O   UNL     1     167.725 187.158  29.269  1.00  0.00    -0.246 OA
BRANCH   7   9
ATOM      9  O   UNL     1     166.964 185.237  30.291  1.00  0.00    -0.465 OA
ATOM     10  C   UNL     1     166.594 184.670  31.543  1.00  0.00     0.282 C 
ENDBRANCH   7   9
ENDBRANCH   1   7
BRANCH   6  11
ATOM     11  O   UNL     1     168.011 188.058  32.578  1.00  0.00    -0.507 OA
ATOM     12  H   UNL     1     167.540 188.695  31.950  1.00  0.00     0.293 HD
ENDBRANCH   6  11
TORSDOF 3
ENDMDL
MODEL 8
REMARK VINA RESULT:    -3.576      2.672      4.531
REMARK INTER + INTRA:          -4.436
REMARK INTER:                  -4.135
REMARK INTRA:                  -0.301
REMARK UNBOUND:                -0.338
REMARK SMILES COC(=O)c1ccccc1O
REMARK SMILES IDX 5 1 6 2 7 3 8 4 9 5 10 6 3 7 4 8 2 9 1 10 11 11
REMARK H PARENT 11 12
REMARK Flexibility Score: inf
ROOT
ATOM      1  C   UNL     1     171.527 185.127  33.219  1.00  0.00     0.101 A 
ATOM      2  C   UNL     1     171.191 185.330  34.570  1.00  0.00     0.019 A 
ATOM      3  C   UNL     1     170.495 186.474  34.968  1.00  0.00     0.001 A 
ATOM      4  C   UNL     1     170.123 187.429  34.024  1.00  0.00     0.004 A 
ATOM      5  C   UNL     1     170.429 187.235  32.677  1.00  0.00     0.047 A 
ATOM      6  C   UNL     1     171.108 186.085  32.257  1.00  0.00     0.130 A 
ENDROOT
BRANCH   1   7
ATOM      7  C   UNL     1     172.332 183.938  32.867  1.00  0.00     0.341 C 
ATOM      8  O   UNL     1     171.987 183.191  31.911  1.00  0.00    -0.246 OA
BRANCH   7   9
ATOM      9  O   UNL     1     173.516 183.679  33.567  1.00  0.00    -0.465 OA
ATOM     10  C   UNL     1     173.729 182.476  34.297  1.00  0.00     0.282 C 
ENDBRANCH   7   9
ENDBRANCH   1   7
BRANCH   6  11
ATOM     11  O   UNL     1     171.314 185.916  30.886  1.00  0.00    -0.507 OA
ATOM     12  H   UNL     1     171.822 185.137  30.491  1.00  0.00     0.293 HD
ENDBRANCH   6  11
TORSDOF 3
ENDMDL
MODEL 9
REMARK VINA RESULT:    -3.511      2.363      3.180
REMARK INTER + INTRA:          -4.362
REMARK INTER:                  -4.087
REMARK INTRA:                  -0.275
REMARK UNBOUND:                -0.338
REMARK SMILES COC(=O)c1ccccc1O
REMARK SMILES IDX 5 1 6 2 7 3 8 4 9 5 10 6 3 7 4 8 2 9 1 10 11 11
REMARK H PARENT 11 12
REMARK Flexibility Score: inf
ROOT
ATOM      1  C   UNL     1     170.662 185.665  32.615  1.00  0.00     0.101 A 
ATOM      2  C   UNL     1     170.521 184.653  31.648  1.00  0.00     0.019 A 
ATOM      3  C   UNL     1     171.297 183.493  31.711  1.00  0.00     0.001 A 
ATOM      4  C   UNL     1     172.224 183.328  32.740  1.00  0.00     0.004 A 
ATOM      5  C   UNL     1     172.364 184.313  33.718  1.00  0.00     0.047 A 
ATOM      6  C   UNL     1     171.579 185.472  33.682  1.00  0.00     0.130 A 
ENDROOT
BRANCH   1   7
ATOM      7  C   UNL     1     169.870 186.903  32.454  1.00  0.00     0.341 C 
ATOM      8  O   UNL     1     170.297 188.001  32.905  1.00  0.00    -0.246 OA
BRANCH   7   9
ATOM      9  O   UNL     1     168.666 186.860  31.742  1.00  0.00    -0.465 OA
ATOM     10  C   UNL     1     167.737 187.939  31.737  1.00  0.00     0.282 C 
ENDBRANCH   7   9
ENDBRANCH   1   7
BRANCH   6  11
ATOM     11  O   UNL     1     171.713 186.381  34.734  1.00  0.00    -0.507 OA
ATOM     12  H   UNL     1     172.327 186.233  35.523  1.00  0.00     0.293 HD
ENDBRANCH   6  11
TORSDOF 3
ENDMDL
