MODEL 1
REMARK VINA RESULT:    -5.076      0.000      0.000
REMARK INTER + INTRA:          -9.822
REMARK INTER:                  -7.895
REMARK INTRA:                  -1.927
REMARK UNBOUND:                -1.927
REMARK SMILES COc1cc(CNC(=O)CCCCC=CC(C)C)ccc1O
REMARK SMILES IDX 11 1 12 2 13 3 14 4 15 5 16 6 17 7 18 8 10 9 8 10 9 11 7 12
REMARK SMILES IDX 6 14 5 15 4 16 19 17 3 18 20 19 21 20 2 21 1 22 22 23
REMARK H PARENT 7 13 22 24
REMARK Flexibility Score: inf
ROOT
ATOM      1  C   UNL     1      -8.458   4.872  24.101  1.00  0.00     0.010 C 
ENDROOT
BRANCH   1   2
ATOM      2  C   UNL     1      -8.009   3.646  24.913  1.00  0.00     0.005 C 
BRANCH   2   3
ATOM      3  C   UNL     1      -8.424   2.322  24.256  1.00  0.00     0.027 C 
BRANCH   3   4
ATOM      4  C   UNL     1      -9.118   2.558  22.943  1.00  0.00    -0.031 C 
ATOM      5  C   UNL     1      -9.847   1.602  22.351  1.00  0.00    -0.028 C 
BRANCH   5   6
ATOM      6  C   UNL     1     -10.535   1.829  21.027  1.00  0.00     0.005 C 
ATOM      7  C   UNL     1     -10.558   3.325  20.705  1.00  0.00     0.012 C 
ATOM      8  C   UNL     1      -9.814   1.048  19.924  1.00  0.00     0.012 C 
ENDBRANCH   5   6
ENDBRANCH   3   4
ENDBRANCH   2   3
ENDBRANCH   1   2
BRANCH   1   9
ATOM      9  C   UNL     1      -9.133   5.941  24.969  1.00  0.00     0.100 C 
BRANCH   9  10
ATOM     10  C   UNL     1     -10.566   6.112  24.563  1.00  0.00     0.220 C 
ATOM     11  O   UNL     1     -11.127   7.229  24.719  1.00  0.00    -0.275 OA
ATOM     12  N   UNL     1     -11.305   4.994  24.048  1.00  0.00    -0.352 N 
ATOM     13  H   UNL     1     -10.834   4.064  23.977  1.00  0.00     0.163 HD
BRANCH  12  14
ATOM     14  C   UNL     1     -12.701   5.099  23.632  1.00  0.00     0.151 C 
BRANCH  14  15
ATOM     15  C   UNL     1     -13.249   3.742  23.282  1.00  0.00    -0.025 A 
ATOM     16  C   UNL     1     -14.084   3.589  22.164  1.00  0.00     0.056 A 
ATOM     17  C   UNL     1     -12.946   2.625  24.073  1.00  0.00     0.009 A 
ATOM     18  C   UNL     1     -14.614   2.325  21.831  1.00  0.00     0.160 A 
ATOM     19  C   UNL     1     -13.468   1.370  23.749  1.00  0.00     0.050 A 
ATOM     20  C   UNL     1     -14.297   1.215  22.635  1.00  0.00     0.157 A 
BRANCH  18  21
ATOM     21  O   UNL     1     -15.452   2.139  20.720  1.00  0.00    -0.493 OA
ATOM     22  C   UNL     1     -16.647   2.876  20.476  1.00  0.00     0.278 C 
ENDBRANCH  18  21
BRANCH  20  23
ATOM     23  O   UNL     1     -14.798  -0.055  22.340  1.00  0.00    -0.504 OA
ATOM     24  H   UNL     1     -14.288  -0.901  22.564  1.00  0.00     0.293 HD
ENDBRANCH  20  23
ENDBRANCH  14  15
ENDBRANCH  12  14
ENDBRANCH   9  10
ENDBRANCH   1   9
TORSDOF 10
ENDMDL
MODEL 2
REMARK VINA RESULT:    -5.061      2.428      4.718
REMARK INTER + INTRA:          -9.798
REMARK INTER:                  -9.011
REMARK INTRA:                  -0.787
REMARK UNBOUND:                -1.927
REMARK SMILES COc1cc(CNC(=O)CCCCC=CC(C)C)ccc1O
REMARK SMILES IDX 11 1 12 2 13 3 14 4 15 5 16 6 17 7 18 8 10 9 8 10 9 11 7 12
REMARK SMILES IDX 6 14 5 15 4 16 19 17 3 18 20 19 21 20 2 21 1 22 22 23
REMARK H PARENT 7 13 22 24
REMARK Flexibility Score: inf
ROOT
ATOM      1  C   UNL     1      -9.219   4.170  23.808  1.00  0.00     0.010 C 
ENDROOT
BRANCH   1   2
ATOM      2  C   UNL     1      -9.688   5.023  24.997  1.00  0.00     0.005 C 
BRANCH   2   3
ATOM      3  C   UNL     1     -10.724   6.080  24.589  1.00  0.00     0.027 C 
BRANCH   3   4
ATOM      4  C   UNL     1     -10.211   7.472  24.842  1.00  0.00    -0.031 C 
ATOM      5  C   UNL     1     -10.921   8.555  24.499  1.00  0.00    -0.028 C 
BRANCH   5   6
ATOM      6  C   UNL     1     -10.407   9.954  24.738  1.00  0.00     0.005 C 
ATOM      7  C   UNL     1      -8.877   9.942  24.784  1.00  0.00     0.012 C 
ATOM      8  C   UNL     1     -10.909  10.890  23.635  1.00  0.00     0.012 C 
ENDBRANCH   5   6
ENDBRANCH   3   4
ENDBRANCH   2   3
ENDBRANCH   1   2
BRANCH   1   9
ATOM      9  C   UNL     1      -9.725   4.702  22.461  1.00  0.00     0.100 C 
BRANCH   9  10
ATOM     10  C   UNL     1     -10.246   3.576  21.620  1.00  0.00     0.220 C 
ATOM     11  O   UNL     1     -10.448   3.762  20.390  1.00  0.00    -0.275 OA
ATOM     12  N   UNL     1     -10.558   2.313  22.224  1.00  0.00    -0.352 N 
ATOM     13  H   UNL     1     -10.433   2.198  23.255  1.00  0.00     0.163 HD
BRANCH  12  14
ATOM     14  C   UNL     1     -11.064   1.178  21.455  1.00  0.00     0.151 C 
BRANCH  14  15
ATOM     15  C   UNL     1     -12.511   0.925  21.782  1.00  0.00    -0.025 A 
ATOM     16  C   UNL     1     -13.466   1.931  21.567  1.00  0.00     0.056 A 
ATOM     17  C   UNL     1     -12.916  -0.306  22.317  1.00  0.00     0.009 A 
ATOM     18  C   UNL     1     -14.824   1.711  21.881  1.00  0.00     0.160 A 
ATOM     19  C   UNL     1     -14.259  -0.530  22.631  1.00  0.00     0.050 A 
ATOM     20  C   UNL     1     -15.212   0.469  22.414  1.00  0.00     0.157 A 
BRANCH  18  21
ATOM     21  O   UNL     1     -15.803   2.697  21.677  1.00  0.00    -0.493 OA
ATOM     22  C   UNL     1     -16.523   2.882  20.460  1.00  0.00     0.278 C 
ENDBRANCH  18  21
BRANCH  20  23
ATOM     23  O   UNL     1     -16.546   0.209  22.736  1.00  0.00    -0.504 OA
ATOM     24  H   UNL     1     -16.909  -0.734  22.811  1.00  0.00     0.293 HD
ENDBRANCH  20  23
ENDBRANCH  14  15
ENDBRANCH  12  14
ENDBRANCH   9  10
ENDBRANCH   1   9
TORSDOF 10
ENDMDL
MODEL 3
REMARK VINA RESULT:    -4.932      2.714      6.356
REMARK INTER + INTRA:          -9.598
REMARK INTER:                  -7.604
REMARK INTRA:                  -1.994
REMARK UNBOUND:                -1.927
REMARK SMILES COc1cc(CNC(=O)CCCCC=CC(C)C)ccc1O
REMARK SMILES IDX 11 1 12 2 13 3 14 4 15 5 16 6 17 7 18 8 10 9 8 10 9 11 7 12
REMARK SMILES IDX 6 14 5 15 4 16 19 17 3 18 20 19 21 20 2 21 1 22 22 23
REMARK H PARENT 7 13 22 24
REMARK Flexibility Score: inf
ROOT
ATOM      1  C   UNL     1     -16.946   0.920  21.149  1.00  0.00     0.010 C 
ENDROOT
BRANCH   1   2
ATOM      2  C   UNL     1     -16.668   2.347  20.651  1.00  0.00     0.005 C 
BRANCH   2   3
ATOM      3  C   UNL     1     -15.196   2.751  20.817  1.00  0.00     0.027 C 
BRANCH   3   4
ATOM      4  C   UNL     1     -15.014   3.681  21.985  1.00  0.00    -0.031 C 
ATOM      5  C   UNL     1     -13.816   3.866  22.556  1.00  0.00    -0.028 C 
BRANCH   5   6
ATOM      6  C   UNL     1     -13.629   4.789  23.735  1.00  0.00     0.005 C 
ATOM      7  C   UNL     1     -12.189   5.303  23.769  1.00  0.00     0.012 C 
ATOM      8  C   UNL     1     -14.619   5.955  23.646  1.00  0.00     0.012 C 
ENDBRANCH   5   6
ENDBRANCH   3   4
ENDBRANCH   2   3
ENDBRANCH   1   2
BRANCH   1   9
ATOM      9  C   UNL     1     -17.246   0.866  22.653  1.00  0.00     0.100 C 
BRANCH   9  10
ATOM     10  C   UNL     1     -16.025   0.442  23.412  1.00  0.00     0.220 C 
ATOM     11  O   UNL     1     -15.923   0.727  24.635  1.00  0.00    -0.275 OA
ATOM     12  N   UNL     1     -14.960  -0.241  22.735  1.00  0.00    -0.352 N 
ATOM     13  H   UNL     1     -15.043  -0.421  21.709  1.00  0.00     0.163 HD
BRANCH  12  14
ATOM     14  C   UNL     1     -13.748  -0.684  23.422  1.00  0.00     0.151 C 
BRANCH  14  15
ATOM     15  C   UNL     1     -12.630   0.300  23.201  1.00  0.00    -0.025 A 
ATOM     16  C   UNL     1     -12.175   0.565  21.899  1.00  0.00     0.056 A 
ATOM     17  C   UNL     1     -12.024   0.944  24.287  1.00  0.00     0.009 A 
ATOM     18  C   UNL     1     -11.120   1.474  21.679  1.00  0.00     0.160 A 
ATOM     19  C   UNL     1     -10.977   1.846  24.076  1.00  0.00     0.050 A 
ATOM     20  C   UNL     1     -10.525   2.115  22.781  1.00  0.00     0.157 A 
BRANCH  18  21
ATOM     21  O   UNL     1     -10.643   1.762  20.390  1.00  0.00    -0.493 OA
ATOM     22  C   UNL     1      -9.744   0.932  19.658  1.00  0.00     0.278 C 
ENDBRANCH  18  21
BRANCH  20  23
ATOM     23  O   UNL     1      -9.480   3.025  22.608  1.00  0.00    -0.504 OA
ATOM     24  H   UNL     1      -8.721   2.857  21.957  1.00  0.00     0.293 HD
ENDBRANCH  20  23
ENDBRANCH  14  15
ENDBRANCH  12  14
ENDBRANCH   9  10
ENDBRANCH   1   9
TORSDOF 10
ENDMDL
MODEL 4
REMARK VINA RESULT:    -4.857      2.492      5.044
REMARK INTER + INTRA:          -9.482
REMARK INTER:                  -8.717
REMARK INTRA:                  -0.765
REMARK UNBOUND:                -1.927
REMARK SMILES COc1cc(CNC(=O)CCCCC=CC(C)C)ccc1O
REMARK SMILES IDX 11 1 12 2 13 3 14 4 15 5 16 6 17 7 18 8 10 9 8 10 9 11 7 12
REMARK SMILES IDX 6 14 5 15 4 16 19 17 3 18 20 19 21 20 2 21 1 22 22 23
REMARK H PARENT 7 13 22 24
REMARK Flexibility Score: inf
ROOT
ATOM      1  C   UNL     1      -9.201   4.290  23.108  1.00  0.00     0.010 C 
ENDROOT
BRANCH   1   2
ATOM      2  C   UNL     1      -8.987   5.146  24.366  1.00  0.00     0.005 C 
BRANCH   2   3
ATOM      3  C   UNL     1     -10.269   5.864  24.813  1.00  0.00     0.027 C 
BRANCH   3   4
ATOM      4  C   UNL     1     -10.003   7.311  25.125  1.00  0.00    -0.031 C 
ATOM      5  C   UNL     1     -10.574   8.298  24.421  1.00  0.00    -0.028 C 
BRANCH   5   6
ATOM      6  C   UNL     1     -10.302   9.752  24.721  1.00  0.00     0.005 C 
ATOM      7  C   UNL     1      -8.793  10.004  24.736  1.00  0.00     0.012 C 
ATOM      8  C   UNL     1     -10.989  10.637  23.676  1.00  0.00     0.012 C 
ENDBRANCH   5   6
ENDBRANCH   3   4
ENDBRANCH   2   3
ENDBRANCH   1   2
BRANCH   1   9
ATOM      9  C   UNL     1      -9.164   2.785  23.403  1.00  0.00     0.100 C 
BRANCH   9  10
ATOM     10  C   UNL     1     -10.174   2.064  22.562  1.00  0.00     0.220 C 
ATOM     11  O   UNL     1      -9.976   1.942  21.323  1.00  0.00    -0.275 OA
ATOM     12  N   UNL     1     -11.379   1.563  23.158  1.00  0.00    -0.352 N 
ATOM     13  H   UNL     1     -11.546   1.723  24.177  1.00  0.00     0.163 HD
BRANCH  12  14
ATOM     14  C   UNL     1     -12.397   0.849  22.391  1.00  0.00     0.151 C 
BRANCH  14  15
ATOM     15  C   UNL     1     -13.585   1.739  22.138  1.00  0.00    -0.025 A 
ATOM     16  C   UNL     1     -13.580   3.065  22.599  1.00  0.00     0.056 A 
ATOM     17  C   UNL     1     -14.709   1.250  21.459  1.00  0.00     0.009 A 
ATOM     18  C   UNL     1     -14.692   3.905  22.381  1.00  0.00     0.160 A 
ATOM     19  C   UNL     1     -15.814   2.077  21.240  1.00  0.00     0.050 A 
ATOM     20  C   UNL     1     -15.810   3.398  21.695  1.00  0.00     0.157 A 
BRANCH  18  21
ATOM     21  O   UNL     1     -14.717   5.235  22.829  1.00  0.00    -0.493 OA
ATOM     22  C   UNL     1     -13.764   5.806  23.722  1.00  0.00     0.278 C 
ENDBRANCH  18  21
BRANCH  20  23
ATOM     23  O   UNL     1     -16.930   4.197  21.455  1.00  0.00    -0.504 OA
ATOM     24  H   UNL     1     -16.853   5.187  21.253  1.00  0.00     0.293 HD
ENDBRANCH  20  23
ENDBRANCH  14  15
ENDBRANCH  12  14
ENDBRANCH   9  10
ENDBRANCH   1   9
TORSDOF 10
ENDMDL
MODEL 5
REMARK VINA RESULT:    -4.854      2.455      4.781
REMARK INTER + INTRA:          -9.477
REMARK INTER:                  -8.604
REMARK INTRA:                  -0.873
REMARK UNBOUND:                -1.927
REMARK SMILES COc1cc(CNC(=O)CCCCC=CC(C)C)ccc1O
REMARK SMILES IDX 11 1 12 2 13 3 14 4 15 5 16 6 17 7 18 8 10 9 8 10 9 11 7 12
REMARK SMILES IDX 6 14 5 15 4 16 19 17 3 18 20 19 21 20 2 21 1 22 22 23
REMARK H PARENT 7 13 22 24
REMARK Flexibility Score: inf
ROOT
ATOM      1  C   UNL     1      -8.188   4.174  23.552  1.00  0.00     0.010 C 
ENDROOT
BRANCH   1   2
ATOM      2  C   UNL     1      -8.525   5.110  24.723  1.00  0.00     0.005 C 
BRANCH   2   3
ATOM      3  C   UNL     1      -9.841   5.871  24.508  1.00  0.00     0.027 C 
BRANCH   3   4
ATOM      4  C   UNL     1      -9.708   7.315  24.905  1.00  0.00    -0.031 C 
ATOM      5  C   UNL     1     -10.483   8.267  24.367  1.00  0.00    -0.028 C 
BRANCH   5   6
ATOM      6  C   UNL     1     -10.345   9.720  24.752  1.00  0.00     0.005 C 
ATOM      7  C   UNL     1      -8.864  10.098  24.827  1.00  0.00     0.012 C 
ATOM      8  C   UNL     1     -11.079  10.600  23.736  1.00  0.00     0.012 C 
ENDBRANCH   5   6
ENDBRANCH   3   4
ENDBRANCH   2   3
ENDBRANCH   1   2
BRANCH   1   9
ATOM      9  C   UNL     1      -7.786   2.768  24.016  1.00  0.00     0.100 C 
BRANCH   9  10
ATOM     10  C   UNL     1      -8.982   1.866  24.042  1.00  0.00     0.220 C 
ATOM     11  O   UNL     1      -8.880   0.712  24.539  1.00  0.00    -0.275 OA
ATOM     12  N   UNL     1     -10.220   2.298  23.458  1.00  0.00    -0.352 N 
ATOM     13  H   UNL     1     -10.267   3.238  23.005  1.00  0.00     0.163 HD
BRANCH  12  14
ATOM     14  C   UNL     1     -11.421   1.466  23.457  1.00  0.00     0.151 C 
BRANCH  14  15
ATOM     15  C   UNL     1     -12.618   2.271  23.030  1.00  0.00    -0.025 A 
ATOM     16  C   UNL     1     -13.680   1.648  22.355  1.00  0.00     0.056 A 
ATOM     17  C   UNL     1     -12.678   3.648  23.285  1.00  0.00     0.009 A 
ATOM     18  C   UNL     1     -14.802   2.394  21.937  1.00  0.00     0.160 A 
ATOM     19  C   UNL     1     -13.786   4.393  22.873  1.00  0.00     0.050 A 
ATOM     20  C   UNL     1     -14.846   3.774  22.204  1.00  0.00     0.157 A 
BRANCH  18  21
ATOM     21  O   UNL     1     -15.880   1.800  21.261  1.00  0.00    -0.493 OA
ATOM     22  C   UNL     1     -16.637   0.699  21.757  1.00  0.00     0.278 C 
ENDBRANCH  18  21
BRANCH  20  23
ATOM     23  O   UNL     1     -15.939   4.549  21.812  1.00  0.00    -0.504 OA
ATOM     24  H   UNL     1     -15.829   5.473  21.410  1.00  0.00     0.293 HD
ENDBRANCH  20  23
ENDBRANCH  14  15
ENDBRANCH  12  14
ENDBRANCH   9  10
ENDBRANCH   1   9
TORSDOF 10
ENDMDL
MODEL 6
REMARK VINA RESULT:    -4.785      2.555      4.402
REMARK INTER + INTRA:          -9.370
REMARK INTER:                  -8.228
REMARK INTRA:                  -1.143
REMARK UNBOUND:                -1.927
REMARK SMILES COc1cc(CNC(=O)CCCCC=CC(C)C)ccc1O
REMARK SMILES IDX 11 1 12 2 13 3 14 4 15 5 16 6 17 7 18 8 10 9 8 10 9 11 7 12
REMARK SMILES IDX 6 14 5 15 4 16 19 17 3 18 20 19 21 20 2 21 1 22 22 23
REMARK H PARENT 7 13 22 24
REMARK Flexibility Score: inf
ROOT
ATOM      1  C   UNL     1     -10.848   2.809  20.746  1.00  0.00     0.010 C 
ENDROOT
BRANCH   1   2
ATOM      2  C   UNL     1     -10.160   4.152  21.038  1.00  0.00     0.005 C 
BRANCH   2   3
ATOM      3  C   UNL     1      -9.534   4.200  22.439  1.00  0.00     0.027 C 
BRANCH   3   4
ATOM      4  C   UNL     1     -10.320   5.095  23.358  1.00  0.00    -0.031 C 
ATOM      5  C   UNL     1     -11.599   4.837  23.664  1.00  0.00    -0.028 C 
BRANCH   5   6
ATOM      6  C   UNL     1     -12.397   5.738  24.576  1.00  0.00     0.005 C 
ATOM      7  C   UNL     1     -11.638   7.047  24.804  1.00  0.00     0.012 C 
ATOM      8  C   UNL     1     -13.774   6.011  23.963  1.00  0.00     0.012 C 
ENDBRANCH   5   6
ENDBRANCH   3   4
ENDBRANCH   2   3
ENDBRANCH   1   2
BRANCH   1   9
ATOM      9  C   UNL     1     -10.235   1.646  21.537  1.00  0.00     0.100 C 
BRANCH   9  10
ATOM     10  C   UNL     1     -11.290   0.951  22.343  1.00  0.00     0.220 C 
ATOM     11  O   UNL     1     -11.292   1.069  23.597  1.00  0.00    -0.275 OA
ATOM     12  N   UNL     1     -12.259   0.117  21.690  1.00  0.00    -0.352 N 
ATOM     13  H   UNL     1     -12.206  -0.008  20.654  1.00  0.00     0.163 HD
BRANCH  12  14
ATOM     14  C   UNL     1     -13.314  -0.582  22.421  1.00  0.00     0.151 C 
BRANCH  14  15
ATOM     15  C   UNL     1     -14.430   0.366  22.768  1.00  0.00    -0.025 A 
ATOM     16  C   UNL     1     -14.705   1.462  21.934  1.00  0.00     0.056 A 
ATOM     17  C   UNL     1     -15.192   0.176  23.929  1.00  0.00     0.009 A 
ATOM     18  C   UNL     1     -15.740   2.365  22.254  1.00  0.00     0.160 A 
ATOM     19  C   UNL     1     -16.218   1.067  24.252  1.00  0.00     0.050 A 
ATOM     20  C   UNL     1     -16.496   2.157  23.422  1.00  0.00     0.157 A 
BRANCH  18  21
ATOM     21  O   UNL     1     -16.041   3.469  21.441  1.00  0.00    -0.493 OA
ATOM     22  C   UNL     1     -16.941   3.439  20.336  1.00  0.00     0.278 C 
ENDBRANCH  18  21
BRANCH  20  23
ATOM     23  O   UNL     1     -17.532   3.024  23.773  1.00  0.00    -0.504 OA
ATOM     24  H   UNL     1     -17.633   3.392  24.712  1.00  0.00     0.293 HD
ENDBRANCH  20  23
ENDBRANCH  14  15
ENDBRANCH  12  14
ENDBRANCH   9  10
ENDBRANCH   1   9
TORSDOF 10
ENDMDL
MODEL 7
REMARK VINA RESULT:    -4.747      2.438      4.401
REMARK INTER + INTRA:          -9.311
REMARK INTER:                  -8.499
REMARK INTRA:                  -0.812
REMARK UNBOUND:                -1.927
REMARK SMILES COc1cc(CNC(=O)CCCCC=CC(C)C)ccc1O
REMARK SMILES IDX 11 1 12 2 13 3 14 4 15 5 16 6 17 7 18 8 10 9 8 10 9 11 7 12
REMARK SMILES IDX 6 14 5 15 4 16 19 17 3 18 20 19 21 20 2 21 1 22 22 23
REMARK H PARENT 7 13 22 24
REMARK Flexibility Score: inf
ROOT
ATOM      1  C   UNL     1      -8.413   1.859  24.206  1.00  0.00     0.010 C 
ENDROOT
BRANCH   1   2
ATOM      2  C   UNL     1      -7.390   2.994  24.371  1.00  0.00     0.005 C 
BRANCH   2   3
ATOM      3  C   UNL     1      -7.816   4.279  23.648  1.00  0.00     0.027 C 
BRANCH   3   4
ATOM      4  C   UNL     1      -8.497   5.234  24.589  1.00  0.00    -0.031 C 
ATOM      5  C   UNL     1      -9.513   6.011  24.188  1.00  0.00    -0.028 C 
BRANCH   5   6
ATOM      6  C   UNL     1     -10.193   6.980  25.124  1.00  0.00     0.005 C 
ATOM      7  C   UNL     1      -9.626   8.386  24.917  1.00  0.00     0.012 C 
ATOM      8  C   UNL     1     -11.705   6.964  24.882  1.00  0.00     0.012 C 
ENDBRANCH   5   6
ENDBRANCH   3   4
ENDBRANCH   2   3
ENDBRANCH   1   2
BRANCH   1   9
ATOM      9  C   UNL     1      -9.355   2.081  23.015  1.00  0.00     0.100 C 
BRANCH   9  10
ATOM     10  C   UNL     1     -10.647   1.351  23.230  1.00  0.00     0.220 C 
ATOM     11  O   UNL     1     -11.090   1.205  24.401  1.00  0.00    -0.275 OA
ATOM     12  N   UNL     1     -11.344   0.781  22.113  1.00  0.00    -0.352 N 
ATOM     13  H   UNL     1     -10.930   0.869  21.158  1.00  0.00     0.163 HD
BRANCH  12  14
ATOM     14  C   UNL     1     -12.609   0.063  22.260  1.00  0.00     0.151 C 
BRANCH  14  15
ATOM     15  C   UNL     1     -13.769   1.013  22.135  1.00  0.00    -0.025 A 
ATOM     16  C   UNL     1     -14.949   0.779  22.860  1.00  0.00     0.056 A 
ATOM     17  C   UNL     1     -13.692   2.125  21.286  1.00  0.00     0.009 A 
ATOM     18  C   UNL     1     -16.049   1.654  22.743  1.00  0.00     0.160 A 
ATOM     19  C   UNL     1     -14.778   2.996  21.165  1.00  0.00     0.050 A 
ATOM     20  C   UNL     1     -15.952   2.767  21.889  1.00  0.00     0.157 A 
BRANCH  18  21
ATOM     21  O   UNL     1     -17.242   1.448  23.455  1.00  0.00    -0.493 OA
ATOM     22  C   UNL     1     -17.469   0.367  24.354  1.00  0.00     0.278 C 
ENDBRANCH  18  21
BRANCH  20  23
ATOM     23  O   UNL     1     -17.016   3.660  21.746  1.00  0.00    -0.504 OA
ATOM     24  H   UNL     1     -17.976   3.387  21.917  1.00  0.00     0.293 HD
ENDBRANCH  20  23
ENDBRANCH  14  15
ENDBRANCH  12  14
ENDBRANCH   9  10
ENDBRANCH   1   9
TORSDOF 10
ENDMDL
MODEL 8
REMARK VINA RESULT:    -4.707      2.166      4.133
REMARK INTER + INTRA:          -9.249
REMARK INTER:                  -8.392
REMARK INTRA:                  -0.857
REMARK UNBOUND:                -1.927
REMARK SMILES COc1cc(CNC(=O)CCCCC=CC(C)C)ccc1O
REMARK SMILES IDX 11 1 12 2 13 3 14 4 15 5 16 6 17 7 18 8 10 9 8 10 9 11 7 12
REMARK SMILES IDX 6 14 5 15 4 16 19 17 3 18 20 19 21 20 2 21 1 22 22 23
REMARK H PARENT 7 13 22 24
REMARK Flexibility Score: inf
ROOT
ATOM      1  C   UNL     1     -12.098   5.640  24.772  1.00  0.00     0.010 C 
ENDROOT
BRANCH   1   2
ATOM      2  C   UNL     1     -11.361   6.989  24.802  1.00  0.00     0.005 C 
BRANCH   2   3
ATOM      3  C   UNL     1      -9.894   6.867  24.363  1.00  0.00     0.027 C 
BRANCH   3   4
ATOM      4  C   UNL     1      -9.245   5.650  24.962  1.00  0.00    -0.031 C 
ATOM      5  C   UNL     1      -8.107   5.145  24.465  1.00  0.00    -0.028 C 
BRANCH   5   6
ATOM      6  C   UNL     1      -7.457   3.916  25.054  1.00  0.00     0.005 C 
ATOM      7  C   UNL     1      -7.805   2.690  24.208  1.00  0.00     0.012 C 
ATOM      8  C   UNL     1      -5.940   4.113  25.125  1.00  0.00     0.012 C 
ENDBRANCH   5   6
ENDBRANCH   3   4
ENDBRANCH   2   3
ENDBRANCH   1   2
BRANCH   1   9
ATOM      9  C   UNL     1     -13.589   5.774  25.107  1.00  0.00     0.100 C 
BRANCH   9  10
ATOM     10  C   UNL     1     -14.387   4.762  24.341  1.00  0.00     0.220 C 
ATOM     11  O   UNL     1     -15.045   3.888  24.967  1.00  0.00    -0.275 OA
ATOM     12  N   UNL     1     -14.358   4.760  22.907  1.00  0.00    -0.352 N 
ATOM     13  H   UNL     1     -13.763   5.462  22.410  1.00  0.00     0.163 HD
BRANCH  12  14
ATOM     14  C   UNL     1     -15.118   3.803  22.106  1.00  0.00     0.151 C 
BRANCH  14  15
ATOM     15  C   UNL     1     -14.426   2.466  22.091  1.00  0.00    -0.025 A 
ATOM     16  C   UNL     1     -13.080   2.376  21.704  1.00  0.00     0.056 A 
ATOM     17  C   UNL     1     -15.121   1.301  22.445  1.00  0.00     0.009 A 
ATOM     18  C   UNL     1     -12.424   1.128  21.673  1.00  0.00     0.160 A 
ATOM     19  C   UNL     1     -14.477   0.061  22.415  1.00  0.00     0.050 A 
ATOM     20  C   UNL     1     -13.135  -0.031  22.034  1.00  0.00     0.157 A 
BRANCH  18  21
ATOM     21  O   UNL     1     -11.078   1.005  21.291  1.00  0.00    -0.493 OA
ATOM     22  C   UNL     1     -10.468   1.739  20.233  1.00  0.00     0.278 C 
ENDBRANCH  18  21
BRANCH  20  23
ATOM     23  O   UNL     1     -12.523  -1.286  22.020  1.00  0.00    -0.504 OA
ATOM     24  H   UNL     1     -13.054  -2.146  22.095  1.00  0.00     0.293 HD
ENDBRANCH  20  23
ENDBRANCH  14  15
ENDBRANCH  12  14
ENDBRANCH   9  10
ENDBRANCH   1   9
TORSDOF 10
ENDMDL
MODEL 9
REMARK VINA RESULT:    -4.701      0.867      2.033
REMARK INTER + INTRA:          -9.240
REMARK INTER:                  -7.617
REMARK INTRA:                  -1.623
REMARK UNBOUND:                -1.927
REMARK SMILES COc1cc(CNC(=O)CCCCC=CC(C)C)ccc1O
REMARK SMILES IDX 11 1 12 2 13 3 14 4 15 5 16 6 17 7 18 8 10 9 8 10 9 11 7 12
REMARK SMILES IDX 6 14 5 15 4 16 19 17 3 18 20 19 21 20 2 21 1 22 22 23
REMARK H PARENT 7 13 22 24
REMARK Flexibility Score: inf
ROOT
ATOM      1  C   UNL     1      -8.594   4.710  24.102  1.00  0.00     0.010 C 
ENDROOT
BRANCH   1   2
ATOM      2  C   UNL     1      -8.019   3.454  24.775  1.00  0.00     0.005 C 
BRANCH   2   3
ATOM      3  C   UNL     1      -8.495   2.158  24.103  1.00  0.00     0.027 C 
BRANCH   3   4
ATOM      4  C   UNL     1      -9.304   2.448  22.869  1.00  0.00    -0.031 C 
ATOM      5  C   UNL     1      -9.713   1.469  22.051  1.00  0.00    -0.028 C 
BRANCH   5   6
ATOM      6  C   UNL     1     -10.515   1.755  20.805  1.00  0.00     0.005 C 
ATOM      7  C   UNL     1     -10.629   3.267  20.598  1.00  0.00     0.012 C 
ATOM      8  C   UNL     1      -9.852   1.091  19.594  1.00  0.00     0.012 C 
ENDBRANCH   5   6
ENDBRANCH   3   4
ENDBRANCH   2   3
ENDBRANCH   1   2
BRANCH   1   9
ATOM      9  C   UNL     1      -9.479   5.535  25.046  1.00  0.00     0.100 C 
BRANCH   9  10
ATOM     10  C   UNL     1     -10.825   5.765  24.429  1.00  0.00     0.220 C 
ATOM     11  O   UNL     1     -11.312   6.927  24.414  1.00  0.00    -0.275 OA
ATOM     12  N   UNL     1     -11.573   4.658  23.904  1.00  0.00    -0.352 N 
ATOM     13  H   UNL     1     -11.172   3.695  23.975  1.00  0.00     0.163 HD
BRANCH  12  14
ATOM     14  C   UNL     1     -12.888   4.820  23.287  1.00  0.00     0.151 C 
BRANCH  14  15
ATOM     15  C   UNL     1     -13.510   3.476  23.015  1.00  0.00    -0.025 A 
ATOM     16  C   UNL     1     -12.965   2.320  23.596  1.00  0.00     0.056 A 
ATOM     17  C   UNL     1     -14.623   3.364  22.171  1.00  0.00     0.009 A 
ATOM     18  C   UNL     1     -13.530   1.053  23.339  1.00  0.00     0.160 A 
ATOM     19  C   UNL     1     -15.187   2.113  21.912  1.00  0.00     0.050 A 
ATOM     20  C   UNL     1     -14.649   0.960  22.492  1.00  0.00     0.157 A 
BRANCH  18  21
ATOM     21  O   UNL     1     -13.009  -0.122  23.905  1.00  0.00    -0.493 OA
ATOM     22  C   UNL     1     -13.592  -0.816  25.005  1.00  0.00     0.278 C 
ENDBRANCH  18  21
BRANCH  20  23
ATOM     23  O   UNL     1     -15.241  -0.273  22.214  1.00  0.00    -0.504 OA
ATOM     24  H   UNL     1     -14.766  -0.993  21.682  1.00  0.00     0.293 HD
ENDBRANCH  20  23
ENDBRANCH  14  15
ENDBRANCH  12  14
ENDBRANCH   9  10
ENDBRANCH   1   9
TORSDOF 10
ENDMDL
