MODEL 1
REMARK VINA RESULT:    -3.968      0.000      0.000
REMARK INTER + INTRA:          -4.610
REMARK INTER:                  -4.548
REMARK INTRA:                  -0.062
REMARK UNBOUND:                -0.062
REMARK SMILES CC(C)[C@H]([NH3+])C(=O)[O-]
REMARK SMILES IDX 4 1 5 2 6 6 7 7 8 8 2 9 1 10 3 11
REMARK H PARENT 5 3 5 4 5 5
REMARK Flexibility Score: inf
ROOT
ATOM      1  C   UNL     1       5.054  47.282   8.785  1.00  0.00     0.230 C 
ENDROOT
BRANCH   1   2
ATOM      2  N   UNL     1       3.899  48.110   8.405  1.00  0.00    -0.350 N 
ATOM      3  H   UNL     1       3.630  48.738   9.199  1.00  0.00     0.345 HD
ATOM      4  H   UNL     1       4.123  48.698   7.569  1.00  0.00     0.345 HD
ATOM      5  H   UNL     1       3.072  47.506   8.199  1.00  0.00     0.345 HD
ENDBRANCH   1   2
BRANCH   1   6
ATOM      6  C   UNL     1       4.593  46.173   9.696  1.00  0.00     0.099 C 
ATOM      7  O   UNL     1       4.479  46.376  10.934  1.00  0.00    -0.544 OA
ATOM      8  O   UNL     1       4.288  44.920   9.177  1.00  0.00    -0.544 OA
ENDBRANCH   1   6
BRANCH   1   9
ATOM      9  C   UNL     1       6.174  48.127   9.467  1.00  0.00     0.047 C 
ATOM     10  C   UNL     1       7.529  47.401   9.414  1.00  0.00     0.014 C 
ATOM     11  C   UNL     1       6.320  49.515   8.819  1.00  0.00     0.014 C 
ENDBRANCH   1   9
TORSDOF 3
ENDMDL
MODEL 2
REMARK VINA RESULT:    -3.797      3.215      4.540
REMARK INTER + INTRA:          -4.414
REMARK INTER:                  -4.349
REMARK INTRA:                  -0.064
REMARK UNBOUND:                -0.062
REMARK SMILES CC(C)[C@H]([NH3+])C(=O)[O-]
REMARK SMILES IDX 4 1 5 2 6 6 7 7 8 8 2 9 1 10 3 11
REMARK H PARENT 5 3 5 4 5 5
REMARK Flexibility Score: inf
ROOT
ATOM      1  C   UNL     1       3.153  44.521   9.846  1.00  0.00     0.230 C 
ENDROOT
BRANCH   1   2
ATOM      2  N   UNL     1       4.135  43.661   9.167  1.00  0.00    -0.350 N 
ATOM      3  H   UNL     1       4.331  44.028   8.206  1.00  0.00     0.345 HD
ATOM      4  H   UNL     1       5.032  43.625   9.706  1.00  0.00     0.345 HD
ATOM      5  H   UNL     1       3.754  42.694   9.054  1.00  0.00     0.345 HD
ENDBRANCH   1   2
BRANCH   1   6
ATOM      6  C   UNL     1       3.518  45.966   9.620  1.00  0.00     0.099 C 
ATOM      7  O   UNL     1       2.661  46.871   9.802  1.00  0.00    -0.544 OA
ATOM      8  O   UNL     1       4.802  46.309   9.214  1.00  0.00    -0.544 OA
ENDBRANCH   1   6
BRANCH   1   9
ATOM      9  C   UNL     1       3.064  44.205  11.371  1.00  0.00     0.047 C 
ATOM     10  C   UNL     1       2.317  42.884  11.623  1.00  0.00     0.014 C 
ATOM     11  C   UNL     1       4.455  44.129  12.023  1.00  0.00     0.014 C 
ENDBRANCH   1   9
TORSDOF 3
ENDMDL
MODEL 3
REMARK VINA RESULT:    -3.782      5.294      6.083
REMARK INTER + INTRA:          -4.396
REMARK INTER:                  -4.337
REMARK INTRA:                  -0.059
REMARK UNBOUND:                -0.062
REMARK SMILES CC(C)[C@H]([NH3+])C(=O)[O-]
REMARK SMILES IDX 4 1 5 2 6 6 7 7 8 8 2 9 1 10 3 11
REMARK H PARENT 5 3 5 4 5 5
REMARK Flexibility Score: inf
ROOT
ATOM      1  C   UNL     1       2.794  42.185  11.392  1.00  0.00     0.230 C 
ENDROOT
BRANCH   1   2
ATOM      2  N   UNL     1       1.857  42.955  12.224  1.00  0.00    -0.350 N 
ATOM      3  H   UNL     1       2.344  43.309  13.080  1.00  0.00     0.345 HD
ATOM      4  H   UNL     1       1.470  43.768  11.692  1.00  0.00     0.345 HD
ATOM      5  H   UNL     1       1.074  42.344  12.549  1.00  0.00     0.345 HD
ENDBRANCH   1   2
BRANCH   1   6
ATOM      6  C   UNL     1       3.217  40.944  12.137  1.00  0.00     0.099 C 
ATOM      7  O   UNL     1       4.431  40.610  12.172  1.00  0.00    -0.544 OA
ATOM      8  O   UNL     1       2.272  40.163  12.791  1.00  0.00    -0.544 OA
ENDBRANCH   1   6
BRANCH   1   9
ATOM      9  C   UNL     1       4.037  43.034  10.982  1.00  0.00     0.047 C 
ATOM     10  C   UNL     1       3.865  43.626   9.572  1.00  0.00     0.014 C 
ATOM     11  C   UNL     1       4.306  44.174  11.978  1.00  0.00     0.014 C 
ENDBRANCH   1   9
TORSDOF 3
ENDMDL
MODEL 4
REMARK VINA RESULT:    -3.779      4.437      5.850
REMARK INTER + INTRA:          -4.393
REMARK INTER:                  -4.352
REMARK INTRA:                  -0.040
REMARK UNBOUND:                -0.062
REMARK SMILES CC(C)[C@H]([NH3+])C(=O)[O-]
REMARK SMILES IDX 4 1 5 2 6 6 7 7 8 8 2 9 1 10 3 11
REMARK H PARENT 5 3 5 4 5 5
REMARK Flexibility Score: inf
ROOT
ATOM      1  C   UNL     1       4.127  42.777  10.776  1.00  0.00     0.230 C 
ENDROOT
BRANCH   1   2
ATOM      2  N   UNL     1       4.676  43.607  11.859  1.00  0.00    -0.350 N 
ATOM      3  H   UNL     1       4.955  44.545  11.488  1.00  0.00     0.345 HD
ATOM      4  H   UNL     1       3.969  43.739  12.620  1.00  0.00     0.345 HD
ATOM      5  H   UNL     1       5.537  43.165  12.253  1.00  0.00     0.345 HD
ENDBRANCH   1   2
BRANCH   1   6
ATOM      6  C   UNL     1       3.663  43.669   9.652  1.00  0.00     0.099 C 
ATOM      7  O   UNL     1       4.184  44.804   9.488  1.00  0.00    -0.544 OA
ATOM      8  O   UNL     1       2.661  43.244   8.788  1.00  0.00    -0.544 OA
ENDBRANCH   1   6
BRANCH   1   9
ATOM      9  C   UNL     1       2.961  41.868  11.276  1.00  0.00     0.047 C 
ATOM     10  C   UNL     1       3.493  40.690  12.111  1.00  0.00     0.014 C 
ATOM     11  C   UNL     1       1.938  42.656  12.111  1.00  0.00     0.014 C 
ENDBRANCH   1   9
TORSDOF 3
ENDMDL
MODEL 5
REMARK VINA RESULT:    -3.766      3.462      4.439
REMARK INTER + INTRA:          -4.378
REMARK INTER:                  -4.329
REMARK INTRA:                  -0.049
REMARK UNBOUND:                -0.062
REMARK SMILES CC(C)[C@H]([NH3+])C(=O)[O-]
REMARK SMILES IDX 4 1 5 2 6 6 7 7 8 8 2 9 1 10 3 11
REMARK H PARENT 5 3 5 4 5 5
REMARK Flexibility Score: inf
ROOT
ATOM      1  C   UNL     1       3.036  43.734  10.179  1.00  0.00     0.230 C 
ENDROOT
BRANCH   1   2
ATOM      2  N   UNL     1       3.795  43.673   8.921  1.00  0.00    -0.350 N 
ATOM      3  H   UNL     1       3.241  44.107   8.146  1.00  0.00     0.345 HD
ATOM      4  H   UNL     1       4.706  44.179   9.012  1.00  0.00     0.345 HD
ATOM      5  H   UNL     1       3.971  42.678   8.652  1.00  0.00     0.345 HD
ENDBRANCH   1   2
BRANCH   1   6
ATOM      6  C   UNL     1       1.593  44.051   9.876  1.00  0.00     0.099 C 
ATOM      7  O   UNL     1       1.165  43.985   8.693  1.00  0.00    -0.544 OA
ATOM      8  O   UNL     1       0.725  44.414  10.899  1.00  0.00    -0.544 OA
ENDBRANCH   1   6
BRANCH   1   9
ATOM      9  C   UNL     1       3.635  44.783  11.166  1.00  0.00     0.047 C 
ATOM     10  C   UNL     1       4.514  44.105  12.233  1.00  0.00     0.014 C 
ATOM     11  C   UNL     1       4.466  45.850  10.434  1.00  0.00     0.014 C 
ENDBRANCH   1   9
TORSDOF 3
ENDMDL
MODEL 6
REMARK VINA RESULT:    -3.696      3.743      4.620
REMARK INTER + INTRA:          -4.298
REMARK INTER:                  -4.227
REMARK INTRA:                  -0.071
REMARK UNBOUND:                -0.062
REMARK SMILES CC(C)[C@H]([NH3+])C(=O)[O-]
REMARK SMILES IDX 4 1 5 2 6 6 7 7 8 8 2 9 1 10 3 11
REMARK H PARENT 5 3 5 4 5 5
REMARK Flexibility Score: inf
ROOT
ATOM      1  C   UNL     1       3.158  43.374  10.112  1.00  0.00     0.230 C 
ENDROOT
BRANCH   1   2
ATOM      2  N   UNL     1       2.223  43.645   9.009  1.00  0.00    -0.350 N 
ATOM      3  H   UNL     1       2.202  42.833   8.348  1.00  0.00     0.345 HD
ATOM      4  H   UNL     1       1.256  43.810   9.375  1.00  0.00     0.345 HD
ATOM      5  H   UNL     1       2.538  44.477   8.463  1.00  0.00     0.345 HD
ENDBRANCH   1   2
BRANCH   1   6
ATOM      6  C   UNL     1       2.495  42.461  11.113  1.00  0.00     0.099 C 
ATOM      7  O   UNL     1       1.449  42.829  11.711  1.00  0.00    -0.544 OA
ATOM      8  O   UNL     1       3.032  41.207  11.379  1.00  0.00    -0.544 OA
ENDBRANCH   1   6
BRANCH   1   9
ATOM      9  C   UNL     1       3.639  44.689  10.799  1.00  0.00     0.047 C 
ATOM     10  C   UNL     1       4.591  44.388  11.971  1.00  0.00     0.014 C 
ATOM     11  C   UNL     1       4.344  45.629   9.807  1.00  0.00     0.014 C 
ENDBRANCH   1   9
TORSDOF 3
ENDMDL
MODEL 7
REMARK VINA RESULT:    -3.689      2.594      3.374
REMARK INTER + INTRA:          -4.290
REMARK INTER:                  -4.228
REMARK INTRA:                  -0.062
REMARK UNBOUND:                -0.062
REMARK SMILES CC(C)[C@H]([NH3+])C(=O)[O-]
REMARK SMILES IDX 4 1 5 2 6 6 7 7 8 8 2 9 1 10 3 11
REMARK H PARENT 5 3 5 4 5 5
REMARK Flexibility Score: inf
ROOT
ATOM      1  C   UNL     1       4.063  44.505   9.901  1.00  0.00     0.230 C 
ENDROOT
BRANCH   1   2
ATOM      2  N   UNL     1       2.894  44.044   9.136  1.00  0.00    -0.350 N 
ATOM      3  H   UNL     1       2.012  44.384   9.586  1.00  0.00     0.345 HD
ATOM      4  H   UNL     1       2.932  44.399   8.152  1.00  0.00     0.345 HD
ATOM      5  H   UNL     1       2.853  43.000   9.131  1.00  0.00     0.345 HD
ENDBRANCH   1   2
BRANCH   1   6
ATOM      6  C   UNL     1       4.169  43.707  11.176  1.00  0.00     0.099 C 
ATOM      7  O   UNL     1       4.518  44.268  12.248  1.00  0.00    -0.544 OA
ATOM      8  O   UNL     1       3.879  42.347  11.177  1.00  0.00    -0.544 OA
ENDBRANCH   1   6
BRANCH   1   9
ATOM      9  C   UNL     1       3.987  46.032  10.211  1.00  0.00     0.047 C 
ATOM     10  C   UNL     1       5.194  46.780   9.619  1.00  0.00     0.014 C 
ATOM     11  C   UNL     1       2.691  46.662   9.673  1.00  0.00     0.014 C 
ENDBRANCH   1   9
TORSDOF 3
ENDMDL
MODEL 8
REMARK VINA RESULT:    -3.678      3.175      4.854
REMARK INTER + INTRA:          -4.277
REMARK INTER:                  -4.219
REMARK INTRA:                  -0.059
REMARK UNBOUND:                -0.062
REMARK SMILES CC(C)[C@H]([NH3+])C(=O)[O-]
REMARK SMILES IDX 4 1 5 2 6 6 7 7 8 8 2 9 1 10 3 11
REMARK H PARENT 5 3 5 4 5 5
REMARK Flexibility Score: inf
ROOT
ATOM      1  C   UNL     1       4.067  44.440  10.265  1.00  0.00     0.230 C 
ENDROOT
BRANCH   1   2
ATOM      2  N   UNL     1       4.917  44.041  11.397  1.00  0.00    -0.350 N 
ATOM      3  H   UNL     1       5.892  43.855  11.066  1.00  0.00     0.345 HD
ATOM      4  H   UNL     1       4.942  44.792  12.125  1.00  0.00     0.345 HD
ATOM      5  H   UNL     1       4.563  43.154  11.821  1.00  0.00     0.345 HD
ENDBRANCH   1   2
BRANCH   1   6
ATOM      6  C   UNL     1       4.092  45.941  10.129  1.00  0.00     0.099 C 
ATOM      7  O   UNL     1       5.187  46.563  10.166  1.00  0.00    -0.544 OA
ATOM      8  O   UNL     1       2.908  46.649   9.959  1.00  0.00    -0.544 OA
ENDBRANCH   1   6
BRANCH   1   9
ATOM      9  C   UNL     1       2.603  43.925  10.430  1.00  0.00     0.047 C 
ATOM     10  C   UNL     1       2.160  43.107   9.204  1.00  0.00     0.014 C 
ATOM     11  C   UNL     1       2.437  43.066  11.694  1.00  0.00     0.014 C 
ENDBRANCH   1   9
TORSDOF 3
ENDMDL
MODEL 9
REMARK VINA RESULT:    -3.619      3.527      4.626
REMARK INTER + INTRA:          -4.209
REMARK INTER:                  -4.131
REMARK INTRA:                  -0.078
REMARK UNBOUND:                -0.062
REMARK SMILES CC(C)[C@H]([NH3+])C(=O)[O-]
REMARK SMILES IDX 4 1 5 2 6 6 7 7 8 8 2 9 1 10 3 11
REMARK H PARENT 5 3 5 4 5 5
REMARK Flexibility Score: inf
ROOT
ATOM      1  C   UNL     1       3.535  44.130  11.159  1.00  0.00     0.230 C 
ENDROOT
BRANCH   1   2
ATOM      2  N   UNL     1       4.885  43.579  11.355  1.00  0.00    -0.350 N 
ATOM      3  H   UNL     1       5.605  44.272  11.043  1.00  0.00     0.345 HD
ATOM      4  H   UNL     1       5.049  43.350  12.363  1.00  0.00     0.345 HD
ATOM      5  H   UNL     1       5.014  42.720  10.774  1.00  0.00     0.345 HD
ENDBRANCH   1   2
BRANCH   1   6
ATOM      6  C   UNL     1       2.545  42.997  11.058  1.00  0.00     0.099 C 
ATOM      7  O   UNL     1       2.641  42.153  10.128  1.00  0.00    -0.544 OA
ATOM      8  O   UNL     1       1.523  42.875  11.992  1.00  0.00    -0.544 OA
ENDBRANCH   1   6
BRANCH   1   9
ATOM      9  C   UNL     1       3.460  45.042   9.896  1.00  0.00     0.047 C 
ATOM     10  C   UNL     1       2.092  45.740   9.794  1.00  0.00     0.014 C 
ATOM     11  C   UNL     1       4.570  46.107   9.891  1.00  0.00     0.014 C 
ENDBRANCH   1   9
TORSDOF 3
ENDMDL
