MODEL 1
REMARK VINA RESULT:    -4.769      0.000      0.000
REMARK INTER + INTRA:          -5.047
REMARK INTER:                  -5.047
REMARK INTRA:                   0.000
REMARK UNBOUND:                 0.000
REMARK SMILES Cc1cc(O)c(C)c(C)c1O
REMARK SMILES IDX 1 1 2 2 3 3 4 4 6 5 8 6 10 7 9 8 7 9 11 10 5 12
REMARK H PARENT 11 11 5 13
REMARK Flexibility Score: inf
ROOT
ATOM      1  C   UNL     1      29.935  28.302  11.456  1.00  0.00     0.048 C 
ATOM      2  C   UNL     1      29.855  26.857  11.865  1.00  0.00    -0.005 A 
ATOM      3  C   UNL     1      31.010  26.179  12.262  1.00  0.00     0.053 A 
ATOM      4  C   UNL     1      30.951  24.846  12.675  1.00  0.00     0.119 A 
ATOM      5  C   UNL     1      29.718  24.162  12.693  1.00  0.00    -0.003 A 
ATOM      6  C   UNL     1      28.541  24.828  12.249  1.00  0.00    -0.002 A 
ATOM      7  C   UNL     1      28.617  26.193  11.873  1.00  0.00     0.121 A 
ATOM      8  C   UNL     1      27.205  24.120  12.195  1.00  0.00     0.049 C 
ATOM      9  C   UNL     1      29.672  22.726  13.165  1.00  0.00     0.049 C 
ENDROOT
BRANCH   7  10
ATOM     10  O   UNL     1      27.475  26.918  11.508  1.00  0.00    -0.507 OA
ATOM     11  H   UNL     1      26.562  26.773  11.916  1.00  0.00     0.293 HD
ENDBRANCH   7  10
BRANCH   4  12
ATOM     12  O   UNL     1      32.124  24.201  13.069  1.00  0.00    -0.508 OA
ATOM     13  H   UNL     1      32.976  24.262  12.524  1.00  0.00     0.293 HD
ENDBRANCH   4  12
TORSDOF 2
ENDMDL
MODEL 2
REMARK VINA RESULT:    -4.665      0.483      3.185
REMARK INTER + INTRA:          -4.937
REMARK INTER:                  -4.937
REMARK INTRA:                   0.000
REMARK UNBOUND:                 0.000
REMARK SMILES Cc1cc(O)c(C)c(C)c1O
REMARK SMILES IDX 1 1 2 2 3 3 4 4 6 5 8 6 10 7 9 8 7 9 11 10 5 12
REMARK H PARENT 11 11 5 13
REMARK Flexibility Score: inf
ROOT
ATOM      1  C   UNL     1      32.125  27.063  12.218  1.00  0.00     0.048 C 
ATOM      2  C   UNL     1      30.848  26.269  12.248  1.00  0.00    -0.005 A 
ATOM      3  C   UNL     1      29.642  26.874  11.885  1.00  0.00     0.053 A 
ATOM      4  C   UNL     1      28.451  26.145  11.875  1.00  0.00     0.119 A 
ATOM      5  C   UNL     1      28.449  24.782  12.238  1.00  0.00    -0.003 A 
ATOM      6  C   UNL     1      29.663  24.166  12.652  1.00  0.00    -0.002 A 
ATOM      7  C   UNL     1      30.868  24.913  12.614  1.00  0.00     0.121 A 
ATOM      8  C   UNL     1      29.703  22.723  13.105  1.00  0.00     0.049 C 
ATOM      9  C   UNL     1      27.152  24.005  12.200  1.00  0.00     0.049 C 
ENDROOT
BRANCH   7  10
ATOM     10  O   UNL     1      32.102  24.332  12.932  1.00  0.00    -0.507 OA
ATOM     11  H   UNL     1      32.927  24.412  12.353  1.00  0.00     0.293 HD
ENDBRANCH   7  10
BRANCH   4  12
ATOM     12  O   UNL     1      27.265  26.780  11.504  1.00  0.00    -0.508 OA
ATOM     13  H   UNL     1      26.391  26.274  11.420  1.00  0.00     0.293 HD
ENDBRANCH   4  12
TORSDOF 2
ENDMDL
MODEL 3
REMARK VINA RESULT:    -4.592      0.665      3.055
REMARK INTER + INTRA:          -4.861
REMARK INTER:                  -4.861
REMARK INTRA:                   0.000
REMARK UNBOUND:                 0.000
REMARK SMILES Cc1cc(O)c(C)c(C)c1O
REMARK SMILES IDX 1 1 2 2 3 3 4 4 6 5 8 6 10 7 9 8 7 9 11 10 5 12
REMARK H PARENT 11 11 5 13
REMARK Flexibility Score: inf
ROOT
ATOM      1  C   UNL     1      27.293  24.127  11.872  1.00  0.00     0.048 C 
ATOM      2  C   UNL     1      28.522  24.973  12.061  1.00  0.00    -0.005 A 
ATOM      3  C   UNL     1      29.739  24.372  12.392  1.00  0.00     0.053 A 
ATOM      4  C   UNL     1      30.898  25.137  12.540  1.00  0.00     0.119 A 
ATOM      5  C   UNL     1      30.854  26.535  12.361  1.00  0.00    -0.003 A 
ATOM      6  C   UNL     1      29.612  27.165  12.067  1.00  0.00    -0.002 A 
ATOM      7  C   UNL     1      28.456  26.365  11.880  1.00  0.00     0.121 A 
ATOM      8  C   UNL     1      29.502  28.667  11.922  1.00  0.00     0.049 C 
ATOM      9  C   UNL     1      32.125  27.342  12.505  1.00  0.00     0.049 C 
ENDROOT
BRANCH   7  10
ATOM     10  O   UNL     1      27.228  26.925  11.508  1.00  0.00    -0.507 OA
ATOM     11  H   UNL     1      26.818  26.824  10.590  1.00  0.00     0.293 HD
ENDBRANCH   7  10
BRANCH   4  12
ATOM     12  O   UNL     1      32.097  24.502  12.868  1.00  0.00    -0.508 OA
ATOM     13  H   UNL     1      32.996  24.946  12.716  1.00  0.00     0.293 HD
ENDBRANCH   4  12
TORSDOF 2
ENDMDL
MODEL 4
REMARK VINA RESULT:    -4.592      1.096      4.516
REMARK INTER + INTRA:          -4.860
REMARK INTER:                  -4.860
REMARK INTRA:                   0.000
REMARK UNBOUND:                 0.000
REMARK SMILES Cc1cc(O)c(C)c(C)c1O
REMARK SMILES IDX 1 1 2 2 3 3 4 4 6 5 8 6 10 7 9 8 7 9 11 10 5 12
REMARK H PARENT 11 11 5 13
REMARK Flexibility Score: inf
ROOT
ATOM      1  C   UNL     1      28.765  23.700  12.298  1.00  0.00     0.048 C 
ATOM      2  C   UNL     1      29.075  25.165  12.159  1.00  0.00    -0.005 A 
ATOM      3  C   UNL     1      28.047  26.074  11.900  1.00  0.00     0.053 A 
ATOM      4  C   UNL     1      28.310  27.443  11.799  1.00  0.00     0.119 A 
ATOM      5  C   UNL     1      29.626  27.926  11.955  1.00  0.00    -0.003 A 
ATOM      6  C   UNL     1      30.689  27.006  12.176  1.00  0.00    -0.002 A 
ATOM      7  C   UNL     1      30.393  25.626  12.316  1.00  0.00     0.121 A 
ATOM      8  C   UNL     1      32.124  27.469  12.292  1.00  0.00     0.049 C 
ATOM      9  C   UNL     1      29.886  29.413  11.864  1.00  0.00     0.049 C 
ENDROOT
BRANCH   7  10
ATOM     10  O   UNL     1      31.390  24.689  12.615  1.00  0.00    -0.507 OA
ATOM     11  H   UNL     1      32.365  24.924  12.735  1.00  0.00     0.293 HD
ENDBRANCH   7  10
BRANCH   4  12
ATOM     12  O   UNL     1      27.258  28.323  11.543  1.00  0.00    -0.508 OA
ATOM     13  H   UNL     1      27.026  29.078  12.178  1.00  0.00     0.293 HD
ENDBRANCH   4  12
TORSDOF 2
ENDMDL
MODEL 5
REMARK VINA RESULT:    -4.517      2.363      3.075
REMARK INTER + INTRA:          -4.781
REMARK INTER:                  -4.781
REMARK INTRA:                   0.000
REMARK UNBOUND:                 0.000
REMARK SMILES Cc1cc(O)c(C)c(C)c1O
REMARK SMILES IDX 1 1 2 2 3 3 4 4 6 5 8 6 10 7 9 8 7 9 11 10 5 12
REMARK H PARENT 11 11 5 13
REMARK Flexibility Score: inf
ROOT
ATOM      1  C   UNL     1      27.901  25.737  12.038  1.00  0.00     0.048 C 
ATOM      2  C   UNL     1      28.936  24.654  11.909  1.00  0.00    -0.005 A 
ATOM      3  C   UNL     1      29.805  24.647  10.815  1.00  0.00     0.053 A 
ATOM      4  C   UNL     1      30.794  23.667  10.693  1.00  0.00     0.119 A 
ATOM      5  C   UNL     1      30.925  22.664  11.676  1.00  0.00    -0.003 A 
ATOM      6  C   UNL     1      30.018  22.635  12.772  1.00  0.00    -0.002 A 
ATOM      7  C   UNL     1      29.048  23.663  12.898  1.00  0.00     0.121 A 
ATOM      8  C   UNL     1      30.080  21.547  13.822  1.00  0.00     0.049 C 
ATOM      9  C   UNL     1      32.016  21.627  11.537  1.00  0.00     0.049 C 
ENDROOT
BRANCH   7  10
ATOM     10  O   UNL     1      28.186  23.727  13.999  1.00  0.00    -0.507 OA
ATOM     11  H   UNL     1      27.256  24.123  13.963  1.00  0.00     0.293 HD
ENDBRANCH   7  10
BRANCH   4  12
ATOM     12  O   UNL     1      31.647  23.693   9.590  1.00  0.00    -0.508 OA
ATOM     13  H   UNL     1      32.522  24.205   9.602  1.00  0.00     0.293 HD
ENDBRANCH   4  12
TORSDOF 2
ENDMDL
MODEL 6
REMARK VINA RESULT:    -4.436      0.972      4.417
REMARK INTER + INTRA:          -4.695
REMARK INTER:                  -4.695
REMARK INTRA:                   0.000
REMARK UNBOUND:                 0.000
REMARK SMILES Cc1cc(O)c(C)c(C)c1O
REMARK SMILES IDX 1 1 2 2 3 3 4 4 6 5 8 6 10 7 9 8 7 9 11 10 5 12
REMARK H PARENT 11 11 5 13
REMARK Flexibility Score: inf
ROOT
ATOM      1  C   UNL     1      29.857  21.968  13.721  1.00  0.00     0.048 C 
ATOM      2  C   UNL     1      29.763  23.315  13.058  1.00  0.00    -0.005 A 
ATOM      3  C   UNL     1      28.535  23.767  12.570  1.00  0.00     0.053 A 
ATOM      4  C   UNL     1      28.420  25.028  11.979  1.00  0.00     0.119 A 
ATOM      5  C   UNL     1      29.551  25.863  11.863  1.00  0.00    -0.003 A 
ATOM      6  C   UNL     1      30.816  25.396  12.316  1.00  0.00    -0.002 A 
ATOM      7  C   UNL     1      30.902  24.130  12.950  1.00  0.00     0.121 A 
ATOM      8  C   UNL     1      32.069  26.230  12.162  1.00  0.00     0.049 C 
ATOM      9  C   UNL     1      29.401  27.233  11.240  1.00  0.00     0.049 C 
ENDROOT
BRANCH   7  10
ATOM     10  O   UNL     1      32.106  23.658  13.488  1.00  0.00    -0.507 OA
ATOM     11  H   UNL     1      32.475  22.733  13.313  1.00  0.00     0.293 HD
ENDBRANCH   7  10
BRANCH   4  12
ATOM     12  O   UNL     1      27.177  25.450  11.506  1.00  0.00    -0.508 OA
ATOM     13  H   UNL     1      26.310  25.133  11.925  1.00  0.00     0.293 HD
ENDBRANCH   4  12
TORSDOF 2
ENDMDL
MODEL 7
REMARK VINA RESULT:    -4.398      1.741      2.953
REMARK INTER + INTRA:          -4.655
REMARK INTER:                  -4.655
REMARK INTRA:                   0.000
REMARK UNBOUND:                 0.000
REMARK SMILES Cc1cc(O)c(C)c(C)c1O
REMARK SMILES IDX 1 1 2 2 3 3 4 4 6 5 8 6 10 7 9 8 7 9 11 10 5 12
REMARK H PARENT 11 11 5 13
REMARK Flexibility Score: inf
ROOT
ATOM      1  C   UNL     1      29.445  27.382  10.429  1.00  0.00     0.048 C 
ATOM      2  C   UNL     1      29.519  26.102  11.214  1.00  0.00    -0.005 A 
ATOM      3  C   UNL     1      28.426  25.690  11.980  1.00  0.00     0.053 A 
ATOM      4  C   UNL     1      28.462  24.488  12.692  1.00  0.00     0.119 A 
ATOM      5  C   UNL     1      29.612  23.673  12.650  1.00  0.00    -0.003 A 
ATOM      6  C   UNL     1      30.749  24.103  11.909  1.00  0.00    -0.002 A 
ATOM      7  C   UNL     1      30.675  25.305  11.161  1.00  0.00     0.121 A 
ATOM      8  C   UNL     1      32.026  23.292  11.879  1.00  0.00     0.049 C 
ATOM      9  C   UNL     1      29.623  22.366  13.409  1.00  0.00     0.049 C 
ENDROOT
BRANCH   7  10
ATOM     10  O   UNL     1      31.734  25.732  10.350  1.00  0.00    -0.507 OA
ATOM     11  H   UNL     1      32.622  25.252  10.286  1.00  0.00     0.293 HD
ENDBRANCH   7  10
BRANCH   4  12
ATOM     12  O   UNL     1      27.351  24.106  13.443  1.00  0.00    -0.508 OA
ATOM     13  H   UNL     1      27.267  24.333  14.428  1.00  0.00     0.293 HD
ENDBRANCH   4  12
TORSDOF 2
ENDMDL
MODEL 8
REMARK VINA RESULT:    -4.369      1.551      3.094
REMARK INTER + INTRA:          -4.624
REMARK INTER:                  -4.624
REMARK INTRA:                   0.000
REMARK UNBOUND:                 0.000
REMARK SMILES Cc1cc(O)c(C)c(C)c1O
REMARK SMILES IDX 1 1 2 2 3 3 4 4 6 5 8 6 10 7 9 8 7 9 11 10 5 12
REMARK H PARENT 11 11 5 13
REMARK Flexibility Score: inf
ROOT
ATOM      1  C   UNL     1      29.846  29.253  11.654  1.00  0.00     0.048 C 
ATOM      2  C   UNL     1      29.789  27.768  11.884  1.00  0.00    -0.005 A 
ATOM      3  C   UNL     1      28.595  27.075  11.667  1.00  0.00     0.053 A 
ATOM      4  C   UNL     1      28.529  25.691  11.844  1.00  0.00     0.119 A 
ATOM      5  C   UNL     1      29.672  24.972  12.251  1.00  0.00    -0.003 A 
ATOM      6  C   UNL     1      30.882  25.672  12.518  1.00  0.00    -0.002 A 
ATOM      7  C   UNL     1      30.938  27.071  12.292  1.00  0.00     0.121 A 
ATOM      8  C   UNL     1      32.118  24.954  13.012  1.00  0.00     0.049 C 
ATOM      9  C   UNL     1      29.585  23.471  12.415  1.00  0.00     0.049 C 
ENDROOT
BRANCH   7  10
ATOM     10  O   UNL     1      32.125  27.794  12.460  1.00  0.00    -0.507 OA
ATOM     11  H   UNL     1      32.903  27.755  11.815  1.00  0.00     0.293 HD
ENDBRANCH   7  10
BRANCH   4  12
ATOM     12  O   UNL     1      27.322  25.030  11.614  1.00  0.00    -0.508 OA
ATOM     13  H   UNL     1      26.961  24.885  10.678  1.00  0.00     0.293 HD
ENDBRANCH   4  12
TORSDOF 2
ENDMDL
MODEL 9
REMARK VINA RESULT:    -4.308      2.108      3.021
REMARK INTER + INTRA:          -4.560
REMARK INTER:                  -4.560
REMARK INTRA:                   0.000
REMARK UNBOUND:                 0.000
REMARK SMILES Cc1cc(O)c(C)c(C)c1O
REMARK SMILES IDX 1 1 2 2 3 3 4 4 6 5 8 6 10 7 9 8 7 9 11 10 5 12
REMARK H PARENT 11 11 5 13
REMARK Flexibility Score: inf
ROOT
ATOM      1  C   UNL     1      27.776  28.493  11.521  1.00  0.00     0.048 C 
ATOM      2  C   UNL     1      28.595  27.238  11.402  1.00  0.00    -0.005 A 
ATOM      3  C   UNL     1      28.139  26.050  11.977  1.00  0.00     0.053 A 
ATOM      4  C   UNL     1      28.869  24.866  11.850  1.00  0.00     0.119 A 
ATOM      5  C   UNL     1      30.087  24.856  11.139  1.00  0.00    -0.003 A 
ATOM      6  C   UNL     1      30.585  26.069  10.586  1.00  0.00    -0.002 A 
ATOM      7  C   UNL     1      29.807  27.250  10.691  1.00  0.00     0.121 A 
ATOM      8  C   UNL     1      31.914  26.122   9.864  1.00  0.00     0.049 C 
ATOM      9  C   UNL     1      30.852  23.559  10.994  1.00  0.00     0.049 C 
ENDROOT
BRANCH   7  10
ATOM     10  O   UNL     1      30.211  28.451  10.094  1.00  0.00    -0.507 OA
ATOM     11  H   UNL     1      30.942  28.515   9.399  1.00  0.00     0.293 HD
ENDBRANCH   7  10
BRANCH   4  12
ATOM     12  O   UNL     1      28.381  23.696  12.434  1.00  0.00    -0.508 OA
ATOM     13  H   UNL     1      28.565  23.466  13.404  1.00  0.00     0.293 HD
ENDBRANCH   4  12
TORSDOF 2
ENDMDL
