MODEL 1
REMARK VINA RESULT:    21.224      0.000      0.000
REMARK INTER + INTRA:          39.106
REMARK INTER:                  39.835
REMARK INTRA:                  -0.729
REMARK UNBOUND:                -0.729
REMARK SMILES CCCCCCCCC=CCCCCCCCC(=O)[O-]
REMARK SMILES IDX 10 1 9 2 11 3 12 4 13 5 14 6 15 7 16 8 17 9 18 10 19 11
REMARK SMILES IDX 20 12 8 13 7 14 6 15 5 16 4 17 3 18 2 19 1 20
REMARK H PARENT
REMARK Flexibility Score: inf
ROOT
ATOM      1  C   UNL     1     -38.789  21.819 -18.802  1.00  0.00    -0.031 C 
ATOM      2  C   UNL     1     -40.086  21.832 -18.436  1.00  0.00    -0.031 C 
ENDROOT
BRANCH   1   3
ATOM      3  C   UNL     1     -37.924  23.042 -19.008  1.00  0.00     0.027 C 
BRANCH   3   4
ATOM      4  C   UNL     1     -38.215  23.722 -20.354  1.00  0.00     0.004 C 
BRANCH   4   5
ATOM      5  C   UNL     1     -37.452  25.045 -20.521  1.00  0.00     0.000 C 
BRANCH   5   6
ATOM      6  C   UNL     1     -38.159  25.964 -21.529  1.00  0.00     0.000 C 
BRANCH   6   7
ATOM      7  C   UNL     1     -37.290  27.177 -21.921  1.00  0.00     0.000 C 
BRANCH   7   8
ATOM      8  C   UNL     1     -38.081  28.492 -22.031  1.00  0.00     0.006 C 
BRANCH   8   9
ATOM      9  C   UNL     1     -38.242  29.205 -20.684  1.00  0.00     0.053 C 
BRANCH   9  10
ATOM     10  C   UNL     1     -39.607  29.806 -20.572  1.00  0.00     0.041 C 
ATOM     11  O   UNL     1     -39.851  30.662 -19.680  1.00  0.00    -0.550 OA
ATOM     12  O   UNL     1     -40.597  29.461 -21.483  1.00  0.00    -0.550 OA
ENDBRANCH   9  10
ENDBRANCH   8   9
ENDBRANCH   7   8
ENDBRANCH   6   7
ENDBRANCH   5   6
ENDBRANCH   4   5
ENDBRANCH   3   4
ENDBRANCH   1   3
BRANCH   2  13
ATOM     13  C   UNL     1     -40.908  23.074 -18.193  1.00  0.00     0.027 C 
BRANCH  13  14
ATOM     14  C   UNL     1     -41.956  22.848 -17.094  1.00  0.00     0.004 C 
BRANCH  14  15
ATOM     15  C   UNL     1     -41.811  23.835 -15.924  1.00  0.00     0.000 C 
BRANCH  15  16
ATOM     16  C   UNL     1     -42.858  23.601 -14.821  1.00  0.00     0.000 C 
BRANCH  16  17
ATOM     17  C   UNL     1     -42.222  23.186 -13.484  1.00  0.00    -0.000 C 
BRANCH  17  18
ATOM     18  C   UNL     1     -41.825  24.392 -12.617  1.00  0.00    -0.000 C 
BRANCH  18  19
ATOM     19  C   UNL     1     -40.351  24.306 -12.202  1.00  0.00    -0.003 C 
ATOM     20  C   UNL     1     -39.429  24.446 -13.411  1.00  0.00     0.004 C 
ENDBRANCH  18  19
ENDBRANCH  17  18
ENDBRANCH  16  17
ENDBRANCH  15  16
ENDBRANCH  14  15
ENDBRANCH  13  14
ENDBRANCH   2  13
TORSDOF 15
ENDMDL
MODEL 2
REMARK VINA RESULT:    21.645      3.181      7.915
REMARK INTER + INTRA:          39.897
REMARK INTER:                  40.841
REMARK INTRA:                  -0.944
REMARK UNBOUND:                -0.729
REMARK SMILES CCCCCCCCC=CCCCCCCCC(=O)[O-]
REMARK SMILES IDX 10 1 9 2 11 3 12 4 13 5 14 6 15 7 16 8 17 9 18 10 19 11
REMARK SMILES IDX 20 12 8 13 7 14 6 15 5 16 4 17 3 18 2 19 1 20
REMARK H PARENT
REMARK Flexibility Score: inf
ROOT
ATOM      1  C   UNL     1     -38.227  22.415 -18.847  1.00  0.00    -0.031 C 
ATOM      2  C   UNL     1     -37.753  23.039 -19.943  1.00  0.00    -0.031 C 
ENDROOT
BRANCH   1   3
ATOM      3  C   UNL     1     -39.440  22.842 -18.051  1.00  0.00     0.027 C 
BRANCH   3   4
ATOM      4  C   UNL     1     -40.657  21.954 -18.351  1.00  0.00     0.004 C 
BRANCH   4   5
ATOM      5  C   UNL     1     -41.927  22.435 -17.633  1.00  0.00     0.000 C 
BRANCH   5   6
ATOM      6  C   UNL     1     -41.599  23.540 -16.617  1.00  0.00     0.000 C 
BRANCH   6   7
ATOM      7  C   UNL     1     -42.484  23.455 -15.356  1.00  0.00     0.000 C 
BRANCH   7   8
ATOM      8  C   UNL     1     -41.952  24.283 -14.173  1.00  0.00     0.006 C 
BRANCH   8   9
ATOM      9  C   UNL     1     -40.492  24.713 -14.354  1.00  0.00     0.053 C 
BRANCH   9  10
ATOM     10  C   UNL     1     -39.700  24.401 -13.125  1.00  0.00     0.041 C 
ATOM     11  O   UNL     1     -40.262  24.379 -11.998  1.00  0.00    -0.550 OA
ATOM     12  O   UNL     1     -38.351  24.083 -13.228  1.00  0.00    -0.550 OA
ENDBRANCH   9  10
ENDBRANCH   8   9
ENDBRANCH   7   8
ENDBRANCH   6   7
ENDBRANCH   5   6
ENDBRANCH   4   5
ENDBRANCH   3   4
ENDBRANCH   1   3
BRANCH   2  13
ATOM     13  C   UNL     1     -38.335  24.290 -20.551  1.00  0.00     0.027 C 
BRANCH  13  14
ATOM     14  C   UNL     1     -37.249  25.341 -20.823  1.00  0.00     0.004 C 
BRANCH  14  15
ATOM     15  C   UNL     1     -37.701  26.418 -21.823  1.00  0.00     0.000 C 
BRANCH  15  16
ATOM     16  C   UNL     1     -37.280  27.835 -21.396  1.00  0.00     0.000 C 
BRANCH  16  17
ATOM     17  C   UNL     1     -38.326  28.897 -21.771  1.00  0.00    -0.000 C 
BRANCH  17  18
ATOM     18  C   UNL     1     -38.693  29.810 -20.590  1.00  0.00    -0.000 C 
BRANCH  18  19
ATOM     19  C   UNL     1     -40.214  29.883 -20.407  1.00  0.00    -0.003 C 
ATOM     20  C   UNL     1     -40.943  29.494 -21.691  1.00  0.00     0.004 C 
ENDBRANCH  18  19
ENDBRANCH  17  18
ENDBRANCH  16  17
ENDBRANCH  15  16
ENDBRANCH  14  15
ENDBRANCH  13  14
ENDBRANCH   2  13
TORSDOF 15
ENDMDL
MODEL 3
REMARK VINA RESULT:    21.904      1.909      4.330
REMARK INTER + INTRA:          40.383
REMARK INTER:                  41.271
REMARK INTRA:                  -0.889
REMARK UNBOUND:                -0.729
REMARK SMILES CCCCCCCCC=CCCCCCCCC(=O)[O-]
REMARK SMILES IDX 10 1 9 2 11 3 12 4 13 5 14 6 15 7 16 8 17 9 18 10 19 11
REMARK SMILES IDX 20 12 8 13 7 14 6 15 5 16 4 17 3 18 2 19 1 20
REMARK H PARENT
REMARK Flexibility Score: inf
ROOT
ATOM      1  C   UNL     1     -38.221  25.740 -21.769  1.00  0.00    -0.031 C 
ATOM      2  C   UNL     1     -38.431  24.569 -21.135  1.00  0.00    -0.031 C 
ENDROOT
BRANCH   1   3
ATOM      3  C   UNL     1     -37.184  26.771 -21.383  1.00  0.00     0.027 C 
BRANCH   3   4
ATOM      4  C   UNL     1     -37.599  28.184 -21.819  1.00  0.00     0.004 C 
BRANCH   4   5
ATOM      5  C   UNL     1     -37.627  29.176 -20.647  1.00  0.00     0.000 C 
BRANCH   5   6
ATOM      6  C   UNL     1     -38.924  29.999 -20.654  1.00  0.00     0.000 C 
BRANCH   6   7
ATOM      7  C   UNL     1     -40.060  29.291 -21.421  1.00  0.00     0.000 C 
BRANCH   7   8
ATOM      8  C   UNL     1     -41.435  29.957 -21.239  1.00  0.00     0.006 C 
BRANCH   8   9
ATOM      9  C   UNL     1     -42.067  30.391 -22.566  1.00  0.00     0.053 C 
BRANCH   9  10
ATOM     10  C   UNL     1     -42.958  31.575 -22.358  1.00  0.00     0.041 C 
ATOM     11  O   UNL     1     -43.919  31.509 -21.546  1.00  0.00    -0.550 OA
ATOM     12  O   UNL     1     -42.698  32.767 -23.021  1.00  0.00    -0.550 OA
ENDBRANCH   9  10
ENDBRANCH   8   9
ENDBRANCH   7   8
ENDBRANCH   6   7
ENDBRANCH   5   6
ENDBRANCH   4   5
ENDBRANCH   3   4
ENDBRANCH   1   3
BRANCH   2  13
ATOM     13  C   UNL     1     -37.685  24.096 -19.913  1.00  0.00     0.027 C 
BRANCH  13  14
ATOM     14  C   UNL     1     -37.904  22.596 -19.667  1.00  0.00     0.004 C 
BRANCH  14  15
ATOM     15  C   UNL     1     -38.640  22.312 -18.348  1.00  0.00     0.000 C 
BRANCH  15  16
ATOM     16  C   UNL     1     -40.124  21.967 -18.561  1.00  0.00     0.000 C 
BRANCH  16  17
ATOM     17  C   UNL     1     -41.060  23.124 -18.175  1.00  0.00    -0.000 C 
BRANCH  17  18
ATOM     18  C   UNL     1     -41.908  22.810 -16.932  1.00  0.00    -0.000 C 
BRANCH  18  19
ATOM     19  C   UNL     1     -41.908  23.994 -15.957  1.00  0.00    -0.003 C 
ATOM     20  C   UNL     1     -42.660  23.651 -14.674  1.00  0.00     0.004 C 
ENDBRANCH  18  19
ENDBRANCH  17  18
ENDBRANCH  16  17
ENDBRANCH  15  16
ENDBRANCH  14  15
ENDBRANCH  13  14
ENDBRANCH   2  13
TORSDOF 15
ENDMDL
MODEL 4
REMARK VINA RESULT:    22.123      1.340      2.232
REMARK INTER + INTRA:          40.794
REMARK INTER:                  41.157
REMARK INTRA:                  -0.363
REMARK UNBOUND:                -0.729
REMARK SMILES CCCCCCCCC=CCCCCCCCC(=O)[O-]
REMARK SMILES IDX 10 1 9 2 11 3 12 4 13 5 14 6 15 7 16 8 17 9 18 10 19 11
REMARK SMILES IDX 20 12 8 13 7 14 6 15 5 16 4 17 3 18 2 19 1 20
REMARK H PARENT
REMARK Flexibility Score: inf
ROOT
ATOM      1  C   UNL     1     -37.707  23.174 -19.501  1.00  0.00    -0.031 C 
ATOM      2  C   UNL     1     -38.305  22.224 -18.755  1.00  0.00    -0.031 C 
ENDROOT
BRANCH   1   3
ATOM      3  C   UNL     1     -38.415  24.129 -20.435  1.00  0.00     0.027 C 
BRANCH   3   4
ATOM      4  C   UNL     1     -37.523  25.322 -20.810  1.00  0.00     0.004 C 
BRANCH   4   5
ATOM      5  C   UNL     1     -38.266  26.370 -21.651  1.00  0.00     0.000 C 
BRANCH   5   6
ATOM      6  C   UNL     1     -37.516  27.711 -21.648  1.00  0.00     0.000 C 
BRANCH   6   7
ATOM      7  C   UNL     1     -38.470  28.914 -21.806  1.00  0.00     0.000 C 
BRANCH   7   8
ATOM      8  C   UNL     1     -39.954  28.554 -21.618  1.00  0.00     0.006 C 
BRANCH   8   9
ATOM      9  C   UNL     1     -40.791  29.728 -21.098  1.00  0.00     0.053 C 
BRANCH   9  10
ATOM     10  C   UNL     1     -41.676  30.257 -22.181  1.00  0.00     0.041 C 
ATOM     11  O   UNL     1     -41.352  30.116 -23.390  1.00  0.00    -0.550 OA
ATOM     12  O   UNL     1     -42.885  30.861 -21.859  1.00  0.00    -0.550 OA
ENDBRANCH   9  10
ENDBRANCH   8   9
ENDBRANCH   7   8
ENDBRANCH   6   7
ENDBRANCH   5   6
ENDBRANCH   4   5
ENDBRANCH   3   4
ENDBRANCH   1   3
BRANCH   2  13
ATOM     13  C   UNL     1     -39.784  21.931 -18.745  1.00  0.00     0.027 C 
BRANCH  13  14
ATOM     14  C   UNL     1     -40.599  23.164 -18.325  1.00  0.00     0.004 C 
BRANCH  14  15
ATOM     15  C   UNL     1     -41.711  22.827 -17.319  1.00  0.00     0.000 C 
BRANCH  15  16
ATOM     16  C   UNL     1     -41.859  23.895 -16.222  1.00  0.00     0.000 C 
BRANCH  16  17
ATOM     17  C   UNL     1     -42.696  23.402 -15.030  1.00  0.00    -0.000 C 
BRANCH  17  18
ATOM     18  C   UNL     1     -42.725  24.410 -13.870  1.00  0.00    -0.000 C 
BRANCH  18  19
ATOM     19  C   UNL     1     -41.928  23.884 -12.669  1.00  0.00    -0.003 C 
ATOM     20  C   UNL     1     -42.369  24.563 -11.375  1.00  0.00     0.004 C 
ENDBRANCH  18  19
ENDBRANCH  17  18
ENDBRANCH  16  17
ENDBRANCH  15  16
ENDBRANCH  14  15
ENDBRANCH  13  14
ENDBRANCH   2  13
TORSDOF 15
ENDMDL
MODEL 5
REMARK VINA RESULT:    22.173      3.333      8.135
REMARK INTER + INTRA:          40.887
REMARK INTER:                  41.348
REMARK INTRA:                  -0.460
REMARK UNBOUND:                -0.729
REMARK SMILES CCCCCCCCC=CCCCCCCCC(=O)[O-]
REMARK SMILES IDX 10 1 9 2 11 3 12 4 13 5 14 6 15 7 16 8 17 9 18 10 19 11
REMARK SMILES IDX 20 12 8 13 7 14 6 15 5 16 4 17 3 18 2 19 1 20
REMARK H PARENT
REMARK Flexibility Score: inf
ROOT
ATOM      1  C   UNL     1     -36.810  25.830 -20.719  1.00  0.00    -0.031 C 
ATOM      2  C   UNL     1     -36.908  27.138 -21.032  1.00  0.00    -0.031 C 
ENDROOT
BRANCH   1   3
ATOM      3  C   UNL     1     -37.801  24.759 -21.114  1.00  0.00     0.027 C 
BRANCH   3   4
ATOM      4  C   UNL     1     -38.390  24.051 -19.885  1.00  0.00     0.004 C 
BRANCH   4   5
ATOM      5  C   UNL     1     -37.801  22.647 -19.677  1.00  0.00     0.000 C 
BRANCH   5   6
ATOM      6  C   UNL     1     -38.483  21.933 -18.501  1.00  0.00     0.000 C 
BRANCH   6   7
ATOM      7  C   UNL     1     -40.022  21.955 -18.617  1.00  0.00     0.000 C 
BRANCH   7   8
ATOM      8  C   UNL     1     -40.678  23.148 -17.902  1.00  0.00     0.006 C 
BRANCH   8   9
ATOM      9  C   UNL     1     -42.064  22.816 -17.338  1.00  0.00     0.053 C 
BRANCH   9  10
ATOM     10  C   UNL     1     -42.222  23.396 -15.968  1.00  0.00     0.041 C 
ATOM     11  O   UNL     1     -42.952  22.821 -15.117  1.00  0.00    -0.550 OA
ATOM     12  O   UNL     1     -41.524  24.543 -15.612  1.00  0.00    -0.550 OA
ENDBRANCH   9  10
ENDBRANCH   8   9
ENDBRANCH   7   8
ENDBRANCH   6   7
ENDBRANCH   5   6
ENDBRANCH   4   5
ENDBRANCH   3   4
ENDBRANCH   1   3
BRANCH   2  13
ATOM     13  C   UNL     1     -38.039  27.763 -21.808  1.00  0.00     0.027 C 
BRANCH  13  14
ATOM     14  C   UNL     1     -38.247  29.233 -21.413  1.00  0.00     0.004 C 
BRANCH  14  15
ATOM     15  C   UNL     1     -39.660  29.509 -20.874  1.00  0.00     0.000 C 
BRANCH  15  16
ATOM     16  C   UNL     1     -40.753  29.264 -21.928  1.00  0.00     0.000 C 
BRANCH  16  17
ATOM     17  C   UNL     1     -41.406  30.568 -22.414  1.00  0.00    -0.000 C 
BRANCH  17  18
ATOM     18  C   UNL     1     -42.742  30.329 -23.135  1.00  0.00    -0.000 C 
BRANCH  18  19
ATOM     19  C   UNL     1     -43.924  30.566 -22.188  1.00  0.00    -0.003 C 
ATOM     20  C   UNL     1     -43.640  31.719 -21.229  1.00  0.00     0.004 C 
ENDBRANCH  18  19
ENDBRANCH  17  18
ENDBRANCH  16  17
ENDBRANCH  15  16
ENDBRANCH  14  15
ENDBRANCH  13  14
ENDBRANCH   2  13
TORSDOF 15
ENDMDL
MODEL 6
REMARK VINA RESULT:    22.287      7.875     10.238
REMARK INTER + INTRA:          41.101
REMARK INTER:                  41.552
REMARK INTRA:                  -0.450
REMARK UNBOUND:                -0.729
REMARK SMILES CCCCCCCCC=CCCCCCCCC(=O)[O-]
REMARK SMILES IDX 10 1 9 2 11 3 12 4 13 5 14 6 15 7 16 8 17 9 18 10 19 11
REMARK SMILES IDX 20 12 8 13 7 14 6 15 5 16 4 17 3 18 2 19 1 20
REMARK H PARENT
REMARK Flexibility Score: inf
ROOT
ATOM      1  C   UNL     1     -34.899  31.548 -18.431  1.00  0.00    -0.031 C 
ATOM      2  C   UNL     1     -36.101  31.292 -18.984  1.00  0.00    -0.031 C 
ENDROOT
BRANCH   1   3
ATOM      3  C   UNL     1     -33.879  30.506 -18.031  1.00  0.00     0.027 C 
BRANCH   3   4
ATOM      4  C   UNL     1     -32.451  30.943 -18.388  1.00  0.00     0.004 C 
BRANCH   4   5
ATOM      5  C   UNL     1     -31.533  29.753 -18.706  1.00  0.00     0.000 C 
BRANCH   5   6
ATOM      6  C   UNL     1     -30.666  29.387 -17.492  1.00  0.00     0.000 C 
BRANCH   6   7
ATOM      7  C   UNL     1     -31.514  29.107 -16.233  1.00  0.00     0.000 C 
BRANCH   7   8
ATOM      8  C   UNL     1     -31.033  27.889 -15.425  1.00  0.00     0.006 C 
BRANCH   8   9
ATOM      9  C   UNL     1     -30.452  26.780 -16.308  1.00  0.00     0.053 C 
BRANCH   9  10
ATOM     10  C   UNL     1     -29.481  25.948 -15.531  1.00  0.00     0.041 C 
ATOM     11  O   UNL     1     -28.244  26.061 -15.736  1.00  0.00    -0.550 OA
ATOM     12  O   UNL     1     -29.939  25.086 -14.543  1.00  0.00    -0.550 OA
ENDBRANCH   9  10
ENDBRANCH   8   9
ENDBRANCH   7   8
ENDBRANCH   6   7
ENDBRANCH   5   6
ENDBRANCH   4   5
ENDBRANCH   3   4
ENDBRANCH   1   3
BRANCH   2  13
ATOM     13  C   UNL     1     -36.648  29.917 -19.275  1.00  0.00     0.027 C 
BRANCH  13  14
ATOM     14  C   UNL     1     -37.532  29.919 -20.532  1.00  0.00     0.004 C 
BRANCH  14  15
ATOM     15  C   UNL     1     -39.033  29.876 -20.202  1.00  0.00     0.000 C 
BRANCH  15  16
ATOM     16  C   UNL     1     -39.894  29.494 -21.418  1.00  0.00     0.000 C 
BRANCH  16  17
ATOM     17  C   UNL     1     -41.360  29.931 -21.262  1.00  0.00    -0.000 C 
BRANCH  17  18
ATOM     18  C   UNL     1     -42.020  30.281 -22.605  1.00  0.00    -0.000 C 
BRANCH  18  19
ATOM     19  C   UNL     1     -42.973  31.472 -22.452  1.00  0.00    -0.003 C 
ATOM     20  C   UNL     1     -43.882  31.299 -21.238  1.00  0.00     0.004 C 
ENDBRANCH  18  19
ENDBRANCH  17  18
ENDBRANCH  16  17
ENDBRANCH  15  16
ENDBRANCH  14  15
ENDBRANCH  13  14
ENDBRANCH   2  13
TORSDOF 15
ENDMDL
MODEL 7
REMARK VINA RESULT:    23.090      2.346      5.238
REMARK INTER + INTRA:          42.608
REMARK INTER:                  43.139
REMARK INTRA:                  -0.531
REMARK UNBOUND:                -0.729
REMARK SMILES CCCCCCCCC=CCCCCCCCC(=O)[O-]
REMARK SMILES IDX 10 1 9 2 11 3 12 4 13 5 14 6 15 7 16 8 17 9 18 10 19 11
REMARK SMILES IDX 20 12 8 13 7 14 6 15 5 16 4 17 3 18 2 19 1 20
REMARK H PARENT
REMARK Flexibility Score: inf
ROOT
ATOM      1  C   UNL     1     -36.876  27.181 -21.100  1.00  0.00    -0.031 C 
ATOM      2  C   UNL     1     -36.731  25.961 -20.544  1.00  0.00    -0.031 C 
ENDROOT
BRANCH   1   3
ATOM      3  C   UNL     1     -37.827  27.523 -22.224  1.00  0.00     0.027 C 
BRANCH   3   4
ATOM      4  C   UNL     1     -38.356  28.960 -22.101  1.00  0.00     0.004 C 
BRANCH   4   5
ATOM      5  C   UNL     1     -38.314  29.481 -20.657  1.00  0.00     0.000 C 
BRANCH   5   6
ATOM      6  C   UNL     1     -39.709  29.921 -20.190  1.00  0.00     0.000 C 
BRANCH   6   7
ATOM      7  C   UNL     1     -40.807  29.567 -21.216  1.00  0.00     0.000 C 
BRANCH   7   8
ATOM      8  C   UNL     1     -41.589  30.788 -21.729  1.00  0.00     0.006 C 
BRANCH   8   9
ATOM      9  C   UNL     1     -43.023  30.444 -22.147  1.00  0.00     0.053 C 
BRANCH   9  10
ATOM     10  C   UNL     1     -43.967  31.517 -21.704  1.00  0.00     0.041 C 
ATOM     11  O   UNL     1     -44.647  32.152 -22.553  1.00  0.00    -0.550 OA
ATOM     12  O   UNL     1     -44.135  31.781 -20.351  1.00  0.00    -0.550 OA
ENDBRANCH   9  10
ENDBRANCH   8   9
ENDBRANCH   7   8
ENDBRANCH   6   7
ENDBRANCH   5   6
ENDBRANCH   4   5
ENDBRANCH   3   4
ENDBRANCH   1   3
BRANCH   2  13
ATOM     13  C   UNL     1     -37.475  24.719 -20.967  1.00  0.00     0.027 C 
BRANCH  13  14
ATOM     14  C   UNL     1     -38.078  23.987 -19.759  1.00  0.00     0.004 C 
BRANCH  14  15
ATOM     15  C   UNL     1     -37.901  22.462 -19.839  1.00  0.00     0.000 C 
BRANCH  15  16
ATOM     16  C   UNL     1     -38.239  21.757 -18.515  1.00  0.00     0.000 C 
BRANCH  16  17
ATOM     17  C   UNL     1     -39.743  21.477 -18.364  1.00  0.00    -0.000 C 
BRANCH  17  18
ATOM     18  C   UNL     1     -40.586  22.762 -18.351  1.00  0.00    -0.000 C 
BRANCH  18  19
ATOM     19  C   UNL     1     -41.928  22.528 -17.647  1.00  0.00    -0.003 C 
ATOM     20  C   UNL     1     -42.014  23.322 -16.346  1.00  0.00     0.004 C 
ENDBRANCH  18  19
ENDBRANCH  17  18
ENDBRANCH  16  17
ENDBRANCH  15  16
ENDBRANCH  14  15
ENDBRANCH  13  14
ENDBRANCH   2  13
TORSDOF 15
ENDMDL
