MODEL 1
REMARK VINA RESULT:    -3.657      0.000      0.000
REMARK INTER + INTRA:          -4.380
REMARK INTER:                  -4.298
REMARK INTRA:                  -0.082
REMARK UNBOUND:                -0.082
REMARK SMILES CCCCC(=O)[O-]
REMARK SMILES IDX 4 1 5 2 6 3 7 4 3 5 2 6 1 7
REMARK H PARENT
REMARK Flexibility Score: inf
ROOT
ATOM      1  C   UNL     1       2.595  -2.940  -6.713  1.00  0.00     0.053 C 
ENDROOT
BRANCH   1   2
ATOM      2  C   UNL     1       2.053  -4.270  -6.281  1.00  0.00     0.041 C 
ATOM      3  O   UNL     1       2.837  -5.181  -5.906  1.00  0.00    -0.550 OA
ATOM      4  O   UNL     1       0.682  -4.490  -6.263  1.00  0.00    -0.550 OA
ENDBRANCH   1   2
BRANCH   1   5
ATOM      5  C   UNL     1       1.840  -1.778  -6.054  1.00  0.00     0.006 C 
BRANCH   5   6
ATOM      6  C   UNL     1       0.846  -1.112  -7.018  1.00  0.00    -0.003 C 
ATOM      7  C   UNL     1       1.234  -1.368  -8.471  1.00  0.00     0.004 C 
ENDBRANCH   5   6
ENDBRANCH   1   5
TORSDOF 3
ENDMDL
MODEL 2
REMARK VINA RESULT:    -3.610      2.474      3.544
REMARK INTER + INTRA:          -4.325
REMARK INTER:                  -4.248
REMARK INTRA:                  -0.077
REMARK UNBOUND:                -0.082
REMARK SMILES CCCCC(=O)[O-]
REMARK SMILES IDX 4 1 5 2 6 3 7 4 3 5 2 6 1 7
REMARK H PARENT
REMARK Flexibility Score: inf
ROOT
ATOM      1  C   UNL     1       0.953  -2.680  -7.225  1.00  0.00     0.053 C 
ENDROOT
BRANCH   1   2
ATOM      2  C   UNL     1       1.120  -1.209  -6.995  1.00  0.00     0.041 C 
ATOM      3  O   UNL     1       1.538  -0.785  -5.885  1.00  0.00    -0.550 OA
ATOM      4  O   UNL     1       0.847  -0.309  -8.018  1.00  0.00    -0.550 OA
ENDBRANCH   1   2
BRANCH   1   5
ATOM      5  C   UNL     1       1.042  -3.475  -5.915  1.00  0.00     0.006 C 
BRANCH   5   6
ATOM      6  C   UNL     1       2.154  -4.534  -5.954  1.00  0.00    -0.003 C 
ATOM      7  C   UNL     1       2.710  -4.696  -7.367  1.00  0.00     0.004 C 
ENDBRANCH   5   6
ENDBRANCH   1   5
TORSDOF 3
ENDMDL
MODEL 3
REMARK VINA RESULT:    -3.444      1.812      2.788
REMARK INTER + INTRA:          -4.130
REMARK INTER:                  -4.029
REMARK INTRA:                  -0.101
REMARK UNBOUND:                -0.082
REMARK SMILES CCCCC(=O)[O-]
REMARK SMILES IDX 4 1 5 2 6 3 7 4 3 5 2 6 1 7
REMARK H PARENT
REMARK Flexibility Score: inf
ROOT
ATOM      1  C   UNL     1       0.817  -4.451  -6.623  1.00  0.00     0.053 C 
ENDROOT
BRANCH   1   2
ATOM      2  C   UNL     1       0.878  -4.899  -8.052  1.00  0.00     0.041 C 
ATOM      3  O   UNL     1       0.029  -4.481  -8.883  1.00  0.00    -0.550 OA
ATOM      4  O   UNL     1       1.891  -5.753  -8.471  1.00  0.00    -0.550 OA
ENDBRANCH   1   2
BRANCH   1   5
ATOM      5  C   UNL     1       2.216  -4.213  -6.040  1.00  0.00     0.006 C 
BRANCH   5   6
ATOM      6  C   UNL     1       2.790  -2.848  -6.448  1.00  0.00    -0.003 C 
ATOM      7  C   UNL     1       1.788  -1.729  -6.180  1.00  0.00     0.004 C 
ENDBRANCH   5   6
ENDBRANCH   1   5
TORSDOF 3
ENDMDL
MODEL 4
REMARK VINA RESULT:    -3.368      2.508      3.049
REMARK INTER + INTRA:          -4.041
REMARK INTER:                  -3.954
REMARK INTRA:                  -0.087
REMARK UNBOUND:                -0.082
REMARK SMILES CCCCC(=O)[O-]
REMARK SMILES IDX 4 1 5 2 6 3 7 4 3 5 2 6 1 7
REMARK H PARENT
REMARK Flexibility Score: inf
ROOT
ATOM      1  C   UNL     1       2.284  -3.372  -6.224  1.00  0.00     0.053 C 
ENDROOT
BRANCH   1   2
ATOM      2  C   UNL     1       2.318  -1.964  -6.737  1.00  0.00     0.041 C 
ATOM      3  O   UNL     1       2.963  -1.686  -7.782  1.00  0.00    -0.550 OA
ATOM      4  O   UNL     1       1.610  -0.966  -6.078  1.00  0.00    -0.550 OA
ENDBRANCH   1   2
BRANCH   1   5
ATOM      5  C   UNL     1       0.903  -4.013  -6.414  1.00  0.00     0.006 C 
BRANCH   5   6
ATOM      6  C   UNL     1       0.853  -4.930  -7.646  1.00  0.00    -0.003 C 
ATOM      7  C   UNL     1       0.316  -4.183  -8.864  1.00  0.00     0.004 C 
ENDBRANCH   5   6
ENDBRANCH   1   5
TORSDOF 3
ENDMDL
MODEL 5
REMARK VINA RESULT:    -3.355      2.588      3.800
REMARK INTER + INTRA:          -4.026
REMARK INTER:                  -3.978
REMARK INTRA:                  -0.048
REMARK UNBOUND:                -0.082
REMARK SMILES CCCCC(=O)[O-]
REMARK SMILES IDX 4 1 5 2 6 3 7 4 3 5 2 6 1 7
REMARK H PARENT
REMARK Flexibility Score: inf
ROOT
ATOM      1  C   UNL     1       0.812  -1.173  -6.900  1.00  0.00     0.053 C 
ENDROOT
BRANCH   1   2
ATOM      2  C   UNL     1       1.028  -0.986  -8.372  1.00  0.00     0.041 C 
ATOM      3  O   UNL     1       1.229  -1.983  -9.114  1.00  0.00    -0.550 OA
ATOM      4  O   UNL     1       0.974   0.287  -8.927  1.00  0.00    -0.550 OA
ENDBRANCH   1   2
BRANCH   1   5
ATOM      5  C   UNL     1       1.834  -2.144  -6.294  1.00  0.00     0.006 C 
BRANCH   5   6
ATOM      6  C   UNL     1       1.207  -3.501  -5.941  1.00  0.00    -0.003 C 
ATOM      7  C   UNL     1       2.268  -4.596  -5.872  1.00  0.00     0.004 C 
ENDBRANCH   5   6
ENDBRANCH   1   5
TORSDOF 3
ENDMDL
MODEL 6
REMARK VINA RESULT:    -3.251      2.223      2.972
REMARK INTER + INTRA:          -3.903
REMARK INTER:                  -3.805
REMARK INTRA:                  -0.098
REMARK UNBOUND:                -0.082
REMARK SMILES CCCCC(=O)[O-]
REMARK SMILES IDX 4 1 5 2 6 3 7 4 3 5 2 6 1 7
REMARK H PARENT
REMARK Flexibility Score: inf
ROOT
ATOM      1  C   UNL     1       0.806  -4.301  -6.597  1.00  0.00     0.053 C 
ENDROOT
BRANCH   1   2
ATOM      2  C   UNL     1       2.245  -4.330  -6.178  1.00  0.00     0.041 C 
ATOM      3  O   UNL     1       2.772  -5.409  -5.800  1.00  0.00    -0.550 OA
ATOM      4  O   UNL     1       3.011  -3.172  -6.236  1.00  0.00    -0.550 OA
ENDBRANCH   1   2
BRANCH   1   5
ATOM      5  C   UNL     1       0.632  -3.687  -7.993  1.00  0.00     0.006 C 
BRANCH   5   6
ATOM      6  C   UNL     1       0.768  -4.735  -9.108  1.00  0.00    -0.003 C 
ATOM      7  C   UNL     1      -0.019  -5.999  -8.774  1.00  0.00     0.004 C 
ENDBRANCH   5   6
ENDBRANCH   1   5
TORSDOF 3
ENDMDL
MODEL 7
REMARK VINA RESULT:    -3.097      1.242      1.902
REMARK INTER + INTRA:          -3.722
REMARK INTER:                  -3.685
REMARK INTRA:                  -0.037
REMARK UNBOUND:                -0.082
REMARK SMILES CCCCC(=O)[O-]
REMARK SMILES IDX 4 1 5 2 6 3 7 4 3 5 2 6 1 7
REMARK H PARENT
REMARK Flexibility Score: inf
ROOT
ATOM      1  C   UNL     1       2.556  -2.756  -6.179  1.00  0.00     0.053 C 
ENDROOT
BRANCH   1   2
ATOM      2  C   UNL     1       1.977  -4.136  -6.099  1.00  0.00     0.041 C 
ATOM      3  O   UNL     1       0.734  -4.309  -6.210  1.00  0.00    -0.550 OA
ATOM      4  O   UNL     1       2.813  -5.234  -5.935  1.00  0.00    -0.550 OA
ENDBRANCH   1   2
BRANCH   1   5
ATOM      5  C   UNL     1       2.042  -1.993  -7.407  1.00  0.00     0.006 C 
BRANCH   5   6
ATOM      6  C   UNL     1       3.157  -1.715  -8.426  1.00  0.00    -0.003 C 
ATOM      7  C   UNL     1       2.767  -2.212  -9.816  1.00  0.00     0.004 C 
ENDBRANCH   5   6
ENDBRANCH   1   5
TORSDOF 3
ENDMDL
MODEL 8
REMARK VINA RESULT:    -3.023     15.272     16.122
REMARK INTER + INTRA:          -3.636
REMARK INTER:                  -3.571
REMARK INTRA:                  -0.065
REMARK UNBOUND:                -0.082
REMARK SMILES CCCCC(=O)[O-]
REMARK SMILES IDX 4 1 5 2 6 3 7 4 3 5 2 6 1 7
REMARK H PARENT
REMARK Flexibility Score: inf
ROOT
ATOM      1  C   UNL     1      -4.198   3.004   6.186  1.00  0.00     0.053 C 
ENDROOT
BRANCH   1   2
ATOM      2  C   UNL     1      -4.997   3.249   4.942  1.00  0.00     0.041 C 
ATOM      3  O   UNL     1      -6.245   3.081   4.948  1.00  0.00    -0.550 OA
ATOM      4  O   UNL     1      -4.367   3.695   3.786  1.00  0.00    -0.550 OA
ENDBRANCH   1   2
BRANCH   1   5
ATOM      5  C   UNL     1      -3.514   4.284   6.685  1.00  0.00     0.006 C 
BRANCH   5   6
ATOM      6  C   UNL     1      -4.477   5.187   7.470  1.00  0.00    -0.003 C 
ATOM      7  C   UNL     1      -3.811   5.739   8.728  1.00  0.00     0.004 C 
ENDBRANCH   5   6
ENDBRANCH   1   5
TORSDOF 3
ENDMDL
MODEL 9
REMARK VINA RESULT:    -2.896     15.998     16.766
REMARK INTER + INTRA:          -3.487
REMARK INTER:                  -3.407
REMARK INTRA:                  -0.080
REMARK UNBOUND:                -0.082
REMARK SMILES CCCCC(=O)[O-]
REMARK SMILES IDX 4 1 5 2 6 3 7 4 3 5 2 6 1 7
REMARK H PARENT
REMARK Flexibility Score: inf
ROOT
ATOM      1  C   UNL     1      -3.669   4.407   6.889  1.00  0.00     0.053 C 
ENDROOT
BRANCH   1   2
ATOM      2  C   UNL     1      -4.427   5.261   7.860  1.00  0.00     0.041 C 
ATOM      3  O   UNL     1      -5.686   5.266   7.850  1.00  0.00    -0.550 OA
ATOM      4  O   UNL     1      -3.742   6.025   8.797  1.00  0.00    -0.550 OA
ENDBRANCH   1   2
BRANCH   1   5
ATOM      5  C   UNL     1      -4.505   3.214   6.407  1.00  0.00     0.006 C 
BRANCH   5   6
ATOM      6  C   UNL     1      -4.851   3.312   4.914  1.00  0.00    -0.003 C 
ATOM      7  C   UNL     1      -3.770   4.071   4.149  1.00  0.00     0.004 C 
ENDBRANCH   5   6
ENDBRANCH   1   5
TORSDOF 3
ENDMDL
