MODEL 1
REMARK VINA RESULT:    -3.369      0.000      0.000
REMARK INTER + INTRA:          -5.019
REMARK INTER:                  -4.452
REMARK INTRA:                  -0.567
REMARK UNBOUND:                -0.567
REMARK SMILES C=C[C@H](O)CCCCC
REMARK SMILES IDX 6 1 7 2 8 3 9 4 5 5 3 6 2 7 1 8 4 9
REMARK H PARENT 4 10
REMARK Flexibility Score: inf
ROOT
ATOM      1  C   UNL     1     129.058 139.997 137.585  1.00  0.00     0.003 C 
ENDROOT
BRANCH   1   2
ATOM      2  C   UNL     1     129.425 139.047 136.433  1.00  0.00    -0.000 C 
BRANCH   2   3
ATOM      3  C   UNL     1     129.881 137.667 136.925  1.00  0.00    -0.003 C 
ATOM      4  C   UNL     1     131.258 137.313 136.370  1.00  0.00     0.004 C 
ENDBRANCH   2   3
ENDBRANCH   1   2
BRANCH   1   5
ATOM      5  C   UNL     1     130.079 139.947 138.739  1.00  0.00     0.036 C 
BRANCH   5   6
ATOM      6  C   UNL     1     131.173 141.029 138.623  1.00  0.00     0.136 C 
BRANCH   6   7
ATOM      7  C   UNL     1     132.450 140.474 138.042  1.00  0.00    -0.004 C 
ATOM      8  C   UNL     1     132.894 140.868 136.845  1.00  0.00     0.007 C 
ENDBRANCH   6   7
BRANCH   6   9
ATOM      9  O   UNL     1     131.436 141.603 139.878  1.00  0.00    -0.389 OA
ATOM     10  H   UNL     1     131.569 142.575 139.725  1.00  0.00     0.211 HD
ENDBRANCH   6   9
ENDBRANCH   5   6
ENDBRANCH   1   5
TORSDOF 6
ENDMDL
MODEL 2
REMARK VINA RESULT:    -3.259     14.154     15.151
REMARK INTER + INTRA:          -4.873
REMARK INTER:                  -4.597
REMARK INTRA:                  -0.276
REMARK UNBOUND:                -0.567
REMARK SMILES C=C[C@H](O)CCCCC
REMARK SMILES IDX 6 1 7 2 8 3 9 4 5 5 3 6 2 7 1 8 4 9
REMARK H PARENT 4 10
REMARK Flexibility Score: inf
ROOT
ATOM      1  C   UNL     1     137.139 134.705 148.614  1.00  0.00     0.003 C 
ENDROOT
BRANCH   1   2
ATOM      2  C   UNL     1     138.128 134.755 149.790  1.00  0.00    -0.000 C 
BRANCH   2   3
ATOM      3  C   UNL     1     139.536 135.191 149.360  1.00  0.00    -0.003 C 
ATOM      4  C   UNL     1     140.495 135.199 150.548  1.00  0.00     0.004 C 
ENDBRANCH   2   3
ENDBRANCH   1   2
BRANCH   1   5
ATOM      5  C   UNL     1     136.996 133.290 148.021  1.00  0.00     0.036 C 
BRANCH   5   6
ATOM      6  C   UNL     1     135.686 132.590 148.439  1.00  0.00     0.136 C 
BRANCH   6   7
ATOM      7  C   UNL     1     135.939 131.452 149.397  1.00  0.00    -0.004 C 
ATOM      8  C   UNL     1     136.158 131.677 150.695  1.00  0.00     0.007 C 
ENDBRANCH   6   7
BRANCH   6   9
ATOM      9  O   UNL     1     134.998 132.112 147.311  1.00  0.00    -0.389 OA
ATOM     10  H   UNL     1     134.575 131.254 147.577  1.00  0.00     0.211 HD
ENDBRANCH   6   9
ENDBRANCH   5   6
ENDBRANCH   1   5
TORSDOF 6
ENDMDL
MODEL 3
REMARK VINA RESULT:    -3.256      2.085      3.791
REMARK INTER + INTRA:          -4.870
REMARK INTER:                  -4.320
REMARK INTRA:                  -0.550
REMARK UNBOUND:                -0.567
REMARK SMILES C=C[C@H](O)CCCCC
REMARK SMILES IDX 6 1 7 2 8 3 9 4 5 5 3 6 2 7 1 8 4 9
REMARK H PARENT 4 10
REMARK Flexibility Score: inf
ROOT
ATOM      1  C   UNL     1     129.985 139.655 138.693  1.00  0.00     0.003 C 
ENDROOT
BRANCH   1   2
ATOM      2  C   UNL     1     131.024 140.789 138.689  1.00  0.00    -0.000 C 
BRANCH   2   3
ATOM      3  C   UNL     1     132.025 140.669 137.532  1.00  0.00    -0.003 C 
ATOM      4  C   UNL     1     133.354 140.093 138.013  1.00  0.00     0.004 C 
ENDBRANCH   2   3
ENDBRANCH   1   2
BRANCH   1   5
ATOM      5  C   UNL     1     129.278 139.497 137.333  1.00  0.00     0.036 C 
BRANCH   5   6
ATOM      6  C   UNL     1     129.415 138.077 136.744  1.00  0.00     0.136 C 
BRANCH   6   7
ATOM      7  C   UNL     1     130.372 137.228 137.545  1.00  0.00    -0.004 C 
ATOM      8  C   UNL     1     131.435 136.657 136.972  1.00  0.00     0.007 C 
ENDBRANCH   6   7
BRANCH   6   9
ATOM      9  O   UNL     1     129.844 138.134 135.407  1.00  0.00    -0.389 OA
ATOM     10  H   UNL     1     130.136 139.069 135.241  1.00  0.00     0.211 HD
ENDBRANCH   6   9
ENDBRANCH   5   6
ENDBRANCH   1   5
TORSDOF 6
ENDMDL
MODEL 4
REMARK VINA RESULT:    -3.213      2.345      3.561
REMARK INTER + INTRA:          -4.813
REMARK INTER:                  -4.228
REMARK INTRA:                  -0.585
REMARK UNBOUND:                -0.567
REMARK SMILES C=C[C@H](O)CCCCC
REMARK SMILES IDX 6 1 7 2 8 3 9 4 5 5 3 6 2 7 1 8 4 9
REMARK H PARENT 4 10
REMARK Flexibility Score: inf
ROOT
ATOM      1  C   UNL     1     129.358 138.067 137.997  1.00  0.00     0.003 C 
ENDROOT
BRANCH   1   2
ATOM      2  C   UNL     1     129.408 139.233 138.998  1.00  0.00    -0.000 C 
BRANCH   2   3
ATOM      3  C   UNL     1     129.952 140.526 138.375  1.00  0.00    -0.003 C 
ATOM      4  C   UNL     1     131.030 141.149 139.256  1.00  0.00     0.004 C 
ENDBRANCH   2   3
ENDBRANCH   1   2
BRANCH   1   5
ATOM      5  C   UNL     1     130.759 137.635 137.524  1.00  0.00     0.036 C 
BRANCH   5   6
ATOM      6  C   UNL     1     130.974 137.839 136.009  1.00  0.00     0.136 C 
BRANCH   6   7
ATOM      7  C   UNL     1     131.976 138.932 135.728  1.00  0.00    -0.004 C 
ATOM      8  C   UNL     1     132.951 139.215 136.596  1.00  0.00     0.007 C 
ENDBRANCH   6   7
BRANCH   6   9
ATOM      9  O   UNL     1     129.758 138.141 135.373  1.00  0.00    -0.389 OA
ATOM     10  H   UNL     1     129.847 139.061 135.009  1.00  0.00     0.211 HD
ENDBRANCH   6   9
ENDBRANCH   5   6
ENDBRANCH   1   5
TORSDOF 6
ENDMDL
MODEL 5
REMARK VINA RESULT:    -3.201     14.440     15.039
REMARK INTER + INTRA:          -4.797
REMARK INTER:                  -4.514
REMARK INTRA:                  -0.283
REMARK UNBOUND:                -0.567
REMARK SMILES C=C[C@H](O)CCCCC
REMARK SMILES IDX 6 1 7 2 8 3 9 4 5 5 3 6 2 7 1 8 4 9
REMARK H PARENT 4 10
REMARK Flexibility Score: inf
ROOT
ATOM      1  C   UNL     1     136.305 133.915 148.790  1.00  0.00     0.003 C 
ENDROOT
BRANCH   1   2
ATOM      2  C   UNL     1     135.986 132.498 148.285  1.00  0.00    -0.000 C 
BRANCH   2   3
ATOM      3  C   UNL     1     136.588 131.402 149.176  1.00  0.00    -0.003 C 
ATOM      4  C   UNL     1     136.237 131.633 150.643  1.00  0.00     0.004 C 
ENDBRANCH   2   3
ENDBRANCH   1   2
BRANCH   1   5
ATOM      5  C   UNL     1     137.728 134.370 148.410  1.00  0.00     0.036 C 
BRANCH   5   6
ATOM      6  C   UNL     1     138.456 135.095 149.562  1.00  0.00     0.136 C 
BRANCH   6   7
ATOM      7  C   UNL     1     139.915 134.717 149.628  1.00  0.00    -0.004 C 
ATOM      8  C   UNL     1     140.745 135.313 150.488  1.00  0.00     0.007 C 
ENDBRANCH   6   7
BRANCH   6   9
ATOM      9  O   UNL     1     137.840 134.811 150.793  1.00  0.00    -0.389 OA
ATOM     10  H   UNL     1     138.557 134.826 151.480  1.00  0.00     0.211 HD
ENDBRANCH   6   9
ENDBRANCH   5   6
ENDBRANCH   1   5
TORSDOF 6
ENDMDL
MODEL 6
REMARK VINA RESULT:    -3.194     14.170     15.363
REMARK INTER + INTRA:          -4.787
REMARK INTER:                  -4.351
REMARK INTRA:                  -0.437
REMARK UNBOUND:                -0.567
REMARK SMILES C=C[C@H](O)CCCCC
REMARK SMILES IDX 6 1 7 2 8 3 9 4 5 5 3 6 2 7 1 8 4 9
REMARK H PARENT 4 10
REMARK Flexibility Score: inf
ROOT
ATOM      1  C   UNL     1     140.860 134.977 149.403  1.00  0.00     0.003 C 
ENDROOT
BRANCH   1   2
ATOM      2  C   UNL     1     141.531 136.334 149.136  1.00  0.00    -0.000 C 
BRANCH   2   3
ATOM      3  C   UNL     1     142.101 136.443 147.714  1.00  0.00    -0.003 C 
ATOM      4  C   UNL     1     141.286 135.608 146.731  1.00  0.00     0.004 C 
ENDBRANCH   2   3
ENDBRANCH   1   2
BRANCH   1   5
ATOM      5  C   UNL     1     139.665 135.089 150.370  1.00  0.00     0.036 C 
BRANCH   5   6
ATOM      6  C   UNL     1     138.386 134.417 149.828  1.00  0.00     0.136 C 
BRANCH   6   7
ATOM      7  C   UNL     1     137.736 135.242 148.745  1.00  0.00    -0.004 C 
ATOM      8  C   UNL     1     137.700 134.816 147.479  1.00  0.00     0.007 C 
ENDBRANCH   6   7
BRANCH   6   9
ATOM      9  O   UNL     1     137.466 134.195 150.867  1.00  0.00    -0.389 OA
ATOM     10  H   UNL     1     137.226 133.231 150.834  1.00  0.00     0.211 HD
ENDBRANCH   6   9
ENDBRANCH   5   6
ENDBRANCH   1   5
TORSDOF 6
ENDMDL
MODEL 7
REMARK VINA RESULT:    -3.149      1.843      3.370
REMARK INTER + INTRA:          -4.729
REMARK INTER:                  -4.122
REMARK INTRA:                  -0.607
REMARK UNBOUND:                -0.567
REMARK SMILES C=C[C@H](O)CCCCC
REMARK SMILES IDX 6 1 7 2 8 3 9 4 5 5 3 6 2 7 1 8 4 9
REMARK H PARENT 4 10
REMARK Flexibility Score: inf
ROOT
ATOM      1  C   UNL     1     131.246 140.979 138.030  1.00  0.00     0.003 C 
ENDROOT
BRANCH   1   2
ATOM      2  C   UNL     1     132.673 140.407 138.055  1.00  0.00    -0.000 C 
BRANCH   2   3
ATOM      3  C   UNL     1     132.831 139.172 137.157  1.00  0.00    -0.003 C 
ATOM      4  C   UNL     1     132.248 139.423 135.770  1.00  0.00     0.004 C 
ENDBRANCH   2   3
ENDBRANCH   1   2
BRANCH   1   5
ATOM      5  C   UNL     1     130.266 140.159 138.891  1.00  0.00     0.036 C 
BRANCH   5   6
ATOM      6  C   UNL     1     128.985 139.757 138.130  1.00  0.00     0.136 C 
BRANCH   6   7
ATOM      7  C   UNL     1     128.875 138.261 137.968  1.00  0.00    -0.004 C 
ATOM      8  C   UNL     1     129.858 137.449 138.368  1.00  0.00     0.007 C 
ENDBRANCH   6   7
BRANCH   6   9
ATOM      9  O   UNL     1     128.948 140.370 136.866  1.00  0.00    -0.389 OA
ATOM     10  H   UNL     1     129.770 140.085 136.386  1.00  0.00     0.211 HD
ENDBRANCH   6   9
ENDBRANCH   5   6
ENDBRANCH   1   5
TORSDOF 6
ENDMDL
MODEL 8
REMARK VINA RESULT:    -3.137      8.907     11.066
REMARK INTER + INTRA:          -4.713
REMARK INTER:                  -4.475
REMARK INTRA:                  -0.238
REMARK UNBOUND:                -0.567
REMARK SMILES C=C[C@H](O)CCCCC
REMARK SMILES IDX 6 1 7 2 8 3 9 4 5 5 3 6 2 7 1 8 4 9
REMARK H PARENT 4 10
REMARK Flexibility Score: inf
ROOT
ATOM      1  C   UNL     1     139.989 144.064 141.862  1.00  0.00     0.003 C 
ENDROOT
BRANCH   1   2
ATOM      2  C   UNL     1     140.481 143.640 143.256  1.00  0.00    -0.000 C 
BRANCH   2   3
ATOM      3  C   UNL     1     141.110 144.801 144.039  1.00  0.00    -0.003 C 
ATOM      4  C   UNL     1     142.321 144.331 144.839  1.00  0.00     0.004 C 
ENDBRANCH   2   3
ENDBRANCH   1   2
BRANCH   1   5
ATOM      5  C   UNL     1     138.467 143.888 141.694  1.00  0.00     0.036 C 
BRANCH   5   6
ATOM      6  C   UNL     1     137.813 143.135 142.871  1.00  0.00     0.136 C 
BRANCH   6   7
ATOM      7  C   UNL     1     137.309 141.775 142.455  1.00  0.00    -0.004 C 
ATOM      8  C   UNL     1     136.254 141.647 141.645  1.00  0.00     0.007 C 
ENDBRANCH   6   7
BRANCH   6   9
ATOM      9  O   UNL     1     136.755 143.884 143.411  1.00  0.00    -0.389 OA
ATOM     10  H   UNL     1     136.902 143.919 144.393  1.00  0.00     0.211 HD
ENDBRANCH   6   9
ENDBRANCH   5   6
ENDBRANCH   1   5
TORSDOF 6
ENDMDL
MODEL 9
REMARK VINA RESULT:    -3.067      2.350      4.394
REMARK INTER + INTRA:          -4.619
REMARK INTER:                  -4.102
REMARK INTRA:                  -0.517
REMARK UNBOUND:                -0.567
REMARK SMILES C=C[C@H](O)CCCCC
REMARK SMILES IDX 6 1 7 2 8 3 9 4 5 5 3 6 2 7 1 8 4 9
REMARK H PARENT 4 10
REMARK Flexibility Score: inf
ROOT
ATOM      1  C   UNL     1     132.305 138.438 136.695  1.00  0.00     0.003 C 
ENDROOT
BRANCH   1   2
ATOM      2  C   UNL     1     131.767 139.868 136.873  1.00  0.00    -0.000 C 
BRANCH   2   3
ATOM      3  C   UNL     1     132.006 140.418 138.286  1.00  0.00    -0.003 C 
ATOM      4  C   UNL     1     130.714 140.963 138.889  1.00  0.00     0.004 C 
ENDBRANCH   2   3
ENDBRANCH   1   2
BRANCH   1   5
ATOM      5  C   UNL     1     131.179 137.400 136.528  1.00  0.00     0.036 C 
BRANCH   5   6
ATOM      6  C   UNL     1     129.769 138.012 136.665  1.00  0.00     0.136 C 
BRANCH   6   7
ATOM      7  C   UNL     1     128.912 137.233 137.633  1.00  0.00    -0.004 C 
ATOM      8  C   UNL     1     129.021 137.414 138.952  1.00  0.00     0.007 C 
ENDBRANCH   6   7
BRANCH   6   9
ATOM      9  O   UNL     1     129.132 138.070 135.414  1.00  0.00    -0.389 OA
ATOM     10  H   UNL     1     129.642 138.720 134.863  1.00  0.00     0.211 HD
ENDBRANCH   6   9
ENDBRANCH   5   6
ENDBRANCH   1   5
TORSDOF 6
ENDMDL
