MODEL 1
REMARK VINA RESULT:    -6.274      0.000      0.000
REMARK INTER + INTRA:          -6.641
REMARK INTER:                  -6.641
REMARK INTRA:                   0.000
REMARK UNBOUND:                 0.000
REMARK SMILES O=c1ccc2cc(O)c(O)cc2o1
REMARK SMILES IDX 4 1 3 2 2 3 1 4 13 5 12 6 11 7 9 8 7 9 6 10 5 11 8 12 10 14
REMARK H PARENT 8 13 10 15
REMARK Flexibility Score: inf
ROOT
ATOM      1  C   UNL     1     -31.493  -3.982 -16.743  1.00  0.00     0.019 A 
ATOM      2  C   UNL     1     -32.477  -4.607 -15.978  1.00  0.00     0.094 A 
ATOM      3  C   UNL     1     -33.798  -4.604 -16.437  1.00  0.00     0.336 A 
ATOM      4  O   UNL     1     -34.700  -5.164 -15.761  1.00  0.00    -0.246 OA
ATOM      5  O   UNL     1     -34.109  -4.011 -17.588  1.00  0.00    -0.423 OA
ATOM      6  C   UNL     1     -33.202  -3.403 -18.348  1.00  0.00     0.142 A 
ATOM      7  C   UNL     1     -33.587  -2.797 -19.548  1.00  0.00     0.098 A 
ATOM      8  C   UNL     1     -32.635  -2.155 -20.352  1.00  0.00     0.161 A 
ATOM      9  C   UNL     1     -31.290  -2.119 -19.956  1.00  0.00     0.158 A 
ATOM     10  C   UNL     1     -30.897  -2.726 -18.753  1.00  0.00     0.062 A 
ATOM     11  C   UNL     1     -31.848  -3.368 -17.948  1.00  0.00     0.022 A 
ENDROOT
BRANCH   9  12
ATOM     12  O   UNL     1     -30.350  -1.479 -20.761  1.00  0.00    -0.504 OA
ATOM     13  H   UNL     1     -29.539  -1.969 -21.121  1.00  0.00     0.293 HD
ENDBRANCH   9  12
BRANCH   8  14
ATOM     14  O   UNL     1     -33.016  -1.551 -21.549  1.00  0.00    -0.504 OA
ATOM     15  H   UNL     1     -33.382  -0.606 -21.573  1.00  0.00     0.293 HD
ENDBRANCH   8  14
TORSDOF 2
ENDMDL
MODEL 2
REMARK VINA RESULT:    -6.010      1.242      2.401
REMARK INTER + INTRA:          -6.361
REMARK INTER:                  -6.361
REMARK INTRA:                   0.000
REMARK UNBOUND:                 0.000
REMARK SMILES O=c1ccc2cc(O)c(O)cc2o1
REMARK SMILES IDX 4 1 3 2 2 3 1 4 13 5 12 6 11 7 9 8 7 9 6 10 5 11 8 12 10 14
REMARK H PARENT 8 13 10 15
REMARK Flexibility Score: inf
ROOT
ATOM      1  C   UNL     1     -34.359  -3.108 -18.901  1.00  0.00     0.019 A 
ATOM      2  C   UNL     1     -34.665  -3.642 -17.651  1.00  0.00     0.094 A 
ATOM      3  C   UNL     1     -33.622  -3.968 -16.777  1.00  0.00     0.336 A 
ATOM      4  O   UNL     1     -33.879  -4.451 -15.644  1.00  0.00    -0.246 OA
ATOM      5  O   UNL     1     -32.356  -3.770 -17.138  1.00  0.00    -0.423 OA
ATOM      6  C   UNL     1     -32.019  -3.262 -18.321  1.00  0.00     0.142 A 
ATOM      7  C   UNL     1     -30.672  -3.077 -18.644  1.00  0.00     0.098 A 
ATOM      8  C   UNL     1     -30.312  -2.542 -19.890  1.00  0.00     0.161 A 
ATOM      9  C   UNL     1     -31.305  -2.192 -20.817  1.00  0.00     0.158 A 
ATOM     10  C   UNL     1     -32.658  -2.375 -20.498  1.00  0.00     0.062 A 
ATOM     11  C   UNL     1     -33.019  -2.910 -19.253  1.00  0.00     0.022 A 
ENDROOT
BRANCH   9  12
ATOM     12  O   UNL     1     -30.938  -1.662 -22.053  1.00  0.00    -0.504 OA
ATOM     13  H   UNL     1     -30.998  -0.668 -22.241  1.00  0.00     0.293 HD
ENDBRANCH   9  12
BRANCH   8  14
ATOM     14  O   UNL     1     -28.970  -2.355 -20.215  1.00  0.00    -0.504 OA
ATOM     15  H   UNL     1     -28.227  -2.650 -19.591  1.00  0.00     0.293 HD
ENDBRANCH   8  14
TORSDOF 2
ENDMDL
MODEL 3
REMARK VINA RESULT:    -5.956      2.237      3.714
REMARK INTER + INTRA:          -6.304
REMARK INTER:                  -6.304
REMARK INTRA:                   0.000
REMARK UNBOUND:                 0.000
REMARK SMILES O=c1ccc2cc(O)c(O)cc2o1
REMARK SMILES IDX 4 1 3 2 2 3 1 4 13 5 12 6 11 7 9 8 7 9 6 10 5 11 8 12 10 14
REMARK H PARENT 8 13 10 15
REMARK Flexibility Score: inf
ROOT
ATOM      1  C   UNL     1     -34.811  -5.272 -17.387  1.00  0.00     0.019 A 
ATOM      2  C   UNL     1     -35.852  -4.525 -17.936  1.00  0.00     0.094 A 
ATOM      3  C   UNL     1     -35.565  -3.287 -18.521  1.00  0.00     0.336 A 
ATOM      4  O   UNL     1     -36.491  -2.598 -19.022  1.00  0.00    -0.246 OA
ATOM      5  O   UNL     1     -34.314  -2.832 -18.551  1.00  0.00    -0.423 OA
ATOM      6  C   UNL     1     -33.292  -3.512 -18.039  1.00  0.00     0.142 A 
ATOM      7  C   UNL     1     -31.999  -2.982 -18.100  1.00  0.00     0.098 A 
ATOM      8  C   UNL     1     -30.918  -3.696 -17.561  1.00  0.00     0.161 A 
ATOM      9  C   UNL     1     -31.131  -4.944 -16.959  1.00  0.00     0.158 A 
ATOM     10  C   UNL     1     -32.426  -5.481 -16.896  1.00  0.00     0.062 A 
ATOM     11  C   UNL     1     -33.507  -4.769 -17.433  1.00  0.00     0.022 A 
ENDROOT
BRANCH   9  12
ATOM     12  O   UNL     1     -30.051  -5.646 -16.427  1.00  0.00    -0.504 OA
ATOM     13  H   UNL     1     -30.120  -6.132 -15.540  1.00  0.00     0.293 HD
ENDBRANCH   9  12
BRANCH   8  14
ATOM     14  O   UNL     1     -29.628  -3.171 -17.622  1.00  0.00    -0.504 OA
ATOM     15  H   UNL     1     -29.263  -2.575 -16.887  1.00  0.00     0.293 HD
ENDBRANCH   8  14
TORSDOF 2
ENDMDL
MODEL 4
REMARK VINA RESULT:    -5.911      1.693      5.199
REMARK INTER + INTRA:          -6.256
REMARK INTER:                  -6.256
REMARK INTRA:                   0.000
REMARK UNBOUND:                 0.000
REMARK SMILES O=c1ccc2cc(O)c(O)cc2o1
REMARK SMILES IDX 4 1 3 2 2 3 1 4 13 5 12 6 11 7 9 8 7 9 6 10 5 11 8 12 10 14
REMARK H PARENT 8 13 10 15
REMARK Flexibility Score: inf
ROOT
ATOM      1  C   UNL     1     -31.635  -1.945 -21.108  1.00  0.00     0.019 A 
ATOM      2  C   UNL     1     -30.373  -1.679 -21.637  1.00  0.00     0.094 A 
ATOM      3  C   UNL     1     -29.239  -1.996 -20.882  1.00  0.00     0.336 A 
ATOM      4  O   UNL     1     -28.091  -1.764 -21.343  1.00  0.00    -0.246 OA
ATOM      5  O   UNL     1     -29.366  -2.544 -19.675  1.00  0.00    -0.423 OA
ATOM      6  C   UNL     1     -30.551  -2.815 -19.133  1.00  0.00     0.142 A 
ATOM      7  C   UNL     1     -30.623  -3.391 -17.861  1.00  0.00     0.098 A 
ATOM      8  C   UNL     1     -31.870  -3.677 -17.285  1.00  0.00     0.161 A 
ATOM      9  C   UNL     1     -33.050  -3.387 -17.985  1.00  0.00     0.158 A 
ATOM     10  C   UNL     1     -32.984  -2.809 -19.262  1.00  0.00     0.062 A 
ATOM     11  C   UNL     1     -31.739  -2.522 -19.838  1.00  0.00     0.022 A 
ENDROOT
BRANCH   9  12
ATOM     12  O   UNL     1     -34.284  -3.675 -17.406  1.00  0.00    -0.504 OA
ATOM     13  H   UNL     1     -34.780  -4.534 -17.614  1.00  0.00     0.293 HD
ENDBRANCH   9  12
BRANCH   8  14
ATOM     14  O   UNL     1     -31.945  -4.253 -16.018  1.00  0.00    -0.504 OA
ATOM     15  H   UNL     1     -31.343  -3.948 -15.261  1.00  0.00     0.293 HD
ENDBRANCH   8  14
TORSDOF 2
ENDMDL
MODEL 5
REMARK VINA RESULT:    -5.882      6.590      8.227
REMARK INTER + INTRA:          -6.226
REMARK INTER:                  -6.226
REMARK INTRA:                   0.000
REMARK UNBOUND:                 0.000
REMARK SMILES O=c1ccc2cc(O)c(O)cc2o1
REMARK SMILES IDX 4 1 3 2 2 3 1 4 13 5 12 6 11 7 9 8 7 9 6 10 5 11 8 12 10 14
REMARK H PARENT 8 13 10 15
REMARK Flexibility Score: inf
ROOT
ATOM      1  C   UNL     1     -37.394  -8.458 -13.751  1.00  0.00     0.019 A 
ATOM      2  C   UNL     1     -38.620  -9.120 -13.696  1.00  0.00     0.094 A 
ATOM      3  C   UNL     1     -39.789  -8.372 -13.518  1.00  0.00     0.336 A 
ATOM      4  O   UNL     1     -40.904  -8.952 -13.467  1.00  0.00    -0.246 OA
ATOM      5  O   UNL     1     -39.728  -7.047 -13.403  1.00  0.00    -0.423 OA
ATOM      6  C   UNL     1     -38.581  -6.375 -13.450  1.00  0.00     0.142 A 
ATOM      7  C   UNL     1     -38.579  -4.983 -13.323  1.00  0.00     0.098 A 
ATOM      8  C   UNL     1     -37.372  -4.271 -13.372  1.00  0.00     0.161 A 
ATOM      9  C   UNL     1     -36.160  -4.955 -13.548  1.00  0.00     0.158 A 
ATOM     10  C   UNL     1     -36.155  -6.352 -13.677  1.00  0.00     0.062 A 
ATOM     11  C   UNL     1     -37.361  -7.065 -13.628  1.00  0.00     0.022 A 
ENDROOT
BRANCH   9  12
ATOM     12  O   UNL     1     -34.965  -4.239 -13.596  1.00  0.00    -0.504 OA
ATOM     13  H   UNL     1     -34.170  -4.498 -13.023  1.00  0.00     0.293 HD
ENDBRANCH   9  12
BRANCH   8  14
ATOM     14  O   UNL     1     -37.368  -2.883 -13.247  1.00  0.00    -0.504 OA
ATOM     15  H   UNL     1     -36.946  -2.288 -13.952  1.00  0.00     0.293 HD
ENDBRANCH   8  14
TORSDOF 2
ENDMDL
MODEL 6
REMARK VINA RESULT:    -5.767      2.278      3.580
REMARK INTER + INTRA:          -6.104
REMARK INTER:                  -6.104
REMARK INTRA:                   0.000
REMARK UNBOUND:                 0.000
REMARK SMILES O=c1ccc2cc(O)c(O)cc2o1
REMARK SMILES IDX 4 1 3 2 2 3 1 4 13 5 12 6 11 7 9 8 7 9 6 10 5 11 8 12 10 14
REMARK H PARENT 8 13 10 15
REMARK Flexibility Score: inf
ROOT
ATOM      1  C   UNL     1     -34.365  -2.788 -18.581  1.00  0.00     0.019 A 
ATOM      2  C   UNL     1     -35.631  -3.371 -18.543  1.00  0.00     0.094 A 
ATOM      3  C   UNL     1     -35.780  -4.635 -17.962  1.00  0.00     0.336 A 
ATOM      4  O   UNL     1     -36.915  -5.177 -17.918  1.00  0.00    -0.246 OA
ATOM      5  O   UNL     1     -34.726  -5.270 -17.454  1.00  0.00    -0.423 OA
ATOM      6  C   UNL     1     -33.501  -4.750 -17.469  1.00  0.00     0.142 A 
ATOM      7  C   UNL     1     -32.431  -5.464 -16.921  1.00  0.00     0.098 A 
ATOM      8  C   UNL     1     -31.138  -4.921 -16.935  1.00  0.00     0.161 A 
ATOM      9  C   UNL     1     -30.914  -3.657 -17.500  1.00  0.00     0.158 A 
ATOM     10  C   UNL     1     -31.983  -2.936 -18.052  1.00  0.00     0.062 A 
ATOM     11  C   UNL     1     -33.276  -3.478 -18.039  1.00  0.00     0.022 A 
ENDROOT
BRANCH   9  12
ATOM     12  O   UNL     1     -29.626  -3.125 -17.509  1.00  0.00    -0.504 OA
ATOM     13  H   UNL     1     -28.811  -3.706 -17.353  1.00  0.00     0.293 HD
ENDBRANCH   9  12
BRANCH   8  14
ATOM     14  O   UNL     1     -30.070  -5.630 -16.387  1.00  0.00    -0.504 OA
ATOM     15  H   UNL     1     -29.109  -5.358 -16.560  1.00  0.00     0.293 HD
ENDBRANCH   8  14
TORSDOF 2
ENDMDL
MODEL 7
REMARK VINA RESULT:    -5.759      7.411      9.334
REMARK INTER + INTRA:          -6.096
REMARK INTER:                  -6.096
REMARK INTRA:                   0.000
REMARK UNBOUND:                 0.000
REMARK SMILES O=c1ccc2cc(O)c(O)cc2o1
REMARK SMILES IDX 4 1 3 2 2 3 1 4 13 5 12 6 11 7 9 8 7 9 6 10 5 11 8 12 10 14
REMARK H PARENT 8 13 10 15
REMARK Flexibility Score: inf
ROOT
ATOM      1  C   UNL     1     -36.598  -6.040 -13.522  1.00  0.00     0.019 A 
ATOM      2  C   UNL     1     -36.182  -4.801 -13.037  1.00  0.00     0.094 A 
ATOM      3  C   UNL     1     -37.143  -3.895 -12.574  1.00  0.00     0.336 A 
ATOM      4  O   UNL     1     -36.786  -2.772 -12.132  1.00  0.00    -0.246 OA
ATOM      5  O   UNL     1     -38.435  -4.214 -12.599  1.00  0.00    -0.423 OA
ATOM      6  C   UNL     1     -38.875  -5.384 -13.054  1.00  0.00     0.142 A 
ATOM      7  C   UNL     1     -40.245  -5.664 -13.056  1.00  0.00     0.098 A 
ATOM      8  C   UNL     1     -40.714  -6.896 -13.535  1.00  0.00     0.161 A 
ATOM      9  C   UNL     1     -39.808  -7.854 -14.014  1.00  0.00     0.158 A 
ATOM     10  C   UNL     1     -38.432  -7.579 -14.014  1.00  0.00     0.062 A 
ATOM     11  C   UNL     1     -37.962  -6.348 -13.536  1.00  0.00     0.022 A 
ENDROOT
BRANCH   9  12
ATOM     12  O   UNL     1     -40.282  -9.075 -14.487  1.00  0.00    -0.504 OA
ATOM     13  H   UNL     1     -41.265  -9.318 -14.436  1.00  0.00     0.293 HD
ENDBRANCH   9  12
BRANCH   8  14
ATOM     14  O   UNL     1     -42.079  -7.178 -13.537  1.00  0.00    -0.504 OA
ATOM     15  H   UNL     1     -42.752  -6.541 -13.125  1.00  0.00     0.293 HD
ENDBRANCH   8  14
TORSDOF 2
ENDMDL
MODEL 8
REMARK VINA RESULT:    -5.702      4.951      8.349
REMARK INTER + INTRA:          -6.035
REMARK INTER:                  -6.035
REMARK INTRA:                   0.000
REMARK UNBOUND:                 0.000
REMARK SMILES O=c1ccc2cc(O)c(O)cc2o1
REMARK SMILES IDX 4 1 3 2 2 3 1 4 13 5 12 6 11 7 9 8 7 9 6 10 5 11 8 12 10 14
REMARK H PARENT 8 13 10 15
REMARK Flexibility Score: inf
ROOT
ATOM      1  C   UNL     1     -36.157  -6.897 -16.338  1.00  0.00     0.019 A 
ATOM      2  C   UNL     1     -35.202  -5.886 -16.228  1.00  0.00     0.094 A 
ATOM      3  C   UNL     1     -35.313  -4.958 -15.187  1.00  0.00     0.336 A 
ATOM      4  O   UNL     1     -34.460  -4.039 -15.071  1.00  0.00    -0.246 OA
ATOM      5  O   UNL     1     -36.316  -5.040 -14.316  1.00  0.00    -0.423 OA
ATOM      6  C   UNL     1     -37.248  -5.987 -14.384  1.00  0.00     0.142 A 
ATOM      7  C   UNL     1     -38.278  -6.024 -13.440  1.00  0.00     0.098 A 
ATOM      8  C   UNL     1     -39.263  -7.020 -13.508  1.00  0.00     0.161 A 
ATOM      9  C   UNL     1     -39.217  -7.985 -14.524  1.00  0.00     0.158 A 
ATOM     10  C   UNL     1     -38.185  -7.954 -15.474  1.00  0.00     0.062 A 
ATOM     11  C   UNL     1     -37.200  -6.959 -15.408  1.00  0.00     0.022 A 
ENDROOT
BRANCH   9  12
ATOM     12  O   UNL     1     -40.199  -8.971 -14.584  1.00  0.00    -0.504 OA
ATOM     13  H   UNL     1     -41.055  -8.835 -15.109  1.00  0.00     0.293 HD
ENDBRANCH   9  12
BRANCH   8  14
ATOM     14  O   UNL     1     -40.291  -7.059 -12.567  1.00  0.00    -0.504 OA
ATOM     15  H   UNL     1     -41.226  -6.735 -12.790  1.00  0.00     0.293 HD
ENDBRANCH   8  14
TORSDOF 2
ENDMDL
MODEL 9
REMARK VINA RESULT:    -5.667      7.506      8.349
REMARK INTER + INTRA:          -5.999
REMARK INTER:                  -5.999
REMARK INTRA:                   0.000
REMARK UNBOUND:                 0.000
REMARK SMILES O=c1ccc2cc(O)c(O)cc2o1
REMARK SMILES IDX 4 1 3 2 2 3 1 4 13 5 12 6 11 7 9 8 7 9 6 10 5 11 8 12 10 14
REMARK H PARENT 8 13 10 15
REMARK Flexibility Score: inf
ROOT
ATOM      1  C   UNL     1     -36.064  -4.925 -12.901  1.00  0.00     0.019 A 
ATOM      2  C   UNL     1     -36.618  -3.828 -12.241  1.00  0.00     0.094 A 
ATOM      3  C   UNL     1     -38.010  -3.713 -12.165  1.00  0.00     0.336 A 
ATOM      4  O   UNL     1     -38.528  -2.730 -11.573  1.00  0.00    -0.246 OA
ATOM      5  O   UNL     1     -38.792  -4.638 -12.715  1.00  0.00    -0.423 OA
ATOM      6  C   UNL     1     -38.307  -5.700 -13.354  1.00  0.00     0.142 A 
ATOM      7  C   UNL     1     -39.178  -6.640 -13.912  1.00  0.00     0.098 A 
ATOM      8  C   UNL     1     -38.670  -7.760 -14.586  1.00  0.00     0.161 A 
ATOM      9  C   UNL     1     -37.284  -7.942 -14.702  1.00  0.00     0.158 A 
ATOM     10  C   UNL     1     -36.405  -7.002 -14.143  1.00  0.00     0.062 A 
ATOM     11  C   UNL     1     -36.911  -5.882 -13.469  1.00  0.00     0.022 A 
ENDROOT
BRANCH   9  12
ATOM     12  O   UNL     1     -36.789  -9.058 -15.373  1.00  0.00    -0.504 OA
ATOM     13  H   UNL     1     -35.798  -9.268 -15.392  1.00  0.00     0.293 HD
ENDBRANCH   9  12
BRANCH   8  14
ATOM     14  O   UNL     1     -39.537  -8.699 -15.143  1.00  0.00    -0.504 OA
ATOM     15  H   UNL     1     -39.190  -9.544 -15.585  1.00  0.00     0.293 HD
ENDBRANCH   8  14
TORSDOF 2
ENDMDL
