MODEL 1
REMARK VINA RESULT:    -2.748      0.000      0.000
REMARK INTER + INTRA:          -3.600
REMARK INTER:                  -3.230
REMARK INTRA:                  -0.370
REMARK UNBOUND:                -0.370
REMARK SMILES [NH3+][C@@H](CO)C(=O)[O-]
REMARK SMILES IDX 3 1 2 2 1 3 5 7 6 8 7 9 4 10
REMARK H PARENT 1 4 1 5 1 6 4 11
REMARK Flexibility Score: inf
ROOT
ATOM      1  C   UNL     1      17.166 -43.838  -7.730  1.00  0.00     0.227 C 
ENDROOT
BRANCH   1   2
ATOM      2  C   UNL     1      17.406 -42.864  -8.896  1.00  0.00     0.253 C 
BRANCH   2   3
ATOM      3  N   UNL     1      17.764 -43.584 -10.125  1.00  0.00    -0.348 N 
ATOM      4  H   UNL     1      17.408 -43.077 -10.968  1.00  0.00     0.345 HD
ATOM      5  H   UNL     1      17.354 -44.546 -10.104  1.00  0.00     0.345 HD
ATOM      6  H   UNL     1      18.804 -43.679 -10.193  1.00  0.00     0.345 HD
ENDBRANCH   2   3
BRANCH   2   7
ATOM      7  C   UNL     1      18.491 -41.886  -8.531  1.00  0.00     0.102 C 
ATOM      8  O   UNL     1      19.631 -41.981  -9.056  1.00  0.00    -0.544 OA
ATOM      9  O   UNL     1      18.237 -40.864  -7.625  1.00  0.00    -0.544 OA
ENDBRANCH   2   7
ENDBRANCH   1   2
BRANCH   1  10
ATOM     10  O   UNL     1      18.132 -43.658  -6.729  1.00  0.00    -0.390 OA
ATOM     11  H   UNL     1      17.951 -44.339  -6.028  1.00  0.00     0.210 HD
ENDBRANCH   1  10
TORSDOF 4
ENDMDL
MODEL 2
REMARK VINA RESULT:    -2.729      1.860      2.355
REMARK INTER + INTRA:          -3.578
REMARK INTER:                  -3.188
REMARK INTRA:                  -0.390
REMARK UNBOUND:                -0.370
REMARK SMILES [NH3+][C@@H](CO)C(=O)[O-]
REMARK SMILES IDX 3 1 2 2 1 3 5 7 6 8 7 9 4 10
REMARK H PARENT 1 4 1 5 1 6 4 11
REMARK Flexibility Score: inf
ROOT
ATOM      1  C   UNL     1      16.898 -43.555  -9.106  1.00  0.00     0.227 C 
ENDROOT
BRANCH   1   2
ATOM      2  C   UNL     1      18.094 -43.178  -8.215  1.00  0.00     0.253 C 
BRANCH   2   3
ATOM      3  N   UNL     1      17.737 -43.239  -6.792  1.00  0.00    -0.348 N 
ATOM      4  H   UNL     1      18.239 -42.496  -6.251  1.00  0.00     0.345 HD
ATOM      5  H   UNL     1      17.991 -44.177  -6.403  1.00  0.00     0.345 HD
ATOM      6  H   UNL     1      16.705 -43.112  -6.676  1.00  0.00     0.345 HD
ENDBRANCH   2   3
BRANCH   2   7
ATOM      7  C   UNL     1      18.582 -41.799  -8.570  1.00  0.00     0.102 C 
ATOM      8  O   UNL     1      18.326 -40.823  -7.817  1.00  0.00    -0.544 OA
ATOM      9  O   UNL     1      19.333 -41.597  -9.722  1.00  0.00    -0.544 OA
ENDBRANCH   2   7
ENDBRANCH   1   2
BRANCH   1  10
ATOM     10  O   UNL     1      16.405 -42.425  -9.775  1.00  0.00    -0.390 OA
ATOM     11  H   UNL     1      16.861 -42.390 -10.657  1.00  0.00     0.210 HD
ENDBRANCH   1  10
TORSDOF 4
ENDMDL
MODEL 3
REMARK VINA RESULT:    -2.670     10.380     10.984
REMARK INTER + INTRA:          -3.509
REMARK INTER:                  -3.320
REMARK INTRA:                  -0.188
REMARK UNBOUND:                -0.370
REMARK SMILES [NH3+][C@@H](CO)C(=O)[O-]
REMARK SMILES IDX 3 1 2 2 1 3 5 7 6 8 7 9 4 10
REMARK H PARENT 1 4 1 5 1 6 4 11
REMARK Flexibility Score: inf
ROOT
ATOM      1  C   UNL     1       8.568 -44.569 -10.117  1.00  0.00     0.227 C 
ENDROOT
BRANCH   1   2
ATOM      2  C   UNL     1       7.919 -43.692  -9.032  1.00  0.00     0.253 C 
BRANCH   2   3
ATOM      3  N   UNL     1       8.859 -43.416  -7.938  1.00  0.00    -0.348 N 
ATOM      4  H   UNL     1       9.306 -42.479  -8.060  1.00  0.00     0.345 HD
ATOM      5  H   UNL     1       9.604 -44.151  -7.917  1.00  0.00     0.345 HD
ATOM      6  H   UNL     1       8.356 -43.442  -7.021  1.00  0.00     0.345 HD
ENDBRANCH   2   3
BRANCH   2   7
ATOM      7  C   UNL     1       6.684 -44.368  -8.499  1.00  0.00     0.102 C 
ATOM      8  O   UNL     1       6.494 -45.595  -8.706  1.00  0.00    -0.544 OA
ATOM      9  O   UNL     1       5.754 -43.645  -7.761  1.00  0.00    -0.544 OA
ENDBRANCH   2   7
ENDBRANCH   1   2
BRANCH   1  10
ATOM     10  O   UNL     1       9.063 -45.757  -9.560  1.00  0.00    -0.390 OA
ATOM     11  H   UNL     1       9.648 -45.498  -8.799  1.00  0.00     0.210 HD
ENDBRANCH   1  10
TORSDOF 4
ENDMDL
MODEL 4
REMARK VINA RESULT:    -2.662      4.430      5.405
REMARK INTER + INTRA:          -3.499
REMARK INTER:                  -3.262
REMARK INTRA:                  -0.238
REMARK UNBOUND:                -0.370
REMARK SMILES [NH3+][C@@H](CO)C(=O)[O-]
REMARK SMILES IDX 3 1 2 2 1 3 5 7 6 8 7 9 4 10
REMARK H PARENT 1 4 1 5 1 6 4 11
REMARK Flexibility Score: inf
ROOT
ATOM      1  C   UNL     1      19.485 -37.383  -8.619  1.00  0.00     0.227 C 
ENDROOT
BRANCH   1   2
ATOM      2  C   UNL     1      20.018 -38.600  -7.844  1.00  0.00     0.253 C 
BRANCH   2   3
ATOM      3  N   UNL     1      19.605 -39.858  -8.479  1.00  0.00    -0.348 N 
ATOM      4  H   UNL     1      18.721 -40.217  -8.049  1.00  0.00     0.345 HD
ATOM      5  H   UNL     1      20.358 -40.576  -8.366  1.00  0.00     0.345 HD
ATOM      6  H   UNL     1      19.454 -39.709  -9.503  1.00  0.00     0.345 HD
ENDBRANCH   2   3
BRANCH   2   7
ATOM      7  C   UNL     1      19.534 -38.552  -6.420  1.00  0.00     0.102 C 
ATOM      8  O   UNL     1      20.121 -37.826  -5.575  1.00  0.00    -0.544 OA
ATOM      9  O   UNL     1      18.426 -39.297  -6.031  1.00  0.00    -0.544 OA
ENDBRANCH   2   7
ENDBRANCH   1   2
BRANCH   1  10
ATOM     10  O   UNL     1      19.675 -36.206  -7.881  1.00  0.00    -0.390 OA
ATOM     11  H   UNL     1      20.007 -35.518  -8.516  1.00  0.00     0.210 HD
ENDBRANCH   1  10
TORSDOF 4
ENDMDL
MODEL 5
REMARK VINA RESULT:    -2.659      4.227      4.871
REMARK INTER + INTRA:          -3.496
REMARK INTER:                  -3.269
REMARK INTRA:                  -0.227
REMARK UNBOUND:                -0.370
REMARK SMILES [NH3+][C@@H](CO)C(=O)[O-]
REMARK SMILES IDX 3 1 2 2 1 3 5 7 6 8 7 9 4 10
REMARK H PARENT 1 4 1 5 1 6 4 11
REMARK Flexibility Score: inf
ROOT
ATOM      1  C   UNL     1      17.787 -39.032  -8.219  1.00  0.00     0.227 C 
ENDROOT
BRANCH   1   2
ATOM      2  C   UNL     1      18.796 -39.313  -7.093  1.00  0.00     0.253 C 
BRANCH   2   3
ATOM      3  N   UNL     1      18.117 -39.773  -5.874  1.00  0.00    -0.348 N 
ATOM      4  H   UNL     1      18.263 -40.799  -5.733  1.00  0.00     0.345 HD
ATOM      5  H   UNL     1      17.091 -39.578  -5.945  1.00  0.00     0.345 HD
ATOM      6  H   UNL     1      18.485 -39.254  -5.043  1.00  0.00     0.345 HD
ENDBRANCH   2   3
BRANCH   2   7
ATOM      7  C   UNL     1      19.600 -38.074  -6.804  1.00  0.00     0.102 C 
ATOM      8  O   UNL     1      20.118 -37.905  -5.670  1.00  0.00    -0.544 OA
ATOM      9  O   UNL     1      19.790 -37.116  -7.794  1.00  0.00    -0.544 OA
ENDBRANCH   2   7
ENDBRANCH   1   2
BRANCH   1  10
ATOM     10  O   UNL     1      18.413 -39.106  -9.472  1.00  0.00    -0.390 OA
ATOM     11  H   UNL     1      19.391 -39.051  -9.310  1.00  0.00     0.210 HD
ENDBRANCH   1  10
TORSDOF 4
ENDMDL
MODEL 6
REMARK VINA RESULT:    -2.622      3.692      4.500
REMARK INTER + INTRA:          -3.452
REMARK INTER:                  -3.226
REMARK INTRA:                  -0.226
REMARK UNBOUND:                -0.370
REMARK SMILES [NH3+][C@@H](CO)C(=O)[O-]
REMARK SMILES IDX 3 1 2 2 1 3 5 7 6 8 7 9 4 10
REMARK H PARENT 1 4 1 5 1 6 4 11
REMARK Flexibility Score: inf
ROOT
ATOM      1  C   UNL     1      18.034 -39.119  -8.493  1.00  0.00     0.227 C 
ENDROOT
BRANCH   1   2
ATOM      2  C   UNL     1      19.291 -38.495  -7.864  1.00  0.00     0.253 C 
BRANCH   2   3
ATOM      3  N   UNL     1      20.513 -39.118  -8.390  1.00  0.00    -0.348 N 
ATOM      4  H   UNL     1      20.670 -38.844  -9.387  1.00  0.00     0.345 HD
ATOM      5  H   UNL     1      20.435 -40.160  -8.328  1.00  0.00     0.345 HD
ATOM      6  H   UNL     1      21.339 -38.824  -7.817  1.00  0.00     0.345 HD
ENDBRANCH   2   3
BRANCH   2   7
ATOM      7  C   UNL     1      19.239 -38.636  -6.366  1.00  0.00     0.102 C 
ATOM      8  O   UNL     1      18.419 -39.429  -5.833  1.00  0.00    -0.544 OA
ATOM      9  O   UNL     1      20.107 -37.906  -5.563  1.00  0.00    -0.544 OA
ENDBRANCH   2   7
ENDBRANCH   1   2
BRANCH   1  10
ATOM     10  O   UNL     1      18.160 -40.514  -8.570  1.00  0.00    -0.390 OA
ATOM     11  H   UNL     1      18.520 -40.721  -9.473  1.00  0.00     0.210 HD
ENDBRANCH   1  10
TORSDOF 4
ENDMDL
MODEL 7
REMARK VINA RESULT:    -2.608      3.742      4.483
REMARK INTER + INTRA:          -3.435
REMARK INTER:                  -3.043
REMARK INTRA:                  -0.392
REMARK UNBOUND:                -0.370
REMARK SMILES [NH3+][C@@H](CO)C(=O)[O-]
REMARK SMILES IDX 3 1 2 2 1 3 5 7 6 8 7 9 4 10
REMARK H PARENT 1 4 1 5 1 6 4 11
REMARK Flexibility Score: inf
ROOT
ATOM      1  C   UNL     1      19.261 -38.680  -6.063  1.00  0.00     0.227 C 
ENDROOT
BRANCH   1   2
ATOM      2  C   UNL     1      19.495 -38.735  -7.582  1.00  0.00     0.253 C 
BRANCH   2   3
ATOM      3  N   UNL     1      19.550 -37.386  -8.161  1.00  0.00    -0.348 N 
ATOM      4  H   UNL     1      18.589 -37.037  -8.379  1.00  0.00     0.345 HD
ATOM      5  H   UNL     1      20.118 -37.401  -9.040  1.00  0.00     0.345 HD
ATOM      6  H   UNL     1      20.013 -36.729  -7.491  1.00  0.00     0.345 HD
ENDBRANCH   2   3
BRANCH   2   7
ATOM      7  C   UNL     1      18.404 -39.538  -8.239  1.00  0.00     0.102 C 
ATOM      8  O   UNL     1      17.342 -38.976  -8.614  1.00  0.00    -0.544 OA
ATOM      9  O   UNL     1      18.570 -40.902  -8.452  1.00  0.00    -0.544 OA
ENDBRANCH   2   7
ENDBRANCH   1   2
BRANCH   1  10
ATOM     10  O   UNL     1      18.294 -39.620  -5.678  1.00  0.00    -0.390 OA
ATOM     11  H   UNL     1      18.779 -40.374  -5.249  1.00  0.00     0.210 HD
ENDBRANCH   1  10
TORSDOF 4
ENDMDL
MODEL 8
REMARK VINA RESULT:    -2.604      4.260      4.923
REMARK INTER + INTRA:          -3.431
REMARK INTER:                  -3.028
REMARK INTRA:                  -0.403
REMARK UNBOUND:                -0.370
REMARK SMILES [NH3+][C@@H](CO)C(=O)[O-]
REMARK SMILES IDX 3 1 2 2 1 3 5 7 6 8 7 9 4 10
REMARK H PARENT 1 4 1 5 1 6 4 11
REMARK Flexibility Score: inf
ROOT
ATOM      1  C   UNL     1      20.606 -38.787  -8.231  1.00  0.00     0.227 C 
ENDROOT
BRANCH   1   2
ATOM      2  C   UNL     1      19.494 -38.162  -7.371  1.00  0.00     0.253 C 
BRANCH   2   3
ATOM      3  N   UNL     1      19.971 -37.875  -6.012  1.00  0.00    -0.348 N 
ATOM      4  H   UNL     1      20.027 -38.753  -5.446  1.00  0.00     0.345 HD
ATOM      5  H   UNL     1      19.318 -37.205  -5.542  1.00  0.00     0.345 HD
ATOM      6  H   UNL     1      20.916 -37.428  -6.051  1.00  0.00     0.345 HD
ENDBRANCH   2   3
BRANCH   2   7
ATOM      7  C   UNL     1      18.305 -39.083  -7.322  1.00  0.00     0.102 C 
ATOM      8  O   UNL     1      18.130 -39.839  -6.330  1.00  0.00    -0.544 OA
ATOM      9  O   UNL     1      17.384 -39.094  -8.363  1.00  0.00    -0.544 OA
ENDBRANCH   2   7
ENDBRANCH   1   2
BRANCH   1  10
ATOM     10  O   UNL     1      20.249 -40.083  -8.633  1.00  0.00    -0.390 OA
ATOM     11  H   UNL     1      20.629 -40.708  -7.961  1.00  0.00     0.210 HD
ENDBRANCH   1  10
TORSDOF 4
ENDMDL
MODEL 9
REMARK VINA RESULT:    -2.589      4.150      4.485
REMARK INTER + INTRA:          -3.413
REMARK INTER:                  -3.031
REMARK INTRA:                  -0.382
REMARK UNBOUND:                -0.370
REMARK SMILES [NH3+][C@@H](CO)C(=O)[O-]
REMARK SMILES IDX 3 1 2 2 1 3 5 7 6 8 7 9 4 10
REMARK H PARENT 1 4 1 5 1 6 4 11
REMARK Flexibility Score: inf
ROOT
ATOM      1  C   UNL     1      18.859 -38.974  -6.012  1.00  0.00     0.227 C 
ENDROOT
BRANCH   1   2
ATOM      2  C   UNL     1      18.694 -39.063  -7.539  1.00  0.00     0.253 C 
BRANCH   2   3
ATOM      3  N   UNL     1      18.568 -40.458  -7.980  1.00  0.00    -0.348 N 
ATOM      4  H   UNL     1      18.781 -41.116  -7.195  1.00  0.00     0.345 HD
ATOM      5  H   UNL     1      19.230 -40.641  -8.770  1.00  0.00     0.345 HD
ATOM      6  H   UNL     1      17.597 -40.636  -8.327  1.00  0.00     0.345 HD
ENDBRANCH   2   3
BRANCH   2   7
ATOM      7  C   UNL     1      19.865 -38.406  -8.219  1.00  0.00     0.102 C 
ATOM      8  O   UNL     1      20.912 -39.065  -8.455  1.00  0.00    -0.544 OA
ATOM      9  O   UNL     1      19.793 -37.073  -8.607  1.00  0.00    -0.544 OA
ENDBRANCH   2   7
ENDBRANCH   1   2
BRANCH   1  10
ATOM     10  O   UNL     1      19.805 -37.995  -5.674  1.00  0.00    -0.390 OA
ATOM     11  H   UNL     1      19.327 -37.125  -5.658  1.00  0.00     0.210 HD
ENDBRANCH   1  10
TORSDOF 4
ENDMDL
