MODEL 1
REMARK VINA RESULT:    -3.358      0.000      0.000
REMARK INTER + INTRA:          -3.578
REMARK INTER:                  -3.554
REMARK INTRA:                  -0.024
REMARK UNBOUND:                -0.024
REMARK SMILES O=C([O-])c1cccnc1
REMARK SMILES IDX 4 1 5 2 9 3 6 4 8 5 7 6 2 7 1 8 3 9
REMARK H PARENT
REMARK Flexibility Score: inf
ROOT
ATOM      1  C   UNL     1     -16.289 -22.076   2.300  1.00  0.00     0.016 A 
ATOM      2  C   UNL     1     -17.062 -21.600   3.373  1.00  0.00     0.013 A 
ATOM      3  C   UNL     1     -16.417 -23.425   1.932  1.00  0.00     0.120 A 
ATOM      4  C   UNL     1     -17.931 -22.459   4.046  1.00  0.00     0.021 A 
ATOM      5  N   UNL     1     -17.272 -24.242   2.605  1.00  0.00    -0.264 NA
ATOM      6  C   UNL     1     -18.023 -23.792   3.643  1.00  0.00     0.111 A 
ENDROOT
BRANCH   1   7
ATOM      7  C   UNL     1     -15.362 -21.181   1.574  1.00  0.00     0.073 C 
ATOM      8  O   UNL     1     -14.584 -21.641   0.696  1.00  0.00    -0.545 OA
ATOM      9  O   UNL     1     -15.335 -19.819   1.852  1.00  0.00    -0.545 OA
ENDBRANCH   1   7
TORSDOF 1
ENDMDL
MODEL 2
REMARK VINA RESULT:    -3.120      2.687      3.714
REMARK INTER + INTRA:          -3.326
REMARK INTER:                  -3.305
REMARK INTRA:                  -0.021
REMARK UNBOUND:                -0.024
REMARK SMILES O=C([O-])c1cccnc1
REMARK SMILES IDX 4 1 5 2 9 3 6 4 8 5 7 6 2 7 1 8 3 9
REMARK H PARENT
REMARK Flexibility Score: inf
ROOT
ATOM      1  C   UNL     1     -16.685 -21.897   3.086  1.00  0.00     0.016 A 
ATOM      2  C   UNL     1     -16.438 -20.513   3.113  1.00  0.00     0.013 A 
ATOM      3  C   UNL     1     -16.056 -22.668   2.095  1.00  0.00     0.120 A 
ATOM      4  C   UNL     1     -15.586 -19.936   2.170  1.00  0.00     0.021 A 
ATOM      5  N   UNL     1     -15.230 -22.080   1.189  1.00  0.00    -0.264 NA
ATOM      6  C   UNL     1     -14.985 -20.744   1.205  1.00  0.00     0.111 A 
ENDROOT
BRANCH   1   7
ATOM      7  C   UNL     1     -17.585 -22.528   4.076  1.00  0.00     0.073 C 
ATOM      8  O   UNL     1     -17.591 -22.141   5.274  1.00  0.00    -0.545 OA
ATOM      9  O   UNL     1     -18.436 -23.560   3.696  1.00  0.00    -0.545 OA
ENDBRANCH   1   7
TORSDOF 1
ENDMDL
MODEL 3
REMARK VINA RESULT:    -3.012      1.992      2.476
REMARK INTER + INTRA:          -3.211
REMARK INTER:                  -3.190
REMARK INTRA:                  -0.022
REMARK UNBOUND:                -0.024
REMARK SMILES O=C([O-])c1cccnc1
REMARK SMILES IDX 4 1 5 2 9 3 6 4 8 5 7 6 2 7 1 8 3 9
REMARK H PARENT
REMARK Flexibility Score: inf
ROOT
ATOM      1  C   UNL     1     -15.323 -21.976   1.181  1.00  0.00     0.016 A 
ATOM      2  C   UNL     1     -16.143 -22.742   2.027  1.00  0.00     0.013 A 
ATOM      3  C   UNL     1     -14.852 -22.564  -0.004  1.00  0.00     0.120 A 
ATOM      4  C   UNL     1     -16.473 -24.053   1.682  1.00  0.00     0.021 A 
ATOM      5  N   UNL     1     -15.189 -23.844  -0.317  1.00  0.00    -0.264 NA
ATOM      6  C   UNL     1     -15.981 -24.593   0.494  1.00  0.00     0.111 A 
ENDROOT
BRANCH   1   7
ATOM      7  C   UNL     1     -14.962 -20.584   1.528  1.00  0.00     0.073 C 
ATOM      8  O   UNL     1     -13.877 -20.086   1.128  1.00  0.00    -0.545 OA
ATOM      9  O   UNL     1     -15.815 -19.807   2.303  1.00  0.00    -0.545 OA
ENDBRANCH   1   7
TORSDOF 1
ENDMDL
MODEL 4
REMARK VINA RESULT:    -2.991      3.290      4.132
REMARK INTER + INTRA:          -3.189
REMARK INTER:                  -3.166
REMARK INTRA:                  -0.023
REMARK UNBOUND:                -0.024
REMARK SMILES O=C([O-])c1cccnc1
REMARK SMILES IDX 4 1 5 2 9 3 6 4 8 5 7 6 2 7 1 8 3 9
REMARK H PARENT
REMARK Flexibility Score: inf
ROOT
ATOM      1  C   UNL     1     -17.024 -22.327   5.932  1.00  0.00     0.016 A 
ATOM      2  C   UNL     1     -17.448 -22.031   4.625  1.00  0.00     0.013 A 
ATOM      3  C   UNL     1     -17.060 -23.666   6.358  1.00  0.00     0.120 A 
ATOM      4  C   UNL     1     -17.888 -23.052   3.783  1.00  0.00     0.021 A 
ATOM      5  N   UNL     1     -17.493 -24.642   5.516  1.00  0.00    -0.264 NA
ATOM      6  C   UNL     1     -17.905 -24.366   4.252  1.00  0.00     0.111 A 
ENDROOT
BRANCH   1   7
ATOM      7  C   UNL     1     -16.554 -21.259   6.841  1.00  0.00     0.073 C 
ATOM      8  O   UNL     1     -16.442 -21.473   8.077  1.00  0.00    -0.545 OA
ATOM      9  O   UNL     1     -16.229 -20.003   6.342  1.00  0.00    -0.545 OA
ENDBRANCH   1   7
TORSDOF 1
ENDMDL
MODEL 5
REMARK VINA RESULT:    -2.985      4.599      5.337
REMARK INTER + INTRA:          -3.183
REMARK INTER:                  -3.164
REMARK INTRA:                  -0.020
REMARK UNBOUND:                -0.024
REMARK SMILES O=C([O-])c1cccnc1
REMARK SMILES IDX 4 1 5 2 9 3 6 4 8 5 7 6 2 7 1 8 3 9
REMARK H PARENT
REMARK Flexibility Score: inf
ROOT
ATOM      1  C   UNL     1     -17.021 -22.075   7.567  1.00  0.00     0.016 A 
ATOM      2  C   UNL     1     -17.911 -22.152   8.652  1.00  0.00     0.013 A 
ATOM      3  C   UNL     1     -16.667 -23.265   6.909  1.00  0.00     0.120 A 
ATOM      4  C   UNL     1     -18.421 -23.386   9.054  1.00  0.00     0.021 A 
ATOM      5  N   UNL     1     -17.179 -24.456   7.321  1.00  0.00    -0.264 NA
ATOM      6  C   UNL     1     -18.039 -24.541   8.369  1.00  0.00     0.111 A 
ENDROOT
BRANCH   1   7
ATOM      7  C   UNL     1     -16.469 -20.776   7.125  1.00  0.00     0.073 C 
ATOM      8  O   UNL     1     -16.424 -20.483   5.901  1.00  0.00    -0.545 OA
ATOM      9  O   UNL     1     -15.990 -19.861   8.056  1.00  0.00    -0.545 OA
ENDBRANCH   1   7
TORSDOF 1
ENDMDL
MODEL 6
REMARK VINA RESULT:    -2.978      3.607      4.209
REMARK INTER + INTRA:          -3.175
REMARK INTER:                  -3.153
REMARK INTRA:                  -0.022
REMARK UNBOUND:                -0.024
REMARK SMILES O=C([O-])c1cccnc1
REMARK SMILES IDX 4 1 5 2 9 3 6 4 8 5 7 6 2 7 1 8 3 9
REMARK H PARENT
REMARK Flexibility Score: inf
ROOT
ATOM      1  C   UNL     1     -17.013 -22.253   5.693  1.00  0.00     0.016 A 
ATOM      2  C   UNL     1     -16.584 -21.095   6.363  1.00  0.00     0.013 A 
ATOM      3  C   UNL     1     -17.001 -23.472   6.392  1.00  0.00     0.120 A 
ATOM      4  C   UNL     1     -16.159 -21.170   7.690  1.00  0.00     0.021 A 
ATOM      5  N   UNL     1     -16.583 -23.517   7.685  1.00  0.00    -0.264 NA
ATOM      6  C   UNL     1     -16.165 -22.404   8.342  1.00  0.00     0.111 A 
ENDROOT
BRANCH   1   7
ATOM      7  C   UNL     1     -17.467 -22.195   4.287  1.00  0.00     0.073 C 
ATOM      8  O   UNL     1     -18.249 -23.070   3.829  1.00  0.00    -0.545 OA
ATOM      9  O   UNL     1     -17.034 -21.173   3.449  1.00  0.00    -0.545 OA
ENDBRANCH   1   7
TORSDOF 1
ENDMDL
MODEL 7
REMARK VINA RESULT:    -2.951      5.505      6.329
REMARK INTER + INTRA:          -3.147
REMARK INTER:                  -3.128
REMARK INTRA:                  -0.019
REMARK UNBOUND:                -0.024
REMARK SMILES O=C([O-])c1cccnc1
REMARK SMILES IDX 4 1 5 2 9 3 6 4 8 5 7 6 2 7 1 8 3 9
REMARK H PARENT
REMARK Flexibility Score: inf
ROOT
ATOM      1  C   UNL     1     -15.923 -20.838   7.254  1.00  0.00     0.016 A 
ATOM      2  C   UNL     1     -14.817 -21.207   8.040  1.00  0.00     0.013 A 
ATOM      3  C   UNL     1     -16.093 -19.480   6.937  1.00  0.00     0.120 A 
ATOM      4  C   UNL     1     -13.920 -20.236   8.485  1.00  0.00     0.021 A 
ATOM      5  N   UNL     1     -15.203 -18.554   7.384  1.00  0.00    -0.264 NA
ATOM      6  C   UNL     1     -14.132 -18.900   8.145  1.00  0.00     0.111 A 
ENDROOT
BRANCH   1   7
ATOM      7  C   UNL     1     -16.886 -21.852   6.771  1.00  0.00     0.073 C 
ATOM      8  O   UNL     1     -17.442 -22.642   7.579  1.00  0.00    -0.545 OA
ATOM      9  O   UNL     1     -17.189 -21.947   5.418  1.00  0.00    -0.545 OA
ENDBRANCH   1   7
TORSDOF 1
ENDMDL
MODEL 8
REMARK VINA RESULT:    -2.946      5.343      6.131
REMARK INTER + INTRA:          -3.142
REMARK INTER:                  -3.122
REMARK INTRA:                  -0.020
REMARK UNBOUND:                -0.024
REMARK SMILES O=C([O-])c1cccnc1
REMARK SMILES IDX 4 1 5 2 9 3 6 4 8 5 7 6 2 7 1 8 3 9
REMARK H PARENT
REMARK Flexibility Score: inf
ROOT
ATOM      1  C   UNL     1     -16.019 -21.105   7.216  1.00  0.00     0.016 A 
ATOM      2  C   UNL     1     -16.174 -19.748   6.882  1.00  0.00     0.013 A 
ATOM      3  C   UNL     1     -14.969 -21.463   8.078  1.00  0.00     0.120 A 
ATOM      4  C   UNL     1     -15.300 -18.794   7.402  1.00  0.00     0.021 A 
ATOM      5  N   UNL     1     -14.130 -20.513   8.571  1.00  0.00    -0.264 NA
ATOM      6  C   UNL     1     -14.272 -19.200   8.254  1.00  0.00     0.111 A 
ENDROOT
BRANCH   1   7
ATOM      7  C   UNL     1     -16.935 -22.132   6.676  1.00  0.00     0.073 C 
ATOM      8  O   UNL     1     -17.338 -23.078   7.404  1.00  0.00    -0.545 OA
ATOM      9  O   UNL     1     -17.364 -22.068   5.354  1.00  0.00    -0.545 OA
ENDBRANCH   1   7
TORSDOF 1
ENDMDL
MODEL 9
REMARK VINA RESULT:    -2.879      2.085      2.865
REMARK INTER + INTRA:          -3.071
REMARK INTER:                  -3.049
REMARK INTRA:                  -0.021
REMARK UNBOUND:                -0.024
REMARK SMILES O=C([O-])c1cccnc1
REMARK SMILES IDX 4 1 5 2 9 3 6 4 8 5 7 6 2 7 1 8 3 9
REMARK H PARENT
REMARK Flexibility Score: inf
ROOT
ATOM      1  C   UNL     1     -17.131 -22.992   3.028  1.00  0.00     0.016 A 
ATOM      2  C   UNL     1     -18.032 -24.056   3.205  1.00  0.00     0.013 A 
ATOM      3  C   UNL     1     -16.255 -23.035   1.931  1.00  0.00     0.120 A 
ATOM      4  C   UNL     1     -18.044 -25.121   2.304  1.00  0.00     0.021 A 
ATOM      5  N   UNL     1     -16.287 -24.085   1.067  1.00  0.00    -0.264 NA
ATOM      6  C   UNL     1     -17.154 -25.119   1.229  1.00  0.00     0.111 A 
ENDROOT
BRANCH   1   7
ATOM      7  C   UNL     1     -17.103 -21.854   3.972  1.00  0.00     0.073 C 
ATOM      8  O   UNL     1     -17.331 -22.033   5.198  1.00  0.00    -0.545 OA
ATOM      9  O   UNL     1     -16.823 -20.570   3.519  1.00  0.00    -0.545 OA
ENDBRANCH   1   7
TORSDOF 1
ENDMDL
