MODEL 1
REMARK VINA RESULT:    -3.928      0.000      0.000
REMARK INTER + INTRA:          -5.245
REMARK INTER:                  -5.076
REMARK INTRA:                  -0.169
REMARK UNBOUND:                -0.169
REMARK SMILES CCCCCCC(=O)[O-]
REMARK SMILES IDX 5 1 6 2 7 3 8 4 9 5 4 6 3 7 2 8 1 9
REMARK H PARENT
REMARK Flexibility Score: inf
ROOT
ATOM      1  C   UNL     1       8.326  26.033 110.462  1.00  0.00     0.006 C 
ENDROOT
BRANCH   1   2
ATOM      2  C   UNL     1       7.580  25.901 111.794  1.00  0.00     0.053 C 
BRANCH   2   3
ATOM      3  C   UNL     1       7.564  24.475 112.246  1.00  0.00     0.041 C 
ATOM      4  O   UNL     1       6.585  23.733 111.969  1.00  0.00    -0.550 OA
ATOM      5  O   UNL     1       8.608  23.978 113.016  1.00  0.00    -0.550 OA
ENDBRANCH   2   3
ENDBRANCH   1   2
BRANCH   1   6
ATOM      6  C   UNL     1       7.347  26.036 109.282  1.00  0.00     0.000 C 
BRANCH   6   7
ATOM      7  C   UNL     1       7.983  25.406 108.037  1.00  0.00    -0.000 C 
BRANCH   7   8
ATOM      8  C   UNL     1       7.385  25.996 106.755  1.00  0.00    -0.003 C 
ATOM      9  C   UNL     1       6.159  26.851 107.061  1.00  0.00     0.004 C 
ENDBRANCH   7   8
ENDBRANCH   6   7
ENDBRANCH   1   6
TORSDOF 5
ENDMDL
MODEL 2
REMARK VINA RESULT:    -3.587      2.878      4.364
REMARK INTER + INTRA:          -4.804
REMARK INTER:                  -4.438
REMARK INTRA:                  -0.366
REMARK UNBOUND:                -0.169
REMARK SMILES CCCCCCC(=O)[O-]
REMARK SMILES IDX 5 1 6 2 7 3 8 4 9 5 4 6 3 7 2 8 1 9
REMARK H PARENT
REMARK Flexibility Score: inf
ROOT
ATOM      1  C   UNL     1       7.852  26.565 110.486  1.00  0.00     0.006 C 
ENDROOT
BRANCH   1   2
ATOM      2  C   UNL     1       7.813  25.698 109.224  1.00  0.00     0.053 C 
BRANCH   2   3
ATOM      3  C   UNL     1       6.929  26.320 108.189  1.00  0.00     0.041 C 
ATOM      4  O   UNL     1       5.798  26.769 108.508  1.00  0.00    -0.550 OA
ATOM      5  O   UNL     1       7.335  26.359 106.860  1.00  0.00    -0.550 OA
ENDBRANCH   2   3
ENDBRANCH   1   2
BRANCH   1   6
ATOM      6  C   UNL     1       7.236  25.826 111.679  1.00  0.00     0.000 C 
BRANCH   6   7
ATOM      7  C   UNL     1       6.862  24.387 111.302  1.00  0.00    -0.000 C 
BRANCH   7   8
ATOM      8  C   UNL     1       5.456  24.035 111.802  1.00  0.00    -0.003 C 
ATOM      9  C   UNL     1       4.453  25.128 111.444  1.00  0.00     0.004 C 
ENDBRANCH   7   8
ENDBRANCH   6   7
ENDBRANCH   1   6
TORSDOF 5
ENDMDL
MODEL 3
REMARK VINA RESULT:    -3.527      2.692      3.353
REMARK INTER + INTRA:          -4.727
REMARK INTER:                  -4.392
REMARK INTRA:                  -0.336
REMARK UNBOUND:                -0.169
REMARK SMILES CCCCCCC(=O)[O-]
REMARK SMILES IDX 5 1 6 2 7 3 8 4 9 5 4 6 3 7 2 8 1 9
REMARK H PARENT
REMARK Flexibility Score: inf
ROOT
ATOM      1  C   UNL     1       6.260  24.938 111.016  1.00  0.00     0.006 C 
ENDROOT
BRANCH   1   2
ATOM      2  C   UNL     1       5.415  26.176 111.332  1.00  0.00     0.053 C 
BRANCH   2   3
ATOM      3  C   UNL     1       4.331  26.344 110.314  1.00  0.00     0.041 C 
ATOM      4  O   UNL     1       4.510  27.089 109.315  1.00  0.00    -0.550 OA
ATOM      5  O   UNL     1       3.105  25.716 110.494  1.00  0.00    -0.550 OA
ENDBRANCH   2   3
ENDBRANCH   1   2
BRANCH   1   6
ATOM      6  C   UNL     1       7.733  25.315 110.816  1.00  0.00     0.000 C 
BRANCH   6   7
ATOM      7  C   UNL     1       7.910  26.211 109.584  1.00  0.00    -0.000 C 
BRANCH   7   8
ATOM      8  C   UNL     1       7.851  25.388 108.292  1.00  0.00    -0.003 C 
ATOM      9  C   UNL     1       7.135  26.153 107.183  1.00  0.00     0.004 C 
ENDBRANCH   7   8
ENDBRANCH   6   7
ENDBRANCH   1   6
TORSDOF 5
ENDMDL
MODEL 4
REMARK VINA RESULT:    -3.481      2.908      4.068
REMARK INTER + INTRA:          -4.667
REMARK INTER:                  -4.220
REMARK INTRA:                  -0.447
REMARK UNBOUND:                -0.169
REMARK SMILES CCCCCCC(=O)[O-]
REMARK SMILES IDX 5 1 6 2 7 3 8 4 9 5 4 6 3 7 2 8 1 9
REMARK H PARENT
REMARK Flexibility Score: inf
ROOT
ATOM      1  C   UNL     1       7.161  24.860 112.182  1.00  0.00     0.006 C 
ENDROOT
BRANCH   1   2
ATOM      2  C   UNL     1       8.106  25.446 111.128  1.00  0.00     0.053 C 
BRANCH   2   3
ATOM      3  C   UNL     1       7.529  26.699 110.547  1.00  0.00     0.041 C 
ATOM      4  O   UNL     1       7.511  27.761 111.221  1.00  0.00    -0.550 OA
ATOM      5  O   UNL     1       6.965  26.680 109.277  1.00  0.00    -0.550 OA
ENDBRANCH   2   3
ENDBRANCH   1   2
BRANCH   1   6
ATOM      6  C   UNL     1       6.036  24.054 111.524  1.00  0.00     0.000 C 
BRANCH   6   7
ATOM      7  C   UNL     1       4.661  24.516 112.024  1.00  0.00    -0.000 C 
BRANCH   7   8
ATOM      8  C   UNL     1       3.997  25.459 111.015  1.00  0.00    -0.003 C 
ATOM      9  C   UNL     1       4.006  26.900 111.518  1.00  0.00     0.004 C 
ENDBRANCH   7   8
ENDBRANCH   6   7
ENDBRANCH   1   6
TORSDOF 5
ENDMDL
MODEL 5
REMARK VINA RESULT:    -3.360      2.324      3.503
REMARK INTER + INTRA:          -4.511
REMARK INTER:                  -4.197
REMARK INTRA:                  -0.314
REMARK UNBOUND:                -0.169
REMARK SMILES CCCCCCC(=O)[O-]
REMARK SMILES IDX 5 1 6 2 7 3 8 4 9 5 4 6 3 7 2 8 1 9
REMARK H PARENT
REMARK Flexibility Score: inf
ROOT
ATOM      1  C   UNL     1       6.792  26.463 110.637  1.00  0.00     0.006 C 
ENDROOT
BRANCH   1   2
ATOM      2  C   UNL     1       8.196  25.898 110.876  1.00  0.00     0.053 C 
BRANCH   2   3
ATOM      3  C   UNL     1       8.167  24.864 111.958  1.00  0.00     0.041 C 
ATOM      4  O   UNL     1       9.061  24.849 112.844  1.00  0.00    -0.550 OA
ATOM      5  O   UNL     1       7.180  23.887 111.959  1.00  0.00    -0.550 OA
ENDBRANCH   2   3
ENDBRANCH   1   2
BRANCH   1   6
ATOM      6  C   UNL     1       6.310  27.266 111.850  1.00  0.00     0.000 C 
BRANCH   6   7
ATOM      7  C   UNL     1       4.788  27.165 112.009  1.00  0.00    -0.000 C 
BRANCH   7   8
ATOM      8  C   UNL     1       4.281  25.784 111.579  1.00  0.00    -0.003 C 
ATOM      9  C   UNL     1       3.062  25.902 110.669  1.00  0.00     0.004 C 
ENDBRANCH   7   8
ENDBRANCH   6   7
ENDBRANCH   1   6
TORSDOF 5
ENDMDL
MODEL 6
REMARK VINA RESULT:    -3.349      3.149      4.032
REMARK INTER + INTRA:          -4.497
REMARK INTER:                  -4.289
REMARK INTRA:                  -0.208
REMARK UNBOUND:                -0.169
REMARK SMILES CCCCCCC(=O)[O-]
REMARK SMILES IDX 5 1 6 2 7 3 8 4 9 5 4 6 3 7 2 8 1 9
REMARK H PARENT
REMARK Flexibility Score: inf
ROOT
ATOM      1  C   UNL     1       5.552  23.917 111.928  1.00  0.00     0.006 C 
ENDROOT
BRANCH   1   2
ATOM      2  C   UNL     1       6.597  24.577 111.023  1.00  0.00     0.053 C 
BRANCH   2   3
ATOM      3  C   UNL     1       7.870  24.808 111.775  1.00  0.00     0.041 C 
ATOM      4  O   UNL     1       8.657  25.725 111.423  1.00  0.00    -0.550 OA
ATOM      5  O   UNL     1       8.211  23.977 112.835  1.00  0.00    -0.550 OA
ENDBRANCH   2   3
ENDBRANCH   1   2
BRANCH   1   6
ATOM      6  C   UNL     1       4.274  24.760 111.996  1.00  0.00     0.000 C 
BRANCH   6   7
ATOM      7  C   UNL     1       4.221  25.775 110.847  1.00  0.00    -0.000 C 
BRANCH   7   8
ATOM      8  C   UNL     1       2.839  26.432 110.756  1.00  0.00    -0.003 C 
ATOM      9  C   UNL     1       2.102  26.355 112.090  1.00  0.00     0.004 C 
ENDBRANCH   7   8
ENDBRANCH   6   7
ENDBRANCH   1   6
TORSDOF 5
ENDMDL
MODEL 7
REMARK VINA RESULT:    -3.336      2.815      4.722
REMARK INTER + INTRA:          -4.480
REMARK INTER:                  -4.321
REMARK INTRA:                  -0.158
REMARK UNBOUND:                -0.169
REMARK SMILES CCCCCCC(=O)[O-]
REMARK SMILES IDX 5 1 6 2 7 3 8 4 9 5 4 6 3 7 2 8 1 9
REMARK H PARENT
REMARK Flexibility Score: inf
ROOT
ATOM      1  C   UNL     1       7.927  25.032 112.014  1.00  0.00     0.006 C 
ENDROOT
BRANCH   1   2
ATOM      2  C   UNL     1       7.561  25.127 110.529  1.00  0.00     0.053 C 
BRANCH   2   3
ATOM      3  C   UNL     1       7.275  26.546 110.150  1.00  0.00     0.041 C 
ATOM      4  O   UNL     1       6.810  26.817 109.012  1.00  0.00    -0.550 OA
ATOM      5  O   UNL     1       7.569  27.575 111.037  1.00  0.00    -0.550 OA
ENDBRANCH   2   3
ENDBRANCH   1   2
BRANCH   1   6
ATOM      6  C   UNL     1       6.706  24.644 112.857  1.00  0.00     0.000 C 
BRANCH   6   7
ATOM      7  C   UNL     1       5.644  23.945 111.999  1.00  0.00    -0.000 C 
BRANCH   7   8
ATOM      8  C   UNL     1       4.260  24.041 112.651  1.00  0.00    -0.003 C 
ATOM      9  C   UNL     1       4.007  22.862 113.586  1.00  0.00     0.004 C 
ENDBRANCH   7   8
ENDBRANCH   6   7
ENDBRANCH   1   6
TORSDOF 5
ENDMDL
MODEL 8
REMARK VINA RESULT:    -3.276      3.422      4.661
REMARK INTER + INTRA:          -4.402
REMARK INTER:                  -4.026
REMARK INTRA:                  -0.376
REMARK UNBOUND:                -0.169
REMARK SMILES CCCCCCC(=O)[O-]
REMARK SMILES IDX 5 1 6 2 7 3 8 4 9 5 4 6 3 7 2 8 1 9
REMARK H PARENT
REMARK Flexibility Score: inf
ROOT
ATOM      1  C   UNL     1       4.038  25.175 112.079  1.00  0.00     0.006 C 
ENDROOT
BRANCH   1   2
ATOM      2  C   UNL     1       3.626  25.769 110.729  1.00  0.00     0.053 C 
BRANCH   2   3
ATOM      3  C   UNL     1       3.986  27.220 110.664  1.00  0.00     0.041 C 
ATOM      4  O   UNL     1       3.375  27.991 109.877  1.00  0.00    -0.550 OA
ATOM      5  O   UNL     1       5.031  27.712 111.436  1.00  0.00    -0.550 OA
ENDBRANCH   2   3
ENDBRANCH   1   2
BRANCH   1   6
ATOM      6  C   UNL     1       5.037  24.027 111.892  1.00  0.00     0.000 C 
BRANCH   6   7
ATOM      7  C   UNL     1       6.477  24.509 112.109  1.00  0.00    -0.000 C 
BRANCH   7   8
ATOM      8  C   UNL     1       7.196  24.714 110.771  1.00  0.00    -0.003 C 
ATOM      9  C   UNL     1       8.079  25.958 110.803  1.00  0.00     0.004 C 
ENDBRANCH   7   8
ENDBRANCH   6   7
ENDBRANCH   1   6
TORSDOF 5
ENDMDL
MODEL 9
REMARK VINA RESULT:    -3.262      3.559      4.121
REMARK INTER + INTRA:          -4.384
REMARK INTER:                  -4.188
REMARK INTRA:                  -0.196
REMARK UNBOUND:                -0.169
REMARK SMILES CCCCCCC(=O)[O-]
REMARK SMILES IDX 5 1 6 2 7 3 8 4 9 5 4 6 3 7 2 8 1 9
REMARK H PARENT
REMARK Flexibility Score: inf
ROOT
ATOM      1  C   UNL     1       5.546  25.137 111.541  1.00  0.00     0.006 C 
ENDROOT
BRANCH   1   2
ATOM      2  C   UNL     1       6.249  25.939 110.442  1.00  0.00     0.053 C 
BRANCH   2   3
ATOM      3  C   UNL     1       7.499  26.569 110.971  1.00  0.00     0.041 C 
ATOM      4  O   UNL     1       7.539  27.808 111.193  1.00  0.00    -0.550 OA
ATOM      5  O   UNL     1       8.636  25.796 111.174  1.00  0.00    -0.550 OA
ENDBRANCH   2   3
ENDBRANCH   1   2
BRANCH   1   6
ATOM      6  C   UNL     1       4.036  25.399 111.532  1.00  0.00     0.000 C 
BRANCH   6   7
ATOM      7  C   UNL     1       3.645  26.329 110.377  1.00  0.00    -0.000 C 
BRANCH   7   8
ATOM      8  C   UNL     1       2.462  27.222 110.765  1.00  0.00    -0.003 C 
ATOM      9  C   UNL     1       2.594  28.611 110.148  1.00  0.00     0.004 C 
ENDBRANCH   7   8
ENDBRANCH   6   7
ENDBRANCH   1   6
TORSDOF 5
ENDMDL
