MODEL 1
REMARK VINA RESULT:    -3.639      0.000      0.000
REMARK INTER + INTRA:         -14.901
REMARK INTER:                  -9.596
REMARK INTRA:                  -5.305
REMARK UNBOUND:                -5.305
REMARK SMILES CCCCCCCCCCCCCCCCCCCCCCCCCCCCCC(=O)[O-]
REMARK SMILES IDX 16 1 17 2 18 3 19 4 20 5 21 6 22 7 23 8 24 9 25 10 26 11
REMARK SMILES IDX 27 12 28 13 29 14 30 15 31 16 32 17 15 18 14 19 13 20 12 21
REMARK SMILES IDX 11 22 10 23 9 24 8 25 7 26 6 27 5 28 4 29 3 30 2 31 1 32
REMARK H PARENT
REMARK Flexibility Score: inf
ROOT
ATOM      1  C   UNL     1      29.868  33.161   3.309  1.00  0.00     0.000 C 
ENDROOT
BRANCH   1   2
ATOM      2  C   UNL     1      31.230  33.125   4.018  1.00  0.00     0.000 C 
BRANCH   2   3
ATOM      3  C   UNL     1      32.398  33.528   3.092  1.00  0.00     0.000 C 
BRANCH   3   4
ATOM      4  C   UNL     1      32.717  32.501   1.987  1.00  0.00     0.000 C 
BRANCH   4   5
ATOM      5  C   UNL     1      33.498  33.043   0.773  1.00  0.00     0.000 C 
BRANCH   5   6
ATOM      6  C   UNL     1      32.687  33.938  -0.185  1.00  0.00     0.000 C 
BRANCH   6   7
ATOM      7  C   UNL     1      31.316  33.340  -0.540  1.00  0.00     0.000 C 
BRANCH   7   8
ATOM      8  C   UNL     1      30.147  34.295  -0.239  1.00  0.00     0.000 C 
BRANCH   8   9
ATOM      9  C   UNL     1      30.546  35.712   0.223  1.00  0.00     0.000 C 
BRANCH   9  10
ATOM     10  C   UNL     1      30.025  36.124   1.612  1.00  0.00     0.000 C 
BRANCH  10  11
ATOM     11  C   UNL     1      31.039  36.958   2.416  1.00  0.00     0.000 C 
BRANCH  11  12
ATOM     12  C   UNL     1      32.165  37.533   1.527  1.00  0.00     0.000 C 
BRANCH  12  13
ATOM     13  C   UNL     1      33.545  37.591   2.216  1.00  0.00     0.006 C 
BRANCH  13  14
ATOM     14  C   UNL     1      34.479  36.409   1.907  1.00  0.00     0.053 C 
BRANCH  14  15
ATOM     15  C   UNL     1      35.071  35.796   3.142  1.00  0.00     0.041 C 
ATOM     16  O   UNL     1      35.908  34.858   3.054  1.00  0.00    -0.550 OA
ATOM     17  O   UNL     1      34.711  36.275   4.396  1.00  0.00    -0.550 OA
ENDBRANCH  14  15
ENDBRANCH  13  14
ENDBRANCH  12  13
ENDBRANCH  11  12
ENDBRANCH  10  11
ENDBRANCH   9  10
ENDBRANCH   8   9
ENDBRANCH   7   8
ENDBRANCH   6   7
ENDBRANCH   5   6
ENDBRANCH   4   5
ENDBRANCH   3   4
ENDBRANCH   2   3
ENDBRANCH   1   2
BRANCH   1  18
ATOM     18  C   UNL     1      28.751  33.615   4.267  1.00  0.00     0.000 C 
BRANCH  18  19
ATOM     19  C   UNL     1      27.490  34.080   3.520  1.00  0.00     0.000 C 
BRANCH  19  20
ATOM     20  C   UNL     1      26.956  33.017   2.544  1.00  0.00     0.000 C 
BRANCH  20  21
ATOM     21  C   UNL     1      25.897  33.584   1.582  1.00  0.00     0.000 C 
BRANCH  21  22
ATOM     22  C   UNL     1      26.522  34.105   0.275  1.00  0.00     0.000 C 
BRANCH  22  23
ATOM     23  C   UNL     1      26.644  35.636   0.242  1.00  0.00     0.000 C 
BRANCH  23  24
ATOM     24  C   UNL     1      25.717  36.329   1.259  1.00  0.00    -0.000 C 
BRANCH  24  25
ATOM     25  C   UNL     1      24.450  36.910   0.597  1.00  0.00    -0.000 C 
BRANCH  25  26
ATOM     26  C   UNL     1      23.151  36.168   0.969  1.00  0.00    -0.000 C 
BRANCH  26  27
ATOM     27  C   UNL     1      22.400  35.526  -0.210  1.00  0.00    -0.000 C 
BRANCH  27  28
ATOM     28  C   UNL     1      23.334  35.130  -1.367  1.00  0.00    -0.000 C 
BRANCH  28  29
ATOM     29  C   UNL     1      23.423  33.608  -1.563  1.00  0.00    -0.000 C 
BRANCH  29  30
ATOM     30  C   UNL     1      22.727  32.801  -0.445  1.00  0.00    -0.000 C 
BRANCH  30  31
ATOM     31  C   UNL     1      22.340  31.393  -0.917  1.00  0.00    -0.003 C 
ATOM     32  C   UNL     1      20.885  31.343  -1.374  1.00  0.00     0.004 C 
ENDBRANCH  30  31
ENDBRANCH  29  30
ENDBRANCH  28  29
ENDBRANCH  27  28
ENDBRANCH  26  27
ENDBRANCH  25  26
ENDBRANCH  24  25
ENDBRANCH  23  24
ENDBRANCH  22  23
ENDBRANCH  21  22
ENDBRANCH  20  21
ENDBRANCH  19  20
ENDBRANCH  18  19
ENDBRANCH   1  18
TORSDOF 28
ENDMDL
MODEL 2
REMARK VINA RESULT:    -3.597      4.017      9.205
REMARK INTER + INTRA:         -14.791
REMARK INTER:                  -8.946
REMARK INTRA:                  -5.845
REMARK UNBOUND:                -5.305
REMARK SMILES CCCCCCCCCCCCCCCCCCCCCCCCCCCCCC(=O)[O-]
REMARK SMILES IDX 16 1 17 2 18 3 19 4 20 5 21 6 22 7 23 8 24 9 25 10 26 11
REMARK SMILES IDX 27 12 28 13 29 14 30 15 31 16 32 17 15 18 14 19 13 20 12 21
REMARK SMILES IDX 11 22 10 23 9 24 8 25 7 26 6 27 5 28 4 29 3 30 2 31 1 32
REMARK H PARENT
REMARK Flexibility Score: inf
ROOT
ATOM      1  C   UNL     1      27.225  32.648   2.758  1.00  0.00     0.000 C 
ENDROOT
BRANCH   1   2
ATOM      2  C   UNL     1      26.173  33.656   2.270  1.00  0.00     0.000 C 
BRANCH   2   3
ATOM      3  C   UNL     1      25.507  33.231   0.943  1.00  0.00     0.000 C 
BRANCH   3   4
ATOM      4  C   UNL     1      26.049  33.960  -0.303  1.00  0.00     0.000 C 
BRANCH   4   5
ATOM      5  C   UNL     1      27.077  35.077  -0.031  1.00  0.00     0.000 C 
BRANCH   5   6
ATOM      6  C   UNL     1      26.734  36.450  -0.642  1.00  0.00     0.000 C 
BRANCH   6   7
ATOM      7  C   UNL     1      26.619  37.559   0.416  1.00  0.00     0.000 C 
BRANCH   7   8
ATOM      8  C   UNL     1      25.781  37.141   1.637  1.00  0.00     0.000 C 
BRANCH   8   9
ATOM      9  C   UNL     1      24.264  37.397   1.524  1.00  0.00     0.000 C 
BRANCH   9  10
ATOM     10  C   UNL     1      23.411  36.162   1.179  1.00  0.00     0.000 C 
BRANCH  10  11
ATOM     11  C   UNL     1      22.573  36.343  -0.099  1.00  0.00     0.000 C 
BRANCH  11  12
ATOM     12  C   UNL     1      22.988  35.360  -1.218  1.00  0.00     0.000 C 
BRANCH  12  13
ATOM     13  C   UNL     1      21.981  34.214  -1.455  1.00  0.00     0.006 C 
BRANCH  13  14
ATOM     14  C   UNL     1      22.321  32.891  -0.748  1.00  0.00     0.053 C 
BRANCH  14  15
ATOM     15  C   UNL     1      21.616  31.711  -1.350  1.00  0.00     0.041 C 
ATOM     16  O   UNL     1      20.403  31.790  -1.683  1.00  0.00    -0.550 OA
ATOM     17  O   UNL     1      22.307  30.524  -1.562  1.00  0.00    -0.550 OA
ENDBRANCH  14  15
ENDBRANCH  13  14
ENDBRANCH  12  13
ENDBRANCH  11  12
ENDBRANCH  10  11
ENDBRANCH   9  10
ENDBRANCH   8   9
ENDBRANCH   7   8
ENDBRANCH   6   7
ENDBRANCH   5   6
ENDBRANCH   4   5
ENDBRANCH   3   4
ENDBRANCH   2   3
ENDBRANCH   1   2
BRANCH   1  18
ATOM     18  C   UNL     1      28.597  33.319   2.946  1.00  0.00     0.000 C 
BRANCH  18  19
ATOM     19  C   UNL     1      28.525  34.564   3.845  1.00  0.00     0.000 C 
BRANCH  19  20
ATOM     20  C   UNL     1      28.962  35.846   3.115  1.00  0.00     0.000 C 
BRANCH  20  21
ATOM     21  C   UNL     1      30.167  35.610   2.187  1.00  0.00     0.000 C 
BRANCH  21  22
ATOM     22  C   UNL     1      30.433  36.816   1.266  1.00  0.00     0.000 C 
BRANCH  22  23
ATOM     23  C   UNL     1      30.517  36.426  -0.217  1.00  0.00     0.000 C 
BRANCH  23  24
ATOM     24  C   UNL     1      31.727  35.523  -0.528  1.00  0.00    -0.000 C 
BRANCH  24  25
ATOM     25  C   UNL     1      31.303  34.128  -1.033  1.00  0.00    -0.000 C 
BRANCH  25  26
ATOM     26  C   UNL     1      31.294  33.041   0.060  1.00  0.00    -0.000 C 
BRANCH  26  27
ATOM     27  C   UNL     1      32.613  32.877   0.834  1.00  0.00    -0.000 C 
BRANCH  27  28
ATOM     28  C   UNL     1      32.396  32.664   2.343  1.00  0.00    -0.000 C 
BRANCH  28  29
ATOM     29  C   UNL     1      33.194  33.657   3.202  1.00  0.00    -0.000 C 
BRANCH  29  30
ATOM     30  C   UNL     1      33.995  34.686   2.373  1.00  0.00    -0.000 C 
BRANCH  30  31
ATOM     31  C   UNL     1      33.792  36.115   2.891  1.00  0.00    -0.003 C 
ATOM     32  C   UNL     1      34.138  37.146   1.822  1.00  0.00     0.004 C 
ENDBRANCH  30  31
ENDBRANCH  29  30
ENDBRANCH  28  29
ENDBRANCH  27  28
ENDBRANCH  26  27
ENDBRANCH  25  26
ENDBRANCH  24  25
ENDBRANCH  23  24
ENDBRANCH  22  23
ENDBRANCH  21  22
ENDBRANCH  20  21
ENDBRANCH  19  20
ENDBRANCH  18  19
ENDBRANCH   1  18
TORSDOF 28
ENDMDL
MODEL 3
REMARK VINA RESULT:    -3.560      3.569      8.786
REMARK INTER + INTRA:         -14.692
REMARK INTER:                  -8.558
REMARK INTRA:                  -6.134
REMARK UNBOUND:                -5.305
REMARK SMILES CCCCCCCCCCCCCCCCCCCCCCCCCCCCCC(=O)[O-]
REMARK SMILES IDX 16 1 17 2 18 3 19 4 20 5 21 6 22 7 23 8 24 9 25 10 26 11
REMARK SMILES IDX 27 12 28 13 29 14 30 15 31 16 32 17 15 18 14 19 13 20 12 21
REMARK SMILES IDX 11 22 10 23 9 24 8 25 7 26 6 27 5 28 4 29 3 30 2 31 1 32
REMARK H PARENT
REMARK Flexibility Score: inf
ROOT
ATOM      1  C   UNL     1      27.481  32.844   2.773  1.00  0.00     0.000 C 
ENDROOT
BRANCH   1   2
ATOM      2  C   UNL     1      26.763  33.592   1.640  1.00  0.00     0.000 C 
BRANCH   2   3
ATOM      3  C   UNL     1      26.109  34.909   2.111  1.00  0.00     0.000 C 
BRANCH   3   4
ATOM      4  C   UNL     1      26.940  36.174   1.813  1.00  0.00     0.000 C 
BRANCH   4   5
ATOM      5  C   UNL     1      28.161  36.404   2.726  1.00  0.00     0.000 C 
BRANCH   5   6
ATOM      6  C   UNL     1      29.352  37.124   2.064  1.00  0.00     0.000 C 
BRANCH   6   7
ATOM      7  C   UNL     1      30.364  36.149   1.442  1.00  0.00     0.000 C 
BRANCH   7   8
ATOM      8  C   UNL     1      30.219  36.024  -0.085  1.00  0.00     0.000 C 
BRANCH   8   9
ATOM      9  C   UNL     1      29.437  34.790  -0.582  1.00  0.00     0.000 C 
BRANCH   9  10
ATOM     10  C   UNL     1      28.672  34.983  -1.905  1.00  0.00     0.000 C 
BRANCH  10  11
ATOM     11  C   UNL     1      27.220  35.450  -1.702  1.00  0.00     0.000 C 
BRANCH  11  12
ATOM     12  C   UNL     1      26.201  34.304  -1.896  1.00  0.00     0.000 C 
BRANCH  12  13
ATOM     13  C   UNL     1      24.727  34.762  -1.883  1.00  0.00     0.006 C 
BRANCH  13  14
ATOM     14  C   UNL     1      24.437  36.004  -1.022  1.00  0.00     0.053 C 
BRANCH  14  15
ATOM     15  C   UNL     1      23.240  35.831  -0.134  1.00  0.00     0.041 C 
ATOM     16  O   UNL     1      23.167  36.436   0.969  1.00  0.00    -0.550 OA
ATOM     17  O   UNL     1      22.192  35.010  -0.534  1.00  0.00    -0.550 OA
ENDBRANCH  14  15
ENDBRANCH  13  14
ENDBRANCH  12  13
ENDBRANCH  11  12
ENDBRANCH  10  11
ENDBRANCH   9  10
ENDBRANCH   8   9
ENDBRANCH   7   8
ENDBRANCH   6   7
ENDBRANCH   5   6
ENDBRANCH   4   5
ENDBRANCH   3   4
ENDBRANCH   2   3
ENDBRANCH   1   2
BRANCH   1  18
ATOM     18  C   UNL     1      29.005  32.833   2.559  1.00  0.00     0.000 C 
BRANCH  18  19
ATOM     19  C   UNL     1      29.781  33.155   3.846  1.00  0.00     0.000 C 
BRANCH  19  20
ATOM     20  C   UNL     1      31.304  33.177   3.626  1.00  0.00     0.000 C 
BRANCH  20  21
ATOM     21  C   UNL     1      31.686  33.011   2.145  1.00  0.00     0.000 C 
BRANCH  21  22
ATOM     22  C   UNL     1      33.102  32.431   1.974  1.00  0.00     0.000 C 
BRANCH  22  23
ATOM     23  C   UNL     1      33.816  32.962   0.723  1.00  0.00     0.000 C 
BRANCH  23  24
ATOM     24  C   UNL     1      32.931  32.908  -0.538  1.00  0.00    -0.000 C 
BRANCH  24  25
ATOM     25  C   UNL     1      33.103  34.155  -1.430  1.00  0.00    -0.000 C 
BRANCH  25  26
ATOM     26  C   UNL     1      34.210  35.117  -0.956  1.00  0.00    -0.000 C 
BRANCH  26  27
ATOM     27  C   UNL     1      33.790  36.592  -0.831  1.00  0.00    -0.000 C 
BRANCH  27  28
ATOM     28  C   UNL     1      33.765  37.083   0.627  1.00  0.00    -0.000 C 
BRANCH  28  29
ATOM     29  C   UNL     1      34.811  36.380   1.507  1.00  0.00    -0.000 C 
BRANCH  29  30
ATOM     30  C   UNL     1      34.290  36.022   2.917  1.00  0.00    -0.000 C 
BRANCH  30  31
ATOM     31  C   UNL     1      35.192  34.994   3.612  1.00  0.00    -0.003 C 
ATOM     32  C   UNL     1      34.585  34.529   4.932  1.00  0.00     0.004 C 
ENDBRANCH  30  31
ENDBRANCH  29  30
ENDBRANCH  28  29
ENDBRANCH  27  28
ENDBRANCH  26  27
ENDBRANCH  25  26
ENDBRANCH  24  25
ENDBRANCH  23  24
ENDBRANCH  22  23
ENDBRANCH  21  22
ENDBRANCH  20  21
ENDBRANCH  19  20
ENDBRANCH  18  19
ENDBRANCH   1  18
TORSDOF 28
ENDMDL
MODEL 4
REMARK VINA RESULT:    -3.442      3.761      9.305
REMARK INTER + INTRA:         -14.382
REMARK INTER:                  -9.206
REMARK INTRA:                  -5.176
REMARK UNBOUND:                -5.305
REMARK SMILES CCCCCCCCCCCCCCCCCCCCCCCCCCCCCC(=O)[O-]
REMARK SMILES IDX 16 1 17 2 18 3 19 4 20 5 21 6 22 7 23 8 24 9 25 10 26 11
REMARK SMILES IDX 27 12 28 13 29 14 30 15 31 16 32 17 15 18 14 19 13 20 12 21
REMARK SMILES IDX 11 22 10 23 9 24 8 25 7 26 6 27 5 28 4 29 3 30 2 31 1 32
REMARK H PARENT
REMARK Flexibility Score: inf
ROOT
ATOM      1  C   UNL     1      27.172  32.879   2.752  1.00  0.00     0.000 C 
ENDROOT
BRANCH   1   2
ATOM      2  C   UNL     1      26.360  33.756   1.786  1.00  0.00     0.000 C 
BRANCH   2   3
ATOM      3  C   UNL     1      26.753  35.248   1.857  1.00  0.00     0.000 C 
BRANCH   3   4
ATOM      4  C   UNL     1      25.579  36.225   1.645  1.00  0.00     0.000 C 
BRANCH   4   5
ATOM      5  C   UNL     1      25.951  37.600   1.053  1.00  0.00     0.000 C 
BRANCH   5   6
ATOM      6  C   UNL     1      27.445  37.796   0.731  1.00  0.00     0.000 C 
BRANCH   6   7
ATOM      7  C   UNL     1      27.701  38.082  -0.757  1.00  0.00     0.000 C 
BRANCH   7   8
ATOM      8  C   UNL     1      26.941  37.124  -1.692  1.00  0.00     0.000 C 
BRANCH   8   9
ATOM      9  C   UNL     1      27.564  35.723  -1.862  1.00  0.00     0.000 C 
BRANCH   9  10
ATOM     10  C   UNL     1      26.563  34.553  -1.875  1.00  0.00     0.000 C 
BRANCH  10  11
ATOM     11  C   UNL     1      25.100  35.006  -1.723  1.00  0.00     0.000 C 
BRANCH  11  12
ATOM     12  C   UNL     1      24.188  33.880  -1.183  1.00  0.00     0.000 C 
BRANCH  12  13
ATOM     13  C   UNL     1      23.048  34.377  -0.270  1.00  0.00     0.006 C 
BRANCH  13  14
ATOM     14  C   UNL     1      22.009  35.280  -0.956  1.00  0.00     0.053 C 
BRANCH  14  15
ATOM     15  C   UNL     1      21.773  36.564  -0.215  1.00  0.00     0.041 C 
ATOM     16  O   UNL     1      20.698  36.751   0.416  1.00  0.00    -0.550 OA
ATOM     17  O   UNL     1      22.752  37.550  -0.206  1.00  0.00    -0.550 OA
ENDBRANCH  14  15
ENDBRANCH  13  14
ENDBRANCH  12  13
ENDBRANCH  11  12
ENDBRANCH  10  11
ENDBRANCH   9  10
ENDBRANCH   8   9
ENDBRANCH   7   8
ENDBRANCH   6   7
ENDBRANCH   5   6
ENDBRANCH   4   5
ENDBRANCH   3   4
ENDBRANCH   2   3
ENDBRANCH   1   2
BRANCH   1  18
ATOM     18  C   UNL     1      27.798  33.720   3.878  1.00  0.00     0.000 C 
BRANCH  18  19
ATOM     19  C   UNL     1      29.295  33.424   4.069  1.00  0.00     0.000 C 
BRANCH  19  20
ATOM     20  C   UNL     1      30.098  33.582   2.766  1.00  0.00     0.000 C 
BRANCH  20  21
ATOM     21  C   UNL     1      30.356  35.057   2.411  1.00  0.00     0.000 C 
BRANCH  21  22
ATOM     22  C   UNL     1      30.140  35.337   0.912  1.00  0.00     0.000 C 
BRANCH  22  23
ATOM     23  C   UNL     1      30.327  34.087   0.040  1.00  0.00     0.000 C 
BRANCH  23  24
ATOM     24  C   UNL     1      31.626  34.127  -0.789  1.00  0.00    -0.000 C 
BRANCH  24  25
ATOM     25  C   UNL     1      32.605  32.999  -0.399  1.00  0.00    -0.000 C 
BRANCH  25  26
ATOM     26  C   UNL     1      34.064  33.466  -0.230  1.00  0.00    -0.000 C 
BRANCH  26  27
ATOM     27  C   UNL     1      34.453  33.905   1.192  1.00  0.00    -0.000 C 
BRANCH  27  28
ATOM     28  C   UNL     1      33.639  33.186   2.281  1.00  0.00    -0.000 C 
BRANCH  28  29
ATOM     29  C   UNL     1      33.706  33.901   3.640  1.00  0.00    -0.000 C 
BRANCH  29  30
ATOM     30  C   UNL     1      35.094  34.501   3.953  1.00  0.00    -0.000 C 
BRANCH  30  31
ATOM     31  C   UNL     1      35.050  35.428   5.175  1.00  0.00    -0.003 C 
ATOM     32  C   UNL     1      34.857  34.637   6.464  1.00  0.00     0.004 C 
ENDBRANCH  30  31
ENDBRANCH  29  30
ENDBRANCH  28  29
ENDBRANCH  27  28
ENDBRANCH  26  27
ENDBRANCH  25  26
ENDBRANCH  24  25
ENDBRANCH  23  24
ENDBRANCH  22  23
ENDBRANCH  21  22
ENDBRANCH  20  21
ENDBRANCH  19  20
ENDBRANCH  18  19
ENDBRANCH   1  18
TORSDOF 28
ENDMDL
MODEL 5
REMARK VINA RESULT:    -3.328      3.868      8.851
REMARK INTER + INTRA:         -14.082
REMARK INTER:                  -8.387
REMARK INTRA:                  -5.695
REMARK UNBOUND:                -5.305
REMARK SMILES CCCCCCCCCCCCCCCCCCCCCCCCCCCCCC(=O)[O-]
REMARK SMILES IDX 16 1 17 2 18 3 19 4 20 5 21 6 22 7 23 8 24 9 25 10 26 11
REMARK SMILES IDX 27 12 28 13 29 14 30 15 31 16 32 17 15 18 14 19 13 20 12 21
REMARK SMILES IDX 11 22 10 23 9 24 8 25 7 26 6 27 5 28 4 29 3 30 2 31 1 32
REMARK H PARENT
REMARK Flexibility Score: inf
ROOT
ATOM      1  C   UNL     1      27.126  33.771   3.746  1.00  0.00     0.000 C 
ENDROOT
BRANCH   1   2
ATOM      2  C   UNL     1      26.900  32.894   2.505  1.00  0.00     0.000 C 
BRANCH   2   3
ATOM      3  C   UNL     1      26.979  33.692   1.186  1.00  0.00     0.000 C 
BRANCH   3   4
ATOM      4  C   UNL     1      25.687  33.655   0.343  1.00  0.00     0.000 C 
BRANCH   4   5
ATOM      5  C   UNL     1      25.758  34.369  -1.022  1.00  0.00     0.000 C 
BRANCH   5   6
ATOM      6  C   UNL     1      27.172  34.777  -1.480  1.00  0.00     0.000 C 
BRANCH   6   7
ATOM      7  C   UNL     1      27.403  36.295  -1.416  1.00  0.00     0.000 C 
BRANCH   7   8
ATOM      8  C   UNL     1      28.538  36.691  -0.454  1.00  0.00     0.000 C 
BRANCH   8   9
ATOM      9  C   UNL     1      28.089  37.269   0.904  1.00  0.00     0.000 C 
BRANCH   9  10
ATOM     10  C   UNL     1      26.664  37.852   0.935  1.00  0.00     0.000 C 
BRANCH  10  11
ATOM     11  C   UNL     1      25.712  37.073   1.861  1.00  0.00     0.000 C 
BRANCH  11  12
ATOM     12  C   UNL     1      24.283  36.967   1.281  1.00  0.00     0.000 C 
BRANCH  12  13
ATOM     13  C   UNL     1      24.116  37.623  -0.106  1.00  0.00     0.006 C 
BRANCH  13  14
ATOM     14  C   UNL     1      23.103  36.934  -1.036  1.00  0.00     0.053 C 
BRANCH  14  15
ATOM     15  C   UNL     1      22.154  36.034  -0.299  1.00  0.00     0.041 C 
ATOM     16  O   UNL     1      22.308  34.783  -0.322  1.00  0.00    -0.550 OA
ATOM     17  O   UNL     1      21.106  36.580   0.432  1.00  0.00    -0.550 OA
ENDBRANCH  14  15
ENDBRANCH  13  14
ENDBRANCH  12  13
ENDBRANCH  11  12
ENDBRANCH  10  11
ENDBRANCH   9  10
ENDBRANCH   8   9
ENDBRANCH   7   8
ENDBRANCH   6   7
ENDBRANCH   5   6
ENDBRANCH   4   5
ENDBRANCH   3   4
ENDBRANCH   2   3
ENDBRANCH   1   2
BRANCH   1  18
ATOM     18  C   UNL     1      28.612  34.139   3.908  1.00  0.00     0.000 C 
BRANCH  18  19
ATOM     19  C   UNL     1      29.527  32.904   3.911  1.00  0.00     0.000 C 
BRANCH  19  20
ATOM     20  C   UNL     1      31.019  33.274   3.862  1.00  0.00     0.000 C 
BRANCH  20  21
ATOM     21  C   UNL     1      31.646  33.003   2.483  1.00  0.00     0.000 C 
BRANCH  21  22
ATOM     22  C   UNL     1      30.580  32.695   1.414  1.00  0.00     0.000 C 
BRANCH  22  23
ATOM     23  C   UNL     1      30.552  33.736   0.285  1.00  0.00     0.000 C 
BRANCH  23  24
ATOM     24  C   UNL     1      31.599  34.851   0.475  1.00  0.00    -0.000 C 
BRANCH  24  25
ATOM     25  C   UNL     1      32.606  34.916  -0.693  1.00  0.00    -0.000 C 
BRANCH  25  26
ATOM     26  C   UNL     1      33.410  33.617  -0.901  1.00  0.00    -0.000 C 
BRANCH  26  27
ATOM     27  C   UNL     1      34.536  33.371   0.118  1.00  0.00    -0.000 C 
BRANCH  27  28
ATOM     28  C   UNL     1      35.570  34.510   0.150  1.00  0.00    -0.000 C 
BRANCH  28  29
ATOM     29  C   UNL     1      35.726  35.130   1.547  1.00  0.00    -0.000 C 
BRANCH  29  30
ATOM     30  C   UNL     1      34.807  34.491   2.611  1.00  0.00    -0.000 C 
BRANCH  30  31
ATOM     31  C   UNL     1      34.258  35.536   3.591  1.00  0.00    -0.003 C 
ATOM     32  C   UNL     1      33.635  36.715   2.851  1.00  0.00     0.004 C 
ENDBRANCH  30  31
ENDBRANCH  29  30
ENDBRANCH  28  29
ENDBRANCH  27  28
ENDBRANCH  26  27
ENDBRANCH  25  26
ENDBRANCH  24  25
ENDBRANCH  23  24
ENDBRANCH  22  23
ENDBRANCH  21  22
ENDBRANCH  20  21
ENDBRANCH  19  20
ENDBRANCH  18  19
ENDBRANCH   1  18
TORSDOF 28
ENDMDL
MODEL 6
REMARK VINA RESULT:    -3.318      3.979      9.094
REMARK INTER + INTRA:         -14.055
REMARK INTER:                  -8.957
REMARK INTRA:                  -5.098
REMARK UNBOUND:                -5.305
REMARK SMILES CCCCCCCCCCCCCCCCCCCCCCCCCCCCCC(=O)[O-]
REMARK SMILES IDX 16 1 17 2 18 3 19 4 20 5 21 6 22 7 23 8 24 9 25 10 26 11
REMARK SMILES IDX 27 12 28 13 29 14 30 15 31 16 32 17 15 18 14 19 13 20 12 21
REMARK SMILES IDX 11 22 10 23 9 24 8 25 7 26 6 27 5 28 4 29 3 30 2 31 1 32
REMARK H PARENT
REMARK Flexibility Score: inf
ROOT
ATOM      1  C   UNL     1      27.714  32.866   2.502  1.00  0.00     0.000 C 
ENDROOT
BRANCH   1   2
ATOM      2  C   UNL     1      26.435  33.644   2.846  1.00  0.00     0.000 C 
BRANCH   2   3
ATOM      3  C   UNL     1      25.596  33.998   1.599  1.00  0.00     0.000 C 
BRANCH   3   4
ATOM      4  C   UNL     1      26.378  33.946   0.270  1.00  0.00     0.000 C 
BRANCH   4   5
ATOM      5  C   UNL     1      27.148  35.229  -0.104  1.00  0.00     0.000 C 
BRANCH   5   6
ATOM      6  C   UNL     1      26.283  36.494  -0.267  1.00  0.00     0.000 C 
BRANCH   6   7
ATOM      7  C   UNL     1      26.457  37.487   0.892  1.00  0.00     0.000 C 
BRANCH   7   8
ATOM      8  C   UNL     1      25.281  37.465   1.885  1.00  0.00     0.000 C 
BRANCH   8   9
ATOM      9  C   UNL     1      23.907  37.853   1.300  1.00  0.00     0.000 C 
BRANCH   9  10
ATOM     10  C   UNL     1      23.038  36.677   0.819  1.00  0.00     0.000 C 
BRANCH  10  11
ATOM     11  C   UNL     1      22.610  36.804  -0.654  1.00  0.00     0.000 C 
BRANCH  11  12
ATOM     12  C   UNL     1      22.594  35.440  -1.382  1.00  0.00     0.000 C 
BRANCH  12  13
ATOM     13  C   UNL     1      22.583  34.221  -0.436  1.00  0.00     0.006 C 
BRANCH  13  14
ATOM     14  C   UNL     1      23.066  32.903  -1.065  1.00  0.00     0.053 C 
BRANCH  14  15
ATOM     15  C   UNL     1      21.936  32.010  -1.485  1.00  0.00     0.041 C 
ATOM     16  O   UNL     1      20.810  32.495  -1.779  1.00  0.00    -0.550 OA
ATOM     17  O   UNL     1      22.130  30.636  -1.569  1.00  0.00    -0.550 OA
ENDBRANCH  14  15
ENDBRANCH  13  14
ENDBRANCH  12  13
ENDBRANCH  11  12
ENDBRANCH  10  11
ENDBRANCH   9  10
ENDBRANCH   8   9
ENDBRANCH   7   8
ENDBRANCH   6   7
ENDBRANCH   5   6
ENDBRANCH   4   5
ENDBRANCH   3   4
ENDBRANCH   2   3
ENDBRANCH   1   2
BRANCH   1  18
ATOM     18  C   UNL     1      28.969  33.603   3.005  1.00  0.00     0.000 C 
BRANCH  18  19
ATOM     19  C   UNL     1      28.631  34.931   3.701  1.00  0.00     0.000 C 
BRANCH  19  20
ATOM     20  C   UNL     1      29.156  36.153   2.928  1.00  0.00     0.000 C 
BRANCH  20  21
ATOM     21  C   UNL     1      30.169  35.765   1.836  1.00  0.00     0.000 C 
BRANCH  21  22
ATOM     22  C   UNL     1      30.690  36.994   1.067  1.00  0.00     0.000 C 
BRANCH  22  23
ATOM     23  C   UNL     1      32.212  37.164   1.177  1.00  0.00     0.000 C 
BRANCH  23  24
ATOM     24  C   UNL     1      32.684  37.387   2.627  1.00  0.00    -0.000 C 
BRANCH  24  25
ATOM     25  C   UNL     1      34.082  36.789   2.888  1.00  0.00    -0.000 C 
BRANCH  25  26
ATOM     26  C   UNL     1      34.239  35.332   2.413  1.00  0.00    -0.000 C 
BRANCH  26  27
ATOM     27  C   UNL     1      33.952  34.258   3.478  1.00  0.00    -0.000 C 
BRANCH  27  28
ATOM     28  C   UNL     1      32.654  33.479   3.203  1.00  0.00    -0.000 C 
BRANCH  28  29
ATOM     29  C   UNL     1      32.789  32.498   2.028  1.00  0.00    -0.000 C 
BRANCH  29  30
ATOM     30  C   UNL     1      31.860  32.829   0.839  1.00  0.00    -0.000 C 
BRANCH  30  31
ATOM     31  C   UNL     1      32.623  33.501  -0.310  1.00  0.00    -0.003 C 
ATOM     32  C   UNL     1      33.010  32.491  -1.384  1.00  0.00     0.004 C 
ENDBRANCH  30  31
ENDBRANCH  29  30
ENDBRANCH  28  29
ENDBRANCH  27  28
ENDBRANCH  26  27
ENDBRANCH  25  26
ENDBRANCH  24  25
ENDBRANCH  23  24
ENDBRANCH  22  23
ENDBRANCH  21  22
ENDBRANCH  20  21
ENDBRANCH  19  20
ENDBRANCH  18  19
ENDBRANCH   1  18
TORSDOF 28
ENDMDL
MODEL 7
REMARK VINA RESULT:    -3.299      3.794      8.921
REMARK INTER + INTRA:         -14.005
REMARK INTER:                  -8.789
REMARK INTRA:                  -5.216
REMARK UNBOUND:                -5.305
REMARK SMILES CCCCCCCCCCCCCCCCCCCCCCCCCCCCCC(=O)[O-]
REMARK SMILES IDX 16 1 17 2 18 3 19 4 20 5 21 6 22 7 23 8 24 9 25 10 26 11
REMARK SMILES IDX 27 12 28 13 29 14 30 15 31 16 32 17 15 18 14 19 13 20 12 21
REMARK SMILES IDX 11 22 10 23 9 24 8 25 7 26 6 27 5 28 4 29 3 30 2 31 1 32
REMARK H PARENT
REMARK Flexibility Score: inf
ROOT
ATOM      1  C   UNL     1      29.019  32.952   2.785  1.00  0.00     0.000 C 
ENDROOT
BRANCH   1   2
ATOM      2  C   UNL     1      30.100  33.208   3.846  1.00  0.00     0.000 C 
BRANCH   2   3
ATOM      3  C   UNL     1      31.530  33.183   3.263  1.00  0.00     0.000 C 
BRANCH   3   4
ATOM      4  C   UNL     1      31.602  32.791   1.773  1.00  0.00     0.000 C 
BRANCH   4   5
ATOM      5  C   UNL     1      33.006  32.836   1.136  1.00  0.00     0.000 C 
BRANCH   5   6
ATOM      6  C   UNL     1      33.031  32.829  -0.405  1.00  0.00     0.000 C 
BRANCH   6   7
ATOM      7  C   UNL     1      33.345  34.210  -1.001  1.00  0.00     0.000 C 
BRANCH   7   8
ATOM      8  C   UNL     1      32.197  34.769  -1.861  1.00  0.00     0.000 C 
BRANCH   8   9
ATOM      9  C   UNL     1      30.840  34.050  -1.711  1.00  0.00     0.000 C 
BRANCH   9  10
ATOM     10  C   UNL     1      29.826  34.742  -0.782  1.00  0.00     0.000 C 
BRANCH  10  11
ATOM     11  C   UNL     1      28.409  34.814  -1.378  1.00  0.00     0.000 C 
BRANCH  11  12
ATOM     12  C   UNL     1      27.576  35.969  -0.778  1.00  0.00     0.000 C 
BRANCH  12  13
ATOM     13  C   UNL     1      26.111  35.593  -0.467  1.00  0.00     0.006 C 
BRANCH  13  14
ATOM     14  C   UNL     1      25.828  34.084  -0.384  1.00  0.00     0.053 C 
BRANCH  14  15
ATOM     15  C   UNL     1      24.464  33.776   0.160  1.00  0.00     0.041 C 
ATOM     16  O   UNL     1      23.530  34.617   0.061  1.00  0.00    -0.550 OA
ATOM     17  O   UNL     1      24.217  32.547   0.762  1.00  0.00    -0.550 OA
ENDBRANCH  14  15
ENDBRANCH  13  14
ENDBRANCH  12  13
ENDBRANCH  11  12
ENDBRANCH  10  11
ENDBRANCH   9  10
ENDBRANCH   8   9
ENDBRANCH   7   8
ENDBRANCH   6   7
ENDBRANCH   5   6
ENDBRANCH   4   5
ENDBRANCH   3   4
ENDBRANCH   2   3
ENDBRANCH   1   2
BRANCH   1  18
ATOM     18  C   UNL     1      28.205  34.226   2.498  1.00  0.00     0.000 C 
BRANCH  18  19
ATOM     19  C   UNL     1      28.695  35.433   3.314  1.00  0.00     0.000 C 
BRANCH  19  20
ATOM     20  C   UNL     1      29.219  36.574   2.424  1.00  0.00     0.000 C 
BRANCH  20  21
ATOM     21  C   UNL     1      30.715  36.855   2.650  1.00  0.00     0.000 C 
BRANCH  21  22
ATOM     22  C   UNL     1      31.563  36.505   1.413  1.00  0.00     0.000 C 
BRANCH  22  23
ATOM     23  C   UNL     1      33.060  36.776   1.621  1.00  0.00     0.000 C 
BRANCH  23  24
ATOM     24  C   UNL     1      33.571  36.284   2.990  1.00  0.00    -0.000 C 
BRANCH  24  25
ATOM     25  C   UNL     1      34.898  35.507   2.876  1.00  0.00    -0.000 C 
BRANCH  25  26
ATOM     26  C   UNL     1      35.067  34.396   3.931  1.00  0.00    -0.000 C 
BRANCH  26  27
ATOM     27  C   UNL     1      34.309  34.622   5.251  1.00  0.00    -0.000 C 
BRANCH  27  28
ATOM     28  C   UNL     1      35.249  34.777   6.459  1.00  0.00    -0.000 C 
BRANCH  28  29
ATOM     29  C   UNL     1      35.541  36.248   6.798  1.00  0.00    -0.000 C 
BRANCH  29  30
ATOM     30  C   UNL     1      35.252  36.610   8.271  1.00  0.00    -0.000 C 
BRANCH  30  31
ATOM     31  C   UNL     1      34.022  37.516   8.404  1.00  0.00    -0.003 C 
ATOM     32  C   UNL     1      33.132  37.076   9.562  1.00  0.00     0.004 C 
ENDBRANCH  30  31
ENDBRANCH  29  30
ENDBRANCH  28  29
ENDBRANCH  27  28
ENDBRANCH  26  27
ENDBRANCH  25  26
ENDBRANCH  24  25
ENDBRANCH  23  24
ENDBRANCH  22  23
ENDBRANCH  21  22
ENDBRANCH  20  21
ENDBRANCH  19  20
ENDBRANCH  18  19
ENDBRANCH   1  18
TORSDOF 28
ENDMDL
MODEL 8
REMARK VINA RESULT:    -3.265      3.254      8.557
REMARK INTER + INTRA:         -13.914
REMARK INTER:                  -8.003
REMARK INTRA:                  -5.912
REMARK UNBOUND:                -5.305
REMARK SMILES CCCCCCCCCCCCCCCCCCCCCCCCCCCCCC(=O)[O-]
REMARK SMILES IDX 16 1 17 2 18 3 19 4 20 5 21 6 22 7 23 8 24 9 25 10 26 11
REMARK SMILES IDX 27 12 28 13 29 14 30 15 31 16 32 17 15 18 14 19 13 20 12 21
REMARK SMILES IDX 11 22 10 23 9 24 8 25 7 26 6 27 5 28 4 29 3 30 2 31 1 32
REMARK H PARENT
REMARK Flexibility Score: inf
ROOT
ATOM      1  C   UNL     1      27.572  34.359   2.933  1.00  0.00     0.000 C 
ENDROOT
BRANCH   1   2
ATOM      2  C   UNL     1      28.453  35.429   3.594  1.00  0.00     0.000 C 
BRANCH   2   3
ATOM      3  C   UNL     1      28.668  36.667   2.698  1.00  0.00     0.000 C 
BRANCH   3   4
ATOM      4  C   UNL     1      30.148  37.009   2.428  1.00  0.00     0.000 C 
BRANCH   4   5
ATOM      5  C   UNL     1      30.735  36.452   1.116  1.00  0.00     0.000 C 
BRANCH   5   6
ATOM      6  C   UNL     1      30.226  37.126  -0.173  1.00  0.00     0.000 C 
BRANCH   6   7
ATOM      7  C   UNL     1      29.835  36.113  -1.260  1.00  0.00     0.000 C 
BRANCH   7   8
ATOM      8  C   UNL     1      29.168  34.847  -0.691  1.00  0.00     0.000 C 
BRANCH   8   9
ATOM      9  C   UNL     1      27.638  34.925  -0.510  1.00  0.00     0.000 C 
BRANCH   9  10
ATOM     10  C   UNL     1      26.910  35.899  -1.454  1.00  0.00     0.000 C 
BRANCH  10  11
ATOM     11  C   UNL     1      25.717  36.609  -0.790  1.00  0.00     0.000 C 
BRANCH  11  12
ATOM     12  C   UNL     1      25.541  36.203   0.692  1.00  0.00     0.000 C 
BRANCH  12  13
ATOM     13  C   UNL     1      24.187  35.533   1.005  1.00  0.00     0.006 C 
BRANCH  13  14
ATOM     14  C   UNL     1      23.726  34.483  -0.021  1.00  0.00     0.053 C 
BRANCH  14  15
ATOM     15  C   UNL     1      24.057  33.079   0.394  1.00  0.00     0.041 C 
ATOM     16  O   UNL     1      25.152  32.820   0.960  1.00  0.00    -0.550 OA
ATOM     17  O   UNL     1      23.144  32.055   0.169  1.00  0.00    -0.550 OA
ENDBRANCH  14  15
ENDBRANCH  13  14
ENDBRANCH  12  13
ENDBRANCH  11  12
ENDBRANCH  10  11
ENDBRANCH   9  10
ENDBRANCH   8   9
ENDBRANCH   7   8
ENDBRANCH   6   7
ENDBRANCH   5   6
ENDBRANCH   4   5
ENDBRANCH   3   4
ENDBRANCH   2   3
ENDBRANCH   1   2
BRANCH   1  18
ATOM     18  C   UNL     1      28.202  32.960   3.059  1.00  0.00     0.000 C 
BRANCH  18  19
ATOM     19  C   UNL     1      29.598  32.884   2.421  1.00  0.00     0.000 C 
BRANCH  19  20
ATOM     20  C   UNL     1      30.728  32.946   3.465  1.00  0.00     0.000 C 
BRANCH  20  21
ATOM     21  C   UNL     1      32.015  33.572   2.900  1.00  0.00     0.000 C 
BRANCH  21  22
ATOM     22  C   UNL     1      32.981  32.508   2.347  1.00  0.00     0.000 C 
BRANCH  22  23
ATOM     23  C   UNL     1      33.597  32.907   0.998  1.00  0.00     0.000 C 
BRANCH  23  24
ATOM     24  C   UNL     1      32.573  33.548   0.041  1.00  0.00    -0.000 C 
BRANCH  24  25
ATOM     25  C   UNL     1      33.200  33.941  -1.313  1.00  0.00    -0.000 C 
BRANCH  25  26
ATOM     26  C   UNL     1      33.496  35.447  -1.454  1.00  0.00    -0.000 C 
BRANCH  26  27
ATOM     27  C   UNL     1      34.607  35.987  -0.537  1.00  0.00    -0.000 C 
BRANCH  27  28
ATOM     28  C   UNL     1      34.122  37.121   0.383  1.00  0.00    -0.000 C 
BRANCH  28  29
ATOM     29  C   UNL     1      34.935  37.217   1.684  1.00  0.00    -0.000 C 
BRANCH  29  30
ATOM     30  C   UNL     1      34.366  36.355   2.832  1.00  0.00    -0.000 C 
BRANCH  30  31
ATOM     31  C   UNL     1      35.349  35.258   3.261  1.00  0.00    -0.003 C 
ATOM     32  C   UNL     1      35.031  34.746   4.662  1.00  0.00     0.004 C 
ENDBRANCH  30  31
ENDBRANCH  29  30
ENDBRANCH  28  29
ENDBRANCH  27  28
ENDBRANCH  26  27
ENDBRANCH  25  26
ENDBRANCH  24  25
ENDBRANCH  23  24
ENDBRANCH  22  23
ENDBRANCH  21  22
ENDBRANCH  20  21
ENDBRANCH  19  20
ENDBRANCH  18  19
ENDBRANCH   1  18
TORSDOF 28
ENDMDL
MODEL 9
REMARK VINA RESULT:    -3.226      1.876      3.304
REMARK INTER + INTRA:         -13.813
REMARK INTER:                  -8.792
REMARK INTRA:                  -5.020
REMARK UNBOUND:                -5.305
REMARK SMILES CCCCCCCCCCCCCCCCCCCCCCCCCCCCCC(=O)[O-]
REMARK SMILES IDX 16 1 17 2 18 3 19 4 20 5 21 6 22 7 23 8 24 9 25 10 26 11
REMARK SMILES IDX 27 12 28 13 29 14 30 15 31 16 32 17 15 18 14 19 13 20 12 21
REMARK SMILES IDX 11 22 10 23 9 24 8 25 7 26 6 27 5 28 4 29 3 30 2 31 1 32
REMARK H PARENT
REMARK Flexibility Score: inf
ROOT
ATOM      1  C   UNL     1      30.991  32.879   3.974  1.00  0.00     0.000 C 
ENDROOT
BRANCH   1   2
ATOM      2  C   UNL     1      32.040  32.945   2.854  1.00  0.00     0.000 C 
BRANCH   2   3
ATOM      3  C   UNL     1      33.352  33.626   3.301  1.00  0.00     0.000 C 
BRANCH   3   4
ATOM      4  C   UNL     1      34.152  34.278   2.155  1.00  0.00     0.000 C 
BRANCH   4   5
ATOM      5  C   UNL     1      34.892  35.583   2.512  1.00  0.00     0.000 C 
BRANCH   5   6
ATOM      6  C   UNL     1      34.932  36.645   1.396  1.00  0.00     0.000 C 
BRANCH   6   7
ATOM      7  C   UNL     1      33.537  37.177   1.032  1.00  0.00     0.000 C 
BRANCH   7   8
ATOM      8  C   UNL     1      32.824  37.858   2.214  1.00  0.00     0.000 C 
BRANCH   8   9
ATOM      9  C   UNL     1      31.307  37.596   2.319  1.00  0.00     0.000 C 
BRANCH   9  10
ATOM     10  C   UNL     1      30.864  36.153   2.016  1.00  0.00     0.000 C 
BRANCH  10  11
ATOM     11  C   UNL     1      29.970  36.044   0.768  1.00  0.00     0.000 C 
BRANCH  11  12
ATOM     12  C   UNL     1      29.968  34.620   0.168  1.00  0.00     0.000 C 
BRANCH  12  13
ATOM     13  C   UNL     1      30.806  34.479  -1.121  1.00  0.00     0.006 C 
BRANCH  13  14
ATOM     14  C   UNL     1      32.281  34.101  -0.901  1.00  0.00     0.053 C 
BRANCH  14  15
ATOM     15  C   UNL     1      32.650  32.794  -1.540  1.00  0.00     0.041 C 
ATOM     16  O   UNL     1      31.757  31.968  -1.870  1.00  0.00    -0.550 OA
ATOM     17  O   UNL     1      33.984  32.494  -1.788  1.00  0.00    -0.550 OA
ENDBRANCH  14  15
ENDBRANCH  13  14
ENDBRANCH  12  13
ENDBRANCH  11  12
ENDBRANCH  10  11
ENDBRANCH   9  10
ENDBRANCH   8   9
ENDBRANCH   7   8
ENDBRANCH   6   7
ENDBRANCH   5   6
ENDBRANCH   4   5
ENDBRANCH   3   4
ENDBRANCH   2   3
ENDBRANCH   1   2
BRANCH   1  18
ATOM     18  C   UNL     1      29.561  32.892   3.403  1.00  0.00     0.000 C 
BRANCH  18  19
ATOM     19  C   UNL     1      28.683  33.980   4.042  1.00  0.00     0.000 C 
BRANCH  19  20
ATOM     20  C   UNL     1      27.584  34.485   3.090  1.00  0.00     0.000 C 
BRANCH  20  21
ATOM     21  C   UNL     1      26.356  33.559   3.068  1.00  0.00     0.000 C 
BRANCH  21  22
ATOM     22  C   UNL     1      25.682  33.524   1.684  1.00  0.00     0.000 C 
BRANCH  22  23
ATOM     23  C   UNL     1      26.564  34.121   0.577  1.00  0.00     0.000 C 
BRANCH  23  24
ATOM     24  C   UNL     1      25.888  35.298  -0.154  1.00  0.00    -0.000 C 
BRANCH  24  25
ATOM     25  C   UNL     1      25.745  36.543   0.747  1.00  0.00    -0.000 C 
BRANCH  25  26
ATOM     26  C   UNL     1      24.326  37.145   0.764  1.00  0.00    -0.000 C 
BRANCH  26  27
ATOM     27  C   UNL     1      23.194  36.151   1.079  1.00  0.00    -0.000 C 
BRANCH  27  28
ATOM     28  C   UNL     1      22.037  36.225   0.067  1.00  0.00    -0.000 C 
BRANCH  28  29
ATOM     29  C   UNL     1      22.429  35.695  -1.321  1.00  0.00    -0.000 C 
BRANCH  29  30
ATOM     30  C   UNL     1      21.868  34.288  -1.625  1.00  0.00    -0.000 C 
BRANCH  30  31
ATOM     31  C   UNL     1      22.968  33.219  -1.598  1.00  0.00    -0.003 C 
ATOM     32  C   UNL     1      22.926  32.414  -0.303  1.00  0.00     0.004 C 
ENDBRANCH  30  31
ENDBRANCH  29  30
ENDBRANCH  28  29
ENDBRANCH  27  28
ENDBRANCH  26  27
ENDBRANCH  25  26
ENDBRANCH  24  25
ENDBRANCH  23  24
ENDBRANCH  22  23
ENDBRANCH  21  22
ENDBRANCH  20  21
ENDBRANCH  19  20
ENDBRANCH  18  19
ENDBRANCH   1  18
TORSDOF 28
ENDMDL
