MODEL 1
REMARK VINA RESULT:    -3.659      0.000      0.000
REMARK INTER + INTRA:          -8.408
REMARK INTER:                  -6.440
REMARK INTRA:                  -1.969
REMARK UNBOUND:                -1.969
REMARK SMILES CCCCCCC=CCCCCCCCC(=O)[O-]
REMARK SMILES IDX 10 1 11 2 12 3 13 4 14 5 15 6 16 7 17 8 18 9 9 10 8 11 7 12
REMARK SMILES IDX 6 13 5 14 4 15 3 16 2 17 1 18
REMARK H PARENT
REMARK Flexibility Score: inf
ROOT
ATOM      1  C   UNL     1      12.095  23.501  78.821  1.00  0.00     0.004 C 
ENDROOT
BRANCH   1   2
ATOM      2  C   UNL     1      11.819  22.356  79.806  1.00  0.00     0.000 C 
BRANCH   2   3
ATOM      3  C   UNL     1      12.902  21.267  79.769  1.00  0.00     0.000 C 
BRANCH   3   4
ATOM      4  C   UNL     1      13.444  21.082  78.347  1.00  0.00     0.000 C 
BRANCH   4   5
ATOM      5  C   UNL     1      14.486  19.959  78.296  1.00  0.00     0.006 C 
BRANCH   5   6
ATOM      6  C   UNL     1      14.112  18.818  79.247  1.00  0.00     0.053 C 
BRANCH   6   7
ATOM      7  C   UNL     1      13.644  17.625  78.475  1.00  0.00     0.041 C 
ATOM      8  O   UNL     1      12.900  17.773  77.470  1.00  0.00    -0.550 OA
ATOM      9  O   UNL     1      13.989  16.347  78.894  1.00  0.00    -0.550 OA
ENDBRANCH   6   7
ENDBRANCH   5   6
ENDBRANCH   4   5
ENDBRANCH   3   4
ENDBRANCH   2   3
ENDBRANCH   1   2
BRANCH   1  10
ATOM     10  C   UNL     1      12.782  24.703  79.489  1.00  0.00     0.027 C 
BRANCH  10  11
ATOM     11  C   UNL     1      14.279  24.651  79.313  1.00  0.00    -0.031 C 
ATOM     12  C   UNL     1      15.156  24.227  80.244  1.00  0.00    -0.031 C 
BRANCH  12  13
ATOM     13  C   UNL     1      14.792  23.704  81.616  1.00  0.00     0.027 C 
BRANCH  13  14
ATOM     14  C   UNL     1      15.406  24.565  82.730  1.00  0.00     0.004 C 
BRANCH  14  15
ATOM     15  C   UNL     1      14.345  25.156  83.671  1.00  0.00     0.000 C 
BRANCH  15  16
ATOM     16  C   UNL     1      12.930  24.849  83.165  1.00  0.00    -0.000 C 
BRANCH  16  17
ATOM     17  C   UNL     1      12.085  26.126  83.088  1.00  0.00    -0.003 C 
ATOM     18  C   UNL     1      12.755  27.178  82.209  1.00  0.00     0.004 C 
ENDBRANCH  16  17
ENDBRANCH  15  16
ENDBRANCH  14  15
ENDBRANCH  13  14
ENDBRANCH  12  13
ENDBRANCH  10  11
ENDBRANCH   1  10
TORSDOF 13
ENDMDL
MODEL 2
REMARK VINA RESULT:    -3.649      3.626      7.343
REMARK INTER + INTRA:          -8.391
REMARK INTER:                  -7.128
REMARK INTRA:                  -1.264
REMARK UNBOUND:                -1.969
REMARK SMILES CCCCCCC=CCCCCCCCC(=O)[O-]
REMARK SMILES IDX 10 1 11 2 12 3 13 4 14 5 15 6 16 7 17 8 18 9 9 10 8 11 7 12
REMARK SMILES IDX 6 13 5 14 4 15 3 16 2 17 1 18
REMARK H PARENT
REMARK Flexibility Score: inf
ROOT
ATOM      1  C   UNL     1      14.847  24.314  80.070  1.00  0.00     0.004 C 
ENDROOT
BRANCH   1   2
ATOM      2  C   UNL     1      15.225  23.203  81.061  1.00  0.00     0.000 C 
BRANCH   2   3
ATOM      3  C   UNL     1      15.733  23.751  82.402  1.00  0.00     0.000 C 
BRANCH   3   4
ATOM      4  C   UNL     1      15.379  25.235  82.557  1.00  0.00     0.000 C 
BRANCH   4   5
ATOM      5  C   UNL     1      14.450  25.458  83.755  1.00  0.00     0.006 C 
BRANCH   5   6
ATOM      6  C   UNL     1      13.015  25.038  83.424  1.00  0.00     0.053 C 
BRANCH   6   7
ATOM      7  C   UNL     1      12.203  26.226  83.012  1.00  0.00     0.041 C 
ATOM      8  O   UNL     1      11.333  26.700  83.789  1.00  0.00    -0.550 OA
ATOM      9  O   UNL     1      12.374  26.780  81.750  1.00  0.00    -0.550 OA
ENDBRANCH   6   7
ENDBRANCH   5   6
ENDBRANCH   4   5
ENDBRANCH   3   4
ENDBRANCH   2   3
ENDBRANCH   1   2
BRANCH   1  10
ATOM     10  C   UNL     1      13.402  24.187  79.564  1.00  0.00     0.027 C 
BRANCH  10  11
ATOM     11  C   UNL     1      12.618  23.187  80.376  1.00  0.00    -0.031 C 
ATOM     12  C   UNL     1      12.391  21.906  80.022  1.00  0.00    -0.031 C 
BRANCH  12  13
ATOM     13  C   UNL     1      12.903  21.242  78.764  1.00  0.00     0.027 C 
BRANCH  13  14
ATOM     14  C   UNL     1      14.244  20.533  79.004  1.00  0.00     0.004 C 
BRANCH  14  15
ATOM     15  C   UNL     1      14.184  19.033  78.678  1.00  0.00     0.000 C 
BRANCH  15  16
ATOM     16  C   UNL     1      14.279  18.189  79.955  1.00  0.00    -0.000 C 
BRANCH  16  17
ATOM     17  C   UNL     1      14.708  16.752  79.634  1.00  0.00    -0.003 C 
ATOM     18  C   UNL     1      13.510  15.895  79.238  1.00  0.00     0.004 C 
ENDBRANCH  16  17
ENDBRANCH  15  16
ENDBRANCH  14  15
ENDBRANCH  13  14
ENDBRANCH  12  13
ENDBRANCH  10  11
ENDBRANCH   1  10
TORSDOF 13
ENDMDL
MODEL 3
REMARK VINA RESULT:    -3.638      1.385      3.013
REMARK INTER + INTRA:          -8.372
REMARK INTER:                  -5.969
REMARK INTRA:                  -2.403
REMARK UNBOUND:                -1.969
REMARK SMILES CCCCCCC=CCCCCCCCC(=O)[O-]
REMARK SMILES IDX 10 1 11 2 12 3 13 4 14 5 15 6 16 7 17 8 18 9 9 10 8 11 7 12
REMARK SMILES IDX 6 13 5 14 4 15 3 16 2 17 1 18
REMARK H PARENT
REMARK Flexibility Score: inf
ROOT
ATOM      1  C   UNL     1      12.463  25.519  79.144  1.00  0.00     0.004 C 
ENDROOT
BRANCH   1   2
ATOM      2  C   UNL     1      12.816  24.040  78.920  1.00  0.00     0.000 C 
BRANCH   2   3
ATOM      3  C   UNL     1      11.872  23.085  79.665  1.00  0.00     0.000 C 
BRANCH   3   4
ATOM      4  C   UNL     1      12.564  21.748  79.957  1.00  0.00     0.000 C 
BRANCH   4   5
ATOM      5  C   UNL     1      13.673  21.467  78.937  1.00  0.00     0.006 C 
BRANCH   5   6
ATOM      6  C   UNL     1      13.703  19.985  78.552  1.00  0.00     0.053 C 
BRANCH   6   7
ATOM      7  C   UNL     1      14.594  19.221  79.480  1.00  0.00     0.041 C 
ATOM      8  O   UNL     1      14.211  18.125  79.967  1.00  0.00    -0.550 OA
ATOM      9  O   UNL     1      15.828  19.743  79.845  1.00  0.00    -0.550 OA
ENDBRANCH   6   7
ENDBRANCH   5   6
ENDBRANCH   4   5
ENDBRANCH   3   4
ENDBRANCH   2   3
ENDBRANCH   1   2
BRANCH   1  10
ATOM     10  C   UNL     1      13.374  26.193  80.181  1.00  0.00     0.027 C 
BRANCH  10  11
ATOM     11  C   UNL     1      12.582  26.725  81.349  1.00  0.00    -0.031 C 
ATOM     12  C   UNL     1      12.399  26.084  82.520  1.00  0.00    -0.031 C 
BRANCH  12  13
ATOM     13  C   UNL     1      12.975  24.734  82.878  1.00  0.00     0.027 C 
BRANCH  13  14
ATOM     14  C   UNL     1      14.339  24.866  83.573  1.00  0.00     0.004 C 
BRANCH  14  15
ATOM     15  C   UNL     1      15.515  24.670  82.604  1.00  0.00     0.000 C 
BRANCH  15  16
ATOM     16  C   UNL     1      15.306  23.428  81.730  1.00  0.00    -0.000 C 
BRANCH  16  17
ATOM     17  C   UNL     1      16.477  23.234  80.760  1.00  0.00    -0.003 C 
ATOM     18  C   UNL     1      16.479  24.306  79.675  1.00  0.00     0.004 C 
ENDBRANCH  16  17
ENDBRANCH  15  16
ENDBRANCH  14  15
ENDBRANCH  13  14
ENDBRANCH  12  13
ENDBRANCH  10  11
ENDBRANCH   1  10
TORSDOF 13
ENDMDL
MODEL 4
REMARK VINA RESULT:    -3.634      1.994      3.834
REMARK INTER + INTRA:          -8.365
REMARK INTER:                  -6.495
REMARK INTRA:                  -1.870
REMARK UNBOUND:                -1.969
REMARK SMILES CCCCCCC=CCCCCCCCC(=O)[O-]
REMARK SMILES IDX 10 1 11 2 12 3 13 4 14 5 15 6 16 7 17 8 18 9 9 10 8 11 7 12
REMARK SMILES IDX 6 13 5 14 4 15 3 16 2 17 1 18
REMARK H PARENT
REMARK Flexibility Score: inf
ROOT
ATOM      1  C   UNL     1      16.059  26.133  80.080  1.00  0.00     0.004 C 
ENDROOT
BRANCH   1   2
ATOM      2  C   UNL     1      14.552  26.318  79.848  1.00  0.00     0.000 C 
BRANCH   2   3
ATOM      3  C   UNL     1      13.912  25.121  79.129  1.00  0.00     0.000 C 
BRANCH   3   4
ATOM      4  C   UNL     1      12.601  24.709  79.810  1.00  0.00     0.000 C 
BRANCH   4   5
ATOM      5  C   UNL     1      12.758  23.373  80.544  1.00  0.00     0.006 C 
BRANCH   5   6
ATOM      6  C   UNL     1      12.005  22.254  79.818  1.00  0.00     0.053 C 
BRANCH   6   7
ATOM      7  C   UNL     1      12.938  21.480  78.940  1.00  0.00     0.041 C 
ATOM      8  O   UNL     1      13.604  20.522  79.413  1.00  0.00    -0.550 OA
ATOM      9  O   UNL     1      13.108  21.848  77.612  1.00  0.00    -0.550 OA
ENDBRANCH   6   7
ENDBRANCH   5   6
ENDBRANCH   4   5
ENDBRANCH   3   4
ENDBRANCH   2   3
ENDBRANCH   1   2
BRANCH   1  10
ATOM     10  C   UNL     1      16.405  25.896  81.558  1.00  0.00     0.027 C 
BRANCH  10  11
ATOM     11  C   UNL     1      16.023  24.506  81.999  1.00  0.00    -0.031 C 
ATOM     12  C   UNL     1      15.186  24.215  83.015  1.00  0.00    -0.031 C 
BRANCH  12  13
ATOM     13  C   UNL     1      14.465  25.230  83.872  1.00  0.00     0.027 C 
BRANCH  13  14
ATOM     14  C   UNL     1      12.977  25.325  83.506  1.00  0.00     0.004 C 
BRANCH  14  15
ATOM     15  C   UNL     1      12.587  26.715  82.980  1.00  0.00     0.000 C 
BRANCH  15  16
ATOM     16  C   UNL     1      11.246  27.169  83.569  1.00  0.00    -0.000 C 
BRANCH  16  17
ATOM     17  C   UNL     1      11.063  28.683  83.417  1.00  0.00    -0.003 C 
ATOM     18  C   UNL     1      10.807  29.346  84.767  1.00  0.00     0.004 C 
ENDBRANCH  16  17
ENDBRANCH  15  16
ENDBRANCH  14  15
ENDBRANCH  13  14
ENDBRANCH  12  13
ENDBRANCH  10  11
ENDBRANCH   1  10
TORSDOF 13
ENDMDL
MODEL 5
REMARK VINA RESULT:    -3.585      4.959      7.908
REMARK INTER + INTRA:          -8.277
REMARK INTER:                  -6.417
REMARK INTRA:                  -1.860
REMARK UNBOUND:                -1.969
REMARK SMILES CCCCCCC=CCCCCCCCC(=O)[O-]
REMARK SMILES IDX 10 1 11 2 12 3 13 4 14 5 15 6 16 7 17 8 18 9 9 10 8 11 7 12
REMARK SMILES IDX 6 13 5 14 4 15 3 16 2 17 1 18
REMARK H PARENT
REMARK Flexibility Score: inf
ROOT
ATOM      1  C   UNL     1      15.297  25.006  82.736  1.00  0.00     0.004 C 
ENDROOT
BRANCH   1   2
ATOM      2  C   UNL     1      14.143  24.833  83.735  1.00  0.00     0.000 C 
BRANCH   2   3
ATOM      3  C   UNL     1      12.906  25.665  83.363  1.00  0.00     0.000 C 
BRANCH   3   4
ATOM      4  C   UNL     1      13.312  26.976  82.680  1.00  0.00     0.000 C 
BRANCH   4   5
ATOM      5  C   UNL     1      12.108  27.910  82.520  1.00  0.00     0.006 C 
BRANCH   5   6
ATOM      6  C   UNL     1      11.149  27.780  83.708  1.00  0.00     0.053 C 
BRANCH   6   7
ATOM      7  C   UNL     1      10.737  29.132  84.199  1.00  0.00     0.041 C 
ATOM      8  O   UNL     1      10.763  29.394  85.430  1.00  0.00    -0.550 OA
ATOM      9  O   UNL     1      10.278  30.087  83.301  1.00  0.00    -0.550 OA
ENDBRANCH   6   7
ENDBRANCH   5   6
ENDBRANCH   4   5
ENDBRANCH   3   4
ENDBRANCH   2   3
ENDBRANCH   1   2
BRANCH   1  10
ATOM     10  C   UNL     1      15.257  23.968  81.603  1.00  0.00     0.027 C 
BRANCH  10  11
ATOM     11  C   UNL     1      15.467  24.613  80.256  1.00  0.00    -0.031 C 
ATOM     12  C   UNL     1      14.485  25.033  79.435  1.00  0.00    -0.031 C 
BRANCH  12  13
ATOM     13  C   UNL     1      13.004  24.958  79.730  1.00  0.00     0.027 C 
BRANCH  13  14
ATOM     14  C   UNL     1      12.204  24.502  78.501  1.00  0.00     0.004 C 
BRANCH  14  15
ATOM     15  C   UNL     1      11.648  23.078  78.654  1.00  0.00     0.000 C 
BRANCH  15  16
ATOM     16  C   UNL     1      12.188  22.411  79.925  1.00  0.00    -0.000 C 
BRANCH  16  17
ATOM     17  C   UNL     1      12.949  21.123  79.590  1.00  0.00    -0.003 C 
ATOM     18  C   UNL     1      14.186  21.416  78.747  1.00  0.00     0.004 C 
ENDBRANCH  16  17
ENDBRANCH  15  16
ENDBRANCH  14  15
ENDBRANCH  13  14
ENDBRANCH  12  13
ENDBRANCH  10  11
ENDBRANCH   1  10
TORSDOF 13
ENDMDL
MODEL 6
REMARK VINA RESULT:    -3.555      3.701      6.945
REMARK INTER + INTRA:          -8.225
REMARK INTER:                  -6.450
REMARK INTRA:                  -1.775
REMARK UNBOUND:                -1.969
REMARK SMILES CCCCCCC=CCCCCCCCC(=O)[O-]
REMARK SMILES IDX 10 1 11 2 12 3 13 4 14 5 15 6 16 7 17 8 18 9 9 10 8 11 7 12
REMARK SMILES IDX 6 13 5 14 4 15 3 16 2 17 1 18
REMARK H PARENT
REMARK Flexibility Score: inf
ROOT
ATOM      1  C   UNL     1      11.499  24.921  77.758  1.00  0.00     0.004 C 
ENDROOT
BRANCH   1   2
ATOM      2  C   UNL     1      12.660  25.853  78.137  1.00  0.00     0.000 C 
BRANCH   2   3
ATOM      3  C   UNL     1      13.941  25.088  78.499  1.00  0.00     0.000 C 
BRANCH   3   4
ATOM      4  C   UNL     1      14.341  25.347  79.956  1.00  0.00     0.000 C 
BRANCH   4   5
ATOM      5  C   UNL     1      13.117  25.696  80.810  1.00  0.00     0.006 C 
BRANCH   5   6
ATOM      6  C   UNL     1      12.909  24.662  81.921  1.00  0.00     0.053 C 
BRANCH   6   7
ATOM      7  C   UNL     1      12.979  25.316  83.265  1.00  0.00     0.041 C 
ATOM      8  O   UNL     1      13.955  25.094  84.028  1.00  0.00    -0.550 OA
ATOM      9  O   UNL     1      11.941  26.134  83.694  1.00  0.00    -0.550 OA
ENDBRANCH   6   7
ENDBRANCH   5   6
ENDBRANCH   4   5
ENDBRANCH   3   4
ENDBRANCH   2   3
ENDBRANCH   1   2
BRANCH   1  10
ATOM     10  C   UNL     1      11.904  23.438  77.775  1.00  0.00     0.027 C 
BRANCH  10  11
ATOM     11  C   UNL     1      11.385  22.738  79.006  1.00  0.00    -0.031 C 
ATOM     12  C   UNL     1      12.108  21.925  79.800  1.00  0.00    -0.031 C 
BRANCH  12  13
ATOM     13  C   UNL     1      13.571  21.594  79.613  1.00  0.00     0.027 C 
BRANCH  13  14
ATOM     14  C   UNL     1      13.776  20.113  79.258  1.00  0.00     0.004 C 
BRANCH  14  15
ATOM     15  C   UNL     1      13.904  19.882  77.745  1.00  0.00     0.000 C 
BRANCH  15  16
ATOM     16  C   UNL     1      13.335  18.515  77.348  1.00  0.00    -0.000 C 
BRANCH  16  17
ATOM     17  C   UNL     1      12.859  18.519  75.891  1.00  0.00    -0.003 C 
ATOM     18  C   UNL     1      12.613  19.941  75.396  1.00  0.00     0.004 C 
ENDBRANCH  16  17
ENDBRANCH  15  16
ENDBRANCH  14  15
ENDBRANCH  13  14
ENDBRANCH  12  13
ENDBRANCH  10  11
ENDBRANCH   1  10
TORSDOF 13
ENDMDL
MODEL 7
REMARK VINA RESULT:    -3.549      3.781      7.285
REMARK INTER + INTRA:          -8.215
REMARK INTER:                  -6.869
REMARK INTRA:                  -1.346
REMARK UNBOUND:                -1.969
REMARK SMILES CCCCCCC=CCCCCCCCC(=O)[O-]
REMARK SMILES IDX 10 1 11 2 12 3 13 4 14 5 15 6 16 7 17 8 18 9 9 10 8 11 7 12
REMARK SMILES IDX 6 13 5 14 4 15 3 16 2 17 1 18
REMARK H PARENT
REMARK Flexibility Score: inf
ROOT
ATOM      1  C   UNL     1      13.069  21.138  79.332  1.00  0.00     0.004 C 
ENDROOT
BRANCH   1   2
ATOM      2  C   UNL     1      12.137  22.249  79.842  1.00  0.00     0.000 C 
BRANCH   2   3
ATOM      3  C   UNL     1      12.854  23.246  80.764  1.00  0.00     0.000 C 
BRANCH   3   4
ATOM      4  C   UNL     1      12.779  24.669  80.197  1.00  0.00     0.000 C 
BRANCH   4   5
ATOM      5  C   UNL     1      13.501  25.666  81.110  1.00  0.00     0.006 C 
BRANCH   5   6
ATOM      6  C   UNL     1      12.505  26.613  81.786  1.00  0.00     0.053 C 
BRANCH   6   7
ATOM      7  C   UNL     1      12.238  26.176  83.192  1.00  0.00     0.041 C 
ATOM      8  O   UNL     1      12.928  25.261  83.713  1.00  0.00    -0.550 OA
ATOM      9  O   UNL     1      11.195  26.746  83.910  1.00  0.00    -0.550 OA
ENDBRANCH   6   7
ENDBRANCH   5   6
ENDBRANCH   4   5
ENDBRANCH   3   4
ENDBRANCH   2   3
ENDBRANCH   1   2
BRANCH   1  10
ATOM     10  C   UNL     1      14.400  21.686  78.794  1.00  0.00     0.027 C 
BRANCH  10  11
ATOM     11  C   UNL     1      15.504  21.552  79.813  1.00  0.00    -0.031 C 
ATOM     12  C   UNL     1      16.337  20.498  79.923  1.00  0.00    -0.031 C 
BRANCH  12  13
ATOM     13  C   UNL     1      16.328  19.279  79.029  1.00  0.00     0.027 C 
BRANCH  13  14
ATOM     14  C   UNL     1      15.936  18.012  79.802  1.00  0.00     0.004 C 
BRANCH  14  15
ATOM     15  C   UNL     1      14.415  17.860  79.953  1.00  0.00     0.000 C 
BRANCH  15  16
ATOM     16  C   UNL     1      13.846  16.936  78.870  1.00  0.00    -0.000 C 
BRANCH  16  17
ATOM     17  C   UNL     1      13.019  17.728  77.850  1.00  0.00    -0.003 C 
ATOM     18  C   UNL     1      13.855  18.093  76.627  1.00  0.00     0.004 C 
ENDBRANCH  16  17
ENDBRANCH  15  16
ENDBRANCH  14  15
ENDBRANCH  13  14
ENDBRANCH  12  13
ENDBRANCH  10  11
ENDBRANCH   1  10
TORSDOF 13
ENDMDL
MODEL 8
REMARK VINA RESULT:    -3.544      3.868      6.780
REMARK INTER + INTRA:          -8.206
REMARK INTER:                  -6.130
REMARK INTRA:                  -2.076
REMARK UNBOUND:                -1.969
REMARK SMILES CCCCCCC=CCCCCCCCC(=O)[O-]
REMARK SMILES IDX 10 1 11 2 12 3 13 4 14 5 15 6 16 7 17 8 18 9 9 10 8 11 7 12
REMARK SMILES IDX 6 13 5 14 4 15 3 16 2 17 1 18
REMARK H PARENT
REMARK Flexibility Score: inf
ROOT
ATOM      1  C   UNL     1      15.730  23.259  79.390  1.00  0.00     0.004 C 
ENDROOT
BRANCH   1   2
ATOM      2  C   UNL     1      15.194  24.459  80.185  1.00  0.00     0.000 C 
BRANCH   2   3
ATOM      3  C   UNL     1      14.525  24.046  81.504  1.00  0.00     0.000 C 
BRANCH   3   4
ATOM      4  C   UNL     1      15.291  24.609  82.707  1.00  0.00     0.000 C 
BRANCH   4   5
ATOM      5  C   UNL     1      14.328  25.134  83.778  1.00  0.00     0.006 C 
BRANCH   5   6
ATOM      6  C   UNL     1      12.871  24.982  83.329  1.00  0.00     0.053 C 
BRANCH   6   7
ATOM      7  C   UNL     1      12.232  26.325  83.161  1.00  0.00     0.041 C 
ATOM      8  O   UNL     1      11.224  26.637  83.847  1.00  0.00    -0.550 OA
ATOM      9  O   UNL     1      12.721  27.214  82.213  1.00  0.00    -0.550 OA
ENDBRANCH   6   7
ENDBRANCH   5   6
ENDBRANCH   4   5
ENDBRANCH   3   4
ENDBRANCH   2   3
ENDBRANCH   1   2
BRANCH   1  10
ATOM     10  C   UNL     1      15.431  21.916  80.075  1.00  0.00     0.027 C 
BRANCH  10  11
ATOM     11  C   UNL     1      14.608  21.015  79.189  1.00  0.00    -0.031 C 
ATOM     12  C   UNL     1      13.261  20.965  79.169  1.00  0.00    -0.031 C 
BRANCH  12  13
ATOM     13  C   UNL     1      12.341  21.820  80.009  1.00  0.00     0.027 C 
BRANCH  13  14
ATOM     14  C   UNL     1      11.366  22.627  79.139  1.00  0.00     0.004 C 
BRANCH  14  15
ATOM     15  C   UNL     1      12.005  23.902  78.566  1.00  0.00     0.000 C 
BRANCH  15  16
ATOM     16  C   UNL     1      12.020  23.868  77.034  1.00  0.00    -0.000 C 
BRANCH  16  17
ATOM     17  C   UNL     1      13.369  23.366  76.507  1.00  0.00    -0.003 C 
ATOM     18  C   UNL     1      13.183  22.431  75.317  1.00  0.00     0.004 C 
ENDBRANCH  16  17
ENDBRANCH  15  16
ENDBRANCH  14  15
ENDBRANCH  13  14
ENDBRANCH  12  13
ENDBRANCH  10  11
ENDBRANCH   1  10
TORSDOF 13
ENDMDL
MODEL 9
REMARK VINA RESULT:    -3.514      1.183      2.796
REMARK INTER + INTRA:          -8.154
REMARK INTER:                  -6.096
REMARK INTRA:                  -2.057
REMARK UNBOUND:                -1.969
REMARK SMILES CCCCCCC=CCCCCCCCC(=O)[O-]
REMARK SMILES IDX 10 1 11 2 12 3 13 4 14 5 15 6 16 7 17 8 18 9 9 10 8 11 7 12
REMARK SMILES IDX 6 13 5 14 4 15 3 16 2 17 1 18
REMARK H PARENT
REMARK Flexibility Score: inf
ROOT
ATOM      1  C   UNL     1      14.688  24.563  80.236  1.00  0.00     0.004 C 
ENDROOT
BRANCH   1   2
ATOM      2  C   UNL     1      13.495  24.006  79.444  1.00  0.00     0.000 C 
BRANCH   2   3
ATOM      3  C   UNL     1      12.443  23.343  80.345  1.00  0.00     0.000 C 
BRANCH   3   4
ATOM      4  C   UNL     1      12.232  21.876  79.954  1.00  0.00     0.000 C 
BRANCH   4   5
ATOM      5  C   UNL     1      13.159  21.474  78.801  1.00  0.00     0.006 C 
BRANCH   5   6
ATOM      6  C   UNL     1      13.767  20.088  79.042  1.00  0.00     0.053 C 
BRANCH   6   7
ATOM      7  C   UNL     1      13.665  19.250  77.807  1.00  0.00     0.041 C 
ATOM      8  O   UNL     1      13.900  19.755  76.677  1.00  0.00    -0.550 OA
ATOM      9  O   UNL     1      13.264  17.924  77.898  1.00  0.00    -0.550 OA
ENDBRANCH   6   7
ENDBRANCH   5   6
ENDBRANCH   4   5
ENDBRANCH   3   4
ENDBRANCH   2   3
ENDBRANCH   1   2
BRANCH   1  10
ATOM     10  C   UNL     1      15.018  23.720  81.477  1.00  0.00     0.027 C 
BRANCH  10  11
ATOM     11  C   UNL     1      15.368  24.590  82.658  1.00  0.00    -0.031 C 
ATOM     12  C   UNL     1      14.481  25.121  83.522  1.00  0.00    -0.031 C 
BRANCH  12  13
ATOM     13  C   UNL     1      12.984  24.918  83.475  1.00  0.00     0.027 C 
BRANCH  13  14
ATOM     14  C   UNL     1      12.238  26.245  83.272  1.00  0.00     0.004 C 
BRANCH  14  15
ATOM     15  C   UNL     1      12.359  26.776  81.836  1.00  0.00     0.000 C 
BRANCH  15  16
ATOM     16  C   UNL     1      12.619  28.287  81.829  1.00  0.00    -0.000 C 
BRANCH  16  17
ATOM     17  C   UNL     1      14.041  28.603  82.305  1.00  0.00    -0.003 C 
ATOM     18  C   UNL     1      15.080  28.111  81.303  1.00  0.00     0.004 C 
ENDBRANCH  16  17
ENDBRANCH  15  16
ENDBRANCH  14  15
ENDBRANCH  13  14
ENDBRANCH  12  13
ENDBRANCH  10  11
ENDBRANCH   1  10
TORSDOF 13
ENDMDL
