MODEL 1
REMARK VINA RESULT:    -5.425      0.000      0.000
REMARK INTER + INTRA:          -6.279
REMARK INTER:                  -6.059
REMARK INTRA:                  -0.219
REMARK UNBOUND:                -0.219
REMARK SMILES O=C([O-])c1ccccc1C(=O)[O-]
REMARK SMILES IDX 4 1 9 2 5 3 8 4 6 5 7 6 2 7 1 8 3 9 10 10 11 11 12 12
REMARK H PARENT
REMARK Flexibility Score: inf
ROOT
ATOM      1  C   UNL     1      14.077 -48.524  72.039  1.00  0.00     0.006 A 
ATOM      2  C   UNL     1      15.450 -48.766  72.323  1.00  0.00     0.006 A 
ATOM      3  C   UNL     1      13.094 -49.225  72.761  1.00  0.00     0.010 A 
ATOM      4  C   UNL     1      15.789 -49.747  73.273  1.00  0.00     0.010 A 
ATOM      5  C   UNL     1      13.453 -50.178  73.715  1.00  0.00     0.001 A 
ATOM      6  C   UNL     1      14.797 -50.447  73.962  1.00  0.00     0.001 A 
ENDROOT
BRANCH   1   7
ATOM      7  C   UNL     1      13.625 -47.613  70.961  1.00  0.00     0.072 C 
ATOM      8  O   UNL     1      13.356 -48.056  69.813  1.00  0.00    -0.545 OA
ATOM      9  O   UNL     1      13.430 -46.262  71.225  1.00  0.00    -0.545 OA
ENDBRANCH   1   7
BRANCH   2  10
ATOM     10  C   UNL     1      16.545 -47.976  71.713  1.00  0.00     0.072 C 
ATOM     11  O   UNL     1      17.232 -48.464  70.776  1.00  0.00    -0.545 OA
ATOM     12  O   UNL     1      16.871 -46.718  72.204  1.00  0.00    -0.545 OA
ENDBRANCH   2  10
TORSDOF 2
ENDMDL
MODEL 2
REMARK VINA RESULT:    -5.389      6.674      8.033
REMARK INTER + INTRA:          -6.239
REMARK INTER:                  -6.114
REMARK INTRA:                  -0.125
REMARK UNBOUND:                -0.219
REMARK SMILES O=C([O-])c1ccccc1C(=O)[O-]
REMARK SMILES IDX 4 1 9 2 5 3 8 4 6 5 7 6 2 7 1 8 3 9 10 10 11 11 12 12
REMARK H PARENT
REMARK Flexibility Score: inf
ROOT
ATOM      1  C   UNL     1      21.105 -46.960  67.999  1.00  0.00     0.006 A 
ATOM      2  C   UNL     1      21.130 -46.034  69.078  1.00  0.00     0.006 A 
ATOM      3  C   UNL     1      20.238 -48.066  68.065  1.00  0.00     0.010 A 
ATOM      4  C   UNL     1      20.333 -46.283  70.212  1.00  0.00     0.010 A 
ATOM      5  C   UNL     1      19.441 -48.282  69.190  1.00  0.00     0.001 A 
ATOM      6  C   UNL     1      19.497 -47.399  70.266  1.00  0.00     0.001 A 
ENDROOT
BRANCH   1   7
ATOM      7  C   UNL     1      22.006 -46.857  66.828  1.00  0.00     0.072 C 
ATOM      8  O   UNL     1      23.255 -46.952  66.965  1.00  0.00    -0.545 OA
ATOM      9  O   UNL     1      21.477 -46.719  65.550  1.00  0.00    -0.545 OA
ENDBRANCH   1   7
BRANCH   2  10
ATOM     10  C   UNL     1      21.905 -44.773  69.034  1.00  0.00     0.072 C 
ATOM     11  O   UNL     1      21.429 -43.756  68.461  1.00  0.00    -0.545 OA
ATOM     12  O   UNL     1      23.188 -44.709  69.563  1.00  0.00    -0.545 OA
ENDBRANCH   2  10
TORSDOF 2
ENDMDL
MODEL 3
REMARK VINA RESULT:    -5.376      0.267      3.028
REMARK INTER + INTRA:          -6.225
REMARK INTER:                  -6.017
REMARK INTRA:                  -0.207
REMARK UNBOUND:                -0.219
REMARK SMILES O=C([O-])c1ccccc1C(=O)[O-]
REMARK SMILES IDX 4 1 9 2 5 3 8 4 6 5 7 6 2 7 1 8 3 9 10 10 11 11 12 12
REMARK H PARENT
REMARK Flexibility Score: inf
ROOT
ATOM      1  C   UNL     1      15.268 -48.850  72.365  1.00  0.00     0.006 A 
ATOM      2  C   UNL     1      13.888 -48.611  72.114  1.00  0.00     0.006 A 
ATOM      3  C   UNL     1      15.632 -49.836  73.301  1.00  0.00     0.010 A 
ATOM      4  C   UNL     1      12.924 -49.320  72.854  1.00  0.00     0.010 A 
ATOM      5  C   UNL     1      14.659 -50.543  74.008  1.00  0.00     0.001 A 
ATOM      6  C   UNL     1      13.309 -50.278  73.794  1.00  0.00     0.001 A 
ENDROOT
BRANCH   1   7
ATOM      7  C   UNL     1      16.351 -48.058  71.738  1.00  0.00     0.072 C 
ATOM      8  O   UNL     1      16.889 -47.101  72.353  1.00  0.00    -0.545 OA
ATOM      9  O   UNL     1      16.831 -48.407  70.481  1.00  0.00    -0.545 OA
ENDBRANCH   1   7
BRANCH   2  10
ATOM     10  C   UNL     1      13.416 -47.695  71.050  1.00  0.00     0.072 C 
ATOM     11  O   UNL     1      13.106 -48.148  69.915  1.00  0.00    -0.545 OA
ATOM     12  O   UNL     1      13.369 -46.323  71.264  1.00  0.00    -0.545 OA
ENDBRANCH   2  10
TORSDOF 2
ENDMDL
MODEL 4
REMARK VINA RESULT:    -5.360      1.052      3.240
REMARK INTER + INTRA:          -6.206
REMARK INTER:                  -6.008
REMARK INTRA:                  -0.198
REMARK UNBOUND:                -0.219
REMARK SMILES O=C([O-])c1ccccc1C(=O)[O-]
REMARK SMILES IDX 4 1 9 2 5 3 8 4 6 5 7 6 2 7 1 8 3 9 10 10 11 11 12 12
REMARK H PARENT
REMARK Flexibility Score: inf
ROOT
ATOM      1  C   UNL     1      14.952 -48.565  71.986  1.00  0.00     0.006 A 
ATOM      2  C   UNL     1      13.541 -48.742  72.036  1.00  0.00     0.006 A 
ATOM      3  C   UNL     1      15.764 -49.283  72.882  1.00  0.00     0.010 A 
ATOM      4  C   UNL     1      12.992 -49.582  73.023  1.00  0.00     0.010 A 
ATOM      5  C   UNL     1      15.199 -50.128  73.838  1.00  0.00     0.001 A 
ATOM      6  C   UNL     1      13.816 -50.267  73.917  1.00  0.00     0.001 A 
ENDROOT
BRANCH   1   7
ATOM      7  C   UNL     1      15.611 -47.600  71.076  1.00  0.00     0.072 C 
ATOM      8  O   UNL     1      15.967 -46.464  71.489  1.00  0.00    -0.545 OA
ATOM      9  O   UNL     1      15.903 -47.963  69.767  1.00  0.00    -0.545 OA
ENDBRANCH   1   7
BRANCH   2  10
ATOM     10  C   UNL     1      12.622 -48.136  71.045  1.00  0.00     0.072 C 
ATOM     11  O   UNL     1      11.848 -47.202  71.386  1.00  0.00    -0.545 OA
ATOM     12  O   UNL     1      12.554 -48.628  69.747  1.00  0.00    -0.545 OA
ENDBRANCH   2  10
TORSDOF 2
ENDMDL
MODEL 5
REMARK VINA RESULT:    -5.309      6.455      7.844
REMARK INTER + INTRA:          -6.149
REMARK INTER:                  -5.971
REMARK INTRA:                  -0.177
REMARK UNBOUND:                -0.219
REMARK SMILES O=C([O-])c1ccccc1C(=O)[O-]
REMARK SMILES IDX 4 1 9 2 5 3 8 4 6 5 7 6 2 7 1 8 3 9 10 10 11 11 12 12
REMARK H PARENT
REMARK Flexibility Score: inf
ROOT
ATOM      1  C   UNL     1      20.863 -46.129  69.023  1.00  0.00     0.006 A 
ATOM      2  C   UNL     1      20.964 -47.066  67.958  1.00  0.00     0.006 A 
ATOM      3  C   UNL     1      20.089 -46.456  70.152  1.00  0.00     0.010 A 
ATOM      4  C   UNL     1      20.235 -48.268  68.033  1.00  0.00     0.010 A 
ATOM      5  C   UNL     1      19.393 -47.663  70.215  1.00  0.00     0.001 A 
ATOM      6  C   UNL     1      19.456 -48.562  69.153  1.00  0.00     0.001 A 
ENDROOT
BRANCH   1   7
ATOM      7  C   UNL     1      21.480 -44.783  68.973  1.00  0.00     0.072 C 
ATOM      8  O   UNL     1      22.584 -44.559  69.537  1.00  0.00    -0.545 OA
ATOM      9  O   UNL     1      20.876 -43.765  68.244  1.00  0.00    -0.545 OA
ENDBRANCH   1   7
BRANCH   2  10
ATOM     10  C   UNL     1      21.863 -46.866  66.798  1.00  0.00     0.072 C 
ATOM     11  O   UNL     1      21.386 -46.754  65.637  1.00  0.00    -0.545 OA
ATOM     12  O   UNL     1      23.243 -46.865  66.962  1.00  0.00    -0.545 OA
ENDBRANCH   2  10
TORSDOF 2
ENDMDL
MODEL 6
REMARK VINA RESULT:    -5.262      5.694      7.271
REMARK INTER + INTRA:          -6.097
REMARK INTER:                  -5.881
REMARK INTRA:                  -0.216
REMARK UNBOUND:                -0.219
REMARK SMILES O=C([O-])c1ccccc1C(=O)[O-]
REMARK SMILES IDX 4 1 9 2 5 3 8 4 6 5 7 6 2 7 1 8 3 9 10 10 11 11 12 12
REMARK H PARENT
REMARK Flexibility Score: inf
ROOT
ATOM      1  C   UNL     1      20.292 -46.876  67.994  1.00  0.00     0.006 A 
ATOM      2  C   UNL     1      19.489 -47.982  68.390  1.00  0.00     0.006 A 
ATOM      3  C   UNL     1      20.872 -46.063  68.984  1.00  0.00     0.010 A 
ATOM      4  C   UNL     1      19.244 -48.194  69.759  1.00  0.00     0.010 A 
ATOM      5  C   UNL     1      20.633 -46.304  70.338  1.00  0.00     0.001 A 
ATOM      6  C   UNL     1      19.811 -47.360  70.724  1.00  0.00     0.001 A 
ENDROOT
BRANCH   1   7
ATOM      7  C   UNL     1      20.494 -46.493  66.578  1.00  0.00     0.072 C 
ATOM      8  O   UNL     1      19.708 -45.688  66.010  1.00  0.00    -0.545 OA
ATOM      9  O   UNL     1      21.595 -46.968  65.876  1.00  0.00    -0.545 OA
ENDBRANCH   1   7
BRANCH   2  10
ATOM     10  C   UNL     1      18.955 -48.970  67.424  1.00  0.00     0.072 C 
ATOM     11  O   UNL     1      17.804 -48.819  66.933  1.00  0.00    -0.545 OA
ATOM     12  O   UNL     1      19.685 -50.106  67.094  1.00  0.00    -0.545 OA
ENDBRANCH   2  10
TORSDOF 2
ENDMDL
MODEL 7
REMARK VINA RESULT:    -5.159      1.410      2.133
REMARK INTER + INTRA:          -5.981
REMARK INTER:                  -5.855
REMARK INTRA:                  -0.127
REMARK UNBOUND:                -0.219
REMARK SMILES O=C([O-])c1ccccc1C(=O)[O-]
REMARK SMILES IDX 4 1 9 2 5 3 8 4 6 5 7 6 2 7 1 8 3 9 10 10 11 11 12 12
REMARK H PARENT
REMARK Flexibility Score: inf
ROOT
ATOM      1  C   UNL     1      13.680 -48.742  71.959  1.00  0.00     0.006 A 
ATOM      2  C   UNL     1      14.973 -48.400  71.473  1.00  0.00     0.006 A 
ATOM      3  C   UNL     1      13.569 -49.486  73.147  1.00  0.00     0.010 A 
ATOM      4  C   UNL     1      16.108 -48.870  72.160  1.00  0.00     0.010 A 
ATOM      5  C   UNL     1      14.708 -49.923  73.824  1.00  0.00     0.001 A 
ATOM      6  C   UNL     1      15.974 -49.626  73.326  1.00  0.00     0.001 A 
ENDROOT
BRANCH   1   7
ATOM      7  C   UNL     1      12.433 -48.411  71.231  1.00  0.00     0.072 C 
ATOM      8  O   UNL     1      11.578 -47.636  71.736  1.00  0.00    -0.545 OA
ATOM      9  O   UNL     1      12.222 -48.903  69.948  1.00  0.00    -0.545 OA
ENDBRANCH   1   7
BRANCH   2  10
ATOM     10  C   UNL     1      15.181 -47.505  70.311  1.00  0.00     0.072 C 
ATOM     11  O   UNL     1      15.063 -46.257  70.443  1.00  0.00    -0.545 OA
ATOM     12  O   UNL     1      15.445 -48.028  69.051  1.00  0.00    -0.545 OA
ENDBRANCH   2  10
TORSDOF 2
ENDMDL
MODEL 8
REMARK VINA RESULT:    -5.152      5.756      7.066
REMARK INTER + INTRA:          -5.974
REMARK INTER:                  -5.763
REMARK INTRA:                  -0.211
REMARK UNBOUND:                -0.219
REMARK SMILES O=C([O-])c1ccccc1C(=O)[O-]
REMARK SMILES IDX 4 1 9 2 5 3 8 4 6 5 7 6 2 7 1 8 3 9 10 10 11 11 12 12
REMARK H PARENT
REMARK Flexibility Score: inf
ROOT
ATOM      1  C   UNL     1      19.472 -48.038  68.326  1.00  0.00     0.006 A 
ATOM      2  C   UNL     1      20.261 -46.900  68.001  1.00  0.00     0.006 A 
ATOM      3  C   UNL     1      19.187 -48.309  69.677  1.00  0.00     0.010 A 
ATOM      4  C   UNL     1      20.789 -46.113  69.041  1.00  0.00     0.010 A 
ATOM      5  C   UNL     1      19.703 -47.503  70.692  1.00  0.00     0.001 A 
ATOM      6  C   UNL     1      20.512 -46.414  70.376  1.00  0.00     0.001 A 
ENDROOT
BRANCH   1   7
ATOM      7  C   UNL     1      18.988 -49.001  67.310  1.00  0.00     0.072 C 
ATOM      8  O   UNL     1      17.917 -48.791  66.681  1.00  0.00    -0.545 OA
ATOM      9  O   UNL     1      19.750 -50.119  66.990  1.00  0.00    -0.545 OA
ENDBRANCH   1   7
BRANCH   2  10
ATOM     10  C   UNL     1      20.494 -46.460  66.605  1.00  0.00     0.072 C 
ATOM     11  O   UNL     1      19.640 -45.747  66.014  1.00  0.00    -0.545 OA
ATOM     12  O   UNL     1      21.622 -46.878  65.908  1.00  0.00    -0.545 OA
ENDBRANCH   2  10
TORSDOF 2
ENDMDL
MODEL 9
REMARK VINA RESULT:    -5.080      1.659      2.271
REMARK INTER + INTRA:          -5.894
REMARK INTER:                  -5.717
REMARK INTRA:                  -0.177
REMARK UNBOUND:                -0.219
REMARK SMILES O=C([O-])c1ccccc1C(=O)[O-]
REMARK SMILES IDX 4 1 9 2 5 3 8 4 6 5 7 6 2 7 1 8 3 9 10 10 11 11 12 12
REMARK H PARENT
REMARK Flexibility Score: inf
ROOT
ATOM      1  C   UNL     1      14.290 -48.365  70.724  1.00  0.00     0.006 A 
ATOM      2  C   UNL     1      14.732 -48.759  72.018  1.00  0.00     0.006 A 
ATOM      3  C   UNL     1      12.911 -48.221  70.486  1.00  0.00     0.010 A 
ATOM      4  C   UNL     1      13.775 -49.054  73.007  1.00  0.00     0.010 A 
ATOM      5  C   UNL     1      11.980 -48.498  71.488  1.00  0.00     0.001 A 
ATOM      6  C   UNL     1      12.411 -48.925  72.742  1.00  0.00     0.001 A 
ENDROOT
BRANCH   1   7
ATOM      7  C   UNL     1      15.214 -48.167  69.583  1.00  0.00     0.072 C 
ATOM      8  O   UNL     1      15.584 -49.142  68.876  1.00  0.00    -0.545 OA
ATOM      9  O   UNL     1      15.632 -46.887  69.238  1.00  0.00    -0.545 OA
ENDBRANCH   1   7
BRANCH   2  10
ATOM     10  C   UNL     1      16.163 -48.801  72.396  1.00  0.00     0.072 C 
ATOM     11  O   UNL     1      16.705 -49.896  72.705  1.00  0.00    -0.545 OA
ATOM     12  O   UNL     1      16.910 -47.632  72.480  1.00  0.00    -0.545 OA
ENDBRANCH   2  10
TORSDOF 2
ENDMDL
