MODEL 1
REMARK VINA RESULT:    -3.257      0.000      0.000
REMARK INTER + INTRA:          -6.478
REMARK INTER:                  -5.923
REMARK INTRA:                  -0.554
REMARK UNBOUND:                -0.554
REMARK SMILES CCCCCCCCCCCCCCCC(=O)[O-]
REMARK SMILES IDX 9 1 10 2 11 3 12 4 13 5 14 6 15 7 16 8 17 9 18 10 8 11 7 12
REMARK SMILES IDX 6 13 5 14 4 15 3 16 2 17 1 18
REMARK H PARENT
REMARK Flexibility Score: inf
ROOT
ATOM      1  C   UNL     1      41.492  13.593 -36.113  1.00  0.00     0.000 C 
ENDROOT
BRANCH   1   2
ATOM      2  C   UNL     1      42.083  12.360 -35.394  1.00  0.00     0.000 C 
BRANCH   2   3
ATOM      3  C   UNL     1      43.609  12.219 -35.551  1.00  0.00     0.000 C 
BRANCH   3   4
ATOM      4  C   UNL     1      44.353  11.755 -34.285  1.00  0.00     0.000 C 
BRANCH   4   5
ATOM      5  C   UNL     1      44.451  12.807 -33.161  1.00  0.00     0.000 C 
BRANCH   5   6
ATOM      6  C   UNL     1      45.840  12.934 -32.503  1.00  0.00     0.006 C 
BRANCH   6   7
ATOM      7  C   UNL     1      46.313  11.672 -31.766  1.00  0.00     0.053 C 
BRANCH   7   8
ATOM      8  C   UNL     1      46.267  11.841 -30.279  1.00  0.00     0.041 C 
ATOM      9  O   UNL     1      45.504  12.699 -29.762  1.00  0.00    -0.550 OA
ATOM     10  O   UNL     1      47.041  11.027 -29.461  1.00  0.00    -0.550 OA
ENDBRANCH   7   8
ENDBRANCH   6   7
ENDBRANCH   5   6
ENDBRANCH   4   5
ENDBRANCH   3   4
ENDBRANCH   2   3
ENDBRANCH   1   2
BRANCH   1  11
ATOM     11  C   UNL     1      39.958  13.539 -36.213  1.00  0.00     0.000 C 
BRANCH  11  12
ATOM     12  C   UNL     1      39.260  14.495 -35.229  1.00  0.00    -0.000 C 
BRANCH  12  13
ATOM     13  C   UNL     1      37.756  14.229 -35.016  1.00  0.00    -0.000 C 
BRANCH  13  14
ATOM     14  C   UNL     1      37.426  13.139 -33.978  1.00  0.00    -0.000 C 
BRANCH  14  15
ATOM     15  C   UNL     1      36.876  13.664 -32.637  1.00  0.00    -0.000 C 
BRANCH  15  16
ATOM     16  C   UNL     1      37.113  12.738 -31.427  1.00  0.00    -0.000 C 
BRANCH  16  17
ATOM     17  C   UNL     1      37.050  13.435 -30.057  1.00  0.00    -0.003 C 
ATOM     18  C   UNL     1      37.562  14.875 -30.096  1.00  0.00     0.004 C 
ENDBRANCH  16  17
ENDBRANCH  15  16
ENDBRANCH  14  15
ENDBRANCH  13  14
ENDBRANCH  12  13
ENDBRANCH  11  12
ENDBRANCH   1  11
TORSDOF 14
ENDMDL
MODEL 2
REMARK VINA RESULT:    -3.191      3.213      7.532
REMARK INTER + INTRA:          -6.356
REMARK INTER:                  -5.630
REMARK INTRA:                  -0.726
REMARK UNBOUND:                -0.554
REMARK SMILES CCCCCCCCCCCCCCCC(=O)[O-]
REMARK SMILES IDX 9 1 10 2 11 3 12 4 13 5 14 6 15 7 16 8 17 9 18 10 8 11 7 12
REMARK SMILES IDX 6 13 5 14 4 15 3 16 2 17 1 18
REMARK H PARENT
REMARK Flexibility Score: inf
ROOT
ATOM      1  C   UNL     1      41.572  13.751 -36.221  1.00  0.00     0.000 C 
ENDROOT
BRANCH   1   2
ATOM      2  C   UNL     1      40.356  14.225 -35.395  1.00  0.00     0.000 C 
BRANCH   2   3
ATOM      3  C   UNL     1      39.004  14.033 -36.110  1.00  0.00     0.000 C 
BRANCH   3   4
ATOM      4  C   UNL     1      37.764  14.299 -35.237  1.00  0.00     0.000 C 
BRANCH   4   5
ATOM      5  C   UNL     1      36.955  13.044 -34.851  1.00  0.00     0.000 C 
BRANCH   5   6
ATOM      6  C   UNL     1      36.875  12.757 -33.338  1.00  0.00     0.006 C 
BRANCH   6   7
ATOM      7  C   UNL     1      36.889  14.011 -32.450  1.00  0.00     0.053 C 
BRANCH   7   8
ATOM      8  C   UNL     1      37.006  13.668 -30.997  1.00  0.00     0.041 C 
ATOM      9  O   UNL     1      37.131  12.467 -30.638  1.00  0.00    -0.550 OA
ATOM     10  O   UNL     1      37.011  14.676 -30.042  1.00  0.00    -0.550 OA
ENDBRANCH   7   8
ENDBRANCH   6   7
ENDBRANCH   5   6
ENDBRANCH   4   5
ENDBRANCH   3   4
ENDBRANCH   2   3
ENDBRANCH   1   2
BRANCH   1  11
ATOM     11  C   UNL     1      41.671  12.217 -36.300  1.00  0.00     0.000 C 
BRANCH  11  12
ATOM     12  C   UNL     1      42.465  11.608 -35.130  1.00  0.00    -0.000 C 
BRANCH  12  13
ATOM     13  C   UNL     1      43.935  12.065 -35.032  1.00  0.00    -0.000 C 
BRANCH  13  14
ATOM     14  C   UNL     1      44.266  12.943 -33.810  1.00  0.00    -0.000 C 
BRANCH  14  15
ATOM     15  C   UNL     1      45.244  12.310 -32.800  1.00  0.00    -0.000 C 
BRANCH  15  16
ATOM     16  C   UNL     1      44.952  12.631 -31.320  1.00  0.00    -0.000 C 
BRANCH  16  17
ATOM     17  C   UNL     1      46.039  12.172 -30.332  1.00  0.00    -0.003 C 
ATOM     18  C   UNL     1      46.735  10.883 -30.768  1.00  0.00     0.004 C 
ENDBRANCH  16  17
ENDBRANCH  15  16
ENDBRANCH  14  15
ENDBRANCH  13  14
ENDBRANCH  12  13
ENDBRANCH  11  12
ENDBRANCH   1  11
TORSDOF 14
ENDMDL
MODEL 3
REMARK VINA RESULT:    -2.967     20.044     22.046
REMARK INTER + INTRA:          -5.950
REMARK INTER:                  -4.952
REMARK INTRA:                  -0.999
REMARK UNBOUND:                -0.554
REMARK SMILES CCCCCCCCCCCCCCCC(=O)[O-]
REMARK SMILES IDX 9 1 10 2 11 3 12 4 13 5 14 6 15 7 16 8 17 9 18 10 8 11 7 12
REMARK SMILES IDX 6 13 5 14 4 15 3 16 2 17 1 18
REMARK H PARENT
REMARK Flexibility Score: inf
ROOT
ATOM      1  C   UNL     1      55.594  26.151 -35.071  1.00  0.00     0.000 C 
ENDROOT
BRANCH   1   2
ATOM      2  C   UNL     1      57.017  26.417 -34.532  1.00  0.00     0.000 C 
BRANCH   2   3
ATOM      3  C   UNL     1      57.117  27.655 -33.620  1.00  0.00     0.000 C 
BRANCH   3   4
ATOM      4  C   UNL     1      56.350  27.545 -32.290  1.00  0.00     0.000 C 
BRANCH   4   5
ATOM      5  C   UNL     1      55.945  28.891 -31.655  1.00  0.00     0.000 C 
BRANCH   5   6
ATOM      6  C   UNL     1      57.081  29.928 -31.538  1.00  0.00     0.006 C 
BRANCH   6   7
ATOM      7  C   UNL     1      56.995  30.829 -30.296  1.00  0.00     0.053 C 
BRANCH   7   8
ATOM      8  C   UNL     1      56.907  30.032 -29.031  1.00  0.00     0.041 C 
ATOM      9  O   UNL     1      56.624  30.599 -27.943  1.00  0.00    -0.550 OA
ATOM     10  O   UNL     1      57.103  28.657 -29.059  1.00  0.00    -0.550 OA
ENDBRANCH   7   8
ENDBRANCH   6   7
ENDBRANCH   5   6
ENDBRANCH   4   5
ENDBRANCH   3   4
ENDBRANCH   2   3
ENDBRANCH   1   2
BRANCH   1  11
ATOM     11  C   UNL     1      55.043  27.330 -35.891  1.00  0.00     0.000 C 
BRANCH  11  12
ATOM     12  C   UNL     1      55.150  27.104 -37.410  1.00  0.00    -0.000 C 
BRANCH  12  13
ATOM     13  C   UNL     1      54.384  28.123 -38.278  1.00  0.00    -0.000 C 
BRANCH  13  14
ATOM     14  C   UNL     1      55.262  29.190 -38.960  1.00  0.00    -0.000 C 
BRANCH  14  15
ATOM     15  C   UNL     1      54.932  30.646 -38.574  1.00  0.00    -0.000 C 
BRANCH  15  16
ATOM     16  C   UNL     1      54.677  30.882 -37.072  1.00  0.00    -0.000 C 
BRANCH  16  17
ATOM     17  C   UNL     1      55.948  31.021 -36.215  1.00  0.00    -0.003 C 
ATOM     18  C   UNL     1      55.651  31.098 -34.717  1.00  0.00     0.004 C 
ENDBRANCH  16  17
ENDBRANCH  15  16
ENDBRANCH  14  15
ENDBRANCH  13  14
ENDBRANCH  12  13
ENDBRANCH  11  12
ENDBRANCH   1  11
TORSDOF 14
ENDMDL
MODEL 4
REMARK VINA RESULT:    -2.644      0.807      1.538
REMARK INTER + INTRA:          -5.362
REMARK INTER:                  -4.963
REMARK INTRA:                  -0.399
REMARK UNBOUND:                -0.554
REMARK SMILES CCCCCCCCCCCCCCCC(=O)[O-]
REMARK SMILES IDX 9 1 10 2 11 3 12 4 13 5 14 6 15 7 16 8 17 9 18 10 8 11 7 12
REMARK SMILES IDX 6 13 5 14 4 15 3 16 2 17 1 18
REMARK H PARENT
REMARK Flexibility Score: inf
ROOT
ATOM      1  C   UNL     1      42.314  12.144 -35.533  1.00  0.00     0.000 C 
ENDROOT
BRANCH   1   2
ATOM      2  C   UNL     1      43.752  12.160 -36.096  1.00  0.00     0.000 C 
BRANCH   2   3
ATOM      3  C   UNL     1      44.846  12.182 -35.012  1.00  0.00     0.000 C 
BRANCH   3   4
ATOM      4  C   UNL     1      44.326  12.269 -33.565  1.00  0.00     0.000 C 
BRANCH   4   5
ATOM      5  C   UNL     1      45.235  13.041 -32.588  1.00  0.00     0.000 C 
BRANCH   5   6
ATOM      6  C   UNL     1      46.586  12.365 -32.278  1.00  0.00     0.006 C 
BRANCH   6   7
ATOM      7  C   UNL     1      46.485  11.127 -31.372  1.00  0.00     0.053 C 
BRANCH   7   8
ATOM      8  C   UNL     1      46.427  11.497 -29.922  1.00  0.00     0.041 C 
ATOM      9  O   UNL     1      45.552  12.302 -29.508  1.00  0.00    -0.550 OA
ATOM     10  O   UNL     1      47.318  10.926 -29.022  1.00  0.00    -0.550 OA
ENDBRANCH   7   8
ENDBRANCH   6   7
ENDBRANCH   5   6
ENDBRANCH   4   5
ENDBRANCH   3   4
ENDBRANCH   2   3
ENDBRANCH   1   2
BRANCH   1  11
ATOM     11  C   UNL     1      41.427  13.242 -36.145  1.00  0.00     0.000 C 
BRANCH  11  12
ATOM     12  C   UNL     1      40.102  13.433 -35.386  1.00  0.00    -0.000 C 
BRANCH  12  13
ATOM     13  C   UNL     1      39.052  14.297 -36.113  1.00  0.00    -0.000 C 
BRANCH  13  14
ATOM     14  C   UNL     1      37.625  13.717 -36.129  1.00  0.00    -0.000 C 
BRANCH  14  15
ATOM     15  C   UNL     1      37.215  12.963 -34.848  1.00  0.00    -0.000 C 
BRANCH  15  16
ATOM     16  C   UNL     1      37.238  13.808 -33.558  1.00  0.00    -0.000 C 
BRANCH  16  17
ATOM     17  C   UNL     1      36.875  13.039 -32.275  1.00  0.00    -0.003 C 
ATOM     18  C   UNL     1      37.171  13.831 -31.002  1.00  0.00     0.004 C 
ENDBRANCH  16  17
ENDBRANCH  15  16
ENDBRANCH  14  15
ENDBRANCH  13  14
ENDBRANCH  12  13
ENDBRANCH  11  12
ENDBRANCH   1  11
TORSDOF 14
ENDMDL
MODEL 5
REMARK VINA RESULT:    -2.498     19.592     22.086
REMARK INTER + INTRA:          -5.098
REMARK INTER:                  -3.772
REMARK INTRA:                  -1.326
REMARK UNBOUND:                -0.554
REMARK SMILES CCCCCCCCCCCCCCCC(=O)[O-]
REMARK SMILES IDX 9 1 10 2 11 3 12 4 13 5 14 6 15 7 16 8 17 9 18 10 8 11 7 12
REMARK SMILES IDX 6 13 5 14 4 15 3 16 2 17 1 18
REMARK H PARENT
REMARK Flexibility Score: inf
ROOT
ATOM      1  C   UNL     1      56.433  27.145 -33.962  1.00  0.00     0.000 C 
ENDROOT
BRANCH   1   2
ATOM      2  C   UNL     1      56.062  25.772 -34.565  1.00  0.00     0.000 C 
BRANCH   2   3
ATOM      3  C   UNL     1      54.851  25.816 -35.516  1.00  0.00     0.000 C 
BRANCH   3   4
ATOM      4  C   UNL     1      55.118  25.279 -36.934  1.00  0.00     0.000 C 
BRANCH   4   5
ATOM      5  C   UNL     1      54.751  26.245 -38.079  1.00  0.00     0.000 C 
BRANCH   5   6
ATOM      6  C   UNL     1      55.048  27.732 -37.802  1.00  0.00     0.006 C 
BRANCH   6   7
ATOM      7  C   UNL     1      54.118  28.714 -38.534  1.00  0.00     0.053 C 
BRANCH   7   8
ATOM      8  C   UNL     1      54.414  30.138 -38.176  1.00  0.00     0.041 C 
ATOM      9  O   UNL     1      55.479  30.682 -38.570  1.00  0.00    -0.550 OA
ATOM     10  O   UNL     1      53.497  30.874 -37.436  1.00  0.00    -0.550 OA
ENDBRANCH   7   8
ENDBRANCH   6   7
ENDBRANCH   5   6
ENDBRANCH   4   5
ENDBRANCH   3   4
ENDBRANCH   2   3
ENDBRANCH   1   2
BRANCH   1  11
ATOM     11  C   UNL     1      57.125  28.070 -34.979  1.00  0.00     0.000 C 
BRANCH  11  12
ATOM     12  C   UNL     1      56.353  29.380 -35.217  1.00  0.00    -0.000 C 
BRANCH  12  13
ATOM     13  C   UNL     1      55.978  30.158 -33.939  1.00  0.00    -0.000 C 
BRANCH  13  14
ATOM     14  C   UNL     1      57.112  31.011 -33.337  1.00  0.00    -0.000 C 
BRANCH  14  15
ATOM     15  C   UNL     1      57.125  31.080 -31.797  1.00  0.00    -0.000 C 
BRANCH  15  16
ATOM     16  C   UNL     1      56.185  30.082 -31.091  1.00  0.00    -0.000 C 
BRANCH  16  17
ATOM     17  C   UNL     1      56.883  28.844 -30.499  1.00  0.00    -0.003 C 
ATOM     18  C   UNL     1      56.497  28.581 -29.044  1.00  0.00     0.004 C 
ENDBRANCH  16  17
ENDBRANCH  15  16
ENDBRANCH  14  15
ENDBRANCH  13  14
ENDBRANCH  12  13
ENDBRANCH  11  12
ENDBRANCH   1  11
TORSDOF 14
ENDMDL
MODEL 6
REMARK VINA RESULT:    -2.202     19.428     21.985
REMARK INTER + INTRA:          -4.558
REMARK INTER:                  -3.763
REMARK INTRA:                  -0.796
REMARK UNBOUND:                -0.554
REMARK SMILES CCCCCCCCCCCCCCCC(=O)[O-]
REMARK SMILES IDX 9 1 10 2 11 3 12 4 13 5 14 6 15 7 16 8 17 9 18 10 8 11 7 12
REMARK SMILES IDX 6 13 5 14 4 15 3 16 2 17 1 18
REMARK H PARENT
REMARK Flexibility Score: inf
ROOT
ATOM      1  C   UNL     1      56.642  27.612 -33.286  1.00  0.00     0.000 C 
ENDROOT
BRANCH   1   2
ATOM      2  C   UNL     1      57.107  28.721 -34.255  1.00  0.00     0.000 C 
BRANCH   2   3
ATOM      3  C   UNL     1      56.018  29.760 -34.582  1.00  0.00     0.000 C 
BRANCH   3   4
ATOM      4  C   UNL     1      56.121  31.079 -33.795  1.00  0.00     0.000 C 
BRANCH   4   5
ATOM      5  C   UNL     1      56.778  30.962 -32.404  1.00  0.00     0.000 C 
BRANCH   5   6
ATOM      6  C   UNL     1      55.815  31.119 -31.210  1.00  0.00     0.006 C 
BRANCH   6   7
ATOM      7  C   UNL     1      56.490  31.036 -29.832  1.00  0.00     0.053 C 
BRANCH   7   8
ATOM      8  C   UNL     1      56.701  29.618 -29.397  1.00  0.00     0.041 C 
ATOM      9  O   UNL     1      56.719  29.328 -28.172  1.00  0.00    -0.550 OA
ATOM     10  O   UNL     1      56.845  28.613 -30.345  1.00  0.00    -0.550 OA
ENDBRANCH   7   8
ENDBRANCH   6   7
ENDBRANCH   5   6
ENDBRANCH   4   5
ENDBRANCH   3   4
ENDBRANCH   2   3
ENDBRANCH   1   2
BRANCH   1  11
ATOM     11  C   UNL     1      55.705  26.594 -33.959  1.00  0.00     0.000 C 
BRANCH  11  12
ATOM     12  C   UNL     1      56.240  26.092 -35.313  1.00  0.00    -0.000 C 
BRANCH  12  13
ATOM     13  C   UNL     1      55.213  25.337 -36.181  1.00  0.00    -0.000 C 
BRANCH  13  14
ATOM     14  C   UNL     1      54.761  26.078 -37.453  1.00  0.00    -0.000 C 
BRANCH  14  15
ATOM     15  C   UNL     1      54.832  27.616 -37.370  1.00  0.00    -0.000 C 
BRANCH  15  16
ATOM     16  C   UNL     1      54.749  28.347 -38.725  1.00  0.00    -0.000 C 
BRANCH  16  17
ATOM     17  C   UNL     1      55.167  29.828 -38.687  1.00  0.00    -0.003 C 
ATOM     18  C   UNL     1      54.400  30.638 -37.642  1.00  0.00     0.004 C 
ENDBRANCH  16  17
ENDBRANCH  15  16
ENDBRANCH  14  15
ENDBRANCH  13  14
ENDBRANCH  12  13
ENDBRANCH  11  12
ENDBRANCH   1  11
TORSDOF 14
ENDMDL
MODEL 7
REMARK VINA RESULT:    -2.187     18.968     21.446
REMARK INTER + INTRA:          -4.531
REMARK INTER:                  -4.082
REMARK INTRA:                  -0.449
REMARK UNBOUND:                -0.554
REMARK SMILES CCCCCCCCCCCCCCCC(=O)[O-]
REMARK SMILES IDX 9 1 10 2 11 3 12 4 13 5 14 6 15 7 16 8 17 9 18 10 8 11 7 12
REMARK SMILES IDX 6 13 5 14 4 15 3 16 2 17 1 18
REMARK H PARENT
REMARK Flexibility Score: inf
ROOT
ATOM      1  C   UNL     1      54.048  30.366 -37.341  1.00  0.00     0.000 C 
ENDROOT
BRANCH   1   2
ATOM      2  C   UNL     1      54.888  30.720 -36.094  1.00  0.00     0.000 C 
BRANCH   2   3
ATOM      3  C   UNL     1      56.175  29.885 -35.950  1.00  0.00     0.000 C 
BRANCH   3   4
ATOM      4  C   UNL     1      57.125  30.343 -34.829  1.00  0.00     0.000 C 
BRANCH   4   5
ATOM      5  C   UNL     1      56.432  30.936 -33.585  1.00  0.00     0.000 C 
BRANCH   5   6
ATOM      6  C   UNL     1      55.998  29.905 -32.524  1.00  0.00     0.006 C 
BRANCH   6   7
ATOM      7  C   UNL     1      56.901  29.851 -31.282  1.00  0.00     0.053 C 
BRANCH   7   8
ATOM      8  C   UNL     1      56.874  28.504 -30.627  1.00  0.00     0.041 C 
ATOM      9  O   UNL     1      56.919  27.458 -31.327  1.00  0.00    -0.550 OA
ATOM     10  O   UNL     1      56.833  28.404 -29.242  1.00  0.00    -0.550 OA
ENDBRANCH   7   8
ENDBRANCH   6   7
ENDBRANCH   5   6
ENDBRANCH   4   5
ENDBRANCH   3   4
ENDBRANCH   2   3
ENDBRANCH   1   2
BRANCH   1  11
ATOM     11  C   UNL     1      54.914  29.886 -38.519  1.00  0.00     0.000 C 
BRANCH  11  12
ATOM     12  C   UNL     1      54.657  28.414 -38.889  1.00  0.00    -0.000 C 
BRANCH  12  13
ATOM     13  C   UNL     1      55.050  27.390 -37.806  1.00  0.00    -0.000 C 
BRANCH  13  14
ATOM     14  C   UNL     1      54.431  25.989 -37.975  1.00  0.00    -0.000 C 
BRANCH  14  15
ATOM     15  C   UNL     1      55.115  24.873 -37.159  1.00  0.00    -0.000 C 
BRANCH  15  16
ATOM     16  C   UNL     1      55.018  25.032 -35.628  1.00  0.00    -0.000 C 
BRANCH  16  17
ATOM     17  C   UNL     1      55.262  26.460 -35.109  1.00  0.00    -0.003 C 
ATOM     18  C   UNL     1      56.701  26.688 -34.646  1.00  0.00     0.004 C 
ENDBRANCH  16  17
ENDBRANCH  15  16
ENDBRANCH  14  15
ENDBRANCH  13  14
ENDBRANCH  12  13
ENDBRANCH  11  12
ENDBRANCH   1  11
TORSDOF 14
ENDMDL
MODEL 8
REMARK VINA RESULT:    -1.220      2.288      3.191
REMARK INTER + INTRA:          -2.772
REMARK INTER:                  -2.007
REMARK INTRA:                  -0.765
REMARK UNBOUND:                -0.554
REMARK SMILES CCCCCCCCCCCCCCCC(=O)[O-]
REMARK SMILES IDX 9 1 10 2 11 3 12 4 13 5 14 6 15 7 16 8 17 9 18 10 8 11 7 12
REMARK SMILES IDX 6 13 5 14 4 15 3 16 2 17 1 18
REMARK H PARENT
REMARK Flexibility Score: inf
ROOT
ATOM      1  C   UNL     1      43.306  12.289 -36.486  1.00  0.00     0.000 C 
ENDROOT
BRANCH   1   2
ATOM      2  C   UNL     1      43.147  11.904 -34.999  1.00  0.00     0.000 C 
BRANCH   2   3
ATOM      3  C   UNL     1      43.974  12.779 -34.037  1.00  0.00     0.000 C 
BRANCH   3   4
ATOM      4  C   UNL     1      45.034  12.021 -33.218  1.00  0.00     0.000 C 
BRANCH   4   5
ATOM      5  C   UNL     1      45.919  12.905 -32.315  1.00  0.00     0.000 C 
BRANCH   5   6
ATOM      6  C   UNL     1      45.762  12.657 -30.801  1.00  0.00     0.006 C 
BRANCH   6   7
ATOM      7  C   UNL     1      45.975  11.198 -30.369  1.00  0.00     0.053 C 
BRANCH   7   8
ATOM      8  C   UNL     1      46.475  11.098 -28.960  1.00  0.00     0.041 C 
ATOM      9  O   UNL     1      45.669  10.894 -28.015  1.00  0.00    -0.550 OA
ATOM     10  O   UNL     1      47.835  11.195 -28.696  1.00  0.00    -0.550 OA
ENDBRANCH   7   8
ENDBRANCH   6   7
ENDBRANCH   5   6
ENDBRANCH   4   5
ENDBRANCH   3   4
ENDBRANCH   2   3
ENDBRANCH   1   2
BRANCH   1  11
ATOM     11  C   UNL     1      42.392  13.457 -36.895  1.00  0.00     0.000 C 
BRANCH  11  12
ATOM     12  C   UNL     1      40.994  13.376 -36.255  1.00  0.00    -0.000 C 
BRANCH  12  13
ATOM     13  C   UNL     1      40.486  14.689 -35.628  1.00  0.00    -0.000 C 
BRANCH  13  14
ATOM     14  C   UNL     1      39.194  14.560 -34.797  1.00  0.00    -0.000 C 
BRANCH  14  15
ATOM     15  C   UNL     1      37.889  14.575 -35.618  1.00  0.00    -0.000 C 
BRANCH  15  16
ATOM     16  C   UNL     1      36.919  13.414 -35.322  1.00  0.00    -0.000 C 
BRANCH  16  17
ATOM     17  C   UNL     1      36.875  12.317 -36.401  1.00  0.00    -0.003 C 
ATOM     18  C   UNL     1      37.891  12.542 -37.521  1.00  0.00     0.004 C 
ENDBRANCH  16  17
ENDBRANCH  15  16
ENDBRANCH  14  15
ENDBRANCH  13  14
ENDBRANCH  12  13
ENDBRANCH  11  12
ENDBRANCH   1  11
TORSDOF 14
ENDMDL
MODEL 9
REMARK VINA RESULT:    -1.188     19.162     21.764
REMARK INTER + INTRA:          -2.715
REMARK INTER:                  -1.250
REMARK INTRA:                  -1.465
REMARK UNBOUND:                -0.554
REMARK SMILES CCCCCCCCCCCCCCCC(=O)[O-]
REMARK SMILES IDX 9 1 10 2 11 3 12 4 13 5 14 6 15 7 16 8 17 9 18 10 8 11 7 12
REMARK SMILES IDX 6 13 5 14 4 15 3 16 2 17 1 18
REMARK H PARENT
REMARK Flexibility Score: inf
ROOT
ATOM      1  C   UNL     1      56.548  25.844 -35.123  1.00  0.00     0.000 C 
ENDROOT
BRANCH   1   2
ATOM      2  C   UNL     1      55.361  24.873 -35.309  1.00  0.00     0.000 C 
BRANCH   2   3
ATOM      3  C   UNL     1      54.389  25.285 -36.431  1.00  0.00     0.000 C 
BRANCH   3   4
ATOM      4  C   UNL     1      54.962  25.187 -37.856  1.00  0.00     0.000 C 
BRANCH   4   5
ATOM      5  C   UNL     1      54.427  26.237 -38.851  1.00  0.00     0.000 C 
BRANCH   5   6
ATOM      6  C   UNL     1      54.956  27.669 -38.639  1.00  0.00     0.006 C 
BRANCH   6   7
ATOM      7  C   UNL     1      53.968  28.616 -37.940  1.00  0.00     0.053 C 
BRANCH   7   8
ATOM      8  C   UNL     1      54.475  30.025 -37.901  1.00  0.00     0.041 C 
ATOM      9  O   UNL     1      53.688  30.975 -37.646  1.00  0.00    -0.550 OA
ATOM     10  O   UNL     1      55.823  30.286 -38.113  1.00  0.00    -0.550 OA
ENDBRANCH   7   8
ENDBRANCH   6   7
ENDBRANCH   5   6
ENDBRANCH   4   5
ENDBRANCH   3   4
ENDBRANCH   2   3
ENDBRANCH   1   2
BRANCH   1  11
ATOM     11  C   UNL     1      56.136  27.154 -34.429  1.00  0.00     0.000 C 
BRANCH  11  12
ATOM     12  C   UNL     1      56.034  27.015 -32.900  1.00  0.00    -0.000 C 
BRANCH  12  13
ATOM     13  C   UNL     1      57.003  27.906 -32.098  1.00  0.00    -0.000 C 
BRANCH  13  14
ATOM     14  C   UNL     1      56.339  28.801 -31.033  1.00  0.00    -0.000 C 
BRANCH  14  15
ATOM     15  C   UNL     1      55.662  30.072 -31.583  1.00  0.00    -0.000 C 
BRANCH  15  16
ATOM     16  C   UNL     1      56.558  30.956 -32.474  1.00  0.00    -0.000 C 
BRANCH  16  17
ATOM     17  C   UNL     1      56.064  31.124 -33.922  1.00  0.00    -0.003 C 
ATOM     18  C   UNL     1      57.057  30.593 -34.956  1.00  0.00     0.004 C 
ENDBRANCH  16  17
ENDBRANCH  15  16
ENDBRANCH  14  15
ENDBRANCH  13  14
ENDBRANCH  12  13
ENDBRANCH  11  12
ENDBRANCH   1  11
TORSDOF 14
ENDMDL
