MODEL 1
REMARK VINA RESULT:    -3.625      0.000      0.000
REMARK INTER + INTRA:          -4.046
REMARK INTER:                  -3.837
REMARK INTRA:                  -0.209
REMARK UNBOUND:                -0.209
REMARK SMILES CC1=CC[C@@]23[C@@H]([C@@H](C(C)C)CC[C@H]2C)[C@H]13
REMARK SMILES IDX 14 1 13 2 12 3 11 4 7 5 6 6 5 7 15 8 2 9 3 10 4 11 1 12 8 13
REMARK SMILES IDX 9 14 10 15
REMARK H PARENT
REMARK Flexibility Score: inf
ROOT
ATOM      1  C   UNL     1       3.827   4.920  12.179  1.00  0.00     0.008 C 
ATOM      2  C   UNL     1       5.051   5.818  12.398  1.00  0.00    -0.007 C 
ATOM      3  C   UNL     1       5.942   5.258  13.526  1.00  0.00     0.004 C 
ATOM      4  C   UNL     1       7.130   6.177  13.915  1.00  0.00     0.004 C 
ATOM      5  C   UNL     1       7.233   7.462  13.057  1.00  0.00    -0.004 C 
ATOM      6  C   UNL     1       5.874   8.197  13.074  1.00  0.00     0.007 C 
ATOM      7  C   UNL     1       4.685   7.301  12.701  1.00  0.00    -0.013 C 
ATOM      8  C   UNL     1       5.177   8.367  11.723  1.00  0.00     0.025 C 
ATOM      9  C   UNL     1       4.067   9.363  11.699  1.00  0.00    -0.073 C 
ATOM     10  C   UNL     1       3.059   9.036  12.501  1.00  0.00    -0.027 C 
ATOM     11  C   UNL     1       3.307   7.754  13.221  1.00  0.00     0.035 C 
ATOM     12  C   UNL     1       4.093  10.613  10.875  1.00  0.00     0.039 C 
ENDROOT
BRANCH   5  13
ATOM     13  C   UNL     1       8.392   8.418  13.474  1.00  0.00    -0.014 C 
ATOM     14  C   UNL     1       9.768   7.807  13.165  1.00  0.00     0.007 C 
ATOM     15  C   UNL     1       8.337   8.869  14.944  1.00  0.00     0.007 C 
ENDBRANCH   5  13
TORSDOF 1
ENDMDL
MODEL 2
REMARK VINA RESULT:    -1.824      2.690      5.173
REMARK INTER + INTRA:          -2.139
REMARK INTER:                  -1.909
REMARK INTRA:                  -0.230
REMARK UNBOUND:                -0.209
REMARK SMILES CC1=CC[C@@]23[C@@H]([C@@H](C(C)C)CC[C@H]2C)[C@H]13
REMARK SMILES IDX 14 1 13 2 12 3 11 4 7 5 6 6 5 7 15 8 2 9 3 10 4 11 1 12 8 13
REMARK SMILES IDX 9 14 10 15
REMARK H PARENT
REMARK Flexibility Score: inf
ROOT
ATOM      1  C   UNL     1       0.159  11.834  13.409  1.00  0.00     0.008 C 
ATOM      2  C   UNL     1       1.367  11.149  12.760  1.00  0.00    -0.007 C 
ATOM      3  C   UNL     1       1.592   9.750  13.369  1.00  0.00     0.004 C 
ATOM      4  C   UNL     1       2.880   9.039  12.874  1.00  0.00     0.004 C 
ATOM      5  C   UNL     1       3.670   9.846  11.814  1.00  0.00    -0.004 C 
ATOM      6  C   UNL     1       3.939  11.269  12.352  1.00  0.00     0.007 C 
ATOM      7  C   UNL     1       2.677  11.984  12.855  1.00  0.00    -0.013 C 
ATOM      8  C   UNL     1       3.337  12.423  11.548  1.00  0.00     0.025 C 
ATOM      9  C   UNL     1       3.884  13.774  11.865  1.00  0.00    -0.073 C 
ATOM     10  C   UNL     1       3.651  14.147  13.119  1.00  0.00    -0.027 C 
ATOM     11  C   UNL     1       2.903  13.109  13.885  1.00  0.00     0.035 C 
ATOM     12  C   UNL     1       4.636  14.615  10.881  1.00  0.00     0.039 C 
ENDROOT
BRANCH   5  13
ATOM     13  C   UNL     1       4.993   9.164  11.349  1.00  0.00    -0.014 C 
ATOM     14  C   UNL     1       4.750   7.722  10.876  1.00  0.00     0.007 C 
ATOM     15  C   UNL     1       6.117   9.189  12.399  1.00  0.00     0.007 C 
ENDBRANCH   5  13
TORSDOF 1
ENDMDL
MODEL 3
REMARK VINA RESULT:    -1.338      1.219      4.322
REMARK INTER + INTRA:          -1.626
REMARK INTER:                  -1.380
REMARK INTRA:                  -0.245
REMARK UNBOUND:                -0.209
REMARK SMILES CC1=CC[C@@]23[C@@H]([C@@H](C(C)C)CC[C@H]2C)[C@H]13
REMARK SMILES IDX 14 1 13 2 12 3 11 4 7 5 6 6 5 7 15 8 2 9 3 10 4 11 1 12 8 13
REMARK SMILES IDX 9 14 10 15
REMARK H PARENT
REMARK Flexibility Score: inf
ROOT
ATOM      1  C   UNL     1       5.063   4.876  12.762  1.00  0.00     0.008 C 
ATOM      2  C   UNL     1       4.875   6.386  12.577  1.00  0.00    -0.007 C 
ATOM      3  C   UNL     1       3.986   6.677  11.350  1.00  0.00     0.004 C 
ATOM      4  C   UNL     1       3.857   8.184  11.000  1.00  0.00     0.004 C 
ATOM      5  C   UNL     1       4.600   9.119  11.985  1.00  0.00    -0.004 C 
ATOM      6  C   UNL     1       6.069   8.658  12.118  1.00  0.00     0.007 C 
ATOM      7  C   UNL     1       6.216   7.168  12.455  1.00  0.00    -0.013 C 
ATOM      8  C   UNL     1       6.521   8.226  13.514  1.00  0.00     0.025 C 
ATOM      9  C   UNL     1       7.997   8.122  13.703  1.00  0.00    -0.073 C 
ATOM     10  C   UNL     1       8.556   7.202  12.924  1.00  0.00    -0.027 C 
ATOM     11  C   UNL     1       7.555   6.514  12.059  1.00  0.00     0.035 C 
ATOM     12  C   UNL     1       8.772   8.980  14.653  1.00  0.00     0.039 C 
ENDROOT
BRANCH   5  13
ATOM     13  C   UNL     1       4.521  10.632  11.612  1.00  0.00    -0.014 C 
ATOM     14  C   UNL     1       4.720  11.529  12.844  1.00  0.00     0.007 C 
ATOM     15  C   UNL     1       3.230  11.031  10.876  1.00  0.00     0.007 C 
ENDBRANCH   5  13
TORSDOF 1
ENDMDL
