MODEL 1
REMARK VINA RESULT:    -5.330      0.000      0.000
REMARK INTER + INTRA:          -9.513
REMARK INTER:                  -8.135
REMARK INTRA:                  -1.378
REMARK UNBOUND:                -1.378
REMARK SMILES CC(=O)CCC=C(C)CCC=C(C)CCC=C(C)C
REMARK SMILES IDX 10 1 11 2 12 3 13 4 14 5 15 6 16 7 18 8 17 9 19 10 9 11 7 12
REMARK SMILES IDX 6 13 8 14 5 15 4 16 2 17 3 18 1 19
REMARK H PARENT
REMARK Flexibility Score: inf
ROOT
ATOM      1  C   UNL     1       0.868   8.860  47.934  1.00  0.00     0.032 C 
ENDROOT
BRANCH   1   2
ATOM      2  C   UNL     1       1.368  10.042  48.728  1.00  0.00    -0.028 C 
ATOM      3  C   UNL     1       2.206  10.994  48.259  1.00  0.00    -0.077 C 
ATOM      4  C   UNL     1       2.574  12.134  49.172  1.00  0.00     0.039 C 
BRANCH   3   5
ATOM      5  C   UNL     1       2.839  10.931  46.883  1.00  0.00     0.034 C 
BRANCH   5   6
ATOM      6  C   UNL     1       4.135  11.749  46.846  1.00  0.00     0.032 C 
BRANCH   6   7
ATOM      7  C   UNL     1       5.320  10.880  46.502  1.00  0.00    -0.028 C 
ATOM      8  C   UNL     1       7.407   9.659  46.953  1.00  0.00     0.039 C 
ATOM      9  C   UNL     1       6.264  10.531  47.403  1.00  0.00    -0.080 C 
ATOM     10  C   UNL     1       6.196  10.996  48.838  1.00  0.00     0.039 C 
ENDBRANCH   6   7
ENDBRANCH   5   6
ENDBRANCH   3   5
ENDBRANCH   1   2
BRANCH   1  11
ATOM     11  C   UNL     1      -0.668   8.816  47.885  1.00  0.00     0.034 C 
BRANCH  11  12
ATOM     12  C   UNL     1      -1.246   9.867  46.953  1.00  0.00    -0.077 C 
ATOM     13  C   UNL     1      -1.124   9.816  45.605  1.00  0.00    -0.028 C 
ATOM     14  C   UNL     1      -1.991  11.033  47.551  1.00  0.00     0.039 C 
BRANCH  13  15
ATOM     15  C   UNL     1      -0.434   8.726  44.821  1.00  0.00     0.035 C 
BRANCH  15  16
ATOM     16  C   UNL     1      -1.451   7.668  44.382  1.00  0.00     0.079 C 
BRANCH  16  17
ATOM     17  C   UNL     1      -1.073   7.085  43.046  1.00  0.00     0.130 C 
ATOM     18  O   UNL     1      -0.382   7.738  42.278  1.00  0.00    -0.300 OA
ATOM     19  C   UNL     1      -1.514   5.709  42.640  1.00  0.00     0.087 C 
ENDBRANCH  16  17
ENDBRANCH  15  16
ENDBRANCH  13  15
ENDBRANCH  11  12
ENDBRANCH   1  11
TORSDOF 9
ENDMDL
MODEL 2
REMARK VINA RESULT:    -5.325      9.931     13.376
REMARK INTER + INTRA:          -9.505
REMARK INTER:                  -7.425
REMARK INTRA:                  -2.080
REMARK UNBOUND:                -1.378
REMARK SMILES CC(=O)CCC=C(C)CCC=C(C)CCC=C(C)C
REMARK SMILES IDX 10 1 11 2 12 3 13 4 14 5 15 6 16 7 18 8 17 9 19 10 9 11 7 12
REMARK SMILES IDX 6 13 8 14 5 15 4 16 2 17 3 18 1 19
REMARK H PARENT
REMARK Flexibility Score: inf
ROOT
ATOM      1  C   UNL     1      10.875   2.425  55.947  1.00  0.00     0.032 C 
ENDROOT
BRANCH   1   2
ATOM      2  C   UNL     1      10.258   1.212  55.292  1.00  0.00    -0.028 C 
ATOM      3  C   UNL     1       8.948   1.080  54.981  1.00  0.00    -0.077 C 
ATOM      4  C   UNL     1       8.503  -0.182  54.290  1.00  0.00     0.039 C 
BRANCH   3   5
ATOM      5  C   UNL     1       7.903   2.113  55.354  1.00  0.00     0.034 C 
BRANCH   5   6
ATOM      6  C   UNL     1       7.318   2.767  54.097  1.00  0.00     0.032 C 
BRANCH   6   7
ATOM      7  C   UNL     1       7.862   4.162  53.903  1.00  0.00    -0.028 C 
ATOM      8  C   UNL     1       7.799   6.506  53.161  1.00  0.00     0.039 C 
ATOM      9  C   UNL     1       7.161   5.149  53.304  1.00  0.00    -0.080 C 
ATOM     10  C   UNL     1       5.764   4.919  52.779  1.00  0.00     0.039 C 
ENDBRANCH   6   7
ENDBRANCH   5   6
ENDBRANCH   3   5
ENDBRANCH   1   2
BRANCH   1  11
ATOM     11  C   UNL     1      11.840   3.154  54.998  1.00  0.00     0.034 C 
BRANCH  11  12
ATOM     12  C   UNL     1      11.407   4.584  54.721  1.00  0.00    -0.077 C 
ATOM     13  C   UNL     1      11.314   5.106  53.474  1.00  0.00    -0.028 C 
ATOM     14  C   UNL     1      11.069   5.477  55.888  1.00  0.00     0.039 C 
BRANCH  13  15
ATOM     15  C   UNL     1      11.592   4.370  52.186  1.00  0.00     0.035 C 
BRANCH  15  16
ATOM     16  C   UNL     1      10.455   4.607  51.187  1.00  0.00     0.079 C 
BRANCH  16  17
ATOM     17  C   UNL     1      10.946   4.457  49.772  1.00  0.00     0.130 C 
ATOM     18  O   UNL     1      12.134   4.256  49.565  1.00  0.00    -0.300 OA
ATOM     19  C   UNL     1      10.006   4.535  48.605  1.00  0.00     0.087 C 
ENDBRANCH  16  17
ENDBRANCH  15  16
ENDBRANCH  13  15
ENDBRANCH  11  12
ENDBRANCH   1  11
TORSDOF 9
ENDMDL
MODEL 3
REMARK VINA RESULT:    -5.321     13.156     15.049
REMARK INTER + INTRA:          -9.498
REMARK INTER:                  -6.764
REMARK INTRA:                  -2.734
REMARK UNBOUND:                -1.378
REMARK SMILES CC(=O)CCC=C(C)CCC=C(C)CCC=C(C)C
REMARK SMILES IDX 10 1 11 2 12 3 13 4 14 5 15 6 16 7 18 8 17 9 19 10 9 11 7 12
REMARK SMILES IDX 6 13 8 14 5 15 4 16 2 17 3 18 1 19
REMARK H PARENT
REMARK Flexibility Score: inf
ROOT
ATOM      1  C   UNL     1       7.785  -5.662  47.738  1.00  0.00     0.032 C 
ENDROOT
BRANCH   1   2
ATOM      2  C   UNL     1       8.670  -4.962  48.741  1.00  0.00    -0.028 C 
ATOM      3  C   UNL     1       9.307  -3.788  48.529  1.00  0.00    -0.077 C 
ATOM      4  C   UNL     1      10.120  -3.204  49.655  1.00  0.00     0.039 C 
BRANCH   3   5
ATOM      5  C   UNL     1       9.292  -3.071  47.194  1.00  0.00     0.034 C 
BRANCH   5   6
ATOM      6  C   UNL     1       8.220  -1.976  47.181  1.00  0.00     0.032 C 
BRANCH   6   7
ATOM      7  C   UNL     1       7.021  -2.393  46.363  1.00  0.00    -0.028 C 
ATOM      8  C   UNL     1       4.874  -2.065  45.210  1.00  0.00     0.039 C 
ATOM      9  C   UNL     1       6.026  -1.544  46.030  1.00  0.00    -0.080 C 
ATOM     10  C   UNL     1       6.045  -0.096  46.460  1.00  0.00     0.039 C 
ENDBRANCH   6   7
ENDBRANCH   5   6
ENDBRANCH   3   5
ENDBRANCH   1   2
BRANCH   1  11
ATOM     11  C   UNL     1       6.430  -6.051  48.348  1.00  0.00     0.034 C 
BRANCH  11  12
ATOM     12  C   UNL     1       5.258  -5.537  47.529  1.00  0.00    -0.077 C 
ATOM     13  C   UNL     1       4.356  -4.641  47.999  1.00  0.00    -0.028 C 
ATOM     14  C   UNL     1       5.078  -6.049  46.123  1.00  0.00     0.039 C 
BRANCH  13  15
ATOM     15  C   UNL     1       4.376  -4.003  49.367  1.00  0.00     0.035 C 
BRANCH  15  16
ATOM     16  C   UNL     1       5.167  -2.692  49.325  1.00  0.00     0.079 C 
BRANCH  16  17
ATOM     17  C   UNL     1       6.141  -2.618  50.470  1.00  0.00     0.130 C 
ATOM     18  O   UNL     1       7.025  -1.774  50.455  1.00  0.00    -0.300 OA
ATOM     19  C   UNL     1       6.044  -3.551  51.642  1.00  0.00     0.087 C 
ENDBRANCH  16  17
ENDBRANCH  15  16
ENDBRANCH  13  15
ENDBRANCH  11  12
ENDBRANCH   1  11
TORSDOF 9
ENDMDL
MODEL 4
REMARK VINA RESULT:    -5.204      8.177     10.573
REMARK INTER + INTRA:          -9.320
REMARK INTER:                  -6.794
REMARK INTRA:                  -2.526
REMARK UNBOUND:                -1.378
REMARK SMILES CC(=O)CCC=C(C)CCC=C(C)CCC=C(C)C
REMARK SMILES IDX 10 1 11 2 12 3 13 4 14 5 15 6 16 7 18 8 17 9 19 10 9 11 7 12
REMARK SMILES IDX 6 13 8 14 5 15 4 16 2 17 3 18 1 19
REMARK H PARENT
REMARK Flexibility Score: inf
ROOT
ATOM      1  C   UNL     1       9.234   4.890  48.689  1.00  0.00     0.032 C 
ENDROOT
BRANCH   1   2
ATOM      2  C   UNL     1       8.600   5.948  47.818  1.00  0.00    -0.028 C 
ATOM      3  C   UNL     1       9.225   7.061  47.370  1.00  0.00    -0.077 C 
ATOM      4  C   UNL     1       8.458   7.997  46.472  1.00  0.00     0.039 C 
BRANCH   3   5
ATOM      5  C   UNL     1      10.633   7.440  47.783  1.00  0.00     0.034 C 
BRANCH   5   6
ATOM      6  C   UNL     1      10.622   8.715  48.634  1.00  0.00     0.032 C 
BRANCH   6   7
ATOM      7  C   UNL     1      10.208   8.421  50.055  1.00  0.00    -0.028 C 
ATOM      8  C   UNL     1       8.745   8.532  52.029  1.00  0.00     0.039 C 
ATOM      9  C   UNL     1       9.063   8.886  50.600  1.00  0.00    -0.080 C 
ATOM     10  C   UNL     1       8.106   9.747  49.810  1.00  0.00     0.039 C 
ENDBRANCH   6   7
ENDBRANCH   5   6
ENDBRANCH   3   5
ENDBRANCH   1   2
BRANCH   1  11
ATOM     11  C   UNL     1       8.929   5.121  50.177  1.00  0.00     0.034 C 
BRANCH  11  12
ATOM     12  C   UNL     1      10.108   4.772  51.069  1.00  0.00    -0.077 C 
ATOM     13  C   UNL     1      10.033   4.728  52.421  1.00  0.00    -0.028 C 
ATOM     14  C   UNL     1      11.437   4.465  50.425  1.00  0.00     0.039 C 
BRANCH  13  15
ATOM     15  C   UNL     1       8.795   4.986  53.245  1.00  0.00     0.035 C 
BRANCH  15  16
ATOM     16  C   UNL     1       8.226   3.665  53.769  1.00  0.00     0.079 C 
BRANCH  16  17
ATOM     17  C   UNL     1       6.803   3.477  53.313  1.00  0.00     0.130 C 
ATOM     18  O   UNL     1       6.269   2.385  53.442  1.00  0.00    -0.300 OA
ATOM     19  C   UNL     1       6.018   4.606  52.714  1.00  0.00     0.087 C 
ENDBRANCH  16  17
ENDBRANCH  15  16
ENDBRANCH  13  15
ENDBRANCH  11  12
ENDBRANCH   1  11
TORSDOF 9
ENDMDL
MODEL 5
REMARK VINA RESULT:    -5.184      3.462      7.601
REMARK INTER + INTRA:          -9.289
REMARK INTER:                  -7.245
REMARK INTRA:                  -2.044
REMARK UNBOUND:                -1.378
REMARK SMILES CC(=O)CCC=C(C)CCC=C(C)CCC=C(C)C
REMARK SMILES IDX 10 1 11 2 12 3 13 4 14 5 15 6 16 7 18 8 17 9 19 10 9 11 7 12
REMARK SMILES IDX 6 13 8 14 5 15 4 16 2 17 3 18 1 19
REMARK H PARENT
REMARK Flexibility Score: inf
ROOT
ATOM      1  C   UNL     1       6.997  13.500  47.002  1.00  0.00     0.032 C 
ENDROOT
BRANCH   1   2
ATOM      2  C   UNL     1       6.517  12.828  48.267  1.00  0.00    -0.028 C 
ATOM      3  C   UNL     1       5.325  12.206  48.410  1.00  0.00    -0.077 C 
ATOM      4  C   UNL     1       5.018  11.548  49.731  1.00  0.00     0.039 C 
BRANCH   3   5
ATOM      5  C   UNL     1       4.263  12.196  47.329  1.00  0.00     0.034 C 
BRANCH   5   6
ATOM      6  C   UNL     1       3.781  10.767  47.058  1.00  0.00     0.032 C 
BRANCH   6   7
ATOM      7  C   UNL     1       2.295  10.732  46.791  1.00  0.00    -0.028 C 
ATOM      8  C   UNL     1      -0.076  10.438  47.371  1.00  0.00     0.039 C 
ATOM      9  C   UNL     1       1.383  10.446  47.744  1.00  0.00    -0.080 C 
ATOM     10  C   UNL     1       1.794  10.137  49.165  1.00  0.00     0.039 C 
ENDBRANCH   6   7
ENDBRANCH   5   6
ENDBRANCH   3   5
ENDBRANCH   1   2
BRANCH   1  11
ATOM     11  C   UNL     1       8.039  12.644  46.265  1.00  0.00     0.034 C 
BRANCH  11  12
ATOM     12  C   UNL     1       7.402  11.685  45.273  1.00  0.00    -0.077 C 
ATOM     13  C   UNL     1       7.202  10.370  45.531  1.00  0.00    -0.028 C 
ATOM     14  C   UNL     1       6.975  12.214  43.928  1.00  0.00     0.039 C 
BRANCH  13  15
ATOM     15  C   UNL     1       7.544   9.661  46.820  1.00  0.00     0.035 C 
BRANCH  15  16
ATOM     16  C   UNL     1       8.984   9.142  46.769  1.00  0.00     0.079 C 
BRANCH  16  17
ATOM     17  C   UNL     1       9.072   7.891  45.935  1.00  0.00     0.130 C 
ATOM     18  O   UNL     1       8.281   6.981  46.131  1.00  0.00    -0.300 OA
ATOM     19  C   UNL     1      10.104   7.742  44.855  1.00  0.00     0.087 C 
ENDBRANCH  16  17
ENDBRANCH  15  16
ENDBRANCH  13  15
ENDBRANCH  11  12
ENDBRANCH   1  11
TORSDOF 9
ENDMDL
MODEL 6
REMARK VINA RESULT:    -5.130      3.909      6.784
REMARK INTER + INTRA:          -9.208
REMARK INTER:                  -7.032
REMARK INTRA:                  -2.176
REMARK UNBOUND:                -1.378
REMARK SMILES CC(=O)CCC=C(C)CCC=C(C)CCC=C(C)C
REMARK SMILES IDX 10 1 11 2 12 3 13 4 14 5 15 6 16 7 18 8 17 9 19 10 9 11 7 12
REMARK SMILES IDX 6 13 8 14 5 15 4 16 2 17 3 18 1 19
REMARK H PARENT
REMARK Flexibility Score: inf
ROOT
ATOM      1  C   UNL     1       7.372  13.581  48.171  1.00  0.00     0.032 C 
ENDROOT
BRANCH   1   2
ATOM      2  C   UNL     1       7.232  13.862  46.694  1.00  0.00    -0.028 C 
ATOM      3  C   UNL     1       7.855  13.172  45.711  1.00  0.00    -0.077 C 
ATOM      4  C   UNL     1       7.572  13.556  44.281  1.00  0.00     0.039 C 
BRANCH   3   5
ATOM      5  C   UNL     1       8.869  12.079  45.984  1.00  0.00     0.034 C 
BRANCH   5   6
ATOM      6  C   UNL     1       8.709  10.931  44.981  1.00  0.00     0.032 C 
BRANCH   6   7
ATOM      7  C   UNL     1       8.271   9.661  45.668  1.00  0.00    -0.028 C 
ATOM      8  C   UNL     1       8.489   7.326  46.408  1.00  0.00     0.039 C 
ATOM      9  C   UNL     1       9.022   8.540  45.692  1.00  0.00    -0.080 C 
ATOM     10  C   UNL     1      10.374   8.481  45.022  1.00  0.00     0.039 C 
ENDBRANCH   6   7
ENDBRANCH   5   6
ENDBRANCH   3   5
ENDBRANCH   1   2
BRANCH   1  11
ATOM     11  C   UNL     1       6.140  12.853  48.731  1.00  0.00     0.034 C 
BRANCH  11  12
ATOM     12  C   UNL     1       6.161  11.365  48.427  1.00  0.00    -0.077 C 
ATOM     13  C   UNL     1       5.275  10.759  47.601  1.00  0.00    -0.028 C 
ATOM     14  C   UNL     1       7.216  10.508  49.081  1.00  0.00     0.039 C 
BRANCH  13  15
ATOM     15  C   UNL     1       4.163  11.445  46.844  1.00  0.00     0.035 C 
BRANCH  15  16
ATOM     16  C   UNL     1       2.856  10.663  47.003  1.00  0.00     0.079 C 
BRANCH  16  17
ATOM     17  C   UNL     1       2.189  10.995  48.312  1.00  0.00     0.130 C 
ATOM     18  O   UNL     1       1.422  10.190  48.817  1.00  0.00    -0.300 OA
ATOM     19  C   UNL     1       2.458  12.291  49.020  1.00  0.00     0.087 C 
ENDBRANCH  16  17
ENDBRANCH  15  16
ENDBRANCH  13  15
ENDBRANCH  11  12
ENDBRANCH   1  11
TORSDOF 9
ENDMDL
MODEL 7
REMARK VINA RESULT:    -5.099      3.919      8.007
REMARK INTER + INTRA:          -9.159
REMARK INTER:                  -6.655
REMARK INTRA:                  -2.504
REMARK UNBOUND:                -1.378
REMARK SMILES CC(=O)CCC=C(C)CCC=C(C)CCC=C(C)C
REMARK SMILES IDX 10 1 11 2 12 3 13 4 14 5 15 6 16 7 18 8 17 9 19 10 9 11 7 12
REMARK SMILES IDX 6 13 8 14 5 15 4 16 2 17 3 18 1 19
REMARK H PARENT
REMARK Flexibility Score: inf
ROOT
ATOM      1  C   UNL     1       7.085  13.654  46.726  1.00  0.00     0.032 C 
ENDROOT
BRANCH   1   2
ATOM      2  C   UNL     1       6.486  13.305  48.067  1.00  0.00    -0.028 C 
ATOM      3  C   UNL     1       5.291  12.699  48.250  1.00  0.00    -0.077 C 
ATOM      4  C   UNL     1       4.860  12.382  49.659  1.00  0.00     0.039 C 
BRANCH   3   5
ATOM      5  C   UNL     1       4.342  12.383  47.111  1.00  0.00     0.034 C 
BRANCH   5   6
ATOM      6  C   UNL     1       3.920  10.911  47.152  1.00  0.00     0.032 C 
BRANCH   6   7
ATOM      7  C   UNL     1       2.428  10.764  46.970  1.00  0.00    -0.028 C 
ATOM      8  C   UNL     1       0.112  10.374  47.699  1.00  0.00     0.039 C 
ATOM      9  C   UNL     1       1.585  10.500  47.990  1.00  0.00    -0.080 C 
ATOM     10  C   UNL     1       2.085  10.331  49.406  1.00  0.00     0.039 C 
ENDBRANCH   6   7
ENDBRANCH   5   6
ENDBRANCH   3   5
ENDBRANCH   1   2
BRANCH   1  11
ATOM     11  C   UNL     1       8.129  12.618  46.282  1.00  0.00     0.034 C 
BRANCH  11  12
ATOM     12  C   UNL     1       7.513  11.482  45.484  1.00  0.00    -0.077 C 
ATOM     13  C   UNL     1       7.616  10.179  45.839  1.00  0.00    -0.028 C 
ATOM     14  C   UNL     1       6.751  11.812  44.225  1.00  0.00     0.039 C 
BRANCH  13  15
ATOM     15  C   UNL     1       8.319   9.652  47.067  1.00  0.00     0.035 C 
BRANCH  15  16
ATOM     16  C   UNL     1       7.398   9.753  48.287  1.00  0.00     0.079 C 
BRANCH  16  17
ATOM     17  C   UNL     1       8.169  10.188  49.505  1.00  0.00     0.130 C 
ATOM     18  O   UNL     1       7.859   9.747  50.602  1.00  0.00    -0.300 OA
ATOM     19  C   UNL     1       9.322  11.142  49.402  1.00  0.00     0.087 C 
ENDBRANCH  16  17
ENDBRANCH  15  16
ENDBRANCH  13  15
ENDBRANCH  11  12
ENDBRANCH   1  11
TORSDOF 9
ENDMDL
MODEL 8
REMARK VINA RESULT:    -5.091      3.120      6.465
REMARK INTER + INTRA:          -9.147
REMARK INTER:                  -7.245
REMARK INTRA:                  -1.902
REMARK UNBOUND:                -1.378
REMARK SMILES CC(=O)CCC=C(C)CCC=C(C)CCC=C(C)C
REMARK SMILES IDX 10 1 11 2 12 3 13 4 14 5 15 6 16 7 18 8 17 9 19 10 9 11 7 12
REMARK SMILES IDX 6 13 8 14 5 15 4 16 2 17 3 18 1 19
REMARK H PARENT
REMARK Flexibility Score: inf
ROOT
ATOM      1  C   UNL     1       6.416  10.325  46.264  1.00  0.00     0.032 C 
ENDROOT
BRANCH   1   2
ATOM      2  C   UNL     1       7.097  11.213  45.250  1.00  0.00    -0.028 C 
ATOM      3  C   UNL     1       8.387  11.614  45.313  1.00  0.00    -0.077 C 
ATOM      4  C   UNL     1       8.925  12.467  44.193  1.00  0.00     0.039 C 
BRANCH   3   5
ATOM      5  C   UNL     1       9.294  11.299  46.486  1.00  0.00     0.034 C 
BRANCH   5   6
ATOM      6  C   UNL     1      10.113  10.033  46.212  1.00  0.00     0.032 C 
BRANCH   6   7
ATOM      7  C   UNL     1       9.739   8.923  47.163  1.00  0.00    -0.028 C 
ATOM      8  C   UNL     1       8.802   6.740  47.798  1.00  0.00     0.039 C 
ATOM      9  C   UNL     1       9.131   7.785  46.765  1.00  0.00    -0.080 C 
ATOM     10  C   UNL     1       8.777   7.544  45.316  1.00  0.00     0.039 C 
ENDBRANCH   6   7
ENDBRANCH   5   6
ENDBRANCH   3   5
ENDBRANCH   1   2
BRANCH   1  11
ATOM     11  C   UNL     1       5.340  11.087  47.054  1.00  0.00     0.034 C 
BRANCH  11  12
ATOM     12  C   UNL     1       5.574  11.027  48.554  1.00  0.00    -0.077 C 
ATOM     13  C   UNL     1       4.634  11.365  49.470  1.00  0.00    -0.028 C 
ATOM     14  C   UNL     1       6.921  10.576  49.059  1.00  0.00     0.039 C 
BRANCH  13  15
ATOM     15  C   UNL     1       3.228  11.821  49.164  1.00  0.00     0.035 C 
BRANCH  15  16
ATOM     16  C   UNL     1       2.250  10.652  49.311  1.00  0.00     0.079 C 
BRANCH  16  17
ATOM     17  C   UNL     1       1.684  10.255  47.973  1.00  0.00     0.130 C 
ATOM     18  O   UNL     1       1.795  11.017  47.024  1.00  0.00    -0.300 OA
ATOM     19  C   UNL     1       0.998   8.936  47.773  1.00  0.00     0.087 C 
ENDBRANCH  16  17
ENDBRANCH  15  16
ENDBRANCH  13  15
ENDBRANCH  11  12
ENDBRANCH   1  11
TORSDOF 9
ENDMDL
MODEL 9
REMARK VINA RESULT:    -5.054      8.982     12.087
REMARK INTER + INTRA:          -9.091
REMARK INTER:                  -6.617
REMARK INTRA:                  -2.474
REMARK UNBOUND:                -1.378
REMARK SMILES CC(=O)CCC=C(C)CCC=C(C)CCC=C(C)C
REMARK SMILES IDX 10 1 11 2 12 3 13 4 14 5 15 6 16 7 18 8 17 9 19 10 9 11 7 12
REMARK SMILES IDX 6 13 8 14 5 15 4 16 2 17 3 18 1 19
REMARK H PARENT
REMARK Flexibility Score: inf
ROOT
ATOM      1  C   UNL     1       8.051   4.012  53.873  1.00  0.00     0.032 C 
ENDROOT
BRANCH   1   2
ATOM      2  C   UNL     1       8.208   2.522  54.059  1.00  0.00    -0.028 C 
ATOM      3  C   UNL     1       8.920   1.934  55.047  1.00  0.00    -0.077 C 
ATOM      4  C   UNL     1       8.940   0.429  55.114  1.00  0.00     0.039 C 
BRANCH   3   5
ATOM      5  C   UNL     1       9.749   2.717  56.046  1.00  0.00     0.034 C 
BRANCH   5   6
ATOM      6  C   UNL     1      11.230   2.699  55.651  1.00  0.00     0.032 C 
BRANCH   6   7
ATOM      7  C   UNL     1      11.673   4.044  55.128  1.00  0.00    -0.028 C 
ATOM      8  C   UNL     1      12.307   5.676  53.401  1.00  0.00     0.039 C 
ATOM      9  C   UNL     1      11.864   4.297  53.816  1.00  0.00    -0.080 C 
ATOM     10  C   UNL     1      11.643   3.233  52.766  1.00  0.00     0.039 C 
ENDBRANCH   6   7
ENDBRANCH   5   6
ENDBRANCH   3   5
ENDBRANCH   1   2
BRANCH   1  11
ATOM     11  C   UNL     1       8.021   4.400  52.386  1.00  0.00     0.034 C 
BRANCH  11  12
ATOM     12  C   UNL     1       8.781   5.685  52.108  1.00  0.00    -0.077 C 
ATOM     13  C   UNL     1       9.559   5.871  51.015  1.00  0.00    -0.028 C 
ATOM     14  C   UNL     1       8.676   6.816  53.100  1.00  0.00     0.039 C 
BRANCH  13  15
ATOM     15  C   UNL     1       9.775   4.869  49.906  1.00  0.00     0.035 C 
BRANCH  15  16
ATOM     16  C   UNL     1       8.914   5.232  48.692  1.00  0.00     0.079 C 
BRANCH  16  17
ATOM     17  C   UNL     1       9.485   6.422  47.968  1.00  0.00     0.130 C 
ATOM     18  O   UNL     1      10.604   6.351  47.482  1.00  0.00    -0.300 OA
ATOM     19  C   UNL     1       8.704   7.695  47.816  1.00  0.00     0.087 C 
ENDBRANCH  16  17
ENDBRANCH  15  16
ENDBRANCH  13  15
ENDBRANCH  11  12
ENDBRANCH   1  11
TORSDOF 9
ENDMDL
