MODEL 1
REMARK VINA RESULT:    -4.324      0.000      0.000
REMARK INTER + INTRA:          -4.928
REMARK INTER:                  -4.703
REMARK INTRA:                  -0.226
REMARK UNBOUND:                -0.226
REMARK SMILES O=C([O-])c1ccccc1O
REMARK SMILES IDX 4 1 9 2 5 3 8 4 6 5 7 6 2 7 1 8 3 9 10 10
REMARK H PARENT 10 11
REMARK Flexibility Score: inf
ROOT
ATOM      1  C   UNL     1      31.054  20.618  70.622  1.00  0.00     0.039 A 
ATOM      2  C   UNL     1      31.810  21.811  70.756  1.00  0.00     0.124 A 
ATOM      3  C   UNL     1      29.681  20.714  70.328  1.00  0.00     0.014 A 
ATOM      4  C   UNL     1      31.196  23.050  70.533  1.00  0.00     0.047 A 
ATOM      5  C   UNL     1      29.079  21.958  70.130  1.00  0.00     0.001 A 
ATOM      6  C   UNL     1      29.838  23.125  70.222  1.00  0.00     0.004 A 
ENDROOT
BRANCH   1   7
ATOM      7  C   UNL     1      31.651  19.270  70.746  1.00  0.00     0.075 C 
ATOM      8  O   UNL     1      30.935  18.265  70.992  1.00  0.00    -0.545 OA
ATOM      9  O   UNL     1      33.030  19.111  70.656  1.00  0.00    -0.545 OA
ENDBRANCH   1   7
BRANCH   2  10
ATOM     10  O   UNL     1      33.153  21.814  71.139  1.00  0.00    -0.507 OA
ATOM     11  H   UNL     1      33.828  21.133  70.817  1.00  0.00     0.293 HD
ENDBRANCH   2  10
TORSDOF 2
ENDMDL
MODEL 2
REMARK VINA RESULT:    -4.025     10.988     12.134
REMARK INTER + INTRA:          -4.604
REMARK INTER:                  -4.526
REMARK INTRA:                  -0.078
REMARK UNBOUND:                -0.226
REMARK SMILES O=C([O-])c1ccccc1O
REMARK SMILES IDX 4 1 9 2 5 3 8 4 6 5 7 6 2 7 1 8 3 9 10 10
REMARK H PARENT 10 11
REMARK Flexibility Score: inf
ROOT
ATOM      1  C   UNL     1      28.250  12.454  63.179  1.00  0.00     0.039 A 
ATOM      2  C   UNL     1      27.950  13.312  62.089  1.00  0.00     0.124 A 
ATOM      3  C   UNL     1      27.634  11.190  63.237  1.00  0.00     0.014 A 
ATOM      4  C   UNL     1      27.103  12.864  61.067  1.00  0.00     0.047 A 
ATOM      5  C   UNL     1      26.775  10.767  62.220  1.00  0.00     0.001 A 
ATOM      6  C   UNL     1      26.518  11.599  61.131  1.00  0.00     0.004 A 
ENDROOT
BRANCH   1   7
ATOM      7  C   UNL     1      29.209  12.816  64.246  1.00  0.00     0.075 C 
ATOM      8  O   UNL     1      30.415  12.462  64.178  1.00  0.00    -0.545 OA
ATOM      9  O   UNL     1      28.768  13.499  65.374  1.00  0.00    -0.545 OA
ENDBRANCH   1   7
BRANCH   2  10
ATOM     10  O   UNL     1      28.439  14.617  62.000  1.00  0.00    -0.507 OA
ATOM     11  H   UNL     1      29.202  14.968  62.563  1.00  0.00     0.293 HD
ENDBRANCH   2  10
TORSDOF 2
ENDMDL
MODEL 3
REMARK VINA RESULT:    -3.977     11.689     12.954
REMARK INTER + INTRA:          -4.552
REMARK INTER:                  -4.314
REMARK INTRA:                  -0.237
REMARK UNBOUND:                -0.226
REMARK SMILES O=C([O-])c1ccccc1O
REMARK SMILES IDX 4 1 9 2 5 3 8 4 6 5 7 6 2 7 1 8 3 9 10 10
REMARK H PARENT 10 11
REMARK Flexibility Score: inf
ROOT
ATOM      1  C   UNL     1      28.008  12.616  62.370  1.00  0.00     0.039 A 
ATOM      2  C   UNL     1      27.008  11.876  61.686  1.00  0.00     0.124 A 
ATOM      3  C   UNL     1      28.359  12.236  63.678  1.00  0.00     0.014 A 
ATOM      4  C   UNL     1      26.439  10.751  62.297  1.00  0.00     0.047 A 
ATOM      5  C   UNL     1      27.766  11.124  64.281  1.00  0.00     0.001 A 
ATOM      6  C   UNL     1      26.814  10.376  63.588  1.00  0.00     0.004 A 
ENDROOT
BRANCH   1   7
ATOM      7  C   UNL     1      28.725  13.755  61.755  1.00  0.00     0.075 C 
ATOM      8  O   UNL     1      28.094  14.728  61.266  1.00  0.00    -0.545 OA
ATOM      9  O   UNL     1      30.111  13.729  61.651  1.00  0.00    -0.545 OA
ENDBRANCH   1   7
BRANCH   2  10
ATOM     10  O   UNL     1      26.531  12.239  60.425  1.00  0.00    -0.507 OA
ATOM     11  H   UNL     1      26.571  11.633  59.616  1.00  0.00     0.293 HD
ENDBRANCH   2  10
TORSDOF 2
ENDMDL
MODEL 4
REMARK VINA RESULT:    -3.972     12.497     13.456
REMARK INTER + INTRA:          -4.547
REMARK INTER:                  -4.325
REMARK INTRA:                  -0.221
REMARK UNBOUND:                -0.226
REMARK SMILES O=C([O-])c1ccccc1O
REMARK SMILES IDX 4 1 9 2 5 3 8 4 6 5 7 6 2 7 1 8 3 9 10 10
REMARK H PARENT 10 11
REMARK Flexibility Score: inf
ROOT
ATOM      1  C   UNL     1      29.026  12.748  60.116  1.00  0.00     0.039 A 
ATOM      2  C   UNL     1      30.093  12.935  61.033  1.00  0.00     0.124 A 
ATOM      3  C   UNL     1      27.715  12.637  60.613  1.00  0.00     0.014 A 
ATOM      4  C   UNL     1      29.817  13.069  62.400  1.00  0.00     0.047 A 
ATOM      5  C   UNL     1      27.458  12.753  61.981  1.00  0.00     0.001 A 
ATOM      6  C   UNL     1      28.507  12.978  62.873  1.00  0.00     0.004 A 
ENDROOT
BRANCH   1   7
ATOM      7  C   UNL     1      29.228  12.695  58.651  1.00  0.00     0.075 C 
ATOM      8  O   UNL     1      30.324  13.037  58.136  1.00  0.00    -0.545 OA
ATOM      9  O   UNL     1      28.177  12.327  57.819  1.00  0.00    -0.545 OA
ENDBRANCH   1   7
BRANCH   2  10
ATOM     10  O   UNL     1      31.433  12.959  60.639  1.00  0.00    -0.507 OA
ATOM     11  H   UNL     1      31.810  13.630  59.983  1.00  0.00     0.293 HD
ENDBRANCH   2  10
TORSDOF 2
ENDMDL
MODEL 5
REMARK VINA RESULT:    -3.962     12.689     13.808
REMARK INTER + INTRA:          -4.535
REMARK INTER:                  -4.322
REMARK INTRA:                  -0.213
REMARK UNBOUND:                -0.226
REMARK SMILES O=C([O-])c1ccccc1O
REMARK SMILES IDX 4 1 9 2 5 3 8 4 6 5 7 6 2 7 1 8 3 9 10 10
REMARK H PARENT 10 11
REMARK Flexibility Score: inf
ROOT
ATOM      1  C   UNL     1      28.951  12.764  60.141  1.00  0.00     0.039 A 
ATOM      2  C   UNL     1      27.623  12.484  60.556  1.00  0.00     0.124 A 
ATOM      3  C   UNL     1      29.906  13.117  61.113  1.00  0.00     0.014 A 
ATOM      4  C   UNL     1      27.304  12.502  61.920  1.00  0.00     0.047 A 
ATOM      5  C   UNL     1      29.566  13.151  62.467  1.00  0.00     0.001 A 
ATOM      6  C   UNL     1      28.269  12.835  62.871  1.00  0.00     0.004 A 
ENDROOT
BRANCH   1   7
ATOM      7  C   UNL     1      29.389  12.669  58.731  1.00  0.00     0.075 C 
ATOM      8  O   UNL     1      30.610  12.709  58.428  1.00  0.00    -0.545 OA
ATOM      9  O   UNL     1      28.443  12.603  57.714  1.00  0.00    -0.545 OA
ENDBRANCH   1   7
BRANCH   2  10
ATOM     10  O   UNL     1      26.591  12.219  59.653  1.00  0.00    -0.507 OA
ATOM     11  H   UNL     1      26.275  12.880  58.956  1.00  0.00     0.293 HD
ENDBRANCH   2  10
TORSDOF 2
ENDMDL
MODEL 6
REMARK VINA RESULT:    -3.944     11.195     12.456
REMARK INTER + INTRA:          -4.515
REMARK INTER:                  -4.266
REMARK INTRA:                  -0.250
REMARK UNBOUND:                -0.226
REMARK SMILES O=C([O-])c1ccccc1O
REMARK SMILES IDX 4 1 9 2 5 3 8 4 6 5 7 6 2 7 1 8 3 9 10 10
REMARK H PARENT 10 11
REMARK Flexibility Score: inf
ROOT
ATOM      1  C   UNL     1      27.632  12.005  62.768  1.00  0.00     0.039 A 
ATOM      2  C   UNL     1      28.573  12.989  63.167  1.00  0.00     0.124 A 
ATOM      3  C   UNL     1      27.309  10.970  63.665  1.00  0.00     0.014 A 
ATOM      4  C   UNL     1      29.112  12.949  64.460  1.00  0.00     0.047 A 
ATOM      5  C   UNL     1      27.870  10.933  64.943  1.00  0.00     0.001 A 
ATOM      6  C   UNL     1      28.764  11.926  65.344  1.00  0.00     0.004 A 
ENDROOT
BRANCH   1   7
ATOM      7  C   UNL     1      26.947  12.035  61.457  1.00  0.00     0.075 C 
ATOM      8  O   UNL     1      26.615  13.127  60.925  1.00  0.00    -0.545 OA
ATOM      9  O   UNL     1      26.601  10.845  60.826  1.00  0.00    -0.545 OA
ENDBRANCH   1   7
BRANCH   2  10
ATOM     10  O   UNL     1      29.024  13.994  62.309  1.00  0.00    -0.507 OA
ATOM     11  H   UNL     1      28.560  14.886  62.202  1.00  0.00     0.293 HD
ENDBRANCH   2  10
TORSDOF 2
ENDMDL
MODEL 7
REMARK VINA RESULT:    -3.882     12.813     13.938
REMARK INTER + INTRA:          -4.448
REMARK INTER:                  -4.200
REMARK INTRA:                  -0.248
REMARK UNBOUND:                -0.226
REMARK SMILES O=C([O-])c1ccccc1O
REMARK SMILES IDX 4 1 9 2 5 3 8 4 6 5 7 6 2 7 1 8 3 9 10 10
REMARK H PARENT 10 11
REMARK Flexibility Score: inf
ROOT
ATOM      1  C   UNL     1      28.487  12.618  59.935  1.00  0.00     0.039 A 
ATOM      2  C   UNL     1      27.612  12.896  61.018  1.00  0.00     0.124 A 
ATOM      3  C   UNL     1      29.876  12.678  60.151  1.00  0.00     0.014 A 
ATOM      4  C   UNL     1      28.143  13.160  62.287  1.00  0.00     0.047 A 
ATOM      5  C   UNL     1      30.389  12.964  61.418  1.00  0.00     0.001 A 
ATOM      6  C   UNL     1      29.524  13.195  62.487  1.00  0.00     0.004 A 
ENDROOT
BRANCH   1   7
ATOM      7  C   UNL     1      28.002  12.235  58.590  1.00  0.00     0.075 C 
ATOM      8  O   UNL     1      28.626  12.585  57.554  1.00  0.00    -0.545 OA
ATOM      9  O   UNL     1      26.807  11.538  58.455  1.00  0.00    -0.545 OA
ENDBRANCH   1   7
BRANCH   2  10
ATOM     10  O   UNL     1      26.225  12.953  60.872  1.00  0.00    -0.507 OA
ATOM     11  H   UNL     1      25.705  13.818  60.806  1.00  0.00     0.293 HD
ENDBRANCH   2  10
TORSDOF 2
ENDMDL
MODEL 8
REMARK VINA RESULT:    -3.785     11.597     12.791
REMARK INTER + INTRA:          -4.342
REMARK INTER:                  -4.091
REMARK INTRA:                  -0.252
REMARK UNBOUND:                -0.226
REMARK SMILES O=C([O-])c1ccccc1O
REMARK SMILES IDX 4 1 9 2 5 3 8 4 6 5 7 6 2 7 1 8 3 9 10 10
REMARK H PARENT 10 11
REMARK Flexibility Score: inf
ROOT
ATOM      1  C   UNL     1      27.906  12.391  61.984  1.00  0.00     0.039 A 
ATOM      2  C   UNL     1      28.281  12.421  63.352  1.00  0.00     0.124 A 
ATOM      3  C   UNL     1      27.044  11.372  61.538  1.00  0.00     0.014 A 
ATOM      4  C   UNL     1      27.740  11.481  64.240  1.00  0.00     0.047 A 
ATOM      5  C   UNL     1      26.530  10.430  62.432  1.00  0.00     0.001 A 
ATOM      6  C   UNL     1      26.870  10.490  63.783  1.00  0.00     0.004 A 
ENDROOT
BRANCH   1   7
ATOM      7  C   UNL     1      28.357  13.406  61.006  1.00  0.00     0.075 C 
ATOM      8  O   UNL     1      28.765  13.067  59.864  1.00  0.00    -0.545 OA
ATOM      9  O   UNL     1      28.397  14.748  61.366  1.00  0.00    -0.545 OA
ENDBRANCH   1   7
BRANCH   2  10
ATOM     10  O   UNL     1      29.204  13.336  63.862  1.00  0.00    -0.507 OA
ATOM     11  H   UNL     1      29.204  13.654  64.822  1.00  0.00     0.293 HD
ENDBRANCH   2  10
TORSDOF 2
ENDMDL
MODEL 9
REMARK VINA RESULT:    -3.708     12.044     13.235
REMARK INTER + INTRA:          -4.259
REMARK INTER:                  -4.015
REMARK INTRA:                  -0.245
REMARK UNBOUND:                -0.226
REMARK SMILES O=C([O-])c1ccccc1O
REMARK SMILES IDX 4 1 9 2 5 3 8 4 6 5 7 6 2 7 1 8 3 9 10 10
REMARK H PARENT 10 11
REMARK Flexibility Score: inf
ROOT
ATOM      1  C   UNL     1      27.259  11.390  62.650  1.00  0.00     0.039 A 
ATOM      2  C   UNL     1      27.109  12.155  61.463  1.00  0.00     0.124 A 
ATOM      3  C   UNL     1      28.203  11.803  63.608  1.00  0.00     0.014 A 
ATOM      4  C   UNL     1      27.850  13.332  61.298  1.00  0.00     0.047 A 
ATOM      5  C   UNL     1      28.950  12.968  63.419  1.00  0.00     0.001 A 
ATOM      6  C   UNL     1      28.766  13.737  62.269  1.00  0.00     0.004 A 
ENDROOT
BRANCH   1   7
ATOM      7  C   UNL     1      26.443  10.191  62.941  1.00  0.00     0.075 C 
ATOM      8  O   UNL     1      26.088   9.411  62.019  1.00  0.00    -0.545 OA
ATOM      9  O   UNL     1      26.002   9.949  64.237  1.00  0.00    -0.545 OA
ENDBRANCH   1   7
BRANCH   2  10
ATOM     10  O   UNL     1      26.267  11.768  60.418  1.00  0.00    -0.507 OA
ATOM     11  H   UNL     1      25.431  12.273  60.157  1.00  0.00     0.293 HD
ENDBRANCH   2  10
TORSDOF 2
ENDMDL
