MODEL 1
REMARK VINA RESULT:    -5.856      0.000      0.000
REMARK INTER + INTRA:          -9.453
REMARK INTER:                  -9.280
REMARK INTRA:                  -0.173
REMARK UNBOUND:                -0.173
REMARK SMILES CCCCCCCCCCCC(=O)[O-]
REMARK SMILES IDX 7 1 8 2 9 3 10 4 11 5 12 6 13 7 14 8 6 9 5 10 4 11 3 12 2 13
REMARK SMILES IDX 1 14
REMARK H PARENT
REMARK Flexibility Score: inf
ROOT
ATOM      1  C   UNL     1     -22.994 -31.606  23.193  1.00  0.00     0.000 C 
ENDROOT
BRANCH   1   2
ATOM      2  C   UNL     1     -23.458 -31.721  24.655  1.00  0.00     0.000 C 
BRANCH   2   3
ATOM      3  C   UNL     1     -24.963 -32.001  24.779  1.00  0.00     0.000 C 
BRANCH   3   4
ATOM      4  C   UNL     1     -25.241 -33.016  25.899  1.00  0.00     0.006 C 
BRANCH   4   5
ATOM      5  C   UNL     1     -26.618 -32.809  26.543  1.00  0.00     0.053 C 
BRANCH   5   6
ATOM      6  C   UNL     1     -27.664 -32.473  25.524  1.00  0.00     0.041 C 
ATOM      7  O   UNL     1     -28.325 -31.405  25.624  1.00  0.00    -0.550 OA
ATOM      8  O   UNL     1     -27.887 -33.322  24.448  1.00  0.00    -0.550 OA
ENDBRANCH   5   6
ENDBRANCH   4   5
ENDBRANCH   3   4
ENDBRANCH   2   3
ENDBRANCH   1   2
BRANCH   1   9
ATOM      9  C   UNL     1     -21.561 -32.128  22.986  1.00  0.00     0.000 C 
BRANCH   9  10
ATOM     10  C   UNL     1     -20.505 -31.236  23.660  1.00  0.00    -0.000 C 
BRANCH  10  11
ATOM     11  C   UNL     1     -19.068 -31.643  23.300  1.00  0.00    -0.000 C 
BRANCH  11  12
ATOM     12  C   UNL     1     -18.055 -30.649  23.880  1.00  0.00    -0.000 C 
BRANCH  12  13
ATOM     13  C   UNL     1     -16.617 -31.090  23.582  1.00  0.00    -0.003 C 
ATOM     14  C   UNL     1     -16.139 -30.541  22.240  1.00  0.00     0.004 C 
ENDBRANCH  12  13
ENDBRANCH  11  12
ENDBRANCH  10  11
ENDBRANCH   9  10
ENDBRANCH   1   9
TORSDOF 10
ENDMDL
MODEL 2
REMARK VINA RESULT:    -5.699      1.542      1.891
REMARK INTER + INTRA:          -9.204
REMARK INTER:                  -8.723
REMARK INTRA:                  -0.481
REMARK UNBOUND:                -0.173
REMARK SMILES CCCCCCCCCCCC(=O)[O-]
REMARK SMILES IDX 7 1 8 2 9 3 10 4 11 5 12 6 13 7 14 8 6 9 5 10 4 11 3 12 2 13
REMARK SMILES IDX 1 14
REMARK H PARENT
REMARK Flexibility Score: inf
ROOT
ATOM      1  C   UNL     1     -22.203 -31.835  23.607  1.00  0.00     0.000 C 
ENDROOT
BRANCH   1   2
ATOM      2  C   UNL     1     -22.897 -31.057  24.737  1.00  0.00     0.000 C 
BRANCH   2   3
ATOM      3  C   UNL     1     -24.280 -31.626  25.088  1.00  0.00     0.000 C 
BRANCH   3   4
ATOM      4  C   UNL     1     -25.146 -31.777  23.828  1.00  0.00     0.006 C 
BRANCH   4   5
ATOM      5  C   UNL     1     -26.392 -32.637  24.079  1.00  0.00     0.053 C 
BRANCH   5   6
ATOM      6  C   UNL     1     -27.303 -32.655  22.889  1.00  0.00     0.041 C 
ATOM      7  O   UNL     1     -28.252 -33.482  22.831  1.00  0.00    -0.550 OA
ATOM      8  O   UNL     1     -27.124 -31.739  21.860  1.00  0.00    -0.550 OA
ENDBRANCH   5   6
ENDBRANCH   4   5
ENDBRANCH   3   4
ENDBRANCH   2   3
ENDBRANCH   1   2
BRANCH   1   9
ATOM      9  C   UNL     1     -20.788 -31.310  23.311  1.00  0.00     0.000 C 
BRANCH   9  10
ATOM     10  C   UNL     1     -20.312 -30.278  24.347  1.00  0.00    -0.000 C 
BRANCH  10  11
ATOM     11  C   UNL     1     -18.782 -30.222  24.470  1.00  0.00    -0.000 C 
BRANCH  11  12
ATOM     12  C   UNL     1     -18.120 -31.241  23.534  1.00  0.00    -0.000 C 
BRANCH  12  13
ATOM     13  C   UNL     1     -16.595 -31.081  23.536  1.00  0.00    -0.003 C 
ATOM     14  C   UNL     1     -16.094 -30.557  22.193  1.00  0.00     0.004 C 
ENDBRANCH  12  13
ENDBRANCH  11  12
ENDBRANCH  10  11
ENDBRANCH   9  10
ENDBRANCH   1   9
TORSDOF 10
ENDMDL
MODEL 3
REMARK VINA RESULT:    -5.649      1.825      2.272
REMARK INTER + INTRA:          -9.125
REMARK INTER:                  -8.611
REMARK INTRA:                  -0.513
REMARK UNBOUND:                -0.173
REMARK SMILES CCCCCCCCCCCC(=O)[O-]
REMARK SMILES IDX 7 1 8 2 9 3 10 4 11 5 12 6 13 7 14 8 6 9 5 10 4 11 3 12 2 13
REMARK SMILES IDX 1 14
REMARK H PARENT
REMARK Flexibility Score: inf
ROOT
ATOM      1  C   UNL     1     -22.928 -31.216  24.364  1.00  0.00     0.000 C 
ENDROOT
BRANCH   1   2
ATOM      2  C   UNL     1     -24.039 -32.052  25.021  1.00  0.00     0.000 C 
BRANCH   2   3
ATOM      3  C   UNL     1     -25.447 -31.581  24.630  1.00  0.00     0.000 C 
BRANCH   3   4
ATOM      4  C   UNL     1     -25.468 -31.057  23.186  1.00  0.00     0.006 C 
BRANCH   4   5
ATOM      5  C   UNL     1     -26.213 -32.002  22.234  1.00  0.00     0.053 C 
BRANCH   5   6
ATOM      6  C   UNL     1     -27.681 -31.711  22.197  1.00  0.00     0.041 C 
ATOM      7  O   UNL     1     -28.111 -30.580  22.549  1.00  0.00    -0.550 OA
ATOM      8  O   UNL     1     -28.573 -32.676  21.746  1.00  0.00    -0.550 OA
ENDBRANCH   5   6
ENDBRANCH   4   5
ENDBRANCH   3   4
ENDBRANCH   2   3
ENDBRANCH   1   2
BRANCH   1   9
ATOM      9  C   UNL     1     -22.119 -32.018  23.330  1.00  0.00     0.000 C 
BRANCH   9  10
ATOM     10  C   UNL     1     -20.621 -31.671  23.355  1.00  0.00    -0.000 C 
BRANCH  10  11
ATOM     11  C   UNL     1     -20.307 -30.461  24.247  1.00  0.00    -0.000 C 
BRANCH  11  12
ATOM     12  C   UNL     1     -18.794 -30.228  24.343  1.00  0.00    -0.000 C 
BRANCH  12  13
ATOM     13  C   UNL     1     -18.026 -31.234  23.478  1.00  0.00    -0.003 C 
ATOM     14  C   UNL     1     -16.549 -30.860  23.377  1.00  0.00     0.004 C 
ENDBRANCH  12  13
ENDBRANCH  11  12
ENDBRANCH  10  11
ENDBRANCH   9  10
ENDBRANCH   1   9
TORSDOF 10
ENDMDL
MODEL 4
REMARK VINA RESULT:    -5.568      1.564      2.366
REMARK INTER + INTRA:          -8.996
REMARK INTER:                  -8.386
REMARK INTRA:                  -0.610
REMARK UNBOUND:                -0.173
REMARK SMILES CCCCCCCCCCCC(=O)[O-]
REMARK SMILES IDX 7 1 8 2 9 3 10 4 11 5 12 6 13 7 14 8 6 9 5 10 4 11 3 12 2 13
REMARK SMILES IDX 1 14
REMARK H PARENT
REMARK Flexibility Score: inf
ROOT
ATOM      1  C   UNL     1     -24.375 -31.227  24.935  1.00  0.00     0.000 C 
ENDROOT
BRANCH   1   2
ATOM      2  C   UNL     1     -24.579 -32.640  25.506  1.00  0.00     0.000 C 
BRANCH   2   3
ATOM      3  C   UNL     1     -25.966 -32.831  26.137  1.00  0.00     0.000 C 
BRANCH   3   4
ATOM      4  C   UNL     1     -27.065 -32.261  25.228  1.00  0.00     0.006 C 
BRANCH   4   5
ATOM      5  C   UNL     1     -27.452 -33.230  24.103  1.00  0.00     0.053 C 
BRANCH   5   6
ATOM      6  C   UNL     1     -27.559 -32.533  22.781  1.00  0.00     0.041 C 
ATOM      7  O   UNL     1     -26.876 -31.499  22.554  1.00  0.00    -0.550 OA
ATOM      8  O   UNL     1     -28.389 -33.042  21.790  1.00  0.00    -0.550 OA
ENDBRANCH   5   6
ENDBRANCH   4   5
ENDBRANCH   3   4
ENDBRANCH   2   3
ENDBRANCH   1   2
BRANCH   1   9
ATOM      9  C   UNL     1     -22.891 -30.886  24.718  1.00  0.00     0.000 C 
BRANCH   9  10
ATOM     10  C   UNL     1     -22.267 -31.679  23.558  1.00  0.00    -0.000 C 
BRANCH  10  11
ATOM     11  C   UNL     1     -20.742 -31.513  23.477  1.00  0.00    -0.000 C 
BRANCH  11  12
ATOM     12  C   UNL     1     -20.272 -30.340  24.347  1.00  0.00    -0.000 C 
BRANCH  12  13
ATOM     13  C   UNL     1     -18.743 -30.232  24.345  1.00  0.00    -0.003 C 
ATOM     14  C   UNL     1     -18.118 -31.256  23.401  1.00  0.00     0.004 C 
ENDBRANCH  12  13
ENDBRANCH  11  12
ENDBRANCH  10  11
ENDBRANCH   9  10
ENDBRANCH   1   9
TORSDOF 10
ENDMDL
MODEL 5
REMARK VINA RESULT:    -5.549      1.254      1.929
REMARK INTER + INTRA:          -8.966
REMARK INTER:                  -8.550
REMARK INTRA:                  -0.415
REMARK UNBOUND:                -0.173
REMARK SMILES CCCCCCCCCCCC(=O)[O-]
REMARK SMILES IDX 7 1 8 2 9 3 10 4 11 5 12 6 13 7 14 8 6 9 5 10 4 11 3 12 2 13
REMARK SMILES IDX 1 14
REMARK H PARENT
REMARK Flexibility Score: inf
ROOT
ATOM      1  C   UNL     1     -21.338 -29.882  24.998  1.00  0.00     0.000 C 
ENDROOT
BRANCH   1   2
ATOM      2  C   UNL     1     -22.844 -30.073  24.754  1.00  0.00     0.000 C 
BRANCH   2   3
ATOM      3  C   UNL     1     -23.192 -31.486  24.265  1.00  0.00     0.000 C 
BRANCH   3   4
ATOM      4  C   UNL     1     -24.183 -32.168  25.220  1.00  0.00     0.006 C 
BRANCH   4   5
ATOM      5  C   UNL     1     -25.569 -31.510  25.189  1.00  0.00     0.053 C 
BRANCH   5   6
ATOM      6  C   UNL     1     -26.566 -32.349  24.450  1.00  0.00     0.041 C 
ATOM      7  O   UNL     1     -26.453 -32.518  23.207  1.00  0.00    -0.550 OA
ATOM      8  O   UNL     1     -27.601 -32.969  25.138  1.00  0.00    -0.550 OA
ENDBRANCH   5   6
ENDBRANCH   4   5
ENDBRANCH   3   4
ENDBRANCH   2   3
ENDBRANCH   1   2
BRANCH   1   9
ATOM      9  C   UNL     1     -20.473 -30.679  24.007  1.00  0.00     0.000 C 
BRANCH   9  10
ATOM     10  C   UNL     1     -18.970 -30.402  24.179  1.00  0.00    -0.000 C 
BRANCH  10  11
ATOM     11  C   UNL     1     -18.092 -31.365  23.365  1.00  0.00    -0.000 C 
BRANCH  11  12
ATOM     12  C   UNL     1     -16.608 -31.009  23.510  1.00  0.00    -0.000 C 
BRANCH  12  13
ATOM     13  C   UNL     1     -16.000 -30.617  22.158  1.00  0.00    -0.003 C 
ATOM     14  C   UNL     1     -16.314 -29.164  21.812  1.00  0.00     0.004 C 
ENDBRANCH  12  13
ENDBRANCH  11  12
ENDBRANCH  10  11
ENDBRANCH   9  10
ENDBRANCH   1   9
TORSDOF 10
ENDMDL
MODEL 6
REMARK VINA RESULT:    -5.535      4.756      8.316
REMARK INTER + INTRA:          -8.943
REMARK INTER:                  -8.325
REMARK INTRA:                  -0.618
REMARK UNBOUND:                -0.173
REMARK SMILES CCCCCCCCCCCC(=O)[O-]
REMARK SMILES IDX 7 1 8 2 9 3 10 4 11 5 12 6 13 7 14 8 6 9 5 10 4 11 3 12 2 13
REMARK SMILES IDX 1 14
REMARK H PARENT
REMARK Flexibility Score: inf
ROOT
ATOM      1  C   UNL     1     -20.579 -31.576  23.315  1.00  0.00     0.000 C 
ENDROOT
BRANCH   1   2
ATOM      2  C   UNL     1     -20.268 -30.432  24.294  1.00  0.00     0.000 C 
BRANCH   2   3
ATOM      3  C   UNL     1     -18.763 -30.156  24.427  1.00  0.00     0.000 C 
BRANCH   3   4
ATOM      4  C   UNL     1     -17.944 -31.204  23.658  1.00  0.00     0.006 C 
BRANCH   4   5
ATOM      5  C   UNL     1     -16.553 -30.686  23.269  1.00  0.00     0.053 C 
BRANCH   5   6
ATOM      6  C   UNL     1     -16.583 -29.929  21.977  1.00  0.00     0.041 C 
ATOM      7  O   UNL     1     -16.486 -28.673  21.977  1.00  0.00    -0.550 OA
ATOM      8  O   UNL     1     -16.687 -30.611  20.771  1.00  0.00    -0.550 OA
ENDBRANCH   5   6
ENDBRANCH   4   5
ENDBRANCH   3   4
ENDBRANCH   2   3
ENDBRANCH   1   2
BRANCH   1   9
ATOM      9  C   UNL     1     -22.042 -32.044  23.399  1.00  0.00     0.000 C 
BRANCH   9  10
ATOM     10  C   UNL     1     -23.030 -30.872  23.518  1.00  0.00    -0.000 C 
BRANCH  10  11
ATOM     11  C   UNL     1     -24.352 -31.277  24.189  1.00  0.00    -0.000 C 
BRANCH  11  12
ATOM     12  C   UNL     1     -24.106 -32.276  25.327  1.00  0.00    -0.000 C 
BRANCH  12  13
ATOM     13  C   UNL     1     -25.420 -32.908  25.799  1.00  0.00    -0.003 C 
ATOM     14  C   UNL     1     -26.486 -32.845  24.707  1.00  0.00     0.004 C 
ENDBRANCH  12  13
ENDBRANCH  11  12
ENDBRANCH  10  11
ENDBRANCH   9  10
ENDBRANCH   1   9
TORSDOF 10
ENDMDL
MODEL 7
REMARK VINA RESULT:    -5.392      3.711      7.273
REMARK INTER + INTRA:          -8.716
REMARK INTER:                  -7.309
REMARK INTRA:                  -1.407
REMARK UNBOUND:                -0.173
REMARK SMILES CCCCCCCCCCCC(=O)[O-]
REMARK SMILES IDX 7 1 8 2 9 3 10 4 11 5 12 6 13 7 14 8 6 9 5 10 4 11 3 12 2 13
REMARK SMILES IDX 1 14
REMARK H PARENT
REMARK Flexibility Score: inf
ROOT
ATOM      1  C   UNL     1     -26.711 -31.170  26.221  1.00  0.00     0.000 C 
ENDROOT
BRANCH   1   2
ATOM      2  C   UNL     1     -26.121 -32.588  26.161  1.00  0.00     0.000 C 
BRANCH   2   3
ATOM      3  C   UNL     1     -24.726 -32.624  25.519  1.00  0.00     0.000 C 
BRANCH   3   4
ATOM      4  C   UNL     1     -24.358 -31.255  24.929  1.00  0.00     0.006 C 
BRANCH   4   5
ATOM      5  C   UNL     1     -22.870 -31.156  24.569  1.00  0.00     0.053 C 
BRANCH   5   6
ATOM      6  C   UNL     1     -22.591 -31.698  23.201  1.00  0.00     0.041 C 
ATOM      7  O   UNL     1     -23.286 -31.325  22.219  1.00  0.00    -0.550 OA
ATOM      8  O   UNL     1     -21.545 -32.592  23.005  1.00  0.00    -0.550 OA
ENDBRANCH   5   6
ENDBRANCH   4   5
ENDBRANCH   3   4
ENDBRANCH   2   3
ENDBRANCH   1   2
BRANCH   1   9
ATOM      9  C   UNL     1     -28.201 -31.133  25.840  1.00  0.00     0.000 C 
BRANCH   9  10
ATOM     10  C   UNL     1     -28.480 -30.217  24.637  1.00  0.00    -0.000 C 
BRANCH  10  11
ATOM     11  C   UNL     1     -28.836 -31.000  23.364  1.00  0.00    -0.000 C 
BRANCH  11  12
ATOM     12  C   UNL     1     -27.623 -31.109  22.432  1.00  0.00    -0.000 C 
BRANCH  12  13
ATOM     13  C   UNL     1     -26.979 -32.497  22.526  1.00  0.00    -0.003 C 
ATOM     14  C   UNL     1     -28.002 -33.554  22.937  1.00  0.00     0.004 C 
ENDBRANCH  12  13
ENDBRANCH  11  12
ENDBRANCH  10  11
ENDBRANCH   9  10
ENDBRANCH   1   9
TORSDOF 10
ENDMDL
MODEL 8
REMARK VINA RESULT:    -5.376      4.716      8.620
REMARK INTER + INTRA:          -8.692
REMARK INTER:                  -8.384
REMARK INTRA:                  -0.307
REMARK UNBOUND:                -0.173
REMARK SMILES CCCCCCCCCCCC(=O)[O-]
REMARK SMILES IDX 7 1 8 2 9 3 10 4 11 5 12 6 13 7 14 8 6 9 5 10 4 11 3 12 2 13
REMARK SMILES IDX 1 14
REMARK H PARENT
REMARK Flexibility Score: inf
ROOT
ATOM      1  C   UNL     1     -23.486 -31.372  23.634  1.00  0.00     0.000 C 
ENDROOT
BRANCH   1   2
ATOM      2  C   UNL     1     -22.034 -31.752  23.301  1.00  0.00     0.000 C 
BRANCH   2   3
ATOM      3  C   UNL     1     -21.008 -30.867  24.026  1.00  0.00     0.000 C 
BRANCH   3   4
ATOM      4  C   UNL     1     -19.574 -31.271  23.649  1.00  0.00     0.006 C 
BRANCH   4   5
ATOM      5  C   UNL     1     -18.546 -30.202  24.044  1.00  0.00     0.053 C 
BRANCH   5   6
ATOM      6  C   UNL     1     -17.223 -30.433  23.382  1.00  0.00     0.041 C 
ATOM      7  O   UNL     1     -16.574 -31.488  23.614  1.00  0.00    -0.550 OA
ATOM      8  O   UNL     1     -16.719 -29.499  22.485  1.00  0.00    -0.550 OA
ENDBRANCH   5   6
ENDBRANCH   4   5
ENDBRANCH   3   4
ENDBRANCH   2   3
ENDBRANCH   1   2
BRANCH   1   9
ATOM      9  C   UNL     1     -23.943 -31.920  24.996  1.00  0.00     0.000 C 
BRANCH   9  10
ATOM     10  C   UNL     1     -25.408 -32.385  24.985  1.00  0.00    -0.000 C 
BRANCH  10  11
ATOM     11  C   UNL     1     -26.067 -32.237  23.605  1.00  0.00    -0.000 C 
BRANCH  11  12
ATOM     12  C   UNL     1     -27.580 -32.473  23.691  1.00  0.00    -0.000 C 
BRANCH  12  13
ATOM     13  C   UNL     1     -28.171 -32.767  22.308  1.00  0.00    -0.003 C 
ATOM     14  C   UNL     1     -29.432 -31.943  22.059  1.00  0.00     0.004 C 
ENDBRANCH  12  13
ENDBRANCH  11  12
ENDBRANCH  10  11
ENDBRANCH   9  10
ENDBRANCH   1   9
TORSDOF 10
ENDMDL
MODEL 9
REMARK VINA RESULT:    -5.346      3.462      7.489
REMARK INTER + INTRA:          -8.644
REMARK INTER:                  -7.534
REMARK INTRA:                  -1.109
REMARK UNBOUND:                -0.173
REMARK SMILES CCCCCCCCCCCC(=O)[O-]
REMARK SMILES IDX 7 1 8 2 9 3 10 4 11 5 12 6 13 7 14 8 6 9 5 10 4 11 3 12 2 13
REMARK SMILES IDX 1 14
REMARK H PARENT
REMARK Flexibility Score: inf
ROOT
ATOM      1  C   UNL     1     -24.544 -32.830  25.908  1.00  0.00     0.000 C 
ENDROOT
BRANCH   1   2
ATOM      2  C   UNL     1     -24.252 -31.584  25.056  1.00  0.00     0.000 C 
BRANCH   2   3
ATOM      3  C   UNL     1     -24.260 -31.878  23.549  1.00  0.00     0.000 C 
BRANCH   3   4
ATOM      4  C   UNL     1     -23.024 -31.274  22.866  1.00  0.00     0.006 C 
BRANCH   4   5
ATOM      5  C   UNL     1     -21.774 -32.145  23.046  1.00  0.00     0.053 C 
BRANCH   5   6
ATOM      6  C   UNL     1     -20.647 -31.378  23.667  1.00  0.00     0.041 C 
ATOM      7  O   UNL     1     -20.888 -30.451  24.486  1.00  0.00    -0.550 OA
ATOM      8  O   UNL     1     -19.331 -31.705  23.366  1.00  0.00    -0.550 OA
ENDBRANCH   5   6
ENDBRANCH   4   5
ENDBRANCH   3   4
ENDBRANCH   2   3
ENDBRANCH   1   2
BRANCH   1   9
ATOM      9  C   UNL     1     -26.050 -33.068  26.110  1.00  0.00     0.000 C 
BRANCH   9  10
ATOM     10  C   UNL     1     -26.870 -31.770  26.021  1.00  0.00    -0.000 C 
BRANCH  10  11
ATOM     11  C   UNL     1     -28.066 -31.888  25.064  1.00  0.00    -0.000 C 
BRANCH  11  12
ATOM     12  C   UNL     1     -27.845 -31.043  23.803  1.00  0.00    -0.000 C 
BRANCH  12  13
ATOM     13  C   UNL     1     -27.820 -31.923  22.548  1.00  0.00    -0.003 C 
ATOM     14  C   UNL     1     -27.807 -33.405  22.913  1.00  0.00     0.004 C 
ENDBRANCH  12  13
ENDBRANCH  11  12
ENDBRANCH  10  11
ENDBRANCH   9  10
ENDBRANCH   1   9
TORSDOF 10
ENDMDL
