MODEL 1
REMARK VINA RESULT:    -3.986      0.000      0.000
REMARK INTER + INTRA:          -6.614
REMARK INTER:                  -6.083
REMARK INTRA:                  -0.530
REMARK UNBOUND:                -0.530
REMARK SMILES O=C([O-])CCCCCCCCC(=O)[O-]
REMARK SMILES IDX 7 1 6 2 5 3 4 4 2 5 1 6 3 7 8 8 9 9 10 10 11 11 12 12 13 13
REMARK SMILES IDX 14 14
REMARK H PARENT
REMARK Flexibility Score: inf
ROOT
ATOM      1  C   UNL     1    -116.386  11.664  21.829  1.00  0.00     0.000 C 
ENDROOT
BRANCH   1   2
ATOM      2  C   UNL     1    -117.730  12.298  22.230  1.00  0.00     0.000 C 
BRANCH   2   3
ATOM      3  C   UNL     1    -117.918  13.712  21.648  1.00  0.00     0.006 C 
BRANCH   3   4
ATOM      4  C   UNL     1    -118.820  14.626  22.491  1.00  0.00     0.053 C 
BRANCH   4   5
ATOM      5  C   UNL     1    -118.436  14.613  23.939  1.00  0.00     0.041 C 
ATOM      6  O   UNL     1    -119.173  14.040  24.784  1.00  0.00    -0.550 OA
ATOM      7  O   UNL     1    -117.283  15.263  24.359  1.00  0.00    -0.550 OA
ENDBRANCH   4   5
ENDBRANCH   3   4
ENDBRANCH   2   3
ENDBRANCH   1   2
BRANCH   1   8
ATOM      8  C   UNL     1    -115.585  11.163  23.041  1.00  0.00     0.000 C 
BRANCH   8   9
ATOM      9  C   UNL     1    -115.405  12.244  24.118  1.00  0.00     0.000 C 
BRANCH   9  10
ATOM     10  C   UNL     1    -114.457  11.764  25.224  1.00  0.00     0.006 C 
BRANCH  10  11
ATOM     11  C   UNL     1    -113.001  12.092  24.880  1.00  0.00     0.053 C 
BRANCH  11  12
ATOM     12  C   UNL     1    -112.228  10.837  24.629  1.00  0.00     0.041 C 
ATOM     13  O   UNL     1    -112.265   9.891  25.461  1.00  0.00    -0.550 OA
ATOM     14  O   UNL     1    -111.504  10.689  23.453  1.00  0.00    -0.550 OA
ENDBRANCH  11  12
ENDBRANCH  10  11
ENDBRANCH   9  10
ENDBRANCH   8   9
ENDBRANCH   1   8
TORSDOF 9
ENDMDL
MODEL 2
REMARK VINA RESULT:    -3.864      1.118      5.607
REMARK INTER + INTRA:          -6.428
REMARK INTER:                  -5.596
REMARK INTRA:                  -0.832
REMARK UNBOUND:                -0.530
REMARK SMILES O=C([O-])CCCCCCCCC(=O)[O-]
REMARK SMILES IDX 7 1 6 2 5 3 4 4 2 5 1 6 3 7 8 8 9 9 10 10 11 11 12 12 13 13
REMARK SMILES IDX 14 14
REMARK H PARENT
REMARK Flexibility Score: inf
ROOT
ATOM      1  C   UNL     1    -116.121  11.549  22.050  1.00  0.00     0.000 C 
ENDROOT
BRANCH   1   2
ATOM      2  C   UNL     1    -116.896  11.265  23.349  1.00  0.00     0.000 C 
BRANCH   2   3
ATOM      3  C   UNL     1    -115.998  11.315  24.599  1.00  0.00     0.006 C 
BRANCH   3   4
ATOM      4  C   UNL     1    -114.802  12.273  24.479  1.00  0.00     0.053 C 
BRANCH   4   5
ATOM      5  C   UNL     1    -113.584  11.740  25.171  1.00  0.00     0.041 C 
ATOM      6  O   UNL     1    -112.527  12.423  25.206  1.00  0.00    -0.550 OA
ATOM      7  O   UNL     1    -113.607  10.476  25.745  1.00  0.00    -0.550 OA
ENDBRANCH   4   5
ENDBRANCH   3   4
ENDBRANCH   2   3
ENDBRANCH   1   2
BRANCH   1   8
ATOM      8  C   UNL     1    -117.012  12.151  20.951  1.00  0.00     0.000 C 
BRANCH   8   9
ATOM      9  C   UNL     1    -118.311  12.752  21.509  1.00  0.00     0.000 C 
BRANCH   9  10
ATOM     10  C   UNL     1    -118.241  14.284  21.532  1.00  0.00     0.006 C 
BRANCH  10  11
ATOM     11  C   UNL     1    -119.098  14.855  22.666  1.00  0.00     0.053 C 
BRANCH  11  12
ATOM     12  C   UNL     1    -118.484  14.543  23.994  1.00  0.00     0.041 C 
ATOM     13  O   UNL     1    -119.122  13.866  24.844  1.00  0.00    -0.550 OA
ATOM     14  O   UNL     1    -117.190  14.958  24.276  1.00  0.00    -0.550 OA
ENDBRANCH  11  12
ENDBRANCH  10  11
ENDBRANCH   9  10
ENDBRANCH   8   9
ENDBRANCH   1   8
TORSDOF 9
ENDMDL
MODEL 3
REMARK VINA RESULT:    -3.654      2.178      6.213
REMARK INTER + INTRA:          -6.107
REMARK INTER:                  -5.495
REMARK INTRA:                  -0.612
REMARK UNBOUND:                -0.530
REMARK SMILES O=C([O-])CCCCCCCCC(=O)[O-]
REMARK SMILES IDX 7 1 6 2 5 3 4 4 2 5 1 6 3 7 8 8 9 9 10 10 11 11 12 12 13 13
REMARK SMILES IDX 14 14
REMARK H PARENT
REMARK Flexibility Score: inf
ROOT
ATOM      1  C   UNL     1    -116.365  13.721  24.076  1.00  0.00     0.000 C 
ENDROOT
BRANCH   1   2
ATOM      2  C   UNL     1    -116.489  12.225  23.739  1.00  0.00     0.000 C 
BRANCH   2   3
ATOM      3  C   UNL     1    -115.139  11.486  23.811  1.00  0.00     0.006 C 
BRANCH   3   4
ATOM      4  C   UNL     1    -114.532  11.418  25.222  1.00  0.00     0.053 C 
BRANCH   4   5
ATOM      5  C   UNL     1    -113.035  11.471  25.192  1.00  0.00     0.041 C 
ATOM      6  O   UNL     1    -112.445  12.551  24.928  1.00  0.00    -0.550 OA
ATOM      7  O   UNL     1    -112.294  10.319  25.423  1.00  0.00    -0.550 OA
ENDBRANCH   4   5
ENDBRANCH   3   4
ENDBRANCH   2   3
ENDBRANCH   1   2
BRANCH   1   8
ATOM      8  C   UNL     1    -117.703  14.468  23.950  1.00  0.00     0.000 C 
BRANCH   8   9
ATOM      9  C   UNL     1    -118.883  13.521  23.680  1.00  0.00     0.000 C 
BRANCH   9  10
ATOM     10  C   UNL     1    -119.584  13.880  22.364  1.00  0.00     0.006 C 
BRANCH  10  11
ATOM     11  C   UNL     1    -118.755  14.883  21.557  1.00  0.00     0.053 C 
BRANCH  11  12
ATOM     12  C   UNL     1    -118.172  14.226  20.347  1.00  0.00     0.041 C 
ATOM     13  O   UNL     1    -118.209  14.805  19.229  1.00  0.00    -0.550 OA
ATOM     14  O   UNL     1    -117.542  12.993  20.461  1.00  0.00    -0.550 OA
ENDBRANCH  11  12
ENDBRANCH  10  11
ENDBRANCH   9  10
ENDBRANCH   8   9
ENDBRANCH   1   8
TORSDOF 9
ENDMDL
MODEL 4
REMARK VINA RESULT:    -3.636      1.782      2.229
REMARK INTER + INTRA:          -6.080
REMARK INTER:                  -5.707
REMARK INTRA:                  -0.373
REMARK UNBOUND:                -0.530
REMARK SMILES O=C([O-])CCCCCCCCC(=O)[O-]
REMARK SMILES IDX 7 1 6 2 5 3 4 4 2 5 1 6 3 7 8 8 9 9 10 10 11 11 12 12 13 13
REMARK SMILES IDX 14 14
REMARK H PARENT
REMARK Flexibility Score: inf
ROOT
ATOM      1  C   UNL     1    -116.024  13.198  24.078  1.00  0.00     0.000 C 
ENDROOT
BRANCH   1   2
ATOM      2  C   UNL     1    -117.510  13.280  23.688  1.00  0.00     0.000 C 
BRANCH   2   3
ATOM      3  C   UNL     1    -118.036  14.728  23.653  1.00  0.00     0.006 C 
BRANCH   3   4
ATOM      4  C   UNL     1    -119.255  14.933  22.741  1.00  0.00     0.053 C 
BRANCH   4   5
ATOM      5  C   UNL     1    -119.060  14.309  21.393  1.00  0.00     0.041 C 
ATOM      6  O   UNL     1    -118.275  14.833  20.560  1.00  0.00    -0.550 OA
ATOM      7  O   UNL     1    -119.771  13.168  21.045  1.00  0.00    -0.550 OA
ENDBRANCH   4   5
ENDBRANCH   3   4
ENDBRANCH   2   3
ENDBRANCH   1   2
BRANCH   1   8
ATOM      8  C   UNL     1    -115.414  11.817  23.791  1.00  0.00     0.000 C 
BRANCH   8   9
ATOM      9  C   UNL     1    -115.103  11.031  25.074  1.00  0.00     0.000 C 
BRANCH   9  10
ATOM     10  C   UNL     1    -113.747  11.449  25.658  1.00  0.00     0.006 C 
BRANCH  10  11
ATOM     11  C   UNL     1    -112.731  11.722  24.546  1.00  0.00     0.053 C 
BRANCH  11  12
ATOM     12  C   UNL     1    -111.899  10.507  24.286  1.00  0.00     0.041 C 
ATOM     13  O   UNL     1    -111.872   9.566  25.124  1.00  0.00    -0.550 OA
ATOM     14  O   UNL     1    -111.191  10.390  23.098  1.00  0.00    -0.550 OA
ENDBRANCH  11  12
ENDBRANCH  10  11
ENDBRANCH   9  10
ENDBRANCH   8   9
ENDBRANCH   1   8
TORSDOF 9
ENDMDL
MODEL 5
REMARK VINA RESULT:    -3.625     12.157     14.202
REMARK INTER + INTRA:          -6.063
REMARK INTER:                  -5.352
REMARK INTRA:                  -0.711
REMARK UNBOUND:                -0.530
REMARK SMILES O=C([O-])CCCCCCCCC(=O)[O-]
REMARK SMILES IDX 7 1 6 2 5 3 4 4 2 5 1 6 3 7 8 8 9 9 10 10 11 11 12 12 13 13
REMARK SMILES IDX 14 14
REMARK H PARENT
REMARK Flexibility Score: inf
ROOT
ATOM      1  C   UNL     1    -100.547  10.749  23.011  1.00  0.00     0.000 C 
ENDROOT
BRANCH   1   2
ATOM      2  C   UNL     1    -101.743  11.611  22.569  1.00  0.00     0.000 C 
BRANCH   2   3
ATOM      3  C   UNL     1    -102.732  10.842  21.673  1.00  0.00     0.006 C 
BRANCH   3   4
ATOM      4  C   UNL     1    -102.109  10.274  20.388  1.00  0.00     0.053 C 
BRANCH   4   5
ATOM      5  C   UNL     1    -102.554  11.024  19.170  1.00  0.00     0.041 C 
ATOM      6  O   UNL     1    -103.685  11.577  19.145  1.00  0.00    -0.550 OA
ATOM      7  O   UNL     1    -101.734  11.082  18.051  1.00  0.00    -0.550 OA
ENDBRANCH   4   5
ENDBRANCH   3   4
ENDBRANCH   2   3
ENDBRANCH   1   2
BRANCH   1   8
ATOM      8  C   UNL     1    -100.939   9.684  24.046  1.00  0.00     0.000 C 
BRANCH   8   9
ATOM      9  C   UNL     1    -100.462  10.036  25.464  1.00  0.00     0.000 C 
BRANCH   9  10
ATOM     10  C   UNL     1    -101.610  10.617  26.300  1.00  0.00     0.006 C 
BRANCH  10  11
ATOM     11  C   UNL     1    -102.935   9.924  25.970  1.00  0.00     0.053 C 
BRANCH  11  12
ATOM     12  C   UNL     1    -104.019  10.935  25.771  1.00  0.00     0.041 C 
ATOM     13  O   UNL     1    -105.214  10.646  26.044  1.00  0.00    -0.550 OA
ATOM     14  O   UNL     1    -103.705  12.213  25.329  1.00  0.00    -0.550 OA
ENDBRANCH  11  12
ENDBRANCH  10  11
ENDBRANCH   9  10
ENDBRANCH   8   9
ENDBRANCH   1   8
TORSDOF 9
ENDMDL
MODEL 6
REMARK VINA RESULT:    -3.624      1.971      2.569
REMARK INTER + INTRA:          -6.061
REMARK INTER:                  -5.708
REMARK INTRA:                  -0.352
REMARK UNBOUND:                -0.530
REMARK SMILES O=C([O-])CCCCCCCCC(=O)[O-]
REMARK SMILES IDX 7 1 6 2 5 3 4 4 2 5 1 6 3 7 8 8 9 9 10 10 11 11 12 12 13 13
REMARK SMILES IDX 14 14
REMARK H PARENT
REMARK Flexibility Score: inf
ROOT
ATOM      1  C   UNL     1    -116.709  11.599  22.116  1.00  0.00     0.000 C 
ENDROOT
BRANCH   1   2
ATOM      2  C   UNL     1    -116.388  11.347  20.632  1.00  0.00     0.000 C 
BRANCH   2   3
ATOM      3  C   UNL     1    -117.155  12.294  19.689  1.00  0.00     0.006 C 
BRANCH   3   4
ATOM      4  C   UNL     1    -118.389  12.954  20.324  1.00  0.00     0.053 C 
BRANCH   4   5
ATOM      5  C   UNL     1    -118.392  14.440  20.134  1.00  0.00     0.041 C 
ATOM      6  O   UNL     1    -117.919  14.944  19.082  1.00  0.00    -0.550 OA
ATOM      7  O   UNL     1    -118.886  15.268  21.134  1.00  0.00    -0.550 OA
ENDBRANCH   4   5
ENDBRANCH   3   4
ENDBRANCH   2   3
ENDBRANCH   1   2
BRANCH   1   8
ATOM      8  C   UNL     1    -115.552  11.202  23.046  1.00  0.00     0.000 C 
BRANCH   8   9
ATOM      9  C   UNL     1    -115.325  12.221  24.173  1.00  0.00     0.000 C 
BRANCH   9  10
ATOM     10  C   UNL     1    -114.396  11.648  25.251  1.00  0.00     0.006 C 
BRANCH  10  11
ATOM     11  C   UNL     1    -112.938  12.030  24.978  1.00  0.00     0.053 C 
BRANCH  11  12
ATOM     12  C   UNL     1    -112.155  10.832  24.547  1.00  0.00     0.041 C 
ATOM     13  O   UNL     1    -111.523  10.845  23.457  1.00  0.00    -0.550 OA
ATOM     14  O   UNL     1    -112.082   9.715  25.369  1.00  0.00    -0.550 OA
ENDBRANCH  11  12
ENDBRANCH  10  11
ENDBRANCH   9  10
ENDBRANCH   8   9
ENDBRANCH   1   8
TORSDOF 9
ENDMDL
MODEL 7
REMARK VINA RESULT:    -3.514     18.857     19.692
REMARK INTER + INTRA:          -5.893
REMARK INTER:                  -5.003
REMARK INTRA:                  -0.890
REMARK UNBOUND:                -0.530
REMARK SMILES O=C([O-])CCCCCCCCC(=O)[O-]
REMARK SMILES IDX 7 1 6 2 5 3 4 4 2 5 1 6 3 7 8 8 9 9 10 10 11 11 12 12 13 13
REMARK SMILES IDX 14 14
REMARK H PARENT
REMARK Flexibility Score: inf
ROOT
ATOM      1  C   UNL     1     -99.915  22.596  32.272  1.00  0.00     0.000 C 
ENDROOT
BRANCH   1   2
ATOM      2  C   UNL     1    -100.471  23.830  31.540  1.00  0.00     0.000 C 
BRANCH   2   3
ATOM      3  C   UNL     1    -101.657  24.476  32.281  1.00  0.00     0.006 C 
BRANCH   3   4
ATOM      4  C   UNL     1    -103.030  23.902  31.895  1.00  0.00     0.053 C 
BRANCH   4   5
ATOM      5  C   UNL     1    -104.092  24.274  32.883  1.00  0.00     0.041 C 
ATOM      6  O   UNL     1    -105.287  23.932  32.686  1.00  0.00    -0.550 OA
ATOM      7  O   UNL     1    -103.767  25.028  34.004  1.00  0.00    -0.550 OA
ENDBRANCH   4   5
ENDBRANCH   3   4
ENDBRANCH   2   3
ENDBRANCH   1   2
BRANCH   1   8
ATOM      8  C   UNL     1    -100.462  21.276  31.705  1.00  0.00     0.000 C 
BRANCH   8   9
ATOM      9  C   UNL     1    -100.118  20.067  32.588  1.00  0.00     0.000 C 
BRANCH   9  10
ATOM     10  C   UNL     1    -100.311  20.399  34.073  1.00  0.00     0.006 C 
BRANCH  10  11
ATOM     11  C   UNL     1    -101.748  20.111  34.518  1.00  0.00     0.053 C 
BRANCH  11  12
ATOM     12  C   UNL     1    -102.447  21.381  34.883  1.00  0.00     0.041 C 
ATOM     13  O   UNL     1    -103.704  21.413  34.960  1.00  0.00    -0.550 OA
ATOM     14  O   UNL     1    -101.710  22.518  35.186  1.00  0.00    -0.550 OA
ENDBRANCH  11  12
ENDBRANCH  10  11
ENDBRANCH   9  10
ENDBRANCH   8   9
ENDBRANCH   1   8
TORSDOF 9
ENDMDL
MODEL 8
REMARK VINA RESULT:    -3.502      1.555      2.497
REMARK INTER + INTRA:          -5.875
REMARK INTER:                  -5.259
REMARK INTRA:                  -0.616
REMARK UNBOUND:                -0.530
REMARK SMILES O=C([O-])CCCCCCCCC(=O)[O-]
REMARK SMILES IDX 7 1 6 2 5 3 4 4 2 5 1 6 3 7 8 8 9 9 10 10 11 11 12 12 13 13
REMARK SMILES IDX 14 14
REMARK H PARENT
REMARK Flexibility Score: inf
ROOT
ATOM      1  C   UNL     1    -115.217  12.639  24.375  1.00  0.00     0.000 C 
ENDROOT
BRANCH   1   2
ATOM      2  C   UNL     1    -115.970  11.943  23.228  1.00  0.00     0.000 C 
BRANCH   2   3
ATOM      3  C   UNL     1    -117.479  12.254  23.233  1.00  0.00     0.006 C 
BRANCH   3   4
ATOM      4  C   UNL     1    -117.910  13.303  22.196  1.00  0.00     0.053 C 
BRANCH   4   5
ATOM      5  C   UNL     1    -118.371  14.575  22.841  1.00  0.00     0.041 C 
ATOM      6  O   UNL     1    -117.853  14.959  23.922  1.00  0.00    -0.550 OA
ATOM      7  O   UNL     1    -119.394  15.316  22.266  1.00  0.00    -0.550 OA
ENDBRANCH   4   5
ENDBRANCH   3   4
ENDBRANCH   2   3
ENDBRANCH   1   2
BRANCH   1   8
ATOM      8  C   UNL     1    -114.406  11.653  25.232  1.00  0.00     0.000 C 
BRANCH   8   9
ATOM      9  C   UNL     1    -112.893  11.769  24.992  1.00  0.00     0.000 C 
BRANCH   9  10
ATOM     10  C   UNL     1    -112.248  10.383  24.876  1.00  0.00     0.006 C 
BRANCH  10  11
ATOM     11  C   UNL     1    -113.168   9.410  24.133  1.00  0.00     0.053 C 
BRANCH  11  12
ATOM     12  C   UNL     1    -112.894   9.451  22.663  1.00  0.00     0.041 C 
ATOM     13  O   UNL     1    -113.847   9.464  21.840  1.00  0.00    -0.550 OA
ATOM     14  O   UNL     1    -111.586   9.523  22.201  1.00  0.00    -0.550 OA
ENDBRANCH  11  12
ENDBRANCH  10  11
ENDBRANCH   9  10
ENDBRANCH   8   9
ENDBRANCH   1   8
TORSDOF 9
ENDMDL
MODEL 9
REMARK VINA RESULT:    -3.482      1.455      6.625
REMARK INTER + INTRA:          -5.844
REMARK INTER:                  -5.230
REMARK INTRA:                  -0.614
REMARK UNBOUND:                -0.530
REMARK SMILES O=C([O-])CCCCCCCCC(=O)[O-]
REMARK SMILES IDX 7 1 6 2 5 3 4 4 2 5 1 6 3 7 8 8 9 9 10 10 11 11 12 12 13 13
REMARK SMILES IDX 14 14
REMARK H PARENT
REMARK Flexibility Score: inf
ROOT
ATOM      1  C   UNL     1    -115.620  12.590  24.142  1.00  0.00     0.000 C 
ENDROOT
BRANCH   1   2
ATOM      2  C   UNL     1    -114.288  12.281  24.847  1.00  0.00     0.000 C 
BRANCH   2   3
ATOM      3  C   UNL     1    -114.028  10.770  24.991  1.00  0.00     0.006 C 
BRANCH   3   4
ATOM      4  C   UNL     1    -112.548  10.372  24.888  1.00  0.00     0.053 C 
BRANCH   4   5
ATOM      5  C   UNL     1    -112.141  10.083  23.475  1.00  0.00     0.041 C 
ATOM      6  O   UNL     1    -110.932  10.166  23.135  1.00  0.00    -0.550 OA
ATOM      7  O   UNL     1    -113.102   9.757  22.527  1.00  0.00    -0.550 OA
ENDBRANCH   4   5
ENDBRANCH   3   4
ENDBRANCH   2   3
ENDBRANCH   1   2
BRANCH   1   8
ATOM      8  C   UNL     1    -116.168  11.385  23.360  1.00  0.00     0.000 C 
BRANCH   8   9
ATOM      9  C   UNL     1    -116.361  11.690  21.867  1.00  0.00     0.000 C 
BRANCH   9  10
ATOM     10  C   UNL     1    -117.797  12.146  21.581  1.00  0.00     0.006 C 
BRANCH  10  11
ATOM     11  C   UNL     1    -117.810  13.473  20.817  1.00  0.00     0.053 C 
BRANCH  11  12
ATOM     12  C   UNL     1    -118.478  14.537  21.627  1.00  0.00     0.041 C 
ATOM     13  O   UNL     1    -119.325  15.302  21.095  1.00  0.00    -0.550 OA
ATOM     14  O   UNL     1    -118.203  14.655  22.983  1.00  0.00    -0.550 OA
ENDBRANCH  11  12
ENDBRANCH  10  11
ENDBRANCH   9  10
ENDBRANCH   8   9
ENDBRANCH   1   8
TORSDOF 9
ENDMDL
