MODEL 1
REMARK VINA RESULT:    -5.742      0.000      0.000
REMARK INTER + INTRA:          -5.742
REMARK INTER:                  -5.742
REMARK INTRA:                   0.000
REMARK UNBOUND:                 0.000
REMARK SMILES CC1=CC(=O)[C@H]2C[C@@H]1C2(C)C
REMARK SMILES IDX 1 1 2 2 3 3 4 4 5 5 6 6 7 7 8 8 9 9 10 10 11 11
REMARK H PARENT
REMARK Flexibility Score: inf
ROOT
ATOM      1  C   UNL     1     -10.994   0.479 -19.410  1.00  0.00     0.040 C 
ATOM      2  C   UNL     1     -10.817   1.803 -18.736  1.00  0.00    -0.066 C 
ATOM      3  C   UNL     1     -11.785   2.324 -17.933  1.00  0.00     0.047 C 
ATOM      4  C   UNL     1     -11.502   3.672 -17.341  1.00  0.00     0.159 C 
ATOM      5  O   UNL     1     -12.333   4.275 -16.615  1.00  0.00    -0.295 OA
ATOM      6  C   UNL     1     -10.134   4.262 -17.684  1.00  0.00     0.067 C 
ATOM      7  C   UNL     1      -9.152   3.088 -17.475  1.00  0.00     0.021 C 
ATOM      8  C   UNL     1      -9.527   2.634 -18.904  1.00  0.00     0.022 C 
ATOM      9  C   UNL     1      -9.899   4.113 -19.215  1.00  0.00    -0.019 C 
ATOM     10  C   UNL     1      -8.683   4.936 -19.709  1.00  0.00     0.012 C 
ATOM     11  C   UNL     1     -11.093   4.383 -20.175  1.00  0.00     0.012 C 
ENDROOT
TORSDOF 0
ENDMDL
MODEL 2
REMARK VINA RESULT:    -5.714      1.597      2.466
REMARK INTER + INTRA:          -5.714
REMARK INTER:                  -5.714
REMARK INTRA:                   0.000
REMARK UNBOUND:                 0.000
REMARK SMILES CC1=CC(=O)[C@H]2C[C@@H]1C2(C)C
REMARK SMILES IDX 1 1 2 2 3 3 4 4 5 5 6 6 7 7 8 8 9 9 10 10 11 11
REMARK H PARENT
REMARK Flexibility Score: inf
ROOT
ATOM      1  C   UNL     1     -11.388   0.352 -19.027  1.00  0.00     0.040 C 
ATOM      2  C   UNL     1     -11.215   1.828 -18.858  1.00  0.00    -0.066 C 
ATOM      3  C   UNL     1     -11.332   2.680 -19.914  1.00  0.00     0.047 C 
ATOM      4  C   UNL     1     -11.104   4.133 -19.623  1.00  0.00     0.159 C 
ATOM      5  O   UNL     1     -11.146   5.013 -20.521  1.00  0.00    -0.295 OA
ATOM      6  C   UNL     1     -10.816   4.469 -18.160  1.00  0.00     0.067 C 
ATOM      7  C   UNL     1     -11.874   3.664 -17.372  1.00  0.00     0.021 C 
ATOM      8  C   UNL     1     -10.912   2.459 -17.482  1.00  0.00     0.022 C 
ATOM      9  C   UNL     1      -9.743   3.478 -17.625  1.00  0.00    -0.019 C 
ATOM     10  C   UNL     1      -9.169   3.913 -16.254  1.00  0.00     0.012 C 
ATOM     11  C   UNL     1      -8.554   3.105 -18.555  1.00  0.00     0.012 C 
ENDROOT
TORSDOF 0
ENDMDL
MODEL 3
REMARK VINA RESULT:    -5.550      1.738      3.028
REMARK INTER + INTRA:          -5.550
REMARK INTER:                  -5.550
REMARK INTRA:                   0.000
REMARK UNBOUND:                 0.000
REMARK SMILES CC1=CC(=O)[C@H]2C[C@@H]1C2(C)C
REMARK SMILES IDX 1 1 2 2 3 3 4 4 5 5 6 6 7 7 8 8 9 9 10 10 11 11
REMARK H PARENT
REMARK Flexibility Score: inf
ROOT
ATOM      1  C   UNL     1     -11.773   4.891 -20.727  1.00  0.00     0.040 C 
ATOM      2  C   UNL     1     -10.982   3.948 -19.876  1.00  0.00    -0.066 C 
ATOM      3  C   UNL     1     -11.137   2.599 -19.982  1.00  0.00     0.047 C 
ATOM      4  C   UNL     1     -10.311   1.762 -19.053  1.00  0.00     0.159 C 
ATOM      5  O   UNL     1     -10.393   0.507 -19.027  1.00  0.00    -0.295 OA
ATOM      6  C   UNL     1      -9.365   2.540 -18.139  1.00  0.00     0.067 C 
ATOM      7  C   UNL     1      -8.696   3.571 -19.076  1.00  0.00     0.021 C 
ATOM      8  C   UNL     1      -9.944   4.454 -18.852  1.00  0.00     0.022 C 
ATOM      9  C   UNL     1     -10.152   3.717 -17.496  1.00  0.00    -0.019 C 
ATOM     10  C   UNL     1      -9.373   4.386 -16.337  1.00  0.00     0.012 C 
ATOM     11  C   UNL     1     -11.609   3.458 -17.018  1.00  0.00     0.012 C 
ENDROOT
TORSDOF 0
ENDMDL
MODEL 4
REMARK VINA RESULT:    -5.466      1.564      2.842
REMARK INTER + INTRA:          -5.466
REMARK INTER:                  -5.466
REMARK INTRA:                   0.000
REMARK UNBOUND:                 0.000
REMARK SMILES CC1=CC(=O)[C@H]2C[C@@H]1C2(C)C
REMARK SMILES IDX 1 1 2 2 3 3 4 4 5 5 6 6 7 7 8 8 9 9 10 10 11 11
REMARK H PARENT
REMARK Flexibility Score: inf
ROOT
ATOM      1  C   UNL     1     -12.121   5.398 -18.696  1.00  0.00     0.040 C 
ATOM      2  C   UNL     1     -11.520   4.040 -18.509  1.00  0.00    -0.066 C 
ATOM      3  C   UNL     1     -12.067   3.136 -17.648  1.00  0.00     0.047 C 
ATOM      4  C   UNL     1     -11.355   1.823 -17.525  1.00  0.00     0.159 C 
ATOM      5  O   UNL     1     -11.739   0.923 -16.736  1.00  0.00    -0.295 OA
ATOM      6  C   UNL     1     -10.129   1.657 -18.423  1.00  0.00     0.067 C 
ATOM      7  C   UNL     1     -10.598   2.172 -19.802  1.00  0.00     0.021 C 
ATOM      8  C   UNL     1     -10.266   3.591 -19.288  1.00  0.00     0.022 C 
ATOM      9  C   UNL     1      -9.252   2.936 -18.306  1.00  0.00    -0.019 C 
ATOM     10  C   UNL     1      -7.851   2.751 -18.942  1.00  0.00     0.012 C 
ATOM     11  C   UNL     1      -9.068   3.580 -16.902  1.00  0.00     0.012 C 
ENDROOT
TORSDOF 0
ENDMDL
MODEL 5
REMARK VINA RESULT:    -5.433      1.669      3.390
REMARK INTER + INTRA:          -5.433
REMARK INTER:                  -5.433
REMARK INTRA:                   0.000
REMARK UNBOUND:                 0.000
REMARK SMILES CC1=CC(=O)[C@H]2C[C@@H]1C2(C)C
REMARK SMILES IDX 1 1 2 2 3 3 4 4 5 5 6 6 7 7 8 8 9 9 10 10 11 11
REMARK H PARENT
REMARK Flexibility Score: inf
ROOT
ATOM      1  C   UNL     1     -11.788   5.019 -20.775  1.00  0.00     0.040 C 
ATOM      2  C   UNL     1     -11.078   4.376 -19.626  1.00  0.00    -0.066 C 
ATOM      3  C   UNL     1      -9.753   4.593 -19.400  1.00  0.00     0.047 C 
ATOM      4  C   UNL     1      -9.150   3.866 -18.236  1.00  0.00     0.159 C 
ATOM      5  O   UNL     1      -7.929   3.954 -17.949  1.00  0.00    -0.295 OA
ATOM      6  C   UNL     1     -10.123   3.010 -17.426  1.00  0.00     0.067 C 
ATOM      7  C   UNL     1     -11.357   3.919 -17.233  1.00  0.00     0.021 C 
ATOM      8  C   UNL     1     -11.813   3.450 -18.633  1.00  0.00     0.022 C 
ATOM      9  C   UNL     1     -10.973   2.158 -18.411  1.00  0.00    -0.019 C 
ATOM     10  C   UNL     1     -11.778   1.048 -17.689  1.00  0.00     0.012 C 
ATOM     11  C   UNL     1     -10.263   1.523 -19.640  1.00  0.00     0.012 C 
ENDROOT
TORSDOF 0
ENDMDL
MODEL 6
REMARK VINA RESULT:    -5.409      1.689      2.617
REMARK INTER + INTRA:          -5.409
REMARK INTER:                  -5.409
REMARK INTRA:                   0.000
REMARK UNBOUND:                 0.000
REMARK SMILES CC1=CC(=O)[C@H]2C[C@@H]1C2(C)C
REMARK SMILES IDX 1 1 2 2 3 3 4 4 5 5 6 6 7 7 8 8 9 9 10 10 11 11
REMARK H PARENT
REMARK Flexibility Score: inf
ROOT
ATOM      1  C   UNL     1     -12.152   2.534 -16.600  1.00  0.00     0.040 C 
ATOM      2  C   UNL     1     -11.172   3.164 -17.538  1.00  0.00    -0.066 C 
ATOM      3  C   UNL     1     -11.586   3.918 -18.595  1.00  0.00     0.047 C 
ATOM      4  C   UNL     1     -10.508   4.468 -19.480  1.00  0.00     0.159 C 
ATOM      5  O   UNL     1     -10.765   5.146 -20.508  1.00  0.00    -0.295 OA
ATOM      6  C   UNL     1      -9.079   4.147 -19.045  1.00  0.00     0.067 C 
ATOM      7  C   UNL     1      -9.072   4.430 -17.527  1.00  0.00     0.021 C 
ATOM      8  C   UNL     1      -9.648   3.007 -17.347  1.00  0.00     0.022 C 
ATOM      9  C   UNL     1      -8.991   2.631 -18.708  1.00  0.00    -0.019 C 
ATOM     10  C   UNL     1      -7.529   2.146 -18.542  1.00  0.00     0.012 C 
ATOM     11  C   UNL     1      -9.737   1.625 -19.630  1.00  0.00     0.012 C 
ENDROOT
TORSDOF 0
ENDMDL
MODEL 7
REMARK VINA RESULT:    -5.269      1.935      3.002
REMARK INTER + INTRA:          -5.269
REMARK INTER:                  -5.269
REMARK INTRA:                   0.000
REMARK UNBOUND:                 0.000
REMARK SMILES CC1=CC(=O)[C@H]2C[C@@H]1C2(C)C
REMARK SMILES IDX 1 1 2 2 3 3 4 4 5 5 6 6 7 7 8 8 9 9 10 10 11 11
REMARK H PARENT
REMARK Flexibility Score: inf
ROOT
ATOM      1  C   UNL     1      -7.679   2.459 -18.481  1.00  0.00     0.040 C 
ATOM      2  C   UNL     1      -9.159   2.257 -18.567  1.00  0.00    -0.066 C 
ATOM      3  C   UNL     1      -9.706   1.406 -19.479  1.00  0.00     0.047 C 
ATOM      4  C   UNL     1     -11.202   1.314 -19.487  1.00  0.00     0.159 C 
ATOM      5  O   UNL     1     -11.827   0.593 -20.307  1.00  0.00    -0.295 OA
ATOM      6  C   UNL     1     -11.914   2.159 -18.430  1.00  0.00     0.067 C 
ATOM      7  C   UNL     1     -11.116   1.896 -17.134  1.00  0.00     0.021 C 
ATOM      8  C   UNL     1     -10.135   2.987 -17.620  1.00  0.00     0.022 C 
ATOM      9  C   UNL     1     -11.307   3.591 -18.448  1.00  0.00    -0.019 C 
ATOM     10  C   UNL     1     -12.150   4.600 -17.629  1.00  0.00     0.012 C 
ATOM     11  C   UNL     1     -10.977   4.236 -19.824  1.00  0.00     0.012 C 
ENDROOT
TORSDOF 0
ENDMDL
MODEL 8
REMARK VINA RESULT:    -4.966      1.625      3.308
REMARK INTER + INTRA:          -4.966
REMARK INTER:                  -4.966
REMARK INTRA:                   0.000
REMARK UNBOUND:                 0.000
REMARK SMILES CC1=CC(=O)[C@H]2C[C@@H]1C2(C)C
REMARK SMILES IDX 1 1 2 2 3 3 4 4 5 5 6 6 7 7 8 8 9 9 10 10 11 11
REMARK H PARENT
REMARK Flexibility Score: inf
ROOT
ATOM      1  C   UNL     1      -7.250   2.383 -18.534  1.00  0.00     0.040 C 
ATOM      2  C   UNL     1      -8.666   2.773 -18.816  1.00  0.00    -0.066 C 
ATOM      3  C   UNL     1      -8.980   4.015 -19.277  1.00  0.00     0.047 C 
ATOM      4  C   UNL     1     -10.437   4.294 -19.492  1.00  0.00     0.159 C 
ATOM      5  O   UNL     1     -10.856   5.416 -19.877  1.00  0.00    -0.295 OA
ATOM      6  C   UNL     1     -11.376   3.122 -19.207  1.00  0.00     0.067 C 
ATOM      7  C   UNL     1     -10.696   1.917 -19.893  1.00  0.00     0.021 C 
ATOM      8  C   UNL     1      -9.836   1.786 -18.616  1.00  0.00     0.022 C 
ATOM      9  C   UNL     1     -10.984   2.494 -17.839  1.00  0.00    -0.019 C 
ATOM     10  C   UNL     1     -12.049   1.495 -17.321  1.00  0.00     0.012 C 
ATOM     11  C   UNL     1     -10.602   3.447 -16.671  1.00  0.00     0.012 C 
ENDROOT
TORSDOF 0
ENDMDL
MODEL 9
REMARK VINA RESULT:    -4.899      1.155      2.992
REMARK INTER + INTRA:          -4.899
REMARK INTER:                  -4.899
REMARK INTRA:                   0.000
REMARK UNBOUND:                 0.000
REMARK SMILES CC1=CC(=O)[C@H]2C[C@@H]1C2(C)C
REMARK SMILES IDX 1 1 2 2 3 3 4 4 5 5 6 6 7 7 8 8 9 9 10 10 11 11
REMARK H PARENT
REMARK Flexibility Score: inf
ROOT
ATOM      1  C   UNL     1      -7.932   2.751 -17.753  1.00  0.00     0.040 C 
ATOM      2  C   UNL     1      -9.399   2.937 -17.979  1.00  0.00    -0.066 C 
ATOM      3  C   UNL     1     -10.173   3.617 -17.087  1.00  0.00     0.047 C 
ATOM      4  C   UNL     1     -11.633   3.708 -17.410  1.00  0.00     0.159 C 
ATOM      5  O   UNL     1     -12.456   4.276 -16.647  1.00  0.00    -0.295 OA
ATOM      6  C   UNL     1     -12.052   3.062 -18.731  1.00  0.00     0.067 C 
ATOM      7  C   UNL     1     -10.990   3.546 -19.743  1.00  0.00     0.021 C 
ATOM      8  C   UNL     1     -10.104   2.385 -19.236  1.00  0.00     0.022 C 
ATOM      9  C   UNL     1     -11.409   1.648 -18.816  1.00  0.00    -0.019 C 
ATOM     10  C   UNL     1     -12.003   0.798 -19.968  1.00  0.00     0.012 C 
ATOM     11  C   UNL     1     -11.377   0.772 -17.532  1.00  0.00     0.012 C 
ENDROOT
TORSDOF 0
ENDMDL
