MODEL 1
REMARK VINA RESULT:    -4.099      0.000      0.000
REMARK INTER + INTRA:          -7.685
REMARK INTER:                  -6.496
REMARK INTRA:                  -1.189
REMARK UNBOUND:                -1.189
REMARK SMILES CCCCCCCCCCCC(=O)[O-]
REMARK SMILES IDX 7 1 8 2 9 3 10 4 11 5 12 6 13 7 14 8 6 9 5 10 4 11 3 12 2 13
REMARK SMILES IDX 1 14
REMARK H PARENT
REMARK Flexibility Score: inf
ROOT
ATOM      1  C   UNL     1     175.040 174.371 182.916  1.00  0.00     0.000 C 
ENDROOT
BRANCH   1   2
ATOM      2  C   UNL     1     174.101 175.014 181.884  1.00  0.00     0.000 C 
BRANCH   2   3
ATOM      3  C   UNL     1     172.884 175.695 182.535  1.00  0.00     0.000 C 
BRANCH   3   4
ATOM      4  C   UNL     1     172.879 177.224 182.350  1.00  0.00     0.006 C 
BRANCH   4   5
ATOM      5  C   UNL     1     171.471 177.829 182.202  1.00  0.00     0.053 C 
BRANCH   5   6
ATOM      6  C   UNL     1     170.941 177.727 180.805  1.00  0.00     0.041 C 
ATOM      7  O   UNL     1     169.700 177.759 180.592  1.00  0.00    -0.550 OA
ATOM      8  O   UNL     1     171.819 177.629 179.733  1.00  0.00    -0.550 OA
ENDBRANCH   5   6
ENDBRANCH   4   5
ENDBRANCH   3   4
ENDBRANCH   2   3
ENDBRANCH   1   2
BRANCH   1   9
ATOM      9  C   UNL     1     176.422 175.039 182.955  1.00  0.00     0.000 C 
BRANCH   9  10
ATOM     10  C   UNL     1     176.311 176.511 183.369  1.00  0.00    -0.000 C 
BRANCH  10  11
ATOM     11  C   UNL     1     177.074 177.417 182.391  1.00  0.00    -0.000 C 
BRANCH  11  12
ATOM     12  C   UNL     1     177.167 176.819 180.978  1.00  0.00    -0.000 C 
BRANCH  12  13
ATOM     13  C   UNL     1     176.686 177.792 179.891  1.00  0.00    -0.003 C 
ATOM     14  C   UNL     1     175.311 177.392 179.364  1.00  0.00     0.004 C 
ENDBRANCH  12  13
ENDBRANCH  11  12
ENDBRANCH  10  11
ENDBRANCH   9  10
ENDBRANCH   1   9
TORSDOF 10
ENDMDL
MODEL 2
REMARK VINA RESULT:    -4.013      0.757      1.252
REMARK INTER + INTRA:          -7.548
REMARK INTER:                  -6.288
REMARK INTRA:                  -1.261
REMARK UNBOUND:                -1.189
REMARK SMILES CCCCCCCCCCCC(=O)[O-]
REMARK SMILES IDX 7 1 8 2 9 3 10 4 11 5 12 6 13 7 14 8 6 9 5 10 4 11 3 12 2 13
REMARK SMILES IDX 1 14
REMARK H PARENT
REMARK Flexibility Score: inf
ROOT
ATOM      1  C   UNL     1     174.582 174.791 182.473  1.00  0.00     0.000 C 
ENDROOT
BRANCH   1   2
ATOM      2  C   UNL     1     173.291 175.618 182.357  1.00  0.00     0.000 C 
BRANCH   2   3
ATOM      3  C   UNL     1     173.530 177.122 182.578  1.00  0.00     0.000 C 
BRANCH   3   4
ATOM      4  C   UNL     1     172.223 177.927 182.700  1.00  0.00     0.006 C 
BRANCH   4   5
ATOM      5  C   UNL     1     170.979 177.178 182.191  1.00  0.00     0.053 C 
BRANCH   5   6
ATOM      6  C   UNL     1     170.510 177.672 180.857  1.00  0.00     0.041 C 
ATOM      7  O   UNL     1     171.342 178.064 179.997  1.00  0.00    -0.550 OA
ATOM      8  O   UNL     1     169.155 177.669 180.551  1.00  0.00    -0.550 OA
ENDBRANCH   5   6
ENDBRANCH   4   5
ENDBRANCH   3   4
ENDBRANCH   2   3
ENDBRANCH   1   2
BRANCH   1   9
ATOM      9  C   UNL     1     175.669 175.505 183.289  1.00  0.00     0.000 C 
BRANCH   9  10
ATOM     10  C   UNL     1     176.916 175.764 182.435  1.00  0.00    -0.000 C 
BRANCH  10  11
ATOM     11  C   UNL     1     177.272 177.258 182.421  1.00  0.00    -0.000 C 
BRANCH  11  12
ATOM     12  C   UNL     1     176.972 177.926 181.070  1.00  0.00    -0.000 C 
BRANCH  12  13
ATOM     13  C   UNL     1     176.621 176.910 179.973  1.00  0.00    -0.003 C 
ATOM     14  C   UNL     1     175.299 177.265 179.298  1.00  0.00     0.004 C 
ENDBRANCH  12  13
ENDBRANCH  11  12
ENDBRANCH  10  11
ENDBRANCH   9  10
ENDBRANCH   1   9
TORSDOF 10
ENDMDL
MODEL 3
REMARK VINA RESULT:    -3.998      1.189      2.293
REMARK INTER + INTRA:          -7.524
REMARK INTER:                  -6.053
REMARK INTRA:                  -1.471
REMARK UNBOUND:                -1.189
REMARK SMILES CCCCCCCCCCCC(=O)[O-]
REMARK SMILES IDX 7 1 8 2 9 3 10 4 11 5 12 6 13 7 14 8 6 9 5 10 4 11 3 12 2 13
REMARK SMILES IDX 1 14
REMARK H PARENT
REMARK Flexibility Score: inf
ROOT
ATOM      1  C   UNL     1     176.981 176.114 181.911  1.00  0.00     0.000 C 
ENDROOT
BRANCH   1   2
ATOM      2  C   UNL     1     175.694 175.704 182.644  1.00  0.00     0.000 C 
BRANCH   2   3
ATOM      3  C   UNL     1     174.717 176.879 182.828  1.00  0.00     0.000 C 
BRANCH   3   4
ATOM      4  C   UNL     1     173.281 176.544 182.386  1.00  0.00     0.006 C 
BRANCH   4   5
ATOM      5  C   UNL     1     172.297 177.720 182.520  1.00  0.00     0.053 C 
BRANCH   5   6
ATOM      6  C   UNL     1     171.177 177.654 181.527  1.00  0.00     0.041 C 
ATOM      7  O   UNL     1     170.037 177.252 181.881  1.00  0.00    -0.550 OA
ATOM      8  O   UNL     1     171.383 178.068 180.217  1.00  0.00    -0.550 OA
ENDBRANCH   5   6
ENDBRANCH   4   5
ENDBRANCH   3   4
ENDBRANCH   2   3
ENDBRANCH   1   2
BRANCH   1   9
ATOM      9  C   UNL     1     177.159 177.637 181.836  1.00  0.00     0.000 C 
BRANCH   9  10
ATOM     10  C   UNL     1     177.346 178.099 180.387  1.00  0.00    -0.000 C 
BRANCH  10  11
ATOM     11  C   UNL     1     176.625 177.156 179.411  1.00  0.00    -0.000 C 
BRANCH  11  12
ATOM     12  C   UNL     1     175.174 177.583 179.137  1.00  0.00    -0.000 C 
BRANCH  12  13
ATOM     13  C   UNL     1     174.236 176.386 178.921  1.00  0.00    -0.003 C 
ATOM     14  C   UNL     1     175.008 175.070 178.954  1.00  0.00     0.004 C 
ENDBRANCH  12  13
ENDBRANCH  11  12
ENDBRANCH  10  11
ENDBRANCH   9  10
ENDBRANCH   1   9
TORSDOF 10
ENDMDL
MODEL 4
REMARK VINA RESULT:    -3.887      2.205      5.361
REMARK INTER + INTRA:          -7.349
REMARK INTER:                  -6.474
REMARK INTRA:                  -0.875
REMARK UNBOUND:                -1.189
REMARK SMILES CCCCCCCCCCCC(=O)[O-]
REMARK SMILES IDX 7 1 8 2 9 3 10 4 11 5 12 6 13 7 14 8 6 9 5 10 4 11 3 12 2 13
REMARK SMILES IDX 1 14
REMARK H PARENT
REMARK Flexibility Score: inf
ROOT
ATOM      1  C   UNL     1     173.445 175.694 182.496  1.00  0.00     0.000 C 
ENDROOT
BRANCH   1   2
ATOM      2  C   UNL     1     174.770 174.984 182.811  1.00  0.00     0.000 C 
BRANCH   2   3
ATOM      3  C   UNL     1     175.891 175.965 183.198  1.00  0.00     0.000 C 
BRANCH   3   4
ATOM      4  C   UNL     1     176.999 176.064 182.133  1.00  0.00     0.006 C 
BRANCH   4   5
ATOM      5  C   UNL     1     177.018 177.405 181.377  1.00  0.00     0.053 C 
BRANCH   5   6
ATOM      6  C   UNL     1     176.597 177.269 179.946  1.00  0.00     0.041 C 
ATOM      7  O   UNL     1     177.306 176.618 179.134  1.00  0.00    -0.550 OA
ATOM      8  O   UNL     1     175.403 177.834 179.515  1.00  0.00    -0.550 OA
ENDBRANCH   5   6
ENDBRANCH   4   5
ENDBRANCH   3   4
ENDBRANCH   2   3
ENDBRANCH   1   2
BRANCH   1   9
ATOM      9  C   UNL     1     173.592 177.222 182.438  1.00  0.00     0.000 C 
BRANCH   9  10
ATOM     10  C   UNL     1     172.260 177.915 182.742  1.00  0.00    -0.000 C 
BRANCH  10  11
ATOM     11  C   UNL     1     171.292 177.792 181.555  1.00  0.00    -0.000 C 
BRANCH  11  12
ATOM     12  C   UNL     1     169.987 177.069 181.927  1.00  0.00    -0.000 C 
BRANCH  12  13
ATOM     13  C   UNL     1     169.903 176.733 183.424  1.00  0.00    -0.003 C 
ATOM     14  C   UNL     1     169.967 175.226 183.653  1.00  0.00     0.004 C 
ENDBRANCH  12  13
ENDBRANCH  11  12
ENDBRANCH  10  11
ENDBRANCH   9  10
ENDBRANCH   1   9
TORSDOF 10
ENDMDL
MODEL 5
REMARK VINA RESULT:    -3.867      1.343      3.707
REMARK INTER + INTRA:          -7.316
REMARK INTER:                  -5.984
REMARK INTRA:                  -1.333
REMARK UNBOUND:                -1.189
REMARK SMILES CCCCCCCCCCCC(=O)[O-]
REMARK SMILES IDX 7 1 8 2 9 3 10 4 11 5 12 6 13 7 14 8 6 9 5 10 4 11 3 12 2 13
REMARK SMILES IDX 1 14
REMARK H PARENT
REMARK Flexibility Score: inf
ROOT
ATOM      1  C   UNL     1     177.063 175.292 181.104  1.00  0.00     0.000 C 
ENDROOT
BRANCH   1   2
ATOM      2  C   UNL     1     177.139 176.825 181.182  1.00  0.00     0.000 C 
BRANCH   2   3
ATOM      3  C   UNL     1     176.856 177.501 179.829  1.00  0.00     0.000 C 
BRANCH   3   4
ATOM      4  C   UNL     1     175.353 177.668 179.542  1.00  0.00     0.006 C 
BRANCH   4   5
ATOM      5  C   UNL     1     174.808 176.694 178.482  1.00  0.00     0.053 C 
BRANCH   5   6
ATOM      6  C   UNL     1     173.311 176.646 178.453  1.00  0.00     0.041 C 
ATOM      7  O   UNL     1     172.716 175.666 177.932  1.00  0.00    -0.550 OA
ATOM      8  O   UNL     1     172.572 177.670 179.031  1.00  0.00    -0.550 OA
ENDBRANCH   5   6
ENDBRANCH   4   5
ENDBRANCH   3   4
ENDBRANCH   2   3
ENDBRANCH   1   2
BRANCH   1   9
ATOM      9  C   UNL     1     176.895 174.638 182.483  1.00  0.00     0.000 C 
BRANCH   9  10
ATOM     10  C   UNL     1     175.743 175.283 183.261  1.00  0.00    -0.000 C 
BRANCH  10  11
ATOM     11  C   UNL     1     174.395 174.661 182.867  1.00  0.00    -0.000 C 
BRANCH  11  12
ATOM     12  C   UNL     1     173.466 175.660 182.158  1.00  0.00    -0.000 C 
BRANCH  12  13
ATOM     13  C   UNL     1     173.681 177.106 182.631  1.00  0.00    -0.003 C 
ATOM     14  C   UNL     1     172.370 177.887 182.624  1.00  0.00     0.004 C 
ENDBRANCH  12  13
ENDBRANCH  11  12
ENDBRANCH  10  11
ENDBRANCH   9  10
ENDBRANCH   1   9
TORSDOF 10
ENDMDL
MODEL 6
REMARK VINA RESULT:    -3.846      1.128      2.763
REMARK INTER + INTRA:          -7.284
REMARK INTER:                  -6.045
REMARK INTRA:                  -1.239
REMARK UNBOUND:                -1.189
REMARK SMILES CCCCCCCCCCCC(=O)[O-]
REMARK SMILES IDX 7 1 8 2 9 3 10 4 11 5 12 6 13 7 14 8 6 9 5 10 4 11 3 12 2 13
REMARK SMILES IDX 1 14
REMARK H PARENT
REMARK Flexibility Score: inf
ROOT
ATOM      1  C   UNL     1     173.550 176.999 180.016  1.00  0.00     0.000 C 
ENDROOT
BRANCH   1   2
ATOM      2  C   UNL     1     173.207 176.351 181.366  1.00  0.00     0.000 C 
BRANCH   2   3
ATOM      3  C   UNL     1     173.146 177.373 182.515  1.00  0.00     0.000 C 
BRANCH   3   4
ATOM      4  C   UNL     1     171.770 178.051 182.646  1.00  0.00     0.006 C 
BRANCH   4   5
ATOM      5  C   UNL     1     170.612 177.067 182.894  1.00  0.00     0.053 C 
BRANCH   5   6
ATOM      6  C   UNL     1     169.606 177.065 181.784  1.00  0.00     0.041 C 
ATOM      7  O   UNL     1     168.538 176.407 181.895  1.00  0.00    -0.550 OA
ATOM      8  O   UNL     1     169.833 177.816 180.637  1.00  0.00    -0.550 OA
ENDBRANCH   5   6
ENDBRANCH   4   5
ENDBRANCH   3   4
ENDBRANCH   2   3
ENDBRANCH   1   2
BRANCH   1   9
ATOM      9  C   UNL     1     174.906 176.536 179.465  1.00  0.00     0.000 C 
BRANCH   9  10
ATOM     10  C   UNL     1     176.018 177.523 179.838  1.00  0.00    -0.000 C 
BRANCH  10  11
ATOM     11  C   UNL     1     177.020 176.882 180.811  1.00  0.00    -0.000 C 
BRANCH  11  12
ATOM     12  C   UNL     1     176.845 177.378 182.254  1.00  0.00    -0.000 C 
BRANCH  12  13
ATOM     13  C   UNL     1     176.506 176.243 183.233  1.00  0.00    -0.003 C 
ATOM     14  C   UNL     1     176.617 174.881 182.554  1.00  0.00     0.004 C 
ENDBRANCH  12  13
ENDBRANCH  11  12
ENDBRANCH  10  11
ENDBRANCH   9  10
ENDBRANCH   1   9
TORSDOF 10
ENDMDL
MODEL 7
REMARK VINA RESULT:    -3.838      1.159      2.855
REMARK INTER + INTRA:          -7.271
REMARK INTER:                  -5.914
REMARK INTRA:                  -1.357
REMARK UNBOUND:                -1.189
REMARK SMILES CCCCCCCCCCCC(=O)[O-]
REMARK SMILES IDX 7 1 8 2 9 3 10 4 11 5 12 6 13 7 14 8 6 9 5 10 4 11 3 12 2 13
REMARK SMILES IDX 1 14
REMARK H PARENT
REMARK Flexibility Score: inf
ROOT
ATOM      1  C   UNL     1     174.929 176.632 179.258  1.00  0.00     0.000 C 
ENDROOT
BRANCH   1   2
ATOM      2  C   UNL     1     173.493 176.976 179.685  1.00  0.00     0.000 C 
BRANCH   2   3
ATOM      3  C   UNL     1     173.065 176.240 180.968  1.00  0.00     0.000 C 
BRANCH   3   4
ATOM      4  C   UNL     1     173.219 177.101 182.235  1.00  0.00     0.006 C 
BRANCH   4   5
ATOM      5  C   UNL     1     172.022 178.028 182.509  1.00  0.00     0.053 C 
BRANCH   5   6
ATOM      6  C   UNL     1     170.709 177.396 182.162  1.00  0.00     0.041 C 
ATOM      7  O   UNL     1     170.112 177.712 181.099  1.00  0.00    -0.550 OA
ATOM      8  O   UNL     1     170.158 176.432 182.997  1.00  0.00    -0.550 OA
ENDBRANCH   5   6
ENDBRANCH   4   5
ENDBRANCH   3   4
ENDBRANCH   2   3
ENDBRANCH   1   2
BRANCH   1   9
ATOM      9  C   UNL     1     175.949 177.685 179.713  1.00  0.00     0.000 C 
BRANCH   9  10
ATOM     10  C   UNL     1     177.038 177.053 180.588  1.00  0.00    -0.000 C 
BRANCH  10  11
ATOM     11  C   UNL     1     176.909 177.515 182.048  1.00  0.00    -0.000 C 
BRANCH  11  12
ATOM     12  C   UNL     1     176.657 176.351 183.018  1.00  0.00    -0.000 C 
BRANCH  12  13
ATOM     13  C   UNL     1     176.779 174.978 182.339  1.00  0.00    -0.003 C 
ATOM     14  C   UNL     1     175.525 174.139 182.566  1.00  0.00     0.004 C 
ENDBRANCH  12  13
ENDBRANCH  11  12
ENDBRANCH  10  11
ENDBRANCH   9  10
ENDBRANCH   1   9
TORSDOF 10
ENDMDL
MODEL 8
REMARK VINA RESULT:    -3.808      2.434      4.534
REMARK INTER + INTRA:          -7.223
REMARK INTER:                  -5.759
REMARK INTRA:                  -1.464
REMARK UNBOUND:                -1.189
REMARK SMILES CCCCCCCCCCCC(=O)[O-]
REMARK SMILES IDX 7 1 8 2 9 3 10 4 11 5 12 6 13 7 14 8 6 9 5 10 4 11 3 12 2 13
REMARK SMILES IDX 1 14
REMARK H PARENT
REMARK Flexibility Score: inf
ROOT
ATOM      1  C   UNL     1     176.285 175.619 183.318  1.00  0.00     0.000 C 
ENDROOT
BRANCH   1   2
ATOM      2  C   UNL     1     176.562 176.990 182.682  1.00  0.00     0.000 C 
BRANCH   2   3
ATOM      3  C   UNL     1     177.060 176.879 181.230  1.00  0.00     0.000 C 
BRANCH   3   4
ATOM      4  C   UNL     1     176.093 177.511 180.212  1.00  0.00     0.006 C 
BRANCH   4   5
ATOM      5  C   UNL     1     175.319 176.485 179.365  1.00  0.00     0.053 C 
BRANCH   5   6
ATOM      6  C   UNL     1     175.930 176.270 178.015  1.00  0.00     0.041 C 
ATOM      7  O   UNL     1     175.215 175.900 177.046  1.00  0.00    -0.550 OA
ATOM      8  O   UNL     1     177.284 176.510 177.816  1.00  0.00    -0.550 OA
ENDBRANCH   5   6
ENDBRANCH   4   5
ENDBRANCH   3   4
ENDBRANCH   2   3
ENDBRANCH   1   2
BRANCH   1   9
ATOM      9  C   UNL     1     176.427 174.463 182.318  1.00  0.00     0.000 C 
BRANCH   9  10
ATOM     10  C   UNL     1     175.128 173.655 182.223  1.00  0.00    -0.000 C 
BRANCH  10  11
ATOM     11  C   UNL     1     173.966 174.399 182.899  1.00  0.00    -0.000 C 
BRANCH  11  12
ATOM     12  C   UNL     1     172.959 174.970 181.888  1.00  0.00    -0.000 C 
BRANCH  12  13
ATOM     13  C   UNL     1     172.128 176.123 182.469  1.00  0.00    -0.003 C 
ATOM     14  C   UNL     1     172.877 177.449 182.364  1.00  0.00     0.004 C 
ENDBRANCH  12  13
ENDBRANCH  11  12
ENDBRANCH  10  11
ENDBRANCH   9  10
ENDBRANCH   1   9
TORSDOF 10
ENDMDL
MODEL 9
REMARK VINA RESULT:    -3.588      3.760      4.630
REMARK INTER + INTRA:          -6.874
REMARK INTER:                  -5.533
REMARK INTRA:                  -1.341
REMARK UNBOUND:                -1.189
REMARK SMILES CCCCCCCCCCCC(=O)[O-]
REMARK SMILES IDX 7 1 8 2 9 3 10 4 11 5 12 6 13 7 14 8 6 9 5 10 4 11 3 12 2 13
REMARK SMILES IDX 1 14
REMARK H PARENT
REMARK Flexibility Score: inf
ROOT
ATOM      1  C   UNL     1     174.627 176.732 182.836  1.00  0.00     0.000 C 
ENDROOT
BRANCH   1   2
ATOM      2  C   UNL     1     174.072 175.545 182.034  1.00  0.00     0.000 C 
BRANCH   2   3
ATOM      3  C   UNL     1     174.051 174.239 182.848  1.00  0.00     0.000 C 
BRANCH   3   4
ATOM      4  C   UNL     1     174.719 173.062 182.114  1.00  0.00     0.006 C 
BRANCH   4   5
ATOM      5  C   UNL     1     175.825 173.487 181.131  1.00  0.00     0.053 C 
BRANCH   5   6
ATOM      6  C   UNL     1     177.094 172.713 181.317  1.00  0.00     0.041 C 
ATOM      7  O   UNL     1     177.244 171.595 180.756  1.00  0.00    -0.550 OA
ATOM      8  O   UNL     1     178.125 173.241 182.084  1.00  0.00    -0.550 OA
ENDBRANCH   5   6
ENDBRANCH   4   5
ENDBRANCH   3   4
ENDBRANCH   2   3
ENDBRANCH   1   2
BRANCH   1   9
ATOM      9  C   UNL     1     176.026 176.458 183.407  1.00  0.00     0.000 C 
BRANCH   9  10
ATOM     10  C   UNL     1     177.105 176.646 182.335  1.00  0.00    -0.000 C 
BRANCH  10  11
ATOM     11  C   UNL     1     177.023 178.048 181.711  1.00  0.00    -0.000 C 
BRANCH  11  12
ATOM     12  C   UNL     1     177.380 178.054 180.217  1.00  0.00    -0.000 C 
BRANCH  12  13
ATOM     13  C   UNL     1     176.648 176.956 179.430  1.00  0.00    -0.003 C 
ATOM     14  C   UNL     1     175.204 177.357 179.141  1.00  0.00     0.004 C 
ENDBRANCH  12  13
ENDBRANCH  11  12
ENDBRANCH  10  11
ENDBRANCH   9  10
ENDBRANCH   1   9
TORSDOF 10
ENDMDL
