MODEL 1
REMARK VINA RESULT:    -5.571      0.000      0.000
REMARK INTER + INTRA:          -6.972
REMARK INTER:                  -6.711
REMARK INTRA:                  -0.261
REMARK UNBOUND:                -0.261
REMARK SMILES O=c1c(O)c(-c2ccc(O)c(O)c2)oc2cc(O)cc(O)c12
REMARK SMILES IDX 5 1 3 2 2 3 1 4 22 5 20 6 19 7 17 8 16 9 15 10 14 11 6 12
REMARK SMILES IDX 7 13 8 14 9 15 13 16 11 17 10 18 12 20 4 22 21 24 18 26
REMARK H PARENT 10 19 12 21 4 23 21 25 18 27
REMARK Flexibility Score: inf
ROOT
ATOM      1  C   UNL     1      49.283 -22.377  12.649  1.00  0.00     0.180 A 
ATOM      2  C   UNL     1      50.376 -22.323  11.767  1.00  0.00     0.208 A 
ATOM      3  C   UNL     1      51.233 -21.212  11.811  1.00  0.00     0.238 A 
ATOM      4  O   UNL     1      52.165 -21.135  10.969  1.00  0.00    -0.285 OA
ATOM      5  C   UNL     1      51.020 -20.195  12.773  1.00  0.00     0.111 A 
ATOM      6  C   UNL     1      51.853 -19.046  12.939  1.00  0.00     0.134 A 
ATOM      7  C   UNL     1      51.483 -18.053  13.854  1.00  0.00     0.093 A 
ATOM      8  C   UNL     1      50.351 -18.194  14.655  1.00  0.00     0.123 A 
ATOM      9  C   UNL     1      49.561 -19.339  14.541  1.00  0.00     0.094 A 
ATOM     10  C   UNL     1      49.881 -20.331  13.609  1.00  0.00     0.146 A 
ATOM     11  O   UNL     1      49.090 -21.392  13.518  1.00  0.00    -0.452 OA
ENDROOT
BRANCH   1  12
ATOM     12  C   UNL     1      48.327 -23.508  12.652  1.00  0.00     0.025 A 
ATOM     13  C   UNL     1      47.385 -23.616  11.616  1.00  0.00     0.016 A 
ATOM     14  C   UNL     1      46.487 -24.686  11.587  1.00  0.00     0.051 A 
ATOM     15  C   UNL     1      46.528 -25.670  12.584  1.00  0.00     0.157 A 
ATOM     16  C   UNL     1      48.378 -24.508  13.638  1.00  0.00     0.062 A 
ATOM     17  C   UNL     1      47.478 -25.584  13.609  1.00  0.00     0.158 A 
BRANCH  15  18
ATOM     18  O   UNL     1      45.632 -26.738  12.559  1.00  0.00    -0.504 OA
ATOM     19  H   UNL     1      44.632 -26.592  12.633  1.00  0.00     0.293 HD
ENDBRANCH  15  18
BRANCH  17  20
ATOM     20  O   UNL     1      47.526 -26.571  14.591  1.00  0.00    -0.504 OA
ATOM     21  H   UNL     1      46.828 -26.625  15.324  1.00  0.00     0.293 HD
ENDBRANCH  17  20
ENDBRANCH   1  12
BRANCH   2  22
ATOM     22  O   UNL     1      50.614 -23.373  10.875  1.00  0.00    -0.502 OA
ATOM     23  H   UNL     1      50.324 -24.324  11.065  1.00  0.00     0.293 HD
ENDBRANCH   2  22
BRANCH   6  24
ATOM     24  O   UNL     1      53.055 -18.844  12.255  1.00  0.00    -0.507 OA
ATOM     25  H   UNL     1      53.874 -18.402  12.644  1.00  0.00     0.293 HD
ENDBRANCH   6  24
BRANCH   8  26
ATOM     26  O   UNL     1      50.023 -17.194  15.567  1.00  0.00    -0.508 OA
ATOM     27  H   UNL     1      49.904 -17.393  16.553  1.00  0.00     0.293 HD
ENDBRANCH   8  26
TORSDOF 6
ENDMDL
MODEL 2
REMARK VINA RESULT:    -5.270      1.681      6.932
REMARK INTER + INTRA:          -6.609
REMARK INTER:                  -6.298
REMARK INTRA:                  -0.311
REMARK UNBOUND:                -0.261
REMARK SMILES O=c1c(O)c(-c2ccc(O)c(O)c2)oc2cc(O)cc(O)c12
REMARK SMILES IDX 5 1 3 2 2 3 1 4 22 5 20 6 19 7 17 8 16 9 15 10 14 11 6 12
REMARK SMILES IDX 7 13 8 14 9 15 13 16 11 17 10 18 12 20 4 22 21 24 18 26
REMARK H PARENT 10 19 12 21 4 23 21 25 18 27
REMARK Flexibility Score: inf
ROOT
ATOM      1  C   UNL     1      49.544 -21.778  13.735  1.00  0.00     0.180 A 
ATOM      2  C   UNL     1      48.721 -22.114  12.647  1.00  0.00     0.208 A 
ATOM      3  C   UNL     1      48.286 -23.441  12.507  1.00  0.00     0.238 A 
ATOM      4  O   UNL     1      47.611 -23.750  11.490  1.00  0.00    -0.285 OA
ATOM      5  C   UNL     1      48.631 -24.405  13.486  1.00  0.00     0.111 A 
ATOM      6  C   UNL     1      48.207 -25.768  13.469  1.00  0.00     0.134 A 
ATOM      7  C   UNL     1      48.699 -26.655  14.435  1.00  0.00     0.093 A 
ATOM      8  C   UNL     1      49.546 -26.218  15.452  1.00  0.00     0.123 A 
ATOM      9  C   UNL     1      49.922 -24.875  15.510  1.00  0.00     0.094 A 
ATOM     10  C   UNL     1      49.479 -23.973  14.539  1.00  0.00     0.146 A 
ATOM     11  O   UNL     1      49.879 -22.710  14.620  1.00  0.00    -0.452 OA
ENDROOT
BRANCH   1  12
ATOM     12  C   UNL     1      50.056 -20.404  13.942  1.00  0.00     0.025 A 
ATOM     13  C   UNL     1      49.255 -19.463  14.609  1.00  0.00     0.016 A 
ATOM     14  C   UNL     1      49.725 -18.167  14.835  1.00  0.00     0.051 A 
ATOM     15  C   UNL     1      51.008 -17.797  14.410  1.00  0.00     0.157 A 
ATOM     16  C   UNL     1      51.351 -20.035  13.536  1.00  0.00     0.062 A 
ATOM     17  C   UNL     1      51.824 -18.734  13.763  1.00  0.00     0.158 A 
BRANCH  15  18
ATOM     18  O   UNL     1      51.480 -16.505  14.631  1.00  0.00    -0.504 OA
ATOM     19  H   UNL     1      50.880 -15.778  15.004  1.00  0.00     0.293 HD
ENDBRANCH  15  18
BRANCH  17  20
ATOM     20  O   UNL     1      53.105 -18.368  13.354  1.00  0.00    -0.504 OA
ATOM     21  H   UNL     1      53.342 -18.274  12.373  1.00  0.00     0.293 HD
ENDBRANCH  17  20
ENDBRANCH   1  12
BRANCH   2  22
ATOM     22  O   UNL     1      48.328 -21.133  11.733  1.00  0.00    -0.502 OA
ATOM     23  H   UNL     1      48.468 -20.144  11.901  1.00  0.00     0.293 HD
ENDBRANCH   2  22
BRANCH   6  24
ATOM     24  O   UNL     1      47.294 -26.294  12.551  1.00  0.00    -0.507 OA
ATOM     25  H   UNL     1      47.414 -26.289  11.549  1.00  0.00     0.293 HD
ENDBRANCH   6  24
BRANCH   8  26
ATOM     26  O   UNL     1      50.003 -27.125  16.405  1.00  0.00    -0.508 OA
ATOM     27  H   UNL     1      50.231 -26.833  17.349  1.00  0.00     0.293 HD
ENDBRANCH   8  26
TORSDOF 6
ENDMDL
MODEL 3
REMARK VINA RESULT:    -5.072      1.772      6.726
REMARK INTER + INTRA:          -6.370
REMARK INTER:                  -6.529
REMARK INTRA:                   0.159
REMARK UNBOUND:                -0.261
REMARK SMILES O=c1c(O)c(-c2ccc(O)c(O)c2)oc2cc(O)cc(O)c12
REMARK SMILES IDX 5 1 3 2 2 3 1 4 22 5 20 6 19 7 17 8 16 9 15 10 14 11 6 12
REMARK SMILES IDX 7 13 8 14 9 15 13 16 11 17 10 18 12 20 4 22 21 24 18 26
REMARK H PARENT 10 19 12 21 4 23 21 25 18 27
REMARK Flexibility Score: inf
ROOT
ATOM      1  C   UNL     1      49.835 -21.579  12.796  1.00  0.00     0.180 A 
ATOM      2  C   UNL     1      50.429 -22.847  12.678  1.00  0.00     0.208 A 
ATOM      3  C   UNL     1      49.660 -23.919  12.200  1.00  0.00     0.238 A 
ATOM      4  O   UNL     1      50.177 -25.066  12.167  1.00  0.00    -0.285 OA
ATOM      5  C   UNL     1      48.321 -23.699  11.791  1.00  0.00     0.111 A 
ATOM      6  C   UNL     1      47.463 -24.703  11.248  1.00  0.00     0.134 A 
ATOM      7  C   UNL     1      46.124 -24.393  10.978  1.00  0.00     0.093 A 
ATOM      8  C   UNL     1      45.629 -23.104  11.170  1.00  0.00     0.123 A 
ATOM      9  C   UNL     1      46.474 -22.102  11.649  1.00  0.00     0.094 A 
ATOM     10  C   UNL     1      47.805 -22.388  11.963  1.00  0.00     0.146 A 
ATOM     11  O   UNL     1      48.568 -21.411  12.436  1.00  0.00    -0.452 OA
ENDROOT
BRANCH   1  12
ATOM     12  C   UNL     1      50.577 -20.404  13.307  1.00  0.00     0.025 A 
ATOM     13  C   UNL     1      51.899 -20.188  12.887  1.00  0.00     0.016 A 
ATOM     14  C   UNL     1      52.612 -19.075  13.339  1.00  0.00     0.051 A 
ATOM     15  C   UNL     1      52.008 -18.154  14.206  1.00  0.00     0.157 A 
ATOM     16  C   UNL     1      49.969 -19.467  14.161  1.00  0.00     0.062 A 
ATOM     17  C   UNL     1      50.683 -18.348  14.614  1.00  0.00     0.158 A 
BRANCH  15  18
ATOM     18  O   UNL     1      52.717 -17.044  14.661  1.00  0.00    -0.504 OA
ATOM     19  H   UNL     1      53.599 -17.142  15.151  1.00  0.00     0.293 HD
ENDBRANCH  15  18
BRANCH  17  20
ATOM     20  O   UNL     1      50.080 -17.424  15.465  1.00  0.00    -0.504 OA
ATOM     21  H   UNL     1      49.092 -17.208  15.400  1.00  0.00     0.293 HD
ENDBRANCH  17  20
ENDBRANCH   1  12
BRANCH   2  22
ATOM     22  O   UNL     1      51.774 -23.028  13.015  1.00  0.00    -0.502 OA
ATOM     23  H   UNL     1      52.151 -22.756  13.914  1.00  0.00     0.293 HD
ENDBRANCH   2  22
BRANCH   6  24
ATOM     24  O   UNL     1      47.875 -26.001  10.933  1.00  0.00    -0.507 OA
ATOM     25  H   UNL     1      48.197 -26.684  11.603  1.00  0.00     0.293 HD
ENDBRANCH   6  24
BRANCH   8  26
ATOM     26  O   UNL     1      44.296 -22.827  10.875  1.00  0.00    -0.508 OA
ATOM     27  H   UNL     1      43.650 -23.558  10.600  1.00  0.00     0.293 HD
ENDBRANCH   8  26
TORSDOF 6
ENDMDL
MODEL 4
REMARK VINA RESULT:    -4.866      2.205      7.072
REMARK INTER + INTRA:          -6.123
REMARK INTER:                  -6.412
REMARK INTRA:                   0.289
REMARK UNBOUND:                -0.261
REMARK SMILES O=c1c(O)c(-c2ccc(O)c(O)c2)oc2cc(O)cc(O)c12
REMARK SMILES IDX 5 1 3 2 2 3 1 4 22 5 20 6 19 7 17 8 16 9 15 10 14 11 6 12
REMARK SMILES IDX 7 13 8 14 9 15 13 16 11 17 10 18 12 20 4 22 21 24 18 26
REMARK H PARENT 10 19 12 21 4 23 21 25 18 27
REMARK Flexibility Score: inf
ROOT
ATOM      1  C   UNL     1      50.306 -21.879  12.694  1.00  0.00     0.180 A 
ATOM      2  C   UNL     1      48.936 -22.115  12.487  1.00  0.00     0.208 A 
ATOM      3  C   UNL     1      48.528 -23.358  11.980  1.00  0.00     0.238 A 
ATOM      4  O   UNL     1      47.308 -23.535  11.728  1.00  0.00    -0.285 OA
ATOM      5  C   UNL     1      49.487 -24.372  11.738  1.00  0.00     0.111 A 
ATOM      6  C   UNL     1      49.182 -25.685  11.267  1.00  0.00     0.134 A 
ATOM      7  C   UNL     1      50.224 -26.569  10.964  1.00  0.00     0.093 A 
ATOM      8  C   UNL     1      51.556 -26.213  11.172  1.00  0.00     0.123 A 
ATOM      9  C   UNL     1      51.864 -24.952  11.684  1.00  0.00     0.094 A 
ATOM     10  C   UNL     1      50.848 -24.033  11.962  1.00  0.00     0.146 A 
ATOM     11  O   UNL     1      51.186 -22.837  12.427  1.00  0.00    -0.452 OA
ENDROOT
BRANCH   1  12
ATOM     12  C   UNL     1      50.816 -20.588  13.211  1.00  0.00     0.025 A 
ATOM     13  C   UNL     1      52.081 -20.135  12.806  1.00  0.00     0.016 A 
ATOM     14  C   UNL     1      52.573 -18.910  13.265  1.00  0.00     0.051 A 
ATOM     15  C   UNL     1      51.801 -18.115  14.122  1.00  0.00     0.157 A 
ATOM     16  C   UNL     1      50.036 -19.778  14.055  1.00  0.00     0.062 A 
ATOM     17  C   UNL     1      50.528 -18.547  14.514  1.00  0.00     0.158 A 
BRANCH  15  18
ATOM     18  O   UNL     1      52.289 -16.894  14.583  1.00  0.00    -0.504 OA
ATOM     19  H   UNL     1      51.705 -16.254  15.109  1.00  0.00     0.293 HD
ENDBRANCH  15  18
BRANCH  17  20
ATOM     20  O   UNL     1      49.757 -17.748  15.355  1.00  0.00    -0.504 OA
ATOM     21  H   UNL     1      49.314 -16.899  15.022  1.00  0.00     0.293 HD
ENDBRANCH  17  20
ENDBRANCH   1  12
BRANCH   2  22
ATOM     22  O   UNL     1      47.997 -21.129  12.804  1.00  0.00    -0.502 OA
ATOM     23  H   UNL     1      47.740 -20.394  12.156  1.00  0.00     0.293 HD
ENDBRANCH   2  22
BRANCH   6  24
ATOM     24  O   UNL     1      47.883 -26.177  11.106  1.00  0.00    -0.507 OA
ATOM     25  H   UNL     1      47.129 -26.044  11.763  1.00  0.00     0.293 HD
ENDBRANCH   6  24
BRANCH   8  26
ATOM     26  O   UNL     1      52.567 -27.124  10.875  1.00  0.00    -0.508 OA
ATOM     27  H   UNL     1      53.249 -26.942  10.149  1.00  0.00     0.293 HD
ENDBRANCH   8  26
TORSDOF 6
ENDMDL
MODEL 5
REMARK VINA RESULT:    -4.304      1.320      1.971
REMARK INTER + INTRA:          -5.445
REMARK INTER:                  -5.249
REMARK INTRA:                  -0.196
REMARK UNBOUND:                -0.261
REMARK SMILES O=c1c(O)c(-c2ccc(O)c(O)c2)oc2cc(O)cc(O)c12
REMARK SMILES IDX 5 1 3 2 2 3 1 4 22 5 20 6 19 7 17 8 16 9 15 10 14 11 6 12
REMARK SMILES IDX 7 13 8 14 9 15 13 16 11 17 10 18 12 20 4 22 21 24 18 26
REMARK H PARENT 10 19 12 21 4 23 21 25 18 27
REMARK Flexibility Score: inf
ROOT
ATOM      1  C   UNL     1      48.827 -23.527  12.929  1.00  0.00     0.180 A 
ATOM      2  C   UNL     1      49.924 -23.789  12.090  1.00  0.00     0.208 A 
ATOM      3  C   UNL     1      50.949 -22.836  11.990  1.00  0.00     0.238 A 
ATOM      4  O   UNL     1      51.889 -23.044  11.180  1.00  0.00    -0.285 OA
ATOM      5  C   UNL     1      50.894 -21.656  12.772  1.00  0.00     0.111 A 
ATOM      6  C   UNL     1      51.899 -20.642  12.784  1.00  0.00     0.134 A 
ATOM      7  C   UNL     1      51.686 -19.468  13.518  1.00  0.00     0.093 A 
ATOM      8  C   UNL     1      50.538 -19.298  14.289  1.00  0.00     0.123 A 
ATOM      9  C   UNL     1      49.574 -20.306  14.328  1.00  0.00     0.094 A 
ATOM     10  C   UNL     1      49.739 -21.473  13.577  1.00  0.00     0.146 A 
ATOM     11  O   UNL     1      48.788 -22.397  13.626  1.00  0.00    -0.452 OA
ENDROOT
BRANCH   1  12
ATOM     12  C   UNL     1      47.701 -24.477  13.076  1.00  0.00     0.025 A 
ATOM     13  C   UNL     1      47.445 -25.054  14.330  1.00  0.00     0.016 A 
ATOM     14  C   UNL     1      46.375 -25.937  14.497  1.00  0.00     0.051 A 
ATOM     15  C   UNL     1      45.537 -26.243  13.416  1.00  0.00     0.157 A 
ATOM     16  C   UNL     1      46.845 -24.771  12.000  1.00  0.00     0.062 A 
ATOM     17  C   UNL     1      45.769 -25.656  12.167  1.00  0.00     0.158 A 
BRANCH  15  18
ATOM     18  O   UNL     1      44.470 -27.125  13.578  1.00  0.00    -0.504 OA
ATOM     19  H   UNL     1      44.619 -28.118  13.710  1.00  0.00     0.293 HD
ENDBRANCH  15  18
BRANCH  17  20
ATOM     20  O   UNL     1      44.926 -25.950  11.097  1.00  0.00    -0.504 OA
ATOM     21  H   UNL     1      44.514 -25.219  10.529  1.00  0.00     0.293 HD
ENDBRANCH  17  20
ENDBRANCH   1  12
BRANCH   2  22
ATOM     22  O   UNL     1      49.997 -24.994  11.384  1.00  0.00    -0.502 OA
ATOM     23  H   UNL     1      49.982 -25.896  11.844  1.00  0.00     0.293 HD
ENDBRANCH   2  22
BRANCH   6  24
ATOM     24  O   UNL     1      53.125 -20.745  12.120  1.00  0.00    -0.507 OA
ATOM     25  H   UNL     1      53.627 -21.607  11.965  1.00  0.00     0.293 HD
ENDBRANCH   6  24
BRANCH   8  26
ATOM     26  O   UNL     1      50.367 -18.124  15.020  1.00  0.00    -0.508 OA
ATOM     27  H   UNL     1      50.247 -18.138  16.026  1.00  0.00     0.293 HD
ENDBRANCH   8  26
TORSDOF 6
ENDMDL
MODEL 6
REMARK VINA RESULT:    -4.162      1.565      7.013
REMARK INTER + INTRA:          -5.275
REMARK INTER:                  -4.972
REMARK INTRA:                  -0.303
REMARK UNBOUND:                -0.261
REMARK SMILES O=c1c(O)c(-c2ccc(O)c(O)c2)oc2cc(O)cc(O)c12
REMARK SMILES IDX 5 1 3 2 2 3 1 4 22 5 20 6 19 7 17 8 16 9 15 10 14 11 6 12
REMARK SMILES IDX 7 13 8 14 9 15 13 16 11 17 10 18 12 20 4 22 21 24 18 26
REMARK H PARENT 10 19 12 21 4 23 21 25 18 27
REMARK Flexibility Score: inf
ROOT
ATOM      1  C   UNL     1      49.669 -22.828  12.815  1.00  0.00     0.180 A 
ATOM      2  C   UNL     1      49.983 -23.710  13.864  1.00  0.00     0.208 A 
ATOM      3  C   UNL     1      49.086 -24.743  14.176  1.00  0.00     0.238 A 
ATOM      4  O   UNL     1      49.337 -25.482  15.164  1.00  0.00    -0.285 OA
ATOM      5  C   UNL     1      47.913 -24.918  13.401  1.00  0.00     0.111 A 
ATOM      6  C   UNL     1      46.956 -25.960  13.599  1.00  0.00     0.134 A 
ATOM      7  C   UNL     1      45.781 -25.970  12.838  1.00  0.00     0.093 A 
ATOM      8  C   UNL     1      45.556 -25.018  11.845  1.00  0.00     0.123 A 
ATOM      9  C   UNL     1      46.510 -24.029  11.605  1.00  0.00     0.094 A 
ATOM     10  C   UNL     1      47.676 -23.969  12.374  1.00  0.00     0.146 A 
ATOM     11  O   UNL     1      48.546 -22.998  12.127  1.00  0.00    -0.452 OA
ENDROOT
BRANCH   1  12
ATOM     12  C   UNL     1      50.557 -21.706  12.436  1.00  0.00     0.025 A 
ATOM     13  C   UNL     1      51.352 -21.814  11.284  1.00  0.00     0.016 A 
ATOM     14  C   UNL     1      52.182 -20.759  10.895  1.00  0.00     0.051 A 
ATOM     15  C   UNL     1      52.217 -19.576  11.645  1.00  0.00     0.157 A 
ATOM     16  C   UNL     1      50.581 -20.508  13.173  1.00  0.00     0.062 A 
ATOM     17  C   UNL     1      51.412 -19.448  12.783  1.00  0.00     0.158 A 
BRANCH  15  18
ATOM     18  O   UNL     1      53.045 -18.522  11.262  1.00  0.00    -0.504 OA
ATOM     19  H   UNL     1      53.534 -18.528  10.374  1.00  0.00     0.293 HD
ENDBRANCH  15  18
BRANCH  17  20
ATOM     20  O   UNL     1      51.438 -18.265  13.518  1.00  0.00    -0.504 OA
ATOM     21  H   UNL     1      52.165 -18.080  14.200  1.00  0.00     0.293 HD
ENDBRANCH  17  20
ENDBRANCH   1  12
BRANCH   2  22
ATOM     22  O   UNL     1      51.181 -23.567  14.569  1.00  0.00    -0.502 OA
ATOM     23  H   UNL     1      51.300 -22.885  15.308  1.00  0.00     0.293 HD
ENDBRANCH   2  22
BRANCH   6  24
ATOM     24  O   UNL     1      47.120 -27.013  14.504  1.00  0.00    -0.507 OA
ATOM     25  H   UNL     1      48.008 -27.408  14.776  1.00  0.00     0.293 HD
ENDBRANCH   6  24
BRANCH   8  26
ATOM     26  O   UNL     1      44.383 -25.069  11.096  1.00  0.00    -0.508 OA
ATOM     27  H   UNL     1      44.161 -25.866  10.510  1.00  0.00     0.293 HD
ENDBRANCH   8  26
TORSDOF 6
ENDMDL
MODEL 7
REMARK VINA RESULT:    -4.123      1.723      6.708
REMARK INTER + INTRA:          -5.227
REMARK INTER:                  -5.603
REMARK INTRA:                   0.376
REMARK UNBOUND:                -0.261
REMARK SMILES O=c1c(O)c(-c2ccc(O)c(O)c2)oc2cc(O)cc(O)c12
REMARK SMILES IDX 5 1 3 2 2 3 1 4 22 5 20 6 19 7 17 8 16 9 15 10 14 11 6 12
REMARK SMILES IDX 7 13 8 14 9 15 13 16 11 17 10 18 12 20 4 22 21 24 18 26
REMARK H PARENT 10 19 12 21 4 23 21 25 18 27
REMARK Flexibility Score: inf
ROOT
ATOM      1  C   UNL     1      50.833 -21.777  13.214  1.00  0.00     0.180 A 
ATOM      2  C   UNL     1      51.494 -22.369  12.124  1.00  0.00     0.208 A 
ATOM      3  C   UNL     1      51.219 -23.708  11.806  1.00  0.00     0.238 A 
ATOM      4  O   UNL     1      51.869 -24.252  10.876  1.00  0.00    -0.285 OA
ATOM      5  C   UNL     1      50.245 -24.423  12.544  1.00  0.00     0.111 A 
ATOM      6  C   UNL     1      49.852 -25.770  12.280  1.00  0.00     0.134 A 
ATOM      7  C   UNL     1      48.954 -26.409  13.144  1.00  0.00     0.093 A 
ATOM      8  C   UNL     1      48.386 -25.734  14.223  1.00  0.00     0.123 A 
ATOM      9  C   UNL     1      48.720 -24.399  14.458  1.00  0.00     0.094 A 
ATOM     10  C   UNL     1      49.642 -23.745  13.636  1.00  0.00     0.146 A 
ATOM     11  O   UNL     1      49.948 -22.483  13.909  1.00  0.00    -0.452 OA
ENDROOT
BRANCH   1  12
ATOM     12  C   UNL     1      51.081 -20.375  13.621  1.00  0.00     0.025 A 
ATOM     13  C   UNL     1      52.306 -19.770  13.297  1.00  0.00     0.016 A 
ATOM     14  C   UNL     1      52.555 -18.442  13.652  1.00  0.00     0.051 A 
ATOM     15  C   UNL     1      51.577 -17.696  14.323  1.00  0.00     0.157 A 
ATOM     16  C   UNL     1      50.096 -19.616  14.277  1.00  0.00     0.062 A 
ATOM     17  C   UNL     1      50.344 -18.282  14.633  1.00  0.00     0.158 A 
BRANCH  15  18
ATOM     18  O   UNL     1      51.822 -16.371  14.682  1.00  0.00    -0.504 OA
ATOM     19  H   UNL     1      51.958 -16.101  15.649  1.00  0.00     0.293 HD
ENDBRANCH  15  18
BRANCH  17  20
ATOM     20  O   UNL     1      49.368 -17.534  15.288  1.00  0.00    -0.504 OA
ATOM     21  H   UNL     1      48.622 -17.073  14.780  1.00  0.00     0.293 HD
ENDBRANCH  17  20
ENDBRANCH   1  12
BRANCH   2  22
ATOM     22  O   UNL     1      52.397 -21.624  11.360  1.00  0.00    -0.502 OA
ATOM     23  H   UNL     1      52.399 -20.611  11.355  1.00  0.00     0.293 HD
ENDBRANCH   2  22
BRANCH   6  24
ATOM     24  O   UNL     1      50.290 -26.512  11.179  1.00  0.00    -0.507 OA
ATOM     25  H   UNL     1      50.102 -27.493  11.031  1.00  0.00     0.293 HD
ENDBRANCH   6  24
BRANCH   8  26
ATOM     26  O   UNL     1      47.483 -26.396  15.052  1.00  0.00    -0.508 OA
ATOM     27  H   UNL     1      46.801 -27.046  14.681  1.00  0.00     0.293 HD
ENDBRANCH   8  26
TORSDOF 6
ENDMDL
MODEL 8
REMARK VINA RESULT:    -3.531      5.375      7.007
REMARK INTER + INTRA:          -4.515
REMARK INTER:                  -4.248
REMARK INTRA:                  -0.267
REMARK UNBOUND:                -0.261
REMARK SMILES O=c1c(O)c(-c2ccc(O)c(O)c2)oc2cc(O)cc(O)c12
REMARK SMILES IDX 5 1 3 2 2 3 1 4 22 5 20 6 19 7 17 8 16 9 15 10 14 11 6 12
REMARK SMILES IDX 7 13 8 14 9 15 13 16 11 17 10 18 12 20 4 22 21 24 18 26
REMARK H PARENT 10 19 12 21 4 23 21 25 18 27
REMARK Flexibility Score: inf
ROOT
ATOM      1  C   UNL     1      45.597 -26.012  14.835  1.00  0.00     0.180 A 
ATOM      2  C   UNL     1      45.364 -25.882  13.455  1.00  0.00     0.208 A 
ATOM      3  C   UNL     1      46.456 -25.903  12.575  1.00  0.00     0.238 A 
ATOM      4  O   UNL     1      46.247 -25.712  11.349  1.00  0.00    -0.285 OA
ATOM      5  C   UNL     1      47.764 -26.109  13.078  1.00  0.00     0.111 A 
ATOM      6  C   UNL     1      48.941 -26.194  12.273  1.00  0.00     0.134 A 
ATOM      7  C   UNL     1      50.193 -26.295  12.890  1.00  0.00     0.093 A 
ATOM      8  C   UNL     1      50.310 -26.378  14.277  1.00  0.00     0.123 A 
ATOM      9  C   UNL     1      49.163 -26.352  15.071  1.00  0.00     0.094 A 
ATOM     10  C   UNL     1      47.900 -26.214  14.487  1.00  0.00     0.146 A 
ATOM     11  O   UNL     1      46.838 -26.171  15.281  1.00  0.00    -0.452 OA
ENDROOT
BRANCH   1  12
ATOM     12  C   UNL     1      44.498 -25.984  15.827  1.00  0.00     0.025 A 
ATOM     13  C   UNL     1      43.691 -27.121  15.994  1.00  0.00     0.016 A 
ATOM     14  C   UNL     1      42.661 -27.125  16.939  1.00  0.00     0.051 A 
ATOM     15  C   UNL     1      42.434 -25.998  17.740  1.00  0.00     0.157 A 
ATOM     16  C   UNL     1      44.279 -24.863  16.648  1.00  0.00     0.062 A 
ATOM     17  C   UNL     1      43.247 -24.867  17.598  1.00  0.00     0.158 A 
BRANCH  15  18
ATOM     18  O   UNL     1      41.407 -25.997  18.682  1.00  0.00    -0.504 OA
ATOM     19  H   UNL     1      41.301 -25.242  19.349  1.00  0.00     0.293 HD
ENDBRANCH  15  18
BRANCH  17  20
ATOM     20  O   UNL     1      43.028 -23.753  18.405  1.00  0.00    -0.504 OA
ATOM     21  H   UNL     1      43.513 -23.633  19.287  1.00  0.00     0.293 HD
ENDBRANCH  17  20
ENDBRANCH   1  12
BRANCH   2  22
ATOM     22  O   UNL     1      44.059 -25.755  12.971  1.00  0.00    -0.502 OA
ATOM     23  H   UNL     1      43.755 -26.185  12.106  1.00  0.00     0.293 HD
ENDBRANCH   2  22
BRANCH   6  24
ATOM     24  O   UNL     1      48.934 -26.210  10.875  1.00  0.00    -0.507 OA
ATOM     25  H   UNL     1      48.706 -25.420  10.289  1.00  0.00     0.293 HD
ENDBRANCH   6  24
BRANCH   8  26
ATOM     26  O   UNL     1      51.571 -26.494  14.856  1.00  0.00    -0.508 OA
ATOM     27  H   UNL     1      51.693 -26.852  15.796  1.00  0.00     0.293 HD
ENDBRANCH   8  26
TORSDOF 6
ENDMDL
MODEL 9
REMARK VINA RESULT:    -3.483      1.585      2.928
REMARK INTER + INTRA:          -4.457
REMARK INTER:                  -4.348
REMARK INTRA:                  -0.109
REMARK UNBOUND:                -0.261
REMARK SMILES O=c1c(O)c(-c2ccc(O)c(O)c2)oc2cc(O)cc(O)c12
REMARK SMILES IDX 5 1 3 2 2 3 1 4 22 5 20 6 19 7 17 8 16 9 15 10 14 11 6 12
REMARK SMILES IDX 7 13 8 14 9 15 13 16 11 17 10 18 12 20 4 22 21 24 18 26
REMARK H PARENT 10 19 12 21 4 23 21 25 18 27
REMARK Flexibility Score: inf
ROOT
ATOM      1  C   UNL     1      48.904 -22.460  12.824  1.00  0.00     0.180 A 
ATOM      2  C   UNL     1      48.607 -21.896  14.077  1.00  0.00     0.208 A 
ATOM      3  C   UNL     1      49.289 -20.737  14.481  1.00  0.00     0.238 A 
ATOM      4  O   UNL     1      49.071 -20.281  15.634  1.00  0.00    -0.285 OA
ATOM      5  C   UNL     1      50.218 -20.123  13.606  1.00  0.00     0.111 A 
ATOM      6  C   UNL     1      50.933 -18.921  13.893  1.00  0.00     0.134 A 
ATOM      7  C   UNL     1      51.905 -18.465  12.995  1.00  0.00     0.093 A 
ATOM      8  C   UNL     1      52.145 -19.129  11.793  1.00  0.00     0.123 A 
ATOM      9  C   UNL     1      51.413 -20.274  11.476  1.00  0.00     0.094 A 
ATOM     10  C   UNL     1      50.462 -20.776  12.370  1.00  0.00     0.146 A 
ATOM     11  O   UNL     1      49.805 -21.880  12.039  1.00  0.00    -0.452 OA
ENDROOT
BRANCH   1  12
ATOM     12  C   UNL     1      48.239 -23.689  12.335  1.00  0.00     0.025 A 
ATOM     13  C   UNL     1      46.848 -23.691  12.145  1.00  0.00     0.016 A 
ATOM     14  C   UNL     1      46.202 -24.833  11.664  1.00  0.00     0.051 A 
ATOM     15  C   UNL     1      46.939 -25.983  11.353  1.00  0.00     0.157 A 
ATOM     16  C   UNL     1      48.977 -24.839  12.002  1.00  0.00     0.062 A 
ATOM     17  C   UNL     1      48.329 -25.985  11.517  1.00  0.00     0.158 A 
BRANCH  15  18
ATOM     18  O   UNL     1      46.297 -27.124  10.875  1.00  0.00    -0.504 OA
ATOM     19  H   UNL     1      46.802 -27.989  10.719  1.00  0.00     0.293 HD
ENDBRANCH  15  18
BRANCH  17  20
ATOM     20  O   UNL     1      49.061 -27.125  11.193  1.00  0.00    -0.504 OA
ATOM     21  H   UNL     1      50.055 -27.190  11.385  1.00  0.00     0.293 HD
ENDBRANCH  17  20
ENDBRANCH   1  12
BRANCH   2  22
ATOM     22  O   UNL     1      47.632 -22.473  14.895  1.00  0.00    -0.502 OA
ATOM     23  H   UNL     1      47.797 -23.322  15.423  1.00  0.00     0.293 HD
ENDBRANCH   2  22
BRANCH   6  24
ATOM     24  O   UNL     1      50.711 -18.129  15.023  1.00  0.00    -0.507 OA
ATOM     25  H   UNL     1      51.427 -17.626  15.527  1.00  0.00     0.293 HD
ENDBRANCH   6  24
BRANCH   8  26
ATOM     26  O   UNL     1      53.108 -18.637  10.914  1.00  0.00    -0.508 OA
ATOM     27  H   UNL     1      53.493 -19.211  10.174  1.00  0.00     0.293 HD
ENDBRANCH   8  26
TORSDOF 6
ENDMDL
