MODEL 1
REMARK VINA RESULT:    -3.431      0.000      0.000
REMARK INTER + INTRA:          -4.324
REMARK INTER:                  -4.233
REMARK INTRA:                  -0.091
REMARK UNBOUND:                -0.091
REMARK SMILES CCCCCC(=O)[O-]
REMARK SMILES IDX 4 1 5 2 6 3 7 4 8 5 3 6 2 7 1 8
REMARK H PARENT
REMARK Flexibility Score: inf
ROOT
ATOM      1  C   UNL     1     300.554 324.413 647.875  1.00  0.00     0.006 C 
ENDROOT
BRANCH   1   2
ATOM      2  C   UNL     1     301.778 323.605 647.424  1.00  0.00     0.053 C 
BRANCH   2   3
ATOM      3  C   UNL     1     303.053 324.197 647.940  1.00  0.00     0.041 C 
ATOM      4  O   UNL     1     303.524 325.242 647.420  1.00  0.00    -0.550 OA
ATOM      5  O   UNL     1     303.740 323.573 648.975  1.00  0.00    -0.550 OA
ENDBRANCH   2   3
ENDBRANCH   1   2
BRANCH   1   6
ATOM      6  C   UNL     1     299.243 323.854 647.294  1.00  0.00     0.000 C 
BRANCH   6   7
ATOM      7  C   UNL     1     298.956 324.377 645.878  1.00  0.00    -0.003 C 
ATOM      8  C   UNL     1     298.876 325.902 645.817  1.00  0.00     0.004 C 
ENDBRANCH   6   7
ENDBRANCH   1   6
TORSDOF 4
ENDMDL
MODEL 2
REMARK VINA RESULT:    -3.400      1.092      1.939
REMARK INTER + INTRA:          -4.286
REMARK INTER:                  -4.115
REMARK INTRA:                  -0.171
REMARK UNBOUND:                -0.091
REMARK SMILES CCCCCC(=O)[O-]
REMARK SMILES IDX 4 1 5 2 6 3 7 4 8 5 3 6 2 7 1 8
REMARK H PARENT
REMARK Flexibility Score: inf
ROOT
ATOM      1  C   UNL     1     299.240 323.864 647.183  1.00  0.00     0.006 C 
ENDROOT
BRANCH   1   2
ATOM      2  C   UNL     1     300.221 324.775 647.932  1.00  0.00     0.053 C 
BRANCH   2   3
ATOM      3  C   UNL     1     301.645 324.405 647.652  1.00  0.00     0.041 C 
ATOM      4  O   UNL     1     301.998 323.196 647.651  1.00  0.00    -0.550 OA
ATOM      5  O   UNL     1     302.591 325.398 647.427  1.00  0.00    -0.550 OA
ENDBRANCH   2   3
ENDBRANCH   1   2
BRANCH   1   6
ATOM      6  C   UNL     1     298.955 324.367 645.757  1.00  0.00     0.000 C 
BRANCH   6   7
ATOM      7  C   UNL     1     298.875 325.901 645.678  1.00  0.00    -0.003 C 
ATOM      8  C   UNL     1     299.482 326.458 644.392  1.00  0.00     0.004 C 
ENDBRANCH   6   7
ENDBRANCH   1   6
TORSDOF 4
ENDMDL
MODEL 3
REMARK VINA RESULT:    -3.399      1.345      1.769
REMARK INTER + INTRA:          -4.285
REMARK INTER:                  -4.221
REMARK INTRA:                  -0.065
REMARK UNBOUND:                -0.091
REMARK SMILES CCCCCC(=O)[O-]
REMARK SMILES IDX 4 1 5 2 6 3 7 4 8 5 3 6 2 7 1 8
REMARK H PARENT
REMARK Flexibility Score: inf
ROOT
ATOM      1  C   UNL     1     301.667 323.603 647.492  1.00  0.00     0.006 C 
ENDROOT
BRANCH   1   2
ATOM      2  C   UNL     1     302.990 324.177 648.017  1.00  0.00     0.053 C 
BRANCH   2   3
ATOM      3  C   UNL     1     303.904 323.098 648.512  1.00  0.00     0.041 C 
ATOM      4  O   UNL     1     304.111 322.072 647.813  1.00  0.00    -0.550 OA
ATOM      5  O   UNL     1     304.500 323.212 649.762  1.00  0.00    -0.550 OA
ENDBRANCH   2   3
ENDBRANCH   1   2
BRANCH   1   6
ATOM      6  C   UNL     1     300.460 324.468 647.894  1.00  0.00     0.000 C 
BRANCH   6   7
ATOM      7  C   UNL     1     299.153 323.999 647.233  1.00  0.00    -0.003 C 
ATOM      8  C   UNL     1     299.088 324.341 645.746  1.00  0.00     0.004 C 
ENDBRANCH   6   7
ENDBRANCH   1   6
TORSDOF 4
ENDMDL
MODEL 4
REMARK VINA RESULT:    -3.279      0.853      1.461
REMARK INTER + INTRA:          -4.137
REMARK INTER:                  -3.913
REMARK INTRA:                  -0.225
REMARK UNBOUND:                -0.091
REMARK SMILES CCCCCC(=O)[O-]
REMARK SMILES IDX 4 1 5 2 6 3 7 4 8 5 3 6 2 7 1 8
REMARK H PARENT
REMARK Flexibility Score: inf
ROOT
ATOM      1  C   UNL     1     300.462 324.524 647.897  1.00  0.00     0.006 C 
ENDROOT
BRANCH   1   2
ATOM      2  C   UNL     1     301.776 323.803 647.567  1.00  0.00     0.053 C 
BRANCH   2   3
ATOM      3  C   UNL     1     302.771 324.726 646.935  1.00  0.00     0.041 C 
ATOM      4  O   UNL     1     303.917 324.864 647.439  1.00  0.00    -0.550 OA
ATOM      5  O   UNL     1     302.421 325.462 645.810  1.00  0.00    -0.550 OA
ENDBRANCH   2   3
ENDBRANCH   1   2
BRANCH   1   6
ATOM      6  C   UNL     1     299.246 323.840 647.248  1.00  0.00     0.000 C 
BRANCH   6   7
ATOM      7  C   UNL     1     298.908 324.425 645.868  1.00  0.00    -0.003 C 
ATOM      8  C   UNL     1     298.875 325.953 645.867  1.00  0.00     0.004 C 
ENDBRANCH   6   7
ENDBRANCH   1   6
TORSDOF 4
ENDMDL
MODEL 5
REMARK VINA RESULT:    -3.273      2.571      4.283
REMARK INTER + INTRA:          -4.130
REMARK INTER:                  -3.933
REMARK INTRA:                  -0.197
REMARK UNBOUND:                -0.091
REMARK SMILES CCCCCC(=O)[O-]
REMARK SMILES IDX 4 1 5 2 6 3 7 4 8 5 3 6 2 7 1 8
REMARK H PARENT
REMARK Flexibility Score: inf
ROOT
ATOM      1  C   UNL     1     298.876 324.724 645.836  1.00  0.00     0.006 C 
ENDROOT
BRANCH   1   2
ATOM      2  C   UNL     1     298.892 326.245 646.033  1.00  0.00     0.053 C 
BRANCH   2   3
ATOM      3  C   UNL     1     299.805 326.921 645.058  1.00  0.00     0.041 C 
ATOM      4  O   UNL     1     300.856 326.346 644.670  1.00  0.00    -0.550 OA
ATOM      5  O   UNL     1     299.513 328.201 644.604  1.00  0.00    -0.550 OA
ENDBRANCH   2   3
ENDBRANCH   1   2
BRANCH   1   6
ATOM      6  C   UNL     1     299.252 323.968 647.123  1.00  0.00     0.000 C 
BRANCH   6   7
ATOM      7  C   UNL     1     300.494 324.558 647.811  1.00  0.00    -0.003 C 
ATOM      8  C   UNL     1     301.769 323.775 647.501  1.00  0.00     0.004 C 
ENDBRANCH   6   7
ENDBRANCH   1   6
TORSDOF 4
ENDMDL
MODEL 6
REMARK VINA RESULT:    -3.177      0.939      1.848
REMARK INTER + INTRA:          -4.012
REMARK INTER:                  -3.912
REMARK INTRA:                  -0.100
REMARK UNBOUND:                -0.091
REMARK SMILES CCCCCC(=O)[O-]
REMARK SMILES IDX 4 1 5 2 6 3 7 4 8 5 3 6 2 7 1 8
REMARK H PARENT
REMARK Flexibility Score: inf
ROOT
ATOM      1  C   UNL     1     302.014 323.840 646.860  1.00  0.00     0.006 C 
ENDROOT
BRANCH   1   2
ATOM      2  C   UNL     1     302.895 322.864 647.651  1.00  0.00     0.053 C 
BRANCH   2   3
ATOM      3  C   UNL     1     304.016 323.571 648.349  1.00  0.00     0.041 C 
ATOM      4  O   UNL     1     304.298 323.289 649.543  1.00  0.00    -0.550 OA
ATOM      5  O   UNL     1     304.727 324.567 647.691  1.00  0.00    -0.550 OA
ENDBRANCH   2   3
ENDBRANCH   1   2
BRANCH   1   6
ATOM      6  C   UNL     1     300.857 324.395 647.709  1.00  0.00     0.000 C 
BRANCH   6   7
ATOM      7  C   UNL     1     299.494 323.811 647.302  1.00  0.00    -0.003 C 
ATOM      8  C   UNL     1     298.955 324.417 646.007  1.00  0.00     0.004 C 
ENDBRANCH   6   7
ENDBRANCH   1   6
TORSDOF 4
ENDMDL
MODEL 7
REMARK VINA RESULT:    -2.959      4.042      6.125
REMARK INTER + INTRA:          -3.742
REMARK INTER:                  -3.564
REMARK INTRA:                  -0.179
REMARK UNBOUND:                -0.091
REMARK SMILES CCCCCC(=O)[O-]
REMARK SMILES IDX 4 1 5 2 6 3 7 4 8 5 3 6 2 7 1 8
REMARK H PARENT
REMARK Flexibility Score: inf
ROOT
ATOM      1  C   UNL     1     305.367 321.140 648.764  1.00  0.00     0.006 C 
ENDROOT
BRANCH   1   2
ATOM      2  C   UNL     1     304.101 321.852 648.269  1.00  0.00     0.053 C 
BRANCH   2   3
ATOM      3  C   UNL     1     304.168 323.329 648.505  1.00  0.00     0.041 C 
ATOM      4  O   UNL     1     303.109 324.004 648.606  1.00  0.00    -0.550 OA
ATOM      5  O   UNL     1     305.400 323.967 648.578  1.00  0.00    -0.550 OA
ENDBRANCH   2   3
ENDBRANCH   1   2
BRANCH   1   6
ATOM      6  C   UNL     1     305.059 320.097 649.852  1.00  0.00     0.000 C 
BRANCH   6   7
ATOM      7  C   UNL     1     305.848 320.347 651.148  1.00  0.00    -0.003 C 
ATOM      8  C   UNL     1     306.285 321.803 651.301  1.00  0.00     0.004 C 
ENDBRANCH   6   7
ENDBRANCH   1   6
TORSDOF 4
ENDMDL
MODEL 8
REMARK VINA RESULT:    -1.868      2.564      3.979
REMARK INTER + INTRA:          -2.396
REMARK INTER:                  -2.185
REMARK INTRA:                  -0.211
REMARK UNBOUND:                -0.091
REMARK SMILES CCCCCC(=O)[O-]
REMARK SMILES IDX 4 1 5 2 6 3 7 4 8 5 3 6 2 7 1 8
REMARK H PARENT
REMARK Flexibility Score: inf
ROOT
ATOM      1  C   UNL     1     299.310 324.001 647.400  1.00  0.00     0.006 C 
ENDROOT
BRANCH   1   2
ATOM      2  C   UNL     1     299.036 324.375 645.938  1.00  0.00     0.053 C 
BRANCH   2   3
ATOM      3  C   UNL     1     299.481 325.772 645.631  1.00  0.00     0.041 C 
ATOM      4  O   UNL     1     298.875 326.755 646.133  1.00  0.00    -0.550 OA
ATOM      5  O   UNL     1     300.542 325.988 644.761  1.00  0.00    -0.550 OA
ENDBRANCH   2   3
ENDBRANCH   1   2
BRANCH   1   6
ATOM      6  C   UNL     1     300.696 324.477 647.871  1.00  0.00     0.000 C 
BRANCH   6   7
ATOM      7  C   UNL     1     301.815 323.490 647.502  1.00  0.00    -0.003 C 
ATOM      8  C   UNL     1     302.899 324.125 646.633  1.00  0.00     0.004 C 
ENDBRANCH   6   7
ENDBRANCH   1   6
TORSDOF 4
ENDMDL
