MODEL 1
REMARK VINA RESULT:    -5.788      0.000      0.000
REMARK INTER + INTRA:          -7.115
REMARK INTER:                  -6.972
REMARK INTRA:                  -0.143
REMARK UNBOUND:                -0.143
REMARK SMILES CCCCc1oc(O)c2ccccc12
REMARK SMILES IDX 4 1 5 2 7 3 6 4 9 5 14 6 10 7 13 8 11 9 12 10 8 11 3 13 2 14
REMARK SMILES IDX 1 15
REMARK H PARENT 8 12
REMARK Flexibility Score: inf
ROOT
ATOM      1  C   UNL     1      47.083  30.559  25.421  1.00  0.00     0.076 C 
ENDROOT
BRANCH   1   2
ATOM      2  C   UNL     1      45.988  31.571  25.560  1.00  0.00     0.116 A 
ATOM      3  C   UNL     1      44.050  32.475  25.390  1.00  0.00     0.290 A 
ATOM      4  O   UNL     1      44.770  31.417  25.070  1.00  0.00    -0.430 OA
ATOM      5  C   UNL     1      44.819  33.356  26.122  1.00  0.00     0.066 A 
ATOM      6  C   UNL     1      46.055  32.779  26.232  1.00  0.00     0.027 A 
ATOM      7  C   UNL     1      44.530  34.595  26.694  1.00  0.00     0.016 A 
ATOM      8  C   UNL     1      47.095  33.397  26.928  1.00  0.00     0.012 A 
ATOM      9  C   UNL     1      45.559  35.245  27.399  1.00  0.00     0.001 A 
ATOM     10  C   UNL     1      46.835  34.648  27.517  1.00  0.00     0.001 A 
BRANCH   3  11
ATOM     11  O   UNL     1      42.716  32.643  25.030  1.00  0.00    -0.480 OA
ATOM     12  H   UNL     1      42.058  33.099  25.648  1.00  0.00     0.297 HD
ENDBRANCH   3  11
ENDBRANCH   1   2
BRANCH   1  13
ATOM     13  C   UNL     1      47.125  30.008  23.991  1.00  0.00     0.008 C 
BRANCH  13  14
ATOM     14  C   UNL     1      46.276  28.738  23.823  1.00  0.00    -0.003 C 
ATOM     15  C   UNL     1      47.125  27.470  23.730  1.00  0.00     0.004 C 
ENDBRANCH  13  14
ENDBRANCH   1  13
TORSDOF 4
ENDMDL
MODEL 2
REMARK VINA RESULT:    -5.045      1.316      4.579
REMARK INTER + INTRA:          -6.221
REMARK INTER:                  -5.772
REMARK INTRA:                  -0.448
REMARK UNBOUND:                -0.143
REMARK SMILES CCCCc1oc(O)c2ccccc12
REMARK SMILES IDX 4 1 5 2 7 3 6 4 9 5 14 6 10 7 13 8 11 9 12 10 8 11 3 13 2 14
REMARK SMILES IDX 1 15
REMARK H PARENT 8 12
REMARK Flexibility Score: inf
ROOT
ATOM      1  C   UNL     1      43.728  33.381  27.332  1.00  0.00     0.076 C 
ENDROOT
BRANCH   1   2
ATOM      2  C   UNL     1      44.019  32.628  26.071  1.00  0.00     0.116 A 
ATOM      3  C   UNL     1      43.821  31.933  24.052  1.00  0.00     0.290 A 
ATOM      4  O   UNL     1      43.274  32.692  24.981  1.00  0.00    -0.430 OA
ATOM      5  C   UNL     1      44.970  31.350  24.544  1.00  0.00     0.066 A 
ATOM      6  C   UNL     1      45.098  31.795  25.832  1.00  0.00     0.027 A 
ATOM      7  C   UNL     1      45.899  30.486  23.966  1.00  0.00     0.016 A 
ATOM      8  C   UNL     1      46.170  31.410  26.639  1.00  0.00     0.012 A 
ATOM      9  C   UNL     1      46.990  30.077  24.757  1.00  0.00     0.001 A 
ATOM     10  C   UNL     1      47.125  30.538  26.086  1.00  0.00     0.001 A 
BRANCH   3  11
ATOM     11  O   UNL     1      43.292  31.769  22.775  1.00  0.00    -0.480 OA
ATOM     12  H   UNL     1      43.765  32.136  21.959  1.00  0.00     0.297 HD
ENDBRANCH   3  11
ENDBRANCH   1   2
BRANCH   1  13
ATOM     13  C   UNL     1      44.472  34.721  27.338  1.00  0.00     0.008 C 
BRANCH  13  14
ATOM     14  C   UNL     1      45.796  34.657  28.115  1.00  0.00    -0.003 C 
ATOM     15  C   UNL     1      47.020  34.725  27.202  1.00  0.00     0.004 C 
ENDBRANCH  13  14
ENDBRANCH   1  13
TORSDOF 4
ENDMDL
MODEL 3
REMARK VINA RESULT:    -4.912      1.092      4.900
REMARK INTER + INTRA:          -6.061
REMARK INTER:                  -5.836
REMARK INTRA:                  -0.224
REMARK UNBOUND:                -0.143
REMARK SMILES CCCCc1oc(O)c2ccccc12
REMARK SMILES IDX 4 1 5 2 7 3 6 4 9 5 14 6 10 7 13 8 11 9 12 10 8 11 3 13 2 14
REMARK SMILES IDX 1 15
REMARK H PARENT 8 12
REMARK Flexibility Score: inf
ROOT
ATOM      1  C   UNL     1      46.715  32.507  27.030  1.00  0.00     0.076 C 
ENDROOT
BRANCH   1   2
ATOM      2  C   UNL     1      45.837  31.996  25.930  1.00  0.00     0.116 A 
ATOM      3  C   UNL     1      44.196  31.884  24.552  1.00  0.00     0.290 A 
ATOM      4  O   UNL     1      44.703  32.567  25.560  1.00  0.00    -0.430 OA
ATOM      5  C   UNL     1      45.027  30.827  24.242  1.00  0.00     0.066 A 
ATOM      6  C   UNL     1      46.075  30.900  25.119  1.00  0.00     0.027 A 
ATOM      7  C   UNL     1      44.946  29.832  23.269  1.00  0.00     0.016 A 
ATOM      8  C   UNL     1      47.125  29.981  25.086  1.00  0.00     0.012 A 
ATOM      9  C   UNL     1      45.989  28.888  23.213  1.00  0.00     0.001 A 
ATOM     10  C   UNL     1      47.073  28.963  24.116  1.00  0.00     0.001 A 
BRANCH   3  11
ATOM     11  O   UNL     1      43.001  32.211  23.919  1.00  0.00    -0.480 OA
ATOM     12  H   UNL     1      42.403  31.496  23.523  1.00  0.00     0.297 HD
ENDBRANCH   3  11
ENDBRANCH   1   2
BRANCH   1  13
ATOM     13  C   UNL     1      46.850  34.031  26.943  1.00  0.00     0.008 C 
BRANCH  13  14
ATOM     14  C   UNL     1      46.170  34.751  28.117  1.00  0.00    -0.003 C 
ATOM     15  C   UNL     1      44.665  34.927  27.911  1.00  0.00     0.004 C 
ENDBRANCH  13  14
ENDBRANCH   1  13
TORSDOF 4
ENDMDL
MODEL 4
REMARK VINA RESULT:    -4.585     10.283     13.863
REMARK INTER + INTRA:          -5.667
REMARK INTER:                  -5.450
REMARK INTRA:                  -0.216
REMARK UNBOUND:                -0.143
REMARK SMILES CCCCc1oc(O)c2ccccc12
REMARK SMILES IDX 4 1 5 2 7 3 6 4 9 5 14 6 10 7 13 8 11 9 12 10 8 11 3 13 2 14
REMARK SMILES IDX 1 15
REMARK H PARENT 8 12
REMARK Flexibility Score: inf
ROOT
ATOM      1  C   UNL     1      44.938  21.312  23.869  1.00  0.00     0.076 C 
ENDROOT
BRANCH   1   2
ATOM      2  C   UNL     1      44.949  19.952  23.240  1.00  0.00     0.116 A 
ATOM      3  C   UNL     1      45.627  17.990  22.703  1.00  0.00     0.290 A 
ATOM      4  O   UNL     1      45.948  19.094  23.349  1.00  0.00    -0.430 OA
ATOM      5  C   UNL     1      44.369  18.122  22.152  1.00  0.00     0.066 A 
ATOM      6  C   UNL     1      43.935  19.374  22.496  1.00  0.00     0.027 A 
ATOM      7  C   UNL     1      43.585  17.253  21.395  1.00  0.00     0.016 A 
ATOM      8  C   UNL     1      42.681  19.849  22.111  1.00  0.00     0.012 A 
ATOM      9  C   UNL     1      42.316  17.704  20.988  1.00  0.00     0.001 A 
ATOM     10  C   UNL     1      41.866  18.995  21.346  1.00  0.00     0.001 A 
BRANCH   3  11
ATOM     11  O   UNL     1      46.456  16.875  22.613  1.00  0.00    -0.480 OA
ATOM     12  H   UNL     1      47.236  16.851  21.969  1.00  0.00     0.297 HD
ENDBRANCH   3  11
ENDBRANCH   1   2
BRANCH   1  13
ATOM     13  C   UNL     1      46.336  21.675  24.382  1.00  0.00     0.008 C 
BRANCH  13  14
ATOM     14  C   UNL     1      46.293  22.601  25.606  1.00  0.00    -0.003 C 
ATOM     15  C   UNL     1      44.869  22.858  26.102  1.00  0.00     0.004 C 
ENDBRANCH  13  14
ENDBRANCH   1  13
TORSDOF 4
ENDMDL
MODEL 5
REMARK VINA RESULT:    -4.349     12.533     14.546
REMARK INTER + INTRA:          -5.381
REMARK INTER:                  -5.076
REMARK INTRA:                  -0.306
REMARK UNBOUND:                -0.143
REMARK SMILES CCCCc1oc(O)c2ccccc12
REMARK SMILES IDX 4 1 5 2 7 3 6 4 9 5 14 6 10 7 13 8 11 9 12 10 8 11 3 13 2 14
REMARK SMILES IDX 1 15
REMARK H PARENT 8 12
REMARK Flexibility Score: inf
ROOT
ATOM      1  C   UNL     1      46.309  16.953  23.218  1.00  0.00     0.076 C 
ENDROOT
BRANCH   1   2
ATOM      2  C   UNL     1      45.307  18.051  23.032  1.00  0.00     0.116 A 
ATOM      3  C   UNL     1      44.401  19.990  23.162  1.00  0.00     0.290 A 
ATOM      4  O   UNL     1      45.440  19.267  23.532  1.00  0.00    -0.430 OA
ATOM      5  C   UNL     1      43.554  19.226  22.387  1.00  0.00     0.066 A 
ATOM      6  C   UNL     1      44.133  17.988  22.302  1.00  0.00     0.027 A 
ATOM      7  C   UNL     1      42.346  19.519  21.755  1.00  0.00     0.016 A 
ATOM      8  C   UNL     1      43.548  16.951  21.575  1.00  0.00     0.012 A 
ATOM      9  C   UNL     1      41.729  18.493  21.017  1.00  0.00     0.001 A 
ATOM     10  C   UNL     1      42.328  17.216  20.926  1.00  0.00     0.001 A 
BRANCH   3  11
ATOM     11  O   UNL     1      44.219  21.324  23.517  1.00  0.00    -0.480 OA
ATOM     12  H   UNL     1      44.656  21.713  24.342  1.00  0.00     0.297 HD
ENDBRANCH   3  11
ENDBRANCH   1   2
BRANCH   1  13
ATOM     13  C   UNL     1      46.960  17.052  24.602  1.00  0.00     0.008 C 
BRANCH  13  14
ATOM     14  C   UNL     1      45.948  16.875  25.744  1.00  0.00    -0.003 C 
ATOM     15  C   UNL     1      46.019  18.002  26.775  1.00  0.00     0.004 C 
ENDBRANCH  13  14
ENDBRANCH   1  13
TORSDOF 4
ENDMDL
MODEL 6
REMARK VINA RESULT:    -4.101      2.052      2.883
REMARK INTER + INTRA:          -5.083
REMARK INTER:                  -4.666
REMARK INTRA:                  -0.417
REMARK UNBOUND:                -0.143
REMARK SMILES CCCCc1oc(O)c2ccccc12
REMARK SMILES IDX 4 1 5 2 7 3 6 4 9 5 14 6 10 7 13 8 11 9 12 10 8 11 3 13 2 14
REMARK SMILES IDX 1 15
REMARK H PARENT 8 12
REMARK Flexibility Score: inf
ROOT
ATOM      1  C   UNL     1      46.786  31.451  24.382  1.00  0.00     0.076 C 
ENDROOT
BRANCH   1   2
ATOM      2  C   UNL     1      46.395  32.349  25.515  1.00  0.00     0.116 A 
ATOM      3  C   UNL     1      46.484  33.960  26.928  1.00  0.00     0.290 A 
ATOM      4  O   UNL     1      47.125  33.365  25.941  1.00  0.00    -0.430 OA
ATOM      5  C   UNL     1      45.286  33.317  27.160  1.00  0.00     0.066 A 
ATOM      6  C   UNL     1      45.228  32.289  26.256  1.00  0.00     0.027 A 
ATOM      7  C   UNL     1      44.259  33.555  28.072  1.00  0.00     0.016 A 
ATOM      8  C   UNL     1      44.134  31.425  26.197  1.00  0.00     0.012 A 
ATOM      9  C   UNL     1      43.144  32.697  28.039  1.00  0.00     0.001 A 
ATOM     10  C   UNL     1      43.081  31.639  27.105  1.00  0.00     0.001 A 
BRANCH   3  11
ATOM     11  O   UNL     1      46.971  35.071  27.611  1.00  0.00    -0.480 OA
ATOM     12  H   UNL     1      47.925  35.388  27.487  1.00  0.00     0.297 HD
ENDBRANCH   3  11
ENDBRANCH   1   2
BRANCH   1  13
ATOM     13  C   UNL     1      47.125  30.049  24.903  1.00  0.00     0.008 C 
BRANCH  13  14
ATOM     14  C   UNL     1      46.619  28.937  23.973  1.00  0.00    -0.003 C 
ATOM     15  C   UNL     1      45.278  29.276  23.321  1.00  0.00     0.004 C 
ENDBRANCH  13  14
ENDBRANCH   1  13
TORSDOF 4
ENDMDL
MODEL 7
REMARK VINA RESULT:    -3.984     11.309     13.582
REMARK INTER + INTRA:          -4.943
REMARK INTER:                  -4.569
REMARK INTRA:                  -0.374
REMARK UNBOUND:                -0.143
REMARK SMILES CCCCc1oc(O)c2ccccc12
REMARK SMILES IDX 4 1 5 2 7 3 6 4 9 5 14 6 10 7 13 8 11 9 12 10 8 11 3 13 2 14
REMARK SMILES IDX 1 15
REMARK H PARENT 8 12
REMARK Flexibility Score: inf
ROOT
ATOM      1  C   UNL     1      43.893  19.172  21.667  1.00  0.00     0.076 C 
ENDROOT
BRANCH   1   2
ATOM      2  C   UNL     1      44.521  19.668  22.933  1.00  0.00     0.116 A 
ATOM      3  C   UNL     1      45.288  21.036  24.397  1.00  0.00     0.290 A 
ATOM      4  O   UNL     1      44.754  20.943  23.194  1.00  0.00    -0.430 OA
ATOM      5  C   UNL     1      45.407  19.779  24.951  1.00  0.00     0.066 A 
ATOM      6  C   UNL     1      44.916  18.905  24.018  1.00  0.00     0.027 A 
ATOM      7  C   UNL     1      45.893  19.344  26.184  1.00  0.00     0.016 A 
ATOM      8  C   UNL     1      44.871  17.530  24.251  1.00  0.00     0.012 A 
ATOM      9  C   UNL     1      45.865  17.962  26.446  1.00  0.00     0.001 A 
ATOM     10  C   UNL     1      45.355  17.060  25.485  1.00  0.00     0.001 A 
BRANCH   3  11
ATOM     11  O   UNL     1      45.660  22.240  24.988  1.00  0.00    -0.480 OA
ATOM     12  H   UNL     1      44.973  22.942  25.229  1.00  0.00     0.297 HD
ENDBRANCH   3  11
ENDBRANCH   1   2
BRANCH   1  13
ATOM     13  C   UNL     1      42.395  19.498  21.650  1.00  0.00     0.008 C 
BRANCH  13  14
ATOM     14  C   UNL     1      41.554  18.371  21.031  1.00  0.00    -0.003 C 
ATOM     15  C   UNL     1      42.280  17.025  21.029  1.00  0.00     0.004 C 
ENDBRANCH  13  14
ENDBRANCH   1  13
TORSDOF 4
ENDMDL
MODEL 8
REMARK VINA RESULT:    -3.747     13.052     14.185
REMARK INTER + INTRA:          -4.656
REMARK INTER:                  -4.279
REMARK INTRA:                  -0.377
REMARK UNBOUND:                -0.143
REMARK SMILES CCCCc1oc(O)c2ccccc12
REMARK SMILES IDX 4 1 5 2 7 3 6 4 9 5 14 6 10 7 13 8 11 9 12 10 8 11 3 13 2 14
REMARK SMILES IDX 1 15
REMARK H PARENT 8 12
REMARK Flexibility Score: inf
ROOT
ATOM      1  C   UNL     1      44.241  17.091  22.604  1.00  0.00     0.076 C 
ENDROOT
BRANCH   1   2
ATOM      2  C   UNL     1      44.798  17.890  23.741  1.00  0.00     0.116 A 
ATOM      3  C   UNL     1      46.072  19.237  24.820  1.00  0.00     0.290 A 
ATOM      4  O   UNL     1      45.871  18.657  23.652  1.00  0.00    -0.430 OA
ATOM      5  C   UNL     1      45.095  18.843  25.709  1.00  0.00     0.066 A 
ATOM      6  C   UNL     1      44.280  17.986  25.021  1.00  0.00     0.027 A 
ATOM      7  C   UNL     1      44.859  19.173  27.043  1.00  0.00     0.016 A 
ATOM      8  C   UNL     1      43.164  17.395  25.616  1.00  0.00     0.012 A 
ATOM      9  C   UNL     1      43.743  18.590  27.673  1.00  0.00     0.001 A 
ATOM     10  C   UNL     1      42.899  17.707  26.962  1.00  0.00     0.001 A 
BRANCH   3  11
ATOM     11  O   UNL     1      47.123  20.112  25.079  1.00  0.00    -0.480 OA
ATOM     12  H   UNL     1      47.646  20.544  24.328  1.00  0.00     0.297 HD
ENDBRANCH   3  11
ENDBRANCH   1   2
BRANCH   1  13
ATOM     13  C   UNL     1      44.059  17.977  21.366  1.00  0.00     0.008 C 
BRANCH  13  14
ATOM     14  C   UNL     1      43.119  19.164  21.623  1.00  0.00    -0.003 C 
ATOM     15  C   UNL     1      41.728  18.956  21.025  1.00  0.00     0.004 C 
ENDBRANCH  13  14
ENDBRANCH   1  13
TORSDOF 4
ENDMDL
