MODEL 1
REMARK VINA RESULT:    -5.489      0.000      0.000
REMARK INTER + INTRA:          -9.854
REMARK INTER:                  -7.415
REMARK INTRA:                  -2.439
REMARK UNBOUND:                -2.439
REMARK SMILES CC[C@@H](CC[C@@H](C)[C@H]1CC[C@H]2[C@@H]3CC(=O)C4=CC(=O)CC[C@@]4(C)[C@@H]3CC[C@@]12C)C(C)C
REMARK SMILES IDX 4 1 3 2 2 3 1 4 29 5 30 6 31 7 5 8 6 9 7 10 8 11 9 12 27 13
REMARK SMILES IDX 10 14 11 15 26 16 28 17 12 18 25 19 24 20 13 21 22 22 14 23
REMARK SMILES IDX 16 24 21 25 23 26 15 27 17 28 20 29 18 30 19 31
REMARK H PARENT
REMARK Flexibility Score: inf
ROOT
ATOM      1  C   UNL     1     202.338 159.017 163.282  1.00  0.00     0.004 C 
ENDROOT
BRANCH   1   2
ATOM      2  C   UNL     1     201.061 158.121 163.378  1.00  0.00    -0.009 C 
BRANCH   2   3
ATOM      3  C   UNL     1     199.953 158.567 162.369  1.00  0.00     0.000 C 
ATOM      4  C   UNL     1     200.434 159.243 161.074  1.00  0.00     0.004 C 
ENDBRANCH   2   3
BRANCH   2   5
ATOM      5  C   UNL     1     200.538 157.834 164.827  1.00  0.00    -0.014 C 
ATOM      6  C   UNL     1     200.209 156.349 165.057  1.00  0.00     0.007 C 
ATOM      7  C   UNL     1     199.266 158.652 165.124  1.00  0.00     0.007 C 
ENDBRANCH   2   5
ENDBRANCH   1   2
BRANCH   1   8
ATOM      8  C   UNL     1     203.650 158.281 162.942  1.00  0.00     0.004 C 
BRANCH   8   9
ATOM      9  C   UNL     1     203.440 157.049 161.995  1.00  0.00    -0.011 C 
ATOM     10  C   UNL     1     204.289 157.272 160.725  1.00  0.00     0.008 C 
BRANCH   9  11
ATOM     11  C   UNL     1     203.809 155.676 162.673  1.00  0.00    -0.002 C 
ATOM     12  C   UNL     1     203.771 155.718 164.193  1.00  0.00     0.005 C 
ATOM     13  C   UNL     1     202.963 154.393 162.309  1.00  0.00    -0.026 C 
ATOM     14  C   UNL     1     203.845 154.270 164.613  1.00  0.00     0.005 C 
ATOM     15  C   UNL     1     202.963 153.509 163.614  1.00  0.00    -0.001 C 
ATOM     16  C   UNL     1     201.504 154.735 161.889  1.00  0.00     0.007 C 
ATOM     17  C   UNL     1     203.680 153.608 161.174  1.00  0.00     0.012 C 
ATOM     18  C   UNL     1     201.551 153.212 164.237  1.00  0.00     0.004 C 
ATOM     19  C   UNL     1     200.625 153.489 161.813  1.00  0.00     0.005 C 
ATOM     20  C   UNL     1     200.447 152.806 163.191  1.00  0.00     0.003 C 
ATOM     21  C   UNL     1     201.665 152.229 165.442  1.00  0.00     0.085 C 
ATOM     22  C   UNL     1     200.126 151.265 163.102  1.00  0.00    -0.000 C 
ATOM     23  C   UNL     1     200.442 151.394 165.660  1.00  0.00     0.159 C 
ATOM     24  C   UNL     1     199.755 150.781 164.504  1.00  0.00     0.005 C 
ATOM     25  C   UNL     1     198.914 151.046 162.139  1.00  0.00     0.020 C 
ATOM     26  C   UNL     1     201.340 150.446 162.596  1.00  0.00     0.017 C 
ATOM     27  O   UNL     1     200.041 151.181 166.838  1.00  0.00    -0.295 OA
ATOM     28  C   UNL     1     198.860 149.793 164.700  1.00  0.00     0.055 C 
ATOM     29  C   UNL     1     198.365 149.616 162.174  1.00  0.00     0.081 C 
ATOM     30  C   UNL     1     198.134 149.170 163.584  1.00  0.00     0.156 C 
ATOM     31  O   UNL     1     197.333 148.226 163.815  1.00  0.00    -0.295 OA
ENDBRANCH   9  11
ENDBRANCH   8   9
ENDBRANCH   1   8
TORSDOF 6
ENDMDL
MODEL 2
REMARK VINA RESULT:    -5.012      3.868      8.728
REMARK INTER + INTRA:          -9.209
REMARK INTER:                  -7.773
REMARK INTRA:                  -1.437
REMARK UNBOUND:                -2.439
REMARK SMILES CC[C@@H](CC[C@@H](C)[C@H]1CC[C@H]2[C@@H]3CC(=O)C4=CC(=O)CC[C@@]4(C)[C@@H]3CC[C@@]12C)C(C)C
REMARK SMILES IDX 4 1 3 2 2 3 1 4 29 5 30 6 31 7 5 8 6 9 7 10 8 11 9 12 27 13
REMARK SMILES IDX 10 14 11 15 26 16 28 17 12 18 25 19 24 20 13 21 22 22 14 23
REMARK SMILES IDX 16 24 21 25 23 26 15 27 17 28 20 29 18 30 19 31
REMARK H PARENT
REMARK Flexibility Score: inf
ROOT
ATOM      1  C   UNL     1     202.621 148.618 168.785  1.00  0.00     0.004 C 
ENDROOT
BRANCH   1   2
ATOM      2  C   UNL     1     202.451 147.152 169.299  1.00  0.00    -0.009 C 
BRANCH   2   3
ATOM      3  C   UNL     1     203.747 146.302 169.090  1.00  0.00     0.000 C 
ATOM      4  C   UNL     1     204.819 146.900 168.162  1.00  0.00     0.004 C 
ENDBRANCH   2   3
BRANCH   2   5
ATOM      5  C   UNL     1     201.129 146.429 168.870  1.00  0.00    -0.014 C 
ATOM      6  C   UNL     1     200.391 145.785 170.056  1.00  0.00     0.007 C 
ATOM      7  C   UNL     1     201.417 145.323 167.835  1.00  0.00     0.007 C 
ENDBRANCH   2   5
ENDBRANCH   1   2
BRANCH   1   8
ATOM      8  C   UNL     1     201.541 149.113 167.800  1.00  0.00     0.004 C 
BRANCH   8   9
ATOM      9  C   UNL     1     202.115 149.484 166.389  1.00  0.00    -0.011 C 
ATOM     10  C   UNL     1     202.459 148.170 165.654  1.00  0.00     0.008 C 
BRANCH   9  11
ATOM     11  C   UNL     1     201.128 150.358 165.528  1.00  0.00    -0.002 C 
ATOM     12  C   UNL     1     200.013 150.996 166.341  1.00  0.00     0.005 C 
ATOM     13  C   UNL     1     201.711 151.557 164.680  1.00  0.00    -0.026 C 
ATOM     14  C   UNL     1     199.393 152.006 165.406  1.00  0.00     0.005 C 
ATOM     15  C   UNL     1     200.570 152.644 164.655  1.00  0.00    -0.001 C 
ATOM     16  C   UNL     1     203.010 152.152 165.296  1.00  0.00     0.007 C 
ATOM     17  C   UNL     1     201.976 151.077 163.224  1.00  0.00     0.012 C 
ATOM     18  C   UNL     1     200.940 154.035 165.285  1.00  0.00     0.004 C 
ATOM     19  C   UNL     1     203.403 153.471 164.635  1.00  0.00     0.005 C 
ATOM     20  C   UNL     1     202.354 154.586 164.871  1.00  0.00     0.003 C 
ATOM     21  C   UNL     1     199.785 155.064 165.089  1.00  0.00     0.085 C 
ATOM     22  C   UNL     1     202.353 155.704 163.760  1.00  0.00    -0.000 C 
ATOM     23  C   UNL     1     200.245 156.487 165.027  1.00  0.00     0.159 C 
ATOM     24  C   UNL     1     201.444 156.837 164.236  1.00  0.00     0.005 C 
ATOM     25  C   UNL     1     203.807 156.248 163.573  1.00  0.00     0.020 C 
ATOM     26  C   UNL     1     201.823 155.175 162.403  1.00  0.00     0.017 C 
ATOM     27  O   UNL     1     199.572 157.381 165.611  1.00  0.00    -0.295 OA
ATOM     28  C   UNL     1     201.687 158.124 163.917  1.00  0.00     0.055 C 
ATOM     29  C   UNL     1     203.874 157.504 162.699  1.00  0.00     0.081 C 
ATOM     30  C   UNL     1     202.877 158.523 163.154  1.00  0.00     0.156 C 
ATOM     31  O   UNL     1     203.043 159.734 162.851  1.00  0.00    -0.295 OA
ENDBRANCH   9  11
ENDBRANCH   8   9
ENDBRANCH   1   8
TORSDOF 6
ENDMDL
MODEL 3
REMARK VINA RESULT:    -4.704      2.744      7.667
REMARK INTER + INTRA:          -8.794
REMARK INTER:                  -6.732
REMARK INTRA:                  -2.062
REMARK UNBOUND:                -2.439
REMARK SMILES CC[C@@H](CC[C@@H](C)[C@H]1CC[C@H]2[C@@H]3CC(=O)C4=CC(=O)CC[C@@]4(C)[C@@H]3CC[C@@]12C)C(C)C
REMARK SMILES IDX 4 1 3 2 2 3 1 4 29 5 30 6 31 7 5 8 6 9 7 10 8 11 9 12 27 13
REMARK SMILES IDX 10 14 11 15 26 16 28 17 12 18 25 19 24 20 13 21 22 22 14 23
REMARK SMILES IDX 16 24 21 25 23 26 15 27 17 28 20 29 18 30 19 31
REMARK H PARENT
REMARK Flexibility Score: inf
ROOT
ATOM      1  C   UNL     1     199.523 148.087 161.909  1.00  0.00     0.004 C 
ENDROOT
BRANCH   1   2
ATOM      2  C   UNL     1     198.425 148.990 162.558  1.00  0.00    -0.009 C 
BRANCH   2   3
ATOM      3  C   UNL     1     197.138 148.180 162.922  1.00  0.00     0.000 C 
ATOM      4  C   UNL     1     197.002 146.785 162.286  1.00  0.00     0.004 C 
ENDBRANCH   2   3
BRANCH   2   5
ATOM      5  C   UNL     1     198.148 150.352 161.835  1.00  0.00    -0.014 C 
ATOM      6  C   UNL     1     196.883 150.316 160.962  1.00  0.00     0.007 C 
ATOM      7  C   UNL     1     199.335 150.746 160.932  1.00  0.00     0.007 C 
ENDBRANCH   2   5
ENDBRANCH   1   2
BRANCH   1   8
ATOM      8  C   UNL     1     200.442 147.335 162.894  1.00  0.00     0.004 C 
BRANCH   8   9
ATOM      9  C   UNL     1     200.741 148.145 164.202  1.00  0.00    -0.011 C 
ATOM     10  C   UNL     1     201.087 147.138 165.320  1.00  0.00     0.008 C 
BRANCH   9  11
ATOM     11  C   UNL     1     201.900 149.198 164.028  1.00  0.00    -0.002 C 
ATOM     12  C   UNL     1     202.293 149.437 162.579  1.00  0.00     0.005 C 
ATOM     13  C   UNL     1     201.704 150.653 164.611  1.00  0.00    -0.026 C 
ATOM     14  C   UNL     1     203.167 150.666 162.621  1.00  0.00     0.005 C 
ATOM     15  C   UNL     1     202.507 151.602 163.642  1.00  0.00    -0.001 C 
ATOM     16  C   UNL     1     200.208 151.080 164.668  1.00  0.00     0.007 C 
ATOM     17  C   UNL     1     202.340 150.731 166.028  1.00  0.00     0.012 C 
ATOM     18  C   UNL     1     201.659 152.708 162.913  1.00  0.00     0.004 C 
ATOM     19  C   UNL     1     200.051 152.570 164.963  1.00  0.00     0.005 C 
ATOM     20  C   UNL     1     200.633 153.460 163.838  1.00  0.00     0.003 C 
ATOM     21  C   UNL     1     202.575 153.661 162.087  1.00  0.00     0.085 C 
ATOM     22  C   UNL     1     201.074 154.894 164.323  1.00  0.00    -0.000 C 
ATOM     23  C   UNL     1     202.023 155.044 161.928  1.00  0.00     0.159 C 
ATOM     24  C   UNL     1     201.407 155.726 163.085  1.00  0.00     0.005 C 
ATOM     25  C   UNL     1     199.892 155.563 165.097  1.00  0.00     0.020 C 
ATOM     26  C   UNL     1     202.323 154.838 165.239  1.00  0.00     0.017 C 
ATOM     27  O   UNL     1     202.137 155.630 160.816  1.00  0.00    -0.295 OA
ATOM     28  C   UNL     1     201.194 157.056 163.046  1.00  0.00     0.055 C 
ATOM     29  C   UNL     1     200.129 157.047 165.395  1.00  0.00     0.081 C 
ATOM     30  C   UNL     1     200.563 157.775 164.161  1.00  0.00     0.156 C 
ATOM     31  O   UNL     1     200.416 159.023 164.092  1.00  0.00    -0.295 OA
ENDBRANCH   9  11
ENDBRANCH   8   9
ENDBRANCH   1   8
TORSDOF 6
ENDMDL
MODEL 4
REMARK VINA RESULT:    -4.680      3.617      5.394
REMARK INTER + INTRA:          -8.760
REMARK INTER:                  -6.328
REMARK INTRA:                  -2.433
REMARK UNBOUND:                -2.439
REMARK SMILES CC[C@@H](CC[C@@H](C)[C@H]1CC[C@H]2[C@@H]3CC(=O)C4=CC(=O)CC[C@@]4(C)[C@@H]3CC[C@@]12C)C(C)C
REMARK SMILES IDX 4 1 3 2 2 3 1 4 29 5 30 6 31 7 5 8 6 9 7 10 8 11 9 12 27 13
REMARK SMILES IDX 10 14 11 15 26 16 28 17 12 18 25 19 24 20 13 21 22 22 14 23
REMARK SMILES IDX 16 24 21 25 23 26 15 27 17 28 20 29 18 30 19 31
REMARK H PARENT
REMARK Flexibility Score: inf
ROOT
ATOM      1  C   UNL     1     201.090 152.937 162.884  1.00  0.00     0.004 C 
ENDROOT
BRANCH   1   2
ATOM      2  C   UNL     1     200.366 153.267 164.229  1.00  0.00    -0.009 C 
BRANCH   2   3
ATOM      3  C   UNL     1     200.971 154.527 164.929  1.00  0.00     0.000 C 
ATOM      4  C   UNL     1     200.109 155.801 164.914  1.00  0.00     0.004 C 
ENDBRANCH   2   3
BRANCH   2   5
ATOM      5  C   UNL     1     200.122 152.051 165.187  1.00  0.00    -0.014 C 
ATOM      6  C   UNL     1     199.265 150.948 164.544  1.00  0.00     0.007 C 
ATOM      7  C   UNL     1     199.416 152.504 166.481  1.00  0.00     0.007 C 
ENDBRANCH   2   5
ENDBRANCH   1   2
BRANCH   1   8
ATOM      8  C   UNL     1     202.556 153.405 162.779  1.00  0.00     0.004 C 
BRANCH   8   9
ATOM      9  C   UNL     1     203.576 152.221 162.650  1.00  0.00    -0.011 C 
ATOM     10  C   UNL     1     204.702 152.662 161.689  1.00  0.00     0.008 C 
BRANCH   9  11
ATOM     11  C   UNL     1     204.175 151.766 164.033  1.00  0.00    -0.002 C 
ATOM     12  C   UNL     1     203.746 152.640 165.200  1.00  0.00     0.005 C 
ATOM     13  C   UNL     1     203.895 150.296 164.540  1.00  0.00    -0.026 C 
ATOM     14  C   UNL     1     204.163 151.866 166.427  1.00  0.00     0.005 C 
ATOM     15  C   UNL     1     203.845 150.398 166.112  1.00  0.00    -0.001 C 
ATOM     16  C   UNL     1     202.557 149.717 163.995  1.00  0.00     0.007 C 
ATOM     17  C   UNL     1     205.083 149.376 164.136  1.00  0.00     0.012 C 
ATOM     18  C   UNL     1     202.489 149.969 166.781  1.00  0.00     0.004 C 
ATOM     19  C   UNL     1     202.163 148.424 164.704  1.00  0.00     0.005 C 
ATOM     20  C   UNL     1     201.869 148.641 166.209  1.00  0.00     0.003 C 
ATOM     21  C   UNL     1     202.601 149.990 168.336  1.00  0.00     0.085 C 
ATOM     22  C   UNL     1     202.081 147.353 167.092  1.00  0.00    -0.000 C 
ATOM     23  C   UNL     1     201.688 149.021 169.021  1.00  0.00     0.159 C 
ATOM     24  C   UNL     1     201.542 147.649 168.491  1.00  0.00     0.005 C 
ATOM     25  C   UNL     1     201.282 146.162 166.467  1.00  0.00     0.020 C 
ATOM     26  C   UNL     1     203.578 146.966 167.204  1.00  0.00     0.017 C 
ATOM     27  O   UNL     1     201.093 149.373 170.077  1.00  0.00    -0.295 OA
ATOM     28  C   UNL     1     200.984 146.689 169.255  1.00  0.00     0.055 C 
ATOM     29  C   UNL     1     201.220 144.932 167.380  1.00  0.00     0.081 C 
ATOM     30  C   UNL     1     200.795 145.317 168.762  1.00  0.00     0.156 C 
ATOM     31  O   UNL     1     200.301 144.446 169.526  1.00  0.00    -0.295 OA
ENDBRANCH   9  11
ENDBRANCH   8   9
ENDBRANCH   1   8
TORSDOF 6
ENDMDL
MODEL 5
REMARK VINA RESULT:    -4.663      0.902      1.884
REMARK INTER + INTRA:          -8.737
REMARK INTER:                  -7.012
REMARK INTRA:                  -1.725
REMARK UNBOUND:                -2.439
REMARK SMILES CC[C@@H](CC[C@@H](C)[C@H]1CC[C@H]2[C@@H]3CC(=O)C4=CC(=O)CC[C@@]4(C)[C@@H]3CC[C@@]12C)C(C)C
REMARK SMILES IDX 4 1 3 2 2 3 1 4 29 5 30 6 31 7 5 8 6 9 7 10 8 11 9 12 27 13
REMARK SMILES IDX 10 14 11 15 26 16 28 17 12 18 25 19 24 20 13 21 22 22 14 23
REMARK SMILES IDX 16 24 21 25 23 26 15 27 17 28 20 29 18 30 19 31
REMARK H PARENT
REMARK Flexibility Score: inf
ROOT
ATOM      1  C   UNL     1     202.652 159.052 162.805  1.00  0.00     0.004 C 
ENDROOT
BRANCH   1   2
ATOM      2  C   UNL     1     201.133 158.877 162.487  1.00  0.00    -0.009 C 
BRANCH   2   3
ATOM      3  C   UNL     1     200.424 157.928 163.507  1.00  0.00     0.000 C 
ATOM      4  C   UNL     1     199.973 158.561 164.835  1.00  0.00     0.004 C 
ENDBRANCH   2   3
BRANCH   2   5
ATOM      5  C   UNL     1     200.779 158.593 160.987  1.00  0.00    -0.014 C 
ATOM      6  C   UNL     1     201.925 158.951 160.027  1.00  0.00     0.007 C 
ATOM      7  C   UNL     1     199.533 159.392 160.555  1.00  0.00     0.007 C 
ENDBRANCH   2   5
ENDBRANCH   1   2
BRANCH   1   8
ATOM      8  C   UNL     1     203.364 157.812 163.384  1.00  0.00     0.004 C 
BRANCH   8   9
ATOM      9  C   UNL     1     203.598 156.682 162.322  1.00  0.00    -0.011 C 
ATOM     10  C   UNL     1     204.860 157.044 161.509  1.00  0.00     0.008 C 
BRANCH   9  11
ATOM     11  C   UNL     1     203.743 155.250 162.961  1.00  0.00    -0.002 C 
ATOM     12  C   UNL     1     203.415 155.210 164.445  1.00  0.00     0.005 C 
ATOM     13  C   UNL     1     202.905 154.055 162.356  1.00  0.00    -0.026 C 
ATOM     14  C   UNL     1     203.316 153.740 164.771  1.00  0.00     0.005 C 
ATOM     15  C   UNL     1     202.598 153.103 163.574  1.00  0.00    -0.001 C 
ATOM     16  C   UNL     1     201.578 154.528 161.693  1.00  0.00     0.007 C 
ATOM     17  C   UNL     1     203.777 153.284 161.325  1.00  0.00     0.012 C 
ATOM     18  C   UNL     1     201.076 152.877 163.897  1.00  0.00     0.004 C 
ATOM     19  C   UNL     1     200.655 153.357 161.367  1.00  0.00     0.005 C 
ATOM     20  C   UNL     1     200.172 152.613 162.636  1.00  0.00     0.003 C 
ATOM     21  C   UNL     1     200.894 151.823 165.031  1.00  0.00     0.085 C 
ATOM     22  C   UNL     1     199.779 151.107 162.382  1.00  0.00    -0.000 C 
ATOM     23  C   UNL     1     199.602 151.070 164.956  1.00  0.00     0.159 C 
ATOM     24  C   UNL     1     199.115 150.575 163.652  1.00  0.00     0.005 C 
ATOM     25  C   UNL     1     198.764 151.033 161.194  1.00  0.00     0.020 C 
ATOM     26  C   UNL     1     201.015 150.230 162.059  1.00  0.00     0.017 C 
ATOM     27  O   UNL     1     198.969 150.822 166.020  1.00  0.00    -0.295 OA
ATOM     28  C   UNL     1     198.139 149.647 163.607  1.00  0.00     0.055 C 
ATOM     29  C   UNL     1     198.131 149.648 161.027  1.00  0.00     0.081 C 
ATOM     30  C   UNL     1     197.605 149.143 162.334  1.00  0.00     0.156 C 
ATOM     31  O   UNL     1     196.718 148.249 162.344  1.00  0.00    -0.295 OA
ENDBRANCH   9  11
ENDBRANCH   8   9
ENDBRANCH   1   8
TORSDOF 6
ENDMDL
MODEL 6
REMARK VINA RESULT:    -4.604      4.472      7.514
REMARK INTER + INTRA:          -8.658
REMARK INTER:                  -6.279
REMARK INTRA:                  -2.379
REMARK UNBOUND:                -2.439
REMARK SMILES CC[C@@H](CC[C@@H](C)[C@H]1CC[C@H]2[C@@H]3CC(=O)C4=CC(=O)CC[C@@]4(C)[C@@H]3CC[C@@]12C)C(C)C
REMARK SMILES IDX 4 1 3 2 2 3 1 4 29 5 30 6 31 7 5 8 6 9 7 10 8 11 9 12 27 13
REMARK SMILES IDX 10 14 11 15 26 16 28 17 12 18 25 19 24 20 13 21 22 22 14 23
REMARK SMILES IDX 16 24 21 25 23 26 15 27 17 28 20 29 18 30 19 31
REMARK H PARENT
REMARK Flexibility Score: inf
ROOT
ATOM      1  C   UNL     1     197.532 149.428 161.602  1.00  0.00     0.004 C 
ENDROOT
BRANCH   1   2
ATOM      2  C   UNL     1     198.528 148.245 161.818  1.00  0.00    -0.009 C 
BRANCH   2   3
ATOM      3  C   UNL     1     198.685 147.366 160.534  1.00  0.00     0.000 C 
ATOM      4  C   UNL     1     200.099 147.273 159.934  1.00  0.00     0.004 C 
ENDBRANCH   2   3
BRANCH   2   5
ATOM      5  C   UNL     1     198.338 147.426 163.141  1.00  0.00    -0.014 C 
ATOM      6  C   UNL     1     197.459 146.179 162.947  1.00  0.00     0.007 C 
ATOM      7  C   UNL     1     197.690 148.296 164.237  1.00  0.00     0.007 C 
ENDBRANCH   2   5
ENDBRANCH   1   2
BRANCH   1   8
ATOM      8  C   UNL     1     198.171 150.791 161.261  1.00  0.00     0.004 C 
BRANCH   8   9
ATOM      9  C   UNL     1     199.738 150.771 161.324  1.00  0.00    -0.011 C 
ATOM     10  C   UNL     1     200.275 151.560 160.110  1.00  0.00     0.008 C 
BRANCH   9  11
ATOM     11  C   UNL     1     200.312 151.361 162.667  1.00  0.00    -0.002 C 
ATOM     12  C   UNL     1     199.283 151.451 163.782  1.00  0.00     0.005 C 
ATOM     13  C   UNL     1     201.547 150.649 163.348  1.00  0.00    -0.026 C 
ATOM     14  C   UNL     1     200.093 151.736 165.023  1.00  0.00     0.005 C 
ATOM     15  C   UNL     1     201.354 150.869 164.896  1.00  0.00    -0.001 C 
ATOM     16  C   UNL     1     201.616 149.128 163.024  1.00  0.00     0.007 C 
ATOM     17  C   UNL     1     202.860 151.354 162.902  1.00  0.00     0.012 C 
ATOM     18  C   UNL     1     201.216 149.563 165.760  1.00  0.00     0.004 C 
ATOM     19  C   UNL     1     202.634 148.403 163.901  1.00  0.00     0.005 C 
ATOM     20  C   UNL     1     202.248 148.430 165.400  1.00  0.00     0.003 C 
ATOM     21  C   UNL     1     201.160 149.900 167.281  1.00  0.00     0.085 C 
ATOM     22  C   UNL     1     203.477 148.292 166.378  1.00  0.00    -0.000 C 
ATOM     23  C   UNL     1     201.687 148.811 168.162  1.00  0.00     0.159 C 
ATOM     24  C   UNL     1     202.932 148.105 167.794  1.00  0.00     0.005 C 
ATOM     25  C   UNL     1     204.317 147.036 165.975  1.00  0.00     0.020 C 
ATOM     26  C   UNL     1     204.384 149.548 166.353  1.00  0.00     0.017 C 
ATOM     27  O   UNL     1     201.086 148.543 169.240  1.00  0.00    -0.295 OA
ATOM     28  C   UNL     1     203.578 147.358 168.710  1.00  0.00     0.055 C 
ATOM     29  C   UNL     1     205.389 146.670 167.007  1.00  0.00     0.081 C 
ATOM     30  C   UNL     1     204.805 146.618 168.384  1.00  0.00     0.156 C 
ATOM     31  O   UNL     1     205.392 145.961 169.284  1.00  0.00    -0.295 OA
ENDBRANCH   9  11
ENDBRANCH   8   9
ENDBRANCH   1   8
TORSDOF 6
ENDMDL
MODEL 7
REMARK VINA RESULT:    -4.580      4.667      6.942
REMARK INTER + INTRA:          -8.626
REMARK INTER:                  -6.411
REMARK INTRA:                  -2.215
REMARK UNBOUND:                -2.439
REMARK SMILES CC[C@@H](CC[C@@H](C)[C@H]1CC[C@H]2[C@@H]3CC(=O)C4=CC(=O)CC[C@@]4(C)[C@@H]3CC[C@@]12C)C(C)C
REMARK SMILES IDX 4 1 3 2 2 3 1 4 29 5 30 6 31 7 5 8 6 9 7 10 8 11 9 12 27 13
REMARK SMILES IDX 10 14 11 15 26 16 28 17 12 18 25 19 24 20 13 21 22 22 14 23
REMARK SMILES IDX 16 24 21 25 23 26 15 27 17 28 20 29 18 30 19 31
REMARK H PARENT
REMARK Flexibility Score: inf
ROOT
ATOM      1  C   UNL     1     199.191 151.458 161.838  1.00  0.00     0.004 C 
ENDROOT
BRANCH   1   2
ATOM      2  C   UNL     1     198.582 150.023 161.736  1.00  0.00    -0.009 C 
BRANCH   2   3
ATOM      3  C   UNL     1     197.813 149.805 160.392  1.00  0.00     0.000 C 
ATOM      4  C   UNL     1     197.201 151.057 159.740  1.00  0.00     0.004 C 
ENDBRANCH   2   3
BRANCH   2   5
ATOM      5  C   UNL     1     197.819 149.514 163.007  1.00  0.00    -0.014 C 
ATOM      6  C   UNL     1     198.535 149.881 164.317  1.00  0.00     0.007 C 
ATOM      7  C   UNL     1     197.653 147.982 162.971  1.00  0.00     0.007 C 
ENDBRANCH   2   5
ENDBRANCH   1   2
BRANCH   1   8
ATOM      8  C   UNL     1     200.649 151.605 161.357  1.00  0.00     0.004 C 
BRANCH   8   9
ATOM      9  C   UNL     1     201.490 150.293 161.525  1.00  0.00    -0.011 C 
ATOM     10  C   UNL     1     202.344 150.106 160.252  1.00  0.00     0.008 C 
BRANCH   9  11
ATOM     11  C   UNL     1     202.404 150.301 162.808  1.00  0.00    -0.002 C 
ATOM     12  C   UNL     1     202.030 151.377 163.815  1.00  0.00     0.005 C 
ATOM     13  C   UNL     1     202.509 148.988 163.680  1.00  0.00    -0.026 C 
ATOM     14  C   UNL     1     202.801 151.015 165.060  1.00  0.00     0.005 C 
ATOM     15  C   UNL     1     202.722 149.486 165.160  1.00  0.00    -0.001 C 
ATOM     16  C   UNL     1     201.233 148.103 163.587  1.00  0.00     0.007 C 
ATOM     17  C   UNL     1     203.761 148.176 163.240  1.00  0.00     0.012 C 
ATOM     18  C   UNL     1     201.617 149.054 166.191  1.00  0.00     0.004 C 
ATOM     19  C   UNL     1     201.229 146.994 164.637  1.00  0.00     0.005 C 
ATOM     20  C   UNL     1     201.173 147.548 166.082  1.00  0.00     0.003 C 
ATOM     21  C   UNL     1     201.999 149.492 167.638  1.00  0.00     0.085 C 
ATOM     22  C   UNL     1     201.785 146.576 167.162  1.00  0.00    -0.000 C 
ATOM     23  C   UNL     1     201.429 148.613 168.707  1.00  0.00     0.159 C 
ATOM     24  C   UNL     1     201.458 147.144 168.543  1.00  0.00     0.005 C 
ATOM     25  C   UNL     1     201.133 145.163 167.012  1.00  0.00     0.020 C 
ATOM     26  C   UNL     1     203.324 146.451 167.025  1.00  0.00     0.017 C 
ATOM     27  O   UNL     1     200.975 149.136 169.761  1.00  0.00    -0.295 OA
ATOM     28  C   UNL     1     201.242 146.344 169.606  1.00  0.00     0.055 C 
ATOM     29  C   UNL     1     201.474 144.216 168.167  1.00  0.00     0.081 C 
ATOM     30  C   UNL     1     201.237 144.879 169.487  1.00  0.00     0.156 C 
ATOM     31  O   UNL     1     201.066 144.174 170.516  1.00  0.00    -0.295 OA
ENDBRANCH   9  11
ENDBRANCH   8   9
ENDBRANCH   1   8
TORSDOF 6
ENDMDL
MODEL 8
REMARK VINA RESULT:    -4.543      9.792     13.484
REMARK INTER + INTRA:          -8.575
REMARK INTER:                  -6.195
REMARK INTRA:                  -2.380
REMARK UNBOUND:                -2.439
REMARK SMILES CC[C@@H](CC[C@@H](C)[C@H]1CC[C@H]2[C@@H]3CC(=O)C4=CC(=O)CC[C@@]4(C)[C@@H]3CC[C@@]12C)C(C)C
REMARK SMILES IDX 4 1 3 2 2 3 1 4 29 5 30 6 31 7 5 8 6 9 7 10 8 11 9 12 27 13
REMARK SMILES IDX 10 14 11 15 26 16 28 17 12 18 25 19 24 20 13 21 22 22 14 23
REMARK SMILES IDX 16 24 21 25 23 26 15 27 17 28 20 29 18 30 19 31
REMARK H PARENT
REMARK Flexibility Score: inf
ROOT
ATOM      1  C   UNL     1     212.813 151.277 170.844  1.00  0.00     0.004 C 
ENDROOT
BRANCH   1   2
ATOM      2  C   UNL     1     212.991 152.776 171.248  1.00  0.00    -0.009 C 
BRANCH   2   3
ATOM      3  C   UNL     1     211.634 153.551 171.244  1.00  0.00     0.000 C 
ATOM      4  C   UNL     1     211.512 154.719 170.249  1.00  0.00     0.004 C 
ENDBRANCH   2   3
BRANCH   2   5
ATOM      5  C   UNL     1     214.170 153.535 170.547  1.00  0.00    -0.014 C 
ATOM      6  C   UNL     1     215.057 152.606 169.702  1.00  0.00     0.007 C 
ATOM      7  C   UNL     1     215.070 154.231 171.587  1.00  0.00     0.007 C 
ENDBRANCH   2   5
ENDBRANCH   1   2
BRANCH   1   8
ATOM      8  C   UNL     1     211.598 150.964 169.946  1.00  0.00     0.004 C 
BRANCH   8   9
ATOM      9  C   UNL     1     211.969 150.835 168.428  1.00  0.00    -0.011 C 
ATOM     10  C   UNL     1     212.021 149.332 168.075  1.00  0.00     0.008 C 
BRANCH   9  11
ATOM     11  C   UNL     1     210.966 151.592 167.478  1.00  0.00    -0.002 C 
ATOM     12  C   UNL     1     209.911 152.395 168.222  1.00  0.00     0.005 C 
ATOM     13  C   UNL     1     211.542 152.614 166.419  1.00  0.00    -0.026 C 
ATOM     14  C   UNL     1     209.276 153.261 167.161  1.00  0.00     0.005 C 
ATOM     15  C   UNL     1     210.433 153.724 166.265  1.00  0.00    -0.001 C 
ATOM     16  C   UNL     1     212.886 153.254 166.872  1.00  0.00     0.007 C 
ATOM     17  C   UNL     1     211.721 151.894 165.052  1.00  0.00     0.012 C 
ATOM     18  C   UNL     1     210.874 155.185 166.640  1.00  0.00     0.004 C 
ATOM     19  C   UNL     1     213.285 154.431 165.986  1.00  0.00     0.005 C 
ATOM     20  C   UNL     1     212.282 155.608 166.079  1.00  0.00     0.003 C 
ATOM     21  C   UNL     1     209.741 156.210 166.327  1.00  0.00     0.085 C 
ATOM     22  C   UNL     1     212.259 156.529 164.800  1.00  0.00    -0.000 C 
ATOM     23  C   UNL     1     210.239 157.585 166.011  1.00  0.00     0.159 C 
ATOM     24  C   UNL     1     211.408 157.757 165.122  1.00  0.00     0.005 C 
ATOM     25  C   UNL     1     213.717 156.981 164.463  1.00  0.00     0.020 C 
ATOM     26  C   UNL     1     211.648 155.805 163.574  1.00  0.00     0.017 C 
ATOM     27  O   UNL     1     209.622 158.587 166.468  1.00  0.00    -0.295 OA
ATOM     28  C   UNL     1     211.672 158.964 164.585  1.00  0.00     0.055 C 
ATOM     29  C   UNL     1     213.778 158.074 163.391  1.00  0.00     0.081 C 
ATOM     30  C   UNL     1     212.835 159.190 163.715  1.00  0.00     0.156 C 
ATOM     31  O   UNL     1     213.020 160.327 163.209  1.00  0.00    -0.295 OA
ENDBRANCH   9  11
ENDBRANCH   8   9
ENDBRANCH   1   8
TORSDOF 6
ENDMDL
MODEL 9
REMARK VINA RESULT:    -4.456      3.352      7.830
REMARK INTER + INTRA:          -8.458
REMARK INTER:                  -6.265
REMARK INTRA:                  -2.193
REMARK UNBOUND:                -2.439
REMARK SMILES CC[C@@H](CC[C@@H](C)[C@H]1CC[C@H]2[C@@H]3CC(=O)C4=CC(=O)CC[C@@]4(C)[C@@H]3CC[C@@]12C)C(C)C
REMARK SMILES IDX 4 1 3 2 2 3 1 4 29 5 30 6 31 7 5 8 6 9 7 10 8 11 9 12 27 13
REMARK SMILES IDX 10 14 11 15 26 16 28 17 12 18 25 19 24 20 13 21 22 22 14 23
REMARK SMILES IDX 16 24 21 25 23 26 15 27 17 28 20 29 18 30 19 31
REMARK H PARENT
REMARK Flexibility Score: inf
ROOT
ATOM      1  C   UNL     1     201.039 148.972 165.665  1.00  0.00     0.004 C 
ENDROOT
BRANCH   1   2
ATOM      2  C   UNL     1     201.575 149.678 166.952  1.00  0.00    -0.009 C 
BRANCH   2   3
ATOM      3  C   UNL     1     202.953 150.375 166.710  1.00  0.00     0.000 C 
ATOM      4  C   UNL     1     203.982 149.591 165.876  1.00  0.00     0.004 C 
ENDBRANCH   2   3
BRANCH   2   5
ATOM      5  C   UNL     1     201.500 148.836 168.272  1.00  0.00    -0.014 C 
ATOM      6  C   UNL     1     202.465 149.343 169.357  1.00  0.00     0.007 C 
ATOM      7  C   UNL     1     201.831 147.355 167.999  1.00  0.00     0.007 C 
ENDBRANCH   2   5
ENDBRANCH   1   2
BRANCH   1   8
ATOM      8  C   UNL     1     199.607 149.356 165.236  1.00  0.00     0.004 C 
BRANCH   8   9
ATOM      9  C   UNL     1     199.549 150.047 163.830  1.00  0.00    -0.011 C 
ATOM     10  C   UNL     1     198.229 149.627 163.146  1.00  0.00     0.008 C 
BRANCH   9  11
ATOM     11  C   UNL     1     199.659 151.616 163.905  1.00  0.00    -0.002 C 
ATOM     12  C   UNL     1     199.608 152.163 165.323  1.00  0.00     0.005 C 
ATOM     13  C   UNL     1     200.921 152.325 163.272  1.00  0.00    -0.026 C 
ATOM     14  C   UNL     1     200.031 153.605 165.188  1.00  0.00     0.005 C 
ATOM     15  C   UNL     1     201.173 153.601 164.161  1.00  0.00    -0.001 C 
ATOM     16  C   UNL     1     202.182 151.413 163.268  1.00  0.00     0.007 C 
ATOM     17  C   UNL     1     200.583 152.782 161.824  1.00  0.00     0.012 C 
ATOM     18  C   UNL     1     202.567 153.666 164.883  1.00  0.00     0.004 C 
ATOM     19  C   UNL     1     203.448 152.191 162.919  1.00  0.00     0.005 C 
ATOM     20  C   UNL     1     203.791 153.268 163.978  1.00  0.00     0.003 C 
ATOM     21  C   UNL     1     202.752 155.025 165.625  1.00  0.00     0.085 C 
ATOM     22  C   UNL     1     204.642 154.469 163.413  1.00  0.00    -0.000 C 
ATOM     23  C   UNL     1     204.180 155.456 165.753  1.00  0.00     0.159 C 
ATOM     24  C   UNL     1     205.093 155.322 164.598  1.00  0.00     0.005 C 
ATOM     25  C   UNL     1     205.897 153.907 162.669  1.00  0.00     0.020 C 
ATOM     26  C   UNL     1     203.821 155.356 162.443  1.00  0.00     0.017 C 
ATOM     27  O   UNL     1     204.574 155.978 166.832  1.00  0.00    -0.295 OA
ATOM     28  C   UNL     1     206.270 155.979 164.593  1.00  0.00     0.055 C 
ATOM     29  C   UNL     1     206.915 154.991 162.299  1.00  0.00     0.081 C 
ATOM     30  C   UNL     1     207.221 155.858 163.479  1.00  0.00     0.156 C 
ATOM     31  O   UNL     1     208.293 156.519 163.504  1.00  0.00    -0.295 OA
ENDBRANCH   9  11
ENDBRANCH   8   9
ENDBRANCH   1   8
TORSDOF 6
ENDMDL
