MODEL 1
REMARK VINA RESULT:    27.369      0.000      0.000
REMARK INTER + INTRA:          29.683
REMARK INTER:                  29.769
REMARK INTRA:                  -0.086
REMARK UNBOUND:                -0.086
REMARK SMILES C[C@@H]1[C@@H](C)CC[C@@]2(C(=O)[O-])CC[C@]3(C)C(=CC[C@H]4[C@@]5(C)CC[C@@H](O)C(C)(C)[C@@H]5CC[C@@]43C)[C@@H]12
REMARK SMILES IDX 7 1 6 2 11 3 33 4 5 5 12 6 15 7 2 8 3 9 13 10 16 11 1 12
REMARK SMILES IDX 4 13 14 14 31 15 17 16 18 17 30 18 32 19 19 20 29 21 28 22
REMARK SMILES IDX 21 23 20 24 25 25 22 26 23 27 26 28 27 29 8 30 9 31 10 32
REMARK SMILES IDX 24 33
REMARK H PARENT 24 34
REMARK Flexibility Score: inf
ROOT
ATOM      1  C   UNL     1      70.743  41.398  20.086  1.00  0.00     0.017 C 
ATOM      2  C   UNL     1      70.425  42.125  21.450  1.00  0.00     0.014 C 
ATOM      3  C   UNL     1      71.921  42.124  19.368  1.00  0.00     0.014 C 
ATOM      4  C   UNL     1      71.022  39.843  20.309  1.00  0.00     0.030 C 
ATOM      5  C   UNL     1      70.593  41.255  22.698  1.00  0.00     0.004 C 
ATOM      6  C   UNL     1      73.318  41.787  19.899  1.00  0.00     0.013 C 
ATOM      7  C   UNL     1      72.493  39.585  20.759  1.00  0.00    -0.063 C 
ATOM      8  C   UNL     1      69.921  39.206  21.251  1.00  0.00    -0.003 C 
ATOM      9  C   UNL     1      69.714  39.992  22.599  1.00  0.00    -0.011 C 
ATOM     10  C   UNL     1      73.626  40.254  19.937  1.00  0.00    -0.006 C 
ATOM     11  C   UNL     1      72.787  38.827  21.863  1.00  0.00    -0.027 C 
ATOM     12  C   UNL     1      68.568  39.021  20.539  1.00  0.00     0.008 C 
ATOM     13  C   UNL     1      69.900  39.115  23.850  1.00  0.00     0.008 C 
ATOM     14  C   UNL     1      73.565  39.716  18.464  1.00  0.00     0.017 C 
ATOM     15  C   UNL     1      75.070  39.928  20.591  1.00  0.00    -0.020 C 
ATOM     16  C   UNL     1      74.057  38.950  22.684  1.00  0.00     0.032 C 
ATOM     17  C   UNL     1      74.919  40.110  22.161  1.00  0.00     0.006 C 
ATOM     18  C   UNL     1      76.210  40.865  20.064  1.00  0.00     0.008 C 
ATOM     19  C   UNL     1      75.458  38.442  20.198  1.00  0.00     0.012 C 
ATOM     20  C   UNL     1      76.227  40.562  22.974  1.00  0.00    -0.025 C 
ATOM     21  C   UNL     1      77.584  40.702  20.766  1.00  0.00     0.005 C 
ATOM     22  C   UNL     1      77.497  40.085  22.187  1.00  0.00     0.003 C 
ATOM     23  C   UNL     1      76.292  40.031  24.446  1.00  0.00     0.010 C 
ATOM     24  C   UNL     1      76.167  42.124  23.097  1.00  0.00     0.012 C 
ATOM     25  C   UNL     1      78.838  39.964  23.014  1.00  0.00    -0.006 C 
ATOM     26  C   UNL     1      77.106  38.747  24.601  1.00  0.00     0.033 C 
ATOM     27  C   UNL     1      78.602  38.966  24.234  1.00  0.00     0.120 C 
ATOM     28  C   UNL     1      79.337  41.323  23.560  1.00  0.00     0.014 C 
ATOM     29  C   UNL     1      79.975  39.435  22.094  1.00  0.00     0.014 C 
ENDROOT
BRANCH   1  30
ATOM     30  C   UNL     1      69.566  41.609  19.134  1.00  0.00     0.048 C 
ATOM     31  O   UNL     1      69.734  41.588  17.884  1.00  0.00    -0.550 OA
ATOM     32  O   UNL     1      68.333  42.033  19.627  1.00  0.00    -0.550 OA
ENDBRANCH   1  30
BRANCH  27  33
ATOM     33  O   UNL     1      79.216  37.712  24.037  1.00  0.00    -0.393 OA
ATOM     34  H   UNL     1      79.464  37.649  23.080  1.00  0.00     0.210 HD
ENDBRANCH  27  33
TORSDOF 2
ENDMDL
