MODEL 1
REMARK VINA RESULT:    -4.543      0.000      0.000
REMARK INTER + INTRA:          -9.462
REMARK INTER:                  -8.261
REMARK INTRA:                  -1.201
REMARK UNBOUND:                -1.201
REMARK SMILES CCCCCCCCCCCCCC[C@@H](C)C(=O)[O-]
REMARK SMILES IDX 9 1 10 2 11 3 12 4 13 5 14 6 15 7 16 8 17 9 18 10 19 11 8 12
REMARK SMILES IDX 7 13 6 14 5 15 4 16 3 17 2 18 1 19
REMARK H PARENT
REMARK Flexibility Score: inf
ROOT
ATOM      1  C   UNL     1       8.095  -8.745  -3.464  1.00  0.00     0.000 C 
ENDROOT
BRANCH   1   2
ATOM      2  C   UNL     1       7.600  -9.034  -2.036  1.00  0.00     0.000 C 
BRANCH   2   3
ATOM      3  C   UNL     1       8.710  -9.591  -1.130  1.00  0.00     0.000 C 
BRANCH   3   4
ATOM      4  C   UNL     1       8.488  -9.256   0.353  1.00  0.00     0.000 C 
BRANCH   4   5
ATOM      5  C   UNL     1       8.764 -10.478   1.239  1.00  0.00     0.001 C 
BRANCH   5   6
ATOM      6  C   UNL     1       7.451 -11.098   1.745  1.00  0.00     0.009 C 
BRANCH   6   7
ATOM      7  C   UNL     1       6.398 -10.035   2.129  1.00  0.00     0.032 C 
ATOM      8  C   UNL     1       5.091 -10.197   1.340  1.00  0.00     0.014 C 
BRANCH   7   9
ATOM      9  C   UNL     1       6.114 -10.104   3.604  1.00  0.00     0.044 C 
ATOM     10  O   UNL     1       6.830 -10.811   4.362  1.00  0.00    -0.550 OA
ATOM     11  O   UNL     1       5.054  -9.384   4.140  1.00  0.00    -0.550 OA
ENDBRANCH   7   9
ENDBRANCH   6   7
ENDBRANCH   5   6
ENDBRANCH   4   5
ENDBRANCH   3   4
ENDBRANCH   2   3
ENDBRANCH   1   2
BRANCH   1  12
ATOM     12  C   UNL     1       9.045  -7.536  -3.538  1.00  0.00     0.000 C 
BRANCH  12  13
ATOM     13  C   UNL     1       8.634  -6.320  -2.687  1.00  0.00    -0.000 C 
BRANCH  13  14
ATOM     14  C   UNL     1       8.628  -5.004  -3.485  1.00  0.00    -0.000 C 
BRANCH  14  15
ATOM     15  C   UNL     1       7.577  -4.993  -4.611  1.00  0.00    -0.000 C 
BRANCH  15  16
ATOM     16  C   UNL     1       7.798  -3.933  -5.709  1.00  0.00    -0.000 C 
BRANCH  16  17
ATOM     17  C   UNL     1       8.758  -4.352  -6.842  1.00  0.00    -0.000 C 
BRANCH  17  18
ATOM     18  C   UNL     1       8.846  -5.868  -7.084  1.00  0.00    -0.003 C 
ATOM     19  C   UNL     1       8.003  -6.331  -8.272  1.00  0.00     0.004 C 
ENDBRANCH  17  18
ENDBRANCH  16  17
ENDBRANCH  15  16
ENDBRANCH  14  15
ENDBRANCH  13  14
ENDBRANCH  12  13
ENDBRANCH   1  12
TORSDOF 14
ENDMDL
MODEL 2
REMARK VINA RESULT:    -4.245      2.533      5.054
REMARK INTER + INTRA:          -8.920
REMARK INTER:                  -7.966
REMARK INTRA:                  -0.955
REMARK UNBOUND:                -1.201
REMARK SMILES CCCCCCCCCCCCCC[C@@H](C)C(=O)[O-]
REMARK SMILES IDX 9 1 10 2 11 3 12 4 13 5 14 6 15 7 16 8 17 9 18 10 19 11 8 12
REMARK SMILES IDX 7 13 6 14 5 15 4 16 3 17 2 18 1 19
REMARK H PARENT
REMARK Flexibility Score: inf
ROOT
ATOM      1  C   UNL     1       7.427  -4.294  -5.478  1.00  0.00     0.000 C 
ENDROOT
BRANCH   1   2
ATOM      2  C   UNL     1       8.208  -4.014  -4.182  1.00  0.00     0.000 C 
BRANCH   2   3
ATOM      3  C   UNL     1       8.401  -5.277  -3.327  1.00  0.00     0.000 C 
BRANCH   3   4
ATOM      4  C   UNL     1       8.660  -6.533  -4.172  1.00  0.00     0.000 C 
BRANCH   4   5
ATOM      5  C   UNL     1       9.125  -7.700  -3.293  1.00  0.00     0.001 C 
BRANCH   5   6
ATOM      6  C   UNL     1       8.397  -7.693  -1.938  1.00  0.00     0.009 C 
BRANCH   6   7
ATOM      7  C   UNL     1       7.763  -9.060  -1.596  1.00  0.00     0.032 C 
ATOM      8  C   UNL     1       7.676  -9.986  -2.818  1.00  0.00     0.014 C 
BRANCH   7   9
ATOM      9  C   UNL     1       8.550  -9.732  -0.504  1.00  0.00     0.044 C 
ATOM     10  O   UNL     1       8.798 -10.966  -0.561  1.00  0.00    -0.550 OA
ATOM     11  O   UNL     1       9.010  -8.991   0.576  1.00  0.00    -0.550 OA
ENDBRANCH   7   9
ENDBRANCH   6   7
ENDBRANCH   5   6
ENDBRANCH   4   5
ENDBRANCH   3   4
ENDBRANCH   2   3
ENDBRANCH   1   2
BRANCH   1  12
ATOM     12  C   UNL     1       8.164  -3.809  -6.740  1.00  0.00     0.000 C 
BRANCH  12  13
ATOM     13  C   UNL     1       9.075  -4.852  -7.415  1.00  0.00    -0.000 C 
BRANCH  13  14
ATOM     14  C   UNL     1       8.381  -6.209  -7.623  1.00  0.00    -0.000 C 
BRANCH  14  15
ATOM     15  C   UNL     1       8.602  -6.783  -9.034  1.00  0.00    -0.000 C 
BRANCH  15  16
ATOM     16  C   UNL     1       7.946  -8.153  -9.299  1.00  0.00    -0.000 C 
BRANCH  16  17
ATOM     17  C   UNL     1       6.492  -8.098  -9.809  1.00  0.00    -0.000 C 
BRANCH  17  18
ATOM     18  C   UNL     1       5.825  -9.471 -10.005  1.00  0.00    -0.003 C 
ATOM     19  C   UNL     1       4.651  -9.704  -9.055  1.00  0.00     0.004 C 
ENDBRANCH  17  18
ENDBRANCH  16  17
ENDBRANCH  15  16
ENDBRANCH  14  15
ENDBRANCH  13  14
ENDBRANCH  12  13
ENDBRANCH   1  12
TORSDOF 14
ENDMDL
MODEL 3
REMARK VINA RESULT:    -4.176      6.052      9.211
REMARK INTER + INTRA:          -8.794
REMARK INTER:                  -7.504
REMARK INTRA:                  -1.290
REMARK UNBOUND:                -1.201
REMARK SMILES CCCCCCCCCCCCCC[C@@H](C)C(=O)[O-]
REMARK SMILES IDX 9 1 10 2 11 3 12 4 13 5 14 6 15 7 16 8 17 9 18 10 19 11 8 12
REMARK SMILES IDX 7 13 6 14 5 15 4 16 3 17 2 18 1 19
REMARK H PARENT
REMARK Flexibility Score: inf
ROOT
ATOM      1  C   UNL     1       9.125  -5.213  -6.721  1.00  0.00     0.000 C 
ENDROOT
BRANCH   1   2
ATOM      2  C   UNL     1       9.125  -5.865  -8.115  1.00  0.00     0.000 C 
BRANCH   2   3
ATOM      3  C   UNL     1       7.825  -6.632  -8.407  1.00  0.00     0.000 C 
BRANCH   3   4
ATOM      4  C   UNL     1       7.990  -7.677  -9.521  1.00  0.00     0.000 C 
BRANCH   4   5
ATOM      5  C   UNL     1       7.085  -8.890  -9.274  1.00  0.00     0.001 C 
BRANCH   5   6
ATOM      6  C   UNL     1       6.281  -9.243 -10.537  1.00  0.00     0.009 C 
BRANCH   6   7
ATOM      7  C   UNL     1       4.848  -9.723 -10.216  1.00  0.00     0.032 C 
ATOM      8  C   UNL     1       4.515  -9.609  -8.722  1.00  0.00     0.014 C 
BRANCH   7   9
ATOM      9  C   UNL     1       3.851  -8.934 -11.020  1.00  0.00     0.044 C 
ATOM     10  O   UNL     1       4.199  -7.876 -11.611  1.00  0.00    -0.550 OA
ATOM     11  O   UNL     1       2.536  -9.370 -11.115  1.00  0.00    -0.550 OA
ENDBRANCH   7   9
ENDBRANCH   6   7
ENDBRANCH   5   6
ENDBRANCH   4   5
ENDBRANCH   3   4
ENDBRANCH   2   3
ENDBRANCH   1   2
BRANCH   1  12
ATOM     12  C   UNL     1       8.045  -4.127  -6.565  1.00  0.00     0.000 C 
BRANCH  12  13
ATOM     13  C   UNL     1       7.546  -3.893  -5.126  1.00  0.00    -0.000 C 
BRANCH  13  14
ATOM     14  C   UNL     1       8.589  -4.275  -4.061  1.00  0.00    -0.000 C 
BRANCH  14  15
ATOM     15  C   UNL     1       8.144  -5.462  -3.188  1.00  0.00    -0.000 C 
BRANCH  15  16
ATOM     16  C   UNL     1       8.818  -6.809  -3.513  1.00  0.00    -0.000 C 
BRANCH  16  17
ATOM     17  C   UNL     1       8.120  -8.052  -2.925  1.00  0.00    -0.000 C 
BRANCH  17  18
ATOM     18  C   UNL     1       7.516  -9.006  -3.970  1.00  0.00    -0.003 C 
ATOM     19  C   UNL     1       8.061  -8.770  -5.378  1.00  0.00     0.004 C 
ENDBRANCH  17  18
ENDBRANCH  16  17
ENDBRANCH  15  16
ENDBRANCH  14  15
ENDBRANCH  13  14
ENDBRANCH  12  13
ENDBRANCH   1  12
TORSDOF 14
ENDMDL
MODEL 4
REMARK VINA RESULT:    -4.107      3.892      8.845
REMARK INTER + INTRA:          -8.669
REMARK INTER:                  -7.503
REMARK INTRA:                  -1.166
REMARK UNBOUND:                -1.201
REMARK SMILES CCCCCCCCCCCCCC[C@@H](C)C(=O)[O-]
REMARK SMILES IDX 9 1 10 2 11 3 12 4 13 5 14 6 15 7 16 8 17 9 18 10 19 11 8 12
REMARK SMILES IDX 7 13 6 14 5 15 4 16 3 17 2 18 1 19
REMARK H PARENT
REMARK Flexibility Score: inf
ROOT
ATOM      1  C   UNL     1       8.447  -8.715  -0.966  1.00  0.00     0.000 C 
ENDROOT
BRANCH   1   2
ATOM      2  C   UNL     1       8.861  -9.109  -2.394  1.00  0.00     0.000 C 
BRANCH   2   3
ATOM      3  C   UNL     1       7.657  -9.470  -3.279  1.00  0.00     0.000 C 
BRANCH   3   4
ATOM      4  C   UNL     1       7.642  -8.695  -4.605  1.00  0.00     0.000 C 
BRANCH   4   5
ATOM      5  C   UNL     1       9.047  -8.195  -4.964  1.00  0.00     0.001 C 
BRANCH   5   6
ATOM      6  C   UNL     1       9.033  -6.689  -5.275  1.00  0.00     0.009 C 
BRANCH   6   7
ATOM      7  C   UNL     1       8.216  -5.876  -4.246  1.00  0.00     0.032 C 
ATOM      8  C   UNL     1       9.045  -5.499  -3.009  1.00  0.00     0.014 C 
BRANCH   7   9
ATOM      9  C   UNL     1       7.673  -4.630  -4.891  1.00  0.00     0.044 C 
ATOM     10  O   UNL     1       6.534  -4.191  -4.577  1.00  0.00    -0.550 OA
ATOM     11  O   UNL     1       8.428  -3.955  -5.841  1.00  0.00    -0.550 OA
ENDBRANCH   7   9
ENDBRANCH   6   7
ENDBRANCH   5   6
ENDBRANCH   4   5
ENDBRANCH   3   4
ENDBRANCH   2   3
ENDBRANCH   1   2
BRANCH   1  12
ATOM     12  C   UNL     1       8.706  -9.828   0.065  1.00  0.00     0.000 C 
BRANCH  12  13
ATOM     13  C   UNL     1       7.753  -9.842   1.275  1.00  0.00    -0.000 C 
BRANCH  13  14
ATOM     14  C   UNL     1       6.278  -9.660   0.879  1.00  0.00    -0.000 C 
BRANCH  14  15
ATOM     15  C   UNL     1       5.317 -10.480   1.760  1.00  0.00    -0.000 C 
BRANCH  15  16
ATOM     16  C   UNL     1       5.639 -10.473   3.268  1.00  0.00    -0.000 C 
BRANCH  16  17
ATOM     17  C   UNL     1       4.420 -10.623   4.201  1.00  0.00    -0.000 C 
BRANCH  17  18
ATOM     18  C   UNL     1       3.275  -9.633   3.929  1.00  0.00    -0.003 C 
ATOM     19  C   UNL     1       3.243  -8.472   4.922  1.00  0.00     0.004 C 
ENDBRANCH  17  18
ENDBRANCH  16  17
ENDBRANCH  15  16
ENDBRANCH  14  15
ENDBRANCH  13  14
ENDBRANCH  12  13
ENDBRANCH   1  12
TORSDOF 14
ENDMDL
MODEL 5
REMARK VINA RESULT:    -4.030      1.815      3.673
REMARK INTER + INTRA:          -8.528
REMARK INTER:                  -7.906
REMARK INTRA:                  -0.622
REMARK UNBOUND:                -1.201
REMARK SMILES CCCCCCCCCCCCCC[C@@H](C)C(=O)[O-]
REMARK SMILES IDX 9 1 10 2 11 3 12 4 13 5 14 6 15 7 16 8 17 9 18 10 19 11 8 12
REMARK SMILES IDX 7 13 6 14 5 15 4 16 3 17 2 18 1 19
REMARK H PARENT
REMARK Flexibility Score: inf
ROOT
ATOM      1  C   UNL     1       7.626  -5.022  -4.421  1.00  0.00     0.000 C 
ENDROOT
BRANCH   1   2
ATOM      2  C   UNL     1       8.447  -5.603  -3.256  1.00  0.00     0.000 C 
BRANCH   2   3
ATOM      3  C   UNL     1       8.371  -7.137  -3.189  1.00  0.00     0.000 C 
BRANCH   3   4
ATOM      4  C   UNL     1       8.955  -7.703  -1.886  1.00  0.00     0.000 C 
BRANCH   4   5
ATOM      5  C   UNL     1       8.058  -8.809  -1.317  1.00  0.00     0.001 C 
BRANCH   5   6
ATOM      6  C   UNL     1       8.154  -8.862   0.217  1.00  0.00     0.009 C 
BRANCH   6   7
ATOM      7  C   UNL     1       7.611 -10.184   0.802  1.00  0.00     0.032 C 
ATOM      8  C   UNL     1       8.630 -10.880   1.716  1.00  0.00     0.014 C 
BRANCH   7   9
ATOM      9  C   UNL     1       6.340  -9.925   1.564  1.00  0.00     0.044 C 
ATOM     10  O   UNL     1       5.241  -9.819   0.957  1.00  0.00    -0.550 OA
ATOM     11  O   UNL     1       6.373  -9.801   2.947  1.00  0.00    -0.550 OA
ENDBRANCH   7   9
ENDBRANCH   6   7
ENDBRANCH   5   6
ENDBRANCH   4   5
ENDBRANCH   3   4
ENDBRANCH   2   3
ENDBRANCH   1   2
BRANCH   1  12
ATOM     12  C   UNL     1       8.419  -4.013  -5.271  1.00  0.00     0.000 C 
BRANCH  12  13
ATOM     13  C   UNL     1       8.949  -4.554  -6.613  1.00  0.00    -0.000 C 
BRANCH  13  14
ATOM     14  C   UNL     1       8.620  -6.040  -6.833  1.00  0.00    -0.000 C 
BRANCH  14  15
ATOM     15  C   UNL     1       8.734  -6.465  -8.308  1.00  0.00    -0.000 C 
BRANCH  15  16
ATOM     16  C   UNL     1       7.437  -7.011  -8.939  1.00  0.00    -0.000 C 
BRANCH  16  17
ATOM     17  C   UNL     1       7.265  -8.541  -8.869  1.00  0.00    -0.000 C 
BRANCH  17  18
ATOM     18  C   UNL     1       6.079  -9.095  -9.678  1.00  0.00    -0.003 C 
ATOM     19  C   UNL     1       4.899  -9.507  -8.799  1.00  0.00     0.004 C 
ENDBRANCH  17  18
ENDBRANCH  16  17
ENDBRANCH  15  16
ENDBRANCH  14  15
ENDBRANCH  13  14
ENDBRANCH  12  13
ENDBRANCH   1  12
TORSDOF 14
ENDMDL
MODEL 6
REMARK VINA RESULT:    -4.019      4.533      9.201
REMARK INTER + INTRA:          -8.509
REMARK INTER:                  -7.679
REMARK INTRA:                  -0.830
REMARK UNBOUND:                -1.201
REMARK SMILES CCCCCCCCCCCCCC[C@@H](C)C(=O)[O-]
REMARK SMILES IDX 9 1 10 2 11 3 12 4 13 5 14 6 15 7 16 8 17 9 18 10 19 11 8 12
REMARK SMILES IDX 7 13 6 14 5 15 4 16 3 17 2 18 1 19
REMARK H PARENT
REMARK Flexibility Score: inf
ROOT
ATOM      1  C   UNL     1       7.932  -4.818  -3.899  1.00  0.00     0.000 C 
ENDROOT
BRANCH   1   2
ATOM      2  C   UNL     1       8.917  -4.110  -4.845  1.00  0.00     0.000 C 
BRANCH   2   3
ATOM      3  C   UNL     1       8.372  -3.983  -6.276  1.00  0.00     0.000 C 
BRANCH   3   4
ATOM      4  C   UNL     1       9.032  -4.969  -7.252  1.00  0.00     0.000 C 
BRANCH   4   5
ATOM      5  C   UNL     1       7.976  -5.807  -7.984  1.00  0.00     0.001 C 
BRANCH   5   6
ATOM      6  C   UNL     1       8.637  -6.842  -8.909  1.00  0.00     0.009 C 
BRANCH   6   7
ATOM      7  C   UNL     1       8.286  -8.296  -8.524  1.00  0.00     0.032 C 
ATOM      8  C   UNL     1       8.394  -8.542  -7.012  1.00  0.00     0.014 C 
BRANCH   7   9
ATOM      9  C   UNL     1       6.898  -8.631  -8.995  1.00  0.00     0.044 C 
ATOM     10  O   UNL     1       6.448  -8.138 -10.064  1.00  0.00    -0.550 OA
ATOM     11  O   UNL     1       6.101  -9.490  -8.250  1.00  0.00    -0.550 OA
ENDBRANCH   7   9
ENDBRANCH   6   7
ENDBRANCH   5   6
ENDBRANCH   4   5
ENDBRANCH   3   4
ENDBRANCH   2   3
ENDBRANCH   1   2
BRANCH   1  12
ATOM     12  C   UNL     1       8.091  -6.350  -3.902  1.00  0.00     0.000 C 
BRANCH  12  13
ATOM     13  C   UNL     1       8.704  -6.952  -2.624  1.00  0.00    -0.000 C 
BRANCH  13  14
ATOM     14  C   UNL     1       8.029  -8.268  -2.198  1.00  0.00    -0.000 C 
BRANCH  14  15
ATOM     15  C   UNL     1       8.389  -8.687  -0.761  1.00  0.00    -0.000 C 
BRANCH  15  16
ATOM     16  C   UNL     1       7.225  -9.263   0.069  1.00  0.00    -0.000 C 
BRANCH  16  17
ATOM     17  C   UNL     1       7.642 -10.055   1.325  1.00  0.00    -0.000 C 
BRANCH  17  18
ATOM     18  C   UNL     1       6.577 -10.112   2.434  1.00  0.00    -0.003 C 
ATOM     19  C   UNL     1       5.172 -10.377   1.896  1.00  0.00     0.004 C 
ENDBRANCH  17  18
ENDBRANCH  16  17
ENDBRANCH  15  16
ENDBRANCH  14  15
ENDBRANCH  13  14
ENDBRANCH  12  13
ENDBRANCH   1  12
TORSDOF 14
ENDMDL
MODEL 7
REMARK VINA RESULT:    -3.984      4.577      8.855
REMARK INTER + INTRA:          -8.445
REMARK INTER:                  -7.245
REMARK INTRA:                  -1.200
REMARK UNBOUND:                -1.201
REMARK SMILES CCCCCCCCCCCCCC[C@@H](C)C(=O)[O-]
REMARK SMILES IDX 9 1 10 2 11 3 12 4 13 5 14 6 15 7 16 8 17 9 18 10 19 11 8 12
REMARK SMILES IDX 7 13 6 14 5 15 4 16 3 17 2 18 1 19
REMARK H PARENT
REMARK Flexibility Score: inf
ROOT
ATOM      1  C   UNL     1       7.686  -4.099  -5.402  1.00  0.00     0.000 C 
ENDROOT
BRANCH   1   2
ATOM      2  C   UNL     1       7.893  -4.226  -6.921  1.00  0.00     0.000 C 
BRANCH   2   3
ATOM      3  C   UNL     1       9.125  -5.073  -7.279  1.00  0.00     0.000 C 
BRANCH   3   4
ATOM      4  C   UNL     1       8.765  -6.524  -7.632  1.00  0.00     0.000 C 
BRANCH   4   5
ATOM      5  C   UNL     1       7.626  -6.573  -8.659  1.00  0.00     0.001 C 
BRANCH   5   6
ATOM      6  C   UNL     1       7.832  -7.725  -9.655  1.00  0.00     0.009 C 
BRANCH   6   7
ATOM      7  C   UNL     1       6.650  -8.720  -9.668  1.00  0.00     0.032 C 
ATOM      8  C   UNL     1       6.132  -8.993 -11.088  1.00  0.00     0.014 C 
BRANCH   7   9
ATOM      9  C   UNL     1       7.061 -10.014  -9.021  1.00  0.00     0.044 C 
ATOM     10  O   UNL     1       8.280 -10.279  -8.837  1.00  0.00    -0.550 OA
ATOM     11  O   UNL     1       6.095 -10.927  -8.620  1.00  0.00    -0.550 OA
ENDBRANCH   7   9
ENDBRANCH   6   7
ENDBRANCH   5   6
ENDBRANCH   4   5
ENDBRANCH   3   4
ENDBRANCH   2   3
ENDBRANCH   1   2
BRANCH   1  12
ATOM     12  C   UNL     1       9.009  -4.005  -4.620  1.00  0.00     0.000 C 
BRANCH  12  13
ATOM     13  C   UNL     1       9.060  -4.811  -3.309  1.00  0.00    -0.000 C 
BRANCH  13  14
ATOM     14  C   UNL     1       8.047  -5.969  -3.277  1.00  0.00    -0.000 C 
BRANCH  14  15
ATOM     15  C   UNL     1       8.532  -7.208  -4.051  1.00  0.00    -0.000 C 
BRANCH  15  16
ATOM     16  C   UNL     1       8.376  -8.551  -3.309  1.00  0.00    -0.000 C 
BRANCH  16  17
ATOM     17  C   UNL     1       7.727  -8.459  -1.913  1.00  0.00    -0.000 C 
BRANCH  17  18
ATOM     18  C   UNL     1       8.462  -9.238  -0.809  1.00  0.00    -0.003 C 
ATOM     19  C   UNL     1       7.687  -9.279   0.508  1.00  0.00     0.004 C 
ENDBRANCH  17  18
ENDBRANCH  16  17
ENDBRANCH  15  16
ENDBRANCH  14  15
ENDBRANCH  13  14
ENDBRANCH  12  13
ENDBRANCH   1  12
TORSDOF 14
ENDMDL
MODEL 8
REMARK VINA RESULT:    -3.791      4.020      9.160
REMARK INTER + INTRA:          -8.095
REMARK INTER:                  -7.428
REMARK INTRA:                  -0.667
REMARK UNBOUND:                -1.201
REMARK SMILES CCCCCCCCCCCCCC[C@@H](C)C(=O)[O-]
REMARK SMILES IDX 9 1 10 2 11 3 12 4 13 5 14 6 15 7 16 8 17 9 18 10 19 11 8 12
REMARK SMILES IDX 7 13 6 14 5 15 4 16 3 17 2 18 1 19
REMARK H PARENT
REMARK Flexibility Score: inf
ROOT
ATOM      1  C   UNL     1       8.421  -7.759  -2.082  1.00  0.00     0.000 C 
ENDROOT
BRANCH   1   2
ATOM      2  C   UNL     1       8.896  -8.670  -3.227  1.00  0.00     0.000 C 
BRANCH   2   3
ATOM      3  C   UNL     1       7.828  -8.848  -4.319  1.00  0.00     0.000 C 
BRANCH   3   4
ATOM      4  C   UNL     1       8.394  -9.465  -5.607  1.00  0.00     0.000 C 
BRANCH   4   5
ATOM      5  C   UNL     1       8.459  -8.424  -6.732  1.00  0.00     0.001 C 
BRANCH   5   6
ATOM      6  C   UNL     1       9.116  -7.124  -6.242  1.00  0.00     0.009 C 
BRANCH   6   7
ATOM      7  C   UNL     1       8.852  -5.930  -7.185  1.00  0.00     0.032 C 
ATOM      8  C   UNL     1       8.025  -6.330  -8.416  1.00  0.00     0.014 C 
BRANCH   7   9
ATOM      9  C   UNL     1       8.150  -4.830  -6.437  1.00  0.00     0.044 C 
ATOM     10  O   UNL     1       7.374  -4.040  -7.040  1.00  0.00    -0.550 OA
ATOM     11  O   UNL     1       8.355  -4.679  -5.072  1.00  0.00    -0.550 OA
ENDBRANCH   7   9
ENDBRANCH   6   7
ENDBRANCH   5   6
ENDBRANCH   4   5
ENDBRANCH   3   4
ENDBRANCH   2   3
ENDBRANCH   1   2
BRANCH   1  12
ATOM     12  C   UNL     1       8.908  -8.230  -0.699  1.00  0.00     0.000 C 
BRANCH  12  13
ATOM     13  C   UNL     1       8.835  -9.749  -0.455  1.00  0.00    -0.000 C 
BRANCH  13  14
ATOM     14  C   UNL     1       8.424 -10.106   0.984  1.00  0.00    -0.000 C 
BRANCH  14  15
ATOM     15  C   UNL     1       6.990  -9.661   1.324  1.00  0.00    -0.000 C 
BRANCH  15  16
ATOM     16  C   UNL     1       6.211 -10.605   2.261  1.00  0.00    -0.000 C 
BRANCH  16  17
ATOM     17  C   UNL     1       6.454 -10.383   3.768  1.00  0.00    -0.000 C 
BRANCH  17  18
ATOM     18  C   UNL     1       5.199 -10.014   4.576  1.00  0.00    -0.003 C 
ATOM     19  C   UNL     1       3.913 -10.109   3.756  1.00  0.00     0.004 C 
ENDBRANCH  17  18
ENDBRANCH  16  17
ENDBRANCH  15  16
ENDBRANCH  14  15
ENDBRANCH  13  14
ENDBRANCH  12  13
ENDBRANCH   1  12
TORSDOF 14
ENDMDL
