MODEL 1
REMARK VINA RESULT:    -4.029      0.000      0.000
REMARK INTER + INTRA:         -10.637
REMARK INTER:                  -8.505
REMARK INTRA:                  -2.132
REMARK UNBOUND:                -2.132
REMARK SMILES CCC(=O)CCCCC[C@@H]1NC(=O)[C@@H]2CCCCN2C(=O)[C@H]([C@@H](C)CC)NC(=O)[C@H](Cc2cn(OC)c3ccccc23)NC1=O
REMARK SMILES IDX 9 1 10 2 44 3 43 4 45 6 30 7 28 8 27 9 29 11 22 12 23 14
REMARK SMILES IDX 24 15 25 16 26 17 31 18 32 19 33 20 42 21 34 22 37 23 41 24
REMARK SMILES IDX 38 25 40 26 39 27 35 28 36 29 11 30 12 31 13 33 14 34 19 35
REMARK SMILES IDX 15 36 18 37 16 38 17 39 20 40 21 41 8 43 7 44 6 45 5 46 3 47
REMARK SMILES IDX 4 48 2 49 1 50
REMARK H PARENT 43 5 27 10 11 32
REMARK Flexibility Score: 80.00
ROOT
ATOM      1  C   UNL     1      63.146  24.282  51.696  1.00  0.00     0.035 C 
ENDROOT
BRANCH   1   2
ATOM      2  C   UNL     1      61.771  23.621  51.478  1.00  0.00     0.171 C 
BRANCH   2   3
ATOM      3  C   UNL     1      61.494  22.631  52.582  1.00  0.00     0.243 C 
ATOM      4  N   UNL     1      60.313  22.717  53.380  1.00  0.00    -0.342 N 
ATOM      5  H   UNL     1      60.404  23.077  54.359  1.00  0.00     0.164 HD
ATOM      6  O   UNL     1      62.364  21.763  52.866  1.00  0.00    -0.273 OA
BRANCH   4   7
ATOM      7  C   UNL     1      59.039  22.133  52.945  1.00  0.00     0.175 C 
BRANCH   7   8
ATOM      8  C   UNL     1      57.903  23.046  53.329  1.00  0.00     0.243 C 
ATOM      9  N   UNL     1      57.103  23.681  52.316  1.00  0.00    -0.342 N 
ATOM     10  H   UNL     1      57.025  23.188  51.399  1.00  0.00     0.164 HD
ATOM     11  O   UNL     1      57.652  23.232  54.546  1.00  0.00    -0.273 OA
BRANCH   9  12
ATOM     12  C   UNL     1      56.744  25.109  52.305  1.00  0.00     0.174 CG0
ATOM     13  G   UNL     1      57.991  25.985  52.275  1.00  0.00     0.000 G0
BRANCH  12  14
ATOM     14  C   UNL     1      55.554  25.464  53.259  1.00  0.00     0.018 C 
ATOM     15  C   UNL     1      55.132  26.932  53.040  1.00  0.00     0.010 C 
BRANCH  14  16
ATOM     16  C   UNL     1      54.320  24.537  53.134  1.00  0.00     0.002 C 
ATOM     17  C   UNL     1      54.126  23.635  54.357  1.00  0.00     0.004 C 
ENDBRANCH  14  16
ENDBRANCH  12  14
ENDBRANCH   9  12
ENDBRANCH   7   8
BRANCH   7  18
ATOM     18  C   UNL     1      58.862  20.737  53.573  1.00  0.00     0.073 C 
BRANCH  18  19
ATOM     19  C   UNL     1      57.992  19.868  52.710  1.00  0.00    -0.016 A 
ATOM     20  C   UNL     1      56.633  19.649  52.880  1.00  0.00     0.134 A 
ATOM     21  C   UNL     1      58.336  19.212  51.543  1.00  0.00     0.006 A 
ATOM     22  N   UNL     1      56.148  18.879  51.881  1.00  0.00    -0.191 N 
ATOM     23  C   UNL     1      57.195  18.612  51.054  1.00  0.00     0.087 A 
ATOM     24  C   UNL     1      59.566  19.123  50.887  1.00  0.00     0.011 A 
ATOM     25  C   UNL     1      57.236  17.884  49.853  1.00  0.00     0.030 A 
ATOM     26  C   UNL     1      59.623  18.396  49.689  1.00  0.00     0.001 A 
ATOM     27  C   UNL     1      58.464  17.777  49.179  1.00  0.00     0.002 A 
BRANCH  22  28
ATOM     28  O   UNL     1      54.817  18.500  51.824  1.00  0.00    -0.417 OA
ATOM     29  C   UNL     1      53.713  19.377  51.978  1.00  0.00     0.313 C 
ENDBRANCH  22  28
ENDBRANCH  18  19
ENDBRANCH   7  18
ENDBRANCH   4   7
ENDBRANCH   2   3
BRANCH   2  30
ATOM     30  N   UNL     1      60.728  24.653  51.407  1.00  0.00    -0.343 N 
ATOM     31  C   UNL     1      59.744  24.671  50.362  1.00  0.00     0.243 C 
ATOM     32  H   UNL     1      60.758  25.441  52.090  1.00  0.00     0.164 HD
ATOM     33  O   UNL     1      59.478  23.605  49.741  1.00  0.00    -0.273 OA
BRANCH  31  34
ATOM     34  C   UNL     1      59.014  25.944  49.968  1.00  0.00     0.174 C 
ATOM     35  N   UNL     1      58.506  26.729  51.123  1.00  0.00    -0.329 N 
ATOM     36  C   UNL     1      59.883  26.831  49.052  1.00  0.00     0.035 C 
ATOM     37  C   UNL     1      57.928  28.061  50.837  1.00  0.00     0.120 C 
ATOM     38  C   UNL     1      59.183  28.142  48.641  1.00  0.00     0.004 C 
ATOM     39  C   UNL     1      57.830  28.351  49.331  1.00  0.00     0.022 C 
BRANCH  35  40
ATOM     40  C   UNL     1      58.001  26.025  52.281  1.00  0.00     0.246 CG0
ATOM     41  O   UNL     1      58.602  26.173  53.380  1.00  0.00    -0.272 OA
ATOM     42  G   UNL     1      56.772  25.122  52.291  1.00  0.00     0.000 G0
ENDBRANCH  35  40
ENDBRANCH  31  34
ENDBRANCH   2  30
ENDBRANCH   1   2
BRANCH   1  43
ATOM     43  C   UNL     1      63.031  25.558  52.540  1.00  0.00     0.003 C 
BRANCH  43  44
ATOM     44  C   UNL     1      63.252  26.814  51.689  1.00  0.00     0.001 C 
BRANCH  44  45
ATOM     45  C   UNL     1      64.042  26.478  50.420  1.00  0.00     0.008 C 
BRANCH  45  46
ATOM     46  C   UNL     1      63.203  26.709  49.159  1.00  0.00     0.075 C 
BRANCH  46  47
ATOM     47  C   UNL     1      63.545  28.032  48.527  1.00  0.00     0.132 C 
ATOM     48  O   UNL     1      63.294  29.066  49.130  1.00  0.00    -0.300 OA
BRANCH  47  49
ATOM     49  C   UNL     1      64.183  28.107  47.165  1.00  0.00     0.072 C 
ATOM     50  C   UNL     1      65.173  26.963  46.955  1.00  0.00     0.012 C 
ENDBRANCH  47  49
ENDBRANCH  46  47
ENDBRANCH  45  46
ENDBRANCH  44  45
ENDBRANCH  43  44
ENDBRANCH   1  43
TORSDOF 12
ENDMDL
MODEL 2
REMARK VINA RESULT:    -3.972      2.855      6.702
REMARK INTER + INTRA:         -10.516
REMARK INTER:                  -9.170
REMARK INTRA:                  -1.346
REMARK UNBOUND:                -2.132
REMARK SMILES CCC(=O)CCCCC[C@@H]1NC(=O)[C@@H]2CCCCN2C(=O)[C@H]([C@@H](C)CC)NC(=O)[C@H](Cc2cn(OC)c3ccccc23)NC1=O
REMARK SMILES IDX 9 1 10 2 44 3 43 4 45 6 30 7 28 8 27 9 29 11 22 12 23 14
REMARK SMILES IDX 24 15 25 16 26 17 31 18 32 19 33 20 42 21 34 22 37 23 41 24
REMARK SMILES IDX 38 25 40 26 39 27 35 28 36 29 11 30 12 31 13 33 14 34 19 35
REMARK SMILES IDX 15 36 18 37 16 38 17 39 20 40 21 41 8 43 7 44 6 45 5 46 3 47
REMARK SMILES IDX 4 48 2 49 1 50
REMARK H PARENT 43 5 27 10 11 32
REMARK Flexibility Score: 80.00
ROOT
ATOM      1  C   UNL     1      60.036  27.053  48.764  1.00  0.00     0.035 C 
ENDROOT
BRANCH   1   2
ATOM      2  C   UNL     1      60.801  25.998  49.586  1.00  0.00     0.171 C 
BRANCH   2   3
ATOM      3  C   UNL     1      60.095  24.667  49.501  1.00  0.00     0.243 C 
ATOM      4  N   UNL     1      60.817  23.435  49.553  1.00  0.00    -0.342 N 
ATOM      5  H   UNL     1      60.944  22.900  48.662  1.00  0.00     0.164 HD
ATOM      6  O   UNL     1      58.852  24.640  49.290  1.00  0.00    -0.273 OA
BRANCH   4   7
ATOM      7  C   UNL     1      61.196  22.814  50.827  1.00  0.00     0.175 C 
BRANCH   7   8
ATOM      8  C   UNL     1      62.524  23.363  51.285  1.00  0.00     0.243 C 
ATOM      9  N   UNL     1      63.386  24.052  50.361  1.00  0.00    -0.342 N 
ATOM     10  H   UNL     1      62.926  24.533  49.557  1.00  0.00     0.164 HD
ATOM     11  O   UNL     1      62.861  23.227  52.487  1.00  0.00    -0.273 OA
BRANCH   9  12
ATOM     12  C   UNL     1      64.828  23.798  50.213  1.00  0.00     0.174 CG0
ATOM     13  G   UNL     1      65.585  25.092  49.934  1.00  0.00     0.000 G0
BRANCH  12  14
ATOM     14  C   UNL     1      65.156  22.502  49.396  1.00  0.00     0.018 C 
ATOM     15  C   UNL     1      65.248  21.295  50.353  1.00  0.00     0.010 C 
BRANCH  14  16
ATOM     16  C   UNL     1      64.167  22.190  48.247  1.00  0.00     0.002 C 
ATOM     17  C   UNL     1      64.356  20.786  47.664  1.00  0.00     0.004 C 
ENDBRANCH  14  16
ENDBRANCH  12  14
ENDBRANCH   9  12
ENDBRANCH   7   8
BRANCH   7  18
ATOM     18  C   UNL     1      61.259  21.283  50.664  1.00  0.00     0.073 C 
BRANCH  18  19
ATOM     19  C   UNL     1      60.007  20.637  51.184  1.00  0.00    -0.016 A 
ATOM     20  C   UNL     1      59.261  21.063  52.274  1.00  0.00     0.134 A 
ATOM     21  C   UNL     1      59.304  19.581  50.636  1.00  0.00     0.006 A 
ATOM     22  N   UNL     1      58.153  20.301  52.416  1.00  0.00    -0.191 N 
ATOM     23  C   UNL     1      58.176  19.391  51.406  1.00  0.00     0.087 A 
ATOM     24  C   UNL     1      59.581  18.798  49.513  1.00  0.00     0.011 A 
ATOM     25  C   UNL     1      57.251  18.387  51.073  1.00  0.00     0.030 A 
ATOM     26  C   UNL     1      58.669  17.789  49.170  1.00  0.00     0.001 A 
ATOM     27  C   UNL     1      57.512  17.584  49.949  1.00  0.00     0.002 A 
BRANCH  22  28
ATOM     28  O   UNL     1      57.245  20.509  53.442  1.00  0.00    -0.417 OA
ATOM     29  C   UNL     1      56.252  21.523  53.457  1.00  0.00     0.313 C 
ENDBRANCH  22  28
ENDBRANCH  18  19
ENDBRANCH   7  18
ENDBRANCH   4   7
ENDBRANCH   2   3
BRANCH   2  30
ATOM     30  N   UNL     1      62.187  25.901  49.107  1.00  0.00    -0.343 N 
ATOM     31  C   UNL     1      63.215  26.791  49.569  1.00  0.00     0.243 C 
ATOM     32  H   UNL     1      62.407  25.221  48.347  1.00  0.00     0.164 HD
ATOM     33  O   UNL     1      63.077  27.378  50.677  1.00  0.00    -0.273 OA
BRANCH  31  34
ATOM     34  C   UNL     1      64.470  27.057  48.756  1.00  0.00     0.174 C 
ATOM     35  N   UNL     1      65.423  25.918  48.726  1.00  0.00    -0.329 N 
ATOM     36  C   UNL     1      64.125  27.510  47.321  1.00  0.00     0.035 C 
ATOM     37  C   UNL     1      66.592  26.033  47.826  1.00  0.00     0.120 C 
ATOM     38  C   UNL     1      65.374  27.777  46.457  1.00  0.00     0.004 C 
ATOM     39  C   UNL     1      66.688  27.412  47.157  1.00  0.00     0.022 C 
BRANCH  35  40
ATOM     40  C   UNL     1      65.581  25.106  49.913  1.00  0.00     0.246 CG0
ATOM     41  O   UNL     1      66.404  25.485  50.791  1.00  0.00    -0.272 OA
ATOM     42  G   UNL     1      64.810  23.824  50.209  1.00  0.00     0.000 G0
ENDBRANCH  35  40
ENDBRANCH  31  34
ENDBRANCH   2  30
ENDBRANCH   1   2
BRANCH   1  43
ATOM     43  C   UNL     1      59.501  28.182  49.655  1.00  0.00     0.003 C 
BRANCH  43  44
ATOM     44  C   UNL     1      57.995  28.387  49.457  1.00  0.00     0.001 C 
BRANCH  44  45
ATOM     45  C   UNL     1      57.196  27.544  50.458  1.00  0.00     0.008 C 
BRANCH  45  46
ATOM     46  C   UNL     1      56.882  28.335  51.732  1.00  0.00     0.075 C 
BRANCH  46  47
ATOM     47  C   UNL     1      55.396  28.387  51.972  1.00  0.00     0.132 C 
ATOM     48  O   UNL     1      54.833  27.412  52.450  1.00  0.00    -0.300 OA
BRANCH  47  49
ATOM     49  C   UNL     1      54.590  29.613  51.630  1.00  0.00     0.072 C 
ATOM     50  C   UNL     1      54.488  29.803  50.118  1.00  0.00     0.012 C 
ENDBRANCH  47  49
ENDBRANCH  46  47
ENDBRANCH  45  46
ENDBRANCH  44  45
ENDBRANCH  43  44
ENDBRANCH   1  43
TORSDOF 12
ENDMDL
MODEL 3
REMARK VINA RESULT:    -3.799      2.127      8.053
REMARK INTER + INTRA:         -10.150
REMARK INTER:                  -7.739
REMARK INTRA:                  -2.411
REMARK UNBOUND:                -2.132
REMARK SMILES CCC(=O)CCCCC[C@@H]1NC(=O)[C@@H]2CCCCN2C(=O)[C@H]([C@@H](C)CC)NC(=O)[C@H](Cc2cn(OC)c3ccccc23)NC1=O
REMARK SMILES IDX 9 1 10 2 44 3 43 4 45 6 30 7 28 8 27 9 29 11 22 12 23 14
REMARK SMILES IDX 24 15 25 16 26 17 31 18 32 19 33 20 42 21 34 22 37 23 41 24
REMARK SMILES IDX 38 25 40 26 39 27 35 28 36 29 11 30 12 31 13 33 14 34 19 35
REMARK SMILES IDX 15 36 18 37 16 38 17 39 20 40 21 41 8 43 7 44 6 45 5 46 3 47
REMARK SMILES IDX 4 48 2 49 1 50
REMARK H PARENT 43 5 27 10 11 32
REMARK Flexibility Score: 80.00
ROOT
ATOM      1  C   UNL     1      59.582  21.811  51.428  1.00  0.00     0.035 C 
ENDROOT
BRANCH   1   2
ATOM      2  C   UNL     1      59.810  23.333  51.494  1.00  0.00     0.171 C 
BRANCH   2   3
ATOM      3  C   UNL     1      59.937  23.896  50.100  1.00  0.00     0.243 C 
ATOM      4  N   UNL     1      59.084  24.946  49.640  1.00  0.00    -0.342 N 
ATOM      5  H   UNL     1      58.317  24.701  48.970  1.00  0.00     0.164 HD
ATOM      6  O   UNL     1      60.751  23.370  49.294  1.00  0.00    -0.273 OA
BRANCH   4   7
ATOM      7  C   UNL     1      59.377  26.357  49.913  1.00  0.00     0.175 C 
BRANCH   7   8
ATOM      8  C   UNL     1      58.097  27.090  50.227  1.00  0.00     0.243 C 
ATOM      9  N   UNL     1      57.841  27.573  51.558  1.00  0.00    -0.342 N 
ATOM     10  H   UNL     1      58.674  27.801  52.145  1.00  0.00     0.164 HD
ATOM     11  O   UNL     1      57.264  27.290  49.308  1.00  0.00    -0.273 OA
BRANCH   9  12
ATOM     12  C   UNL     1      56.577  27.384  52.289  1.00  0.00     0.174 CG0
ATOM     13  G   UNL     1      56.336  25.908  52.589  1.00  0.00     0.000 G0
BRANCH  12  14
ATOM     14  C   UNL     1      55.407  28.283  51.763  1.00  0.00     0.018 C 
ATOM     15  C   UNL     1      54.317  28.403  52.848  1.00  0.00     0.010 C 
BRANCH  14  16
ATOM     16  C   UNL     1      55.833  29.692  51.285  1.00  0.00     0.002 C 
ATOM     17  C   UNL     1      54.836  30.784  51.685  1.00  0.00     0.004 C 
ENDBRANCH  14  16
ENDBRANCH  12  14
ENDBRANCH   9  12
ENDBRANCH   7   8
BRANCH   7  18
ATOM     18  C   UNL     1      60.091  26.987  48.702  1.00  0.00     0.073 C 
BRANCH  18  19
ATOM     19  C   UNL     1      61.308  27.753  49.137  1.00  0.00    -0.016 A 
ATOM     20  C   UNL     1      61.326  29.057  49.610  1.00  0.00     0.134 A 
ATOM     21  C   UNL     1      62.606  27.293  49.251  1.00  0.00     0.006 A 
ATOM     22  N   UNL     1      62.576  29.407  49.986  1.00  0.00    -0.191 N 
ATOM     23  C   UNL     1      63.365  28.321  49.769  1.00  0.00     0.087 A 
ATOM     24  C   UNL     1      63.151  26.044  48.945  1.00  0.00     0.011 A 
ATOM     25  C   UNL     1      64.736  28.136  50.016  1.00  0.00     0.030 A 
ATOM     26  C   UNL     1      64.519  25.845  49.183  1.00  0.00     0.001 A 
ATOM     27  C   UNL     1      65.306  26.888  49.712  1.00  0.00     0.002 A 
BRANCH  22  28
ATOM     28  O   UNL     1      62.869  30.668  50.482  1.00  0.00    -0.417 OA
ATOM     29  C   UNL     1      63.428  31.730  49.725  1.00  0.00     0.313 C 
ENDBRANCH  22  28
ENDBRANCH  18  19
ENDBRANCH   7  18
ENDBRANCH   4   7
ENDBRANCH   2   3
BRANCH   2  30
ATOM     30  N   UNL     1      58.710  23.970  52.232  1.00  0.00    -0.343 N 
ATOM     31  C   UNL     1      58.949  24.866  53.328  1.00  0.00     0.243 C 
ATOM     32  H   UNL     1      57.730  23.695  52.005  1.00  0.00     0.164 HD
ATOM     33  O   UNL     1      60.060  25.458  53.416  1.00  0.00    -0.273 OA
BRANCH  31  34
ATOM     34  C   UNL     1      57.902  25.120  54.400  1.00  0.00     0.174 C 
ATOM     35  N   UNL     1      56.518  25.246  53.873  1.00  0.00    -0.329 N 
ATOM     36  C   UNL     1      57.962  24.049  55.509  1.00  0.00     0.035 C 
ATOM     37  C   UNL     1      55.421  25.331  54.862  1.00  0.00     0.120 C 
ATOM     38  C   UNL     1      56.903  24.263  56.611  1.00  0.00     0.004 C 
ATOM     39  C   UNL     1      55.933  25.410  56.307  1.00  0.00     0.022 C 
BRANCH  35  40
ATOM     40  C   UNL     1      56.311  25.898  52.598  1.00  0.00     0.246 CG0
ATOM     41  O   UNL     1      55.844  25.215  51.646  1.00  0.00    -0.272 OA
ATOM     42  G   UNL     1      56.594  27.369  52.309  1.00  0.00     0.000 G0
ENDBRANCH  35  40
ENDBRANCH  31  34
ENDBRANCH   2  30
ENDBRANCH   1   2
BRANCH   1  43
ATOM     43  C   UNL     1      59.876  21.137  52.775  1.00  0.00     0.003 C 
BRANCH  43  44
ATOM     44  C   UNL     1      58.592  20.628  53.440  1.00  0.00     0.001 C 
BRANCH  44  45
ATOM     45  C   UNL     1      57.534  20.285  52.385  1.00  0.00     0.008 C 
BRANCH  45  46
ATOM     46  C   UNL     1      57.058  18.835  52.519  1.00  0.00     0.075 C 
BRANCH  46  47
ATOM     47  C   UNL     1      57.334  18.065  51.254  1.00  0.00     0.132 C 
ATOM     48  O   UNL     1      56.396  17.707  50.556  1.00  0.00    -0.300 OA
BRANCH  47  49
ATOM     49  C   UNL     1      58.740  17.723  50.837  1.00  0.00     0.072 C 
ATOM     50  C   UNL     1      59.025  18.199  49.414  1.00  0.00     0.012 C 
ENDBRANCH  47  49
ENDBRANCH  46  47
ENDBRANCH  45  46
ENDBRANCH  44  45
ENDBRANCH  43  44
ENDBRANCH   1  43
TORSDOF 12
ENDMDL
MODEL 4
REMARK VINA RESULT:    -3.769      5.718      8.941
REMARK INTER + INTRA:         -10.088
REMARK INTER:                  -7.656
REMARK INTRA:                  -2.432
REMARK UNBOUND:                -2.132
REMARK SMILES CCC(=O)CCCCC[C@@H]1NC(=O)[C@@H]2CCCCN2C(=O)[C@H]([C@@H](C)CC)NC(=O)[C@H](Cc2cn(OC)c3ccccc23)NC1=O
REMARK SMILES IDX 9 1 10 2 44 3 43 4 45 6 30 7 28 8 27 9 29 11 22 12 23 14
REMARK SMILES IDX 24 15 25 16 26 17 31 18 32 19 33 20 42 21 34 22 37 23 41 24
REMARK SMILES IDX 38 25 40 26 39 27 35 28 36 29 11 30 12 31 13 33 14 34 19 35
REMARK SMILES IDX 15 36 18 37 16 38 17 39 20 40 21 41 8 43 7 44 6 45 5 46 3 47
REMARK SMILES IDX 4 48 2 49 1 50
REMARK H PARENT 43 5 27 10 11 32
REMARK Flexibility Score: 80.00
ROOT
ATOM      1  C   UNL     1      62.380  30.217  52.775  1.00  0.00     0.035 C 
ENDROOT
BRANCH   1   2
ATOM      2  C   UNL     1      61.322  29.917  53.853  1.00  0.00     0.171 C 
BRANCH   2   3
ATOM      3  C   UNL     1      61.495  30.855  55.022  1.00  0.00     0.243 C 
ATOM      4  N   UNL     1      60.431  31.698  55.465  1.00  0.00    -0.342 N 
ATOM      5  H   UNL     1      60.481  32.718  55.236  1.00  0.00     0.164 HD
ATOM      6  O   UNL     1      62.629  30.964  55.563  1.00  0.00    -0.273 OA
BRANCH   4   7
ATOM      7  C   UNL     1      59.397  31.219  56.390  1.00  0.00     0.175 C 
BRANCH   7   8
ATOM      8  C   UNL     1      58.055  31.774  55.984  1.00  0.00     0.243 C 
ATOM      9  N   UNL     1      57.040  30.907  55.446  1.00  0.00    -0.342 N 
ATOM     10  H   UNL     1      57.069  29.907  55.741  1.00  0.00     0.164 HD
ATOM     11  O   UNL     1      57.827  33.000  56.138  1.00  0.00    -0.273 OA
BRANCH   9  12
ATOM     12  C   UNL     1      56.251  31.192  54.235  1.00  0.00     0.174 CG0
ATOM     13  G   UNL     1      57.137  31.196  52.994  1.00  0.00     0.000 G0
BRANCH  12  14
ATOM     14  C   UNL     1      55.174  32.311  54.438  1.00  0.00     0.018 C 
ATOM     15  C   UNL     1      54.203  32.320  53.238  1.00  0.00     0.010 C 
BRANCH  14  16
ATOM     16  C   UNL     1      54.376  32.214  55.761  1.00  0.00     0.002 C 
ATOM     17  C   UNL     1      54.233  33.564  56.471  1.00  0.00     0.004 C 
ENDBRANCH  14  16
ENDBRANCH  12  14
ENDBRANCH   9  12
ENDBRANCH   7   8
BRANCH   7  18
ATOM     18  C   UNL     1      59.752  31.632  57.831  1.00  0.00     0.073 C 
BRANCH  18  19
ATOM     19  C   UNL     1      60.358  30.482  58.584  1.00  0.00    -0.016 A 
ATOM     20  C   UNL     1      59.771  29.242  58.791  1.00  0.00     0.134 A 
ATOM     21  C   UNL     1      61.630  30.391  59.117  1.00  0.00     0.006 A 
ATOM     22  N   UNL     1      60.624  28.417  59.439  1.00  0.00    -0.191 N 
ATOM     23  C   UNL     1      61.770  29.121  59.637  1.00  0.00     0.087 A 
ATOM     24  C   UNL     1      62.660  31.334  59.162  1.00  0.00     0.011 A 
ATOM     25  C   UNL     1      62.980  28.729  60.233  1.00  0.00     0.030 A 
ATOM     26  C   UNL     1      63.872  30.958  59.758  1.00  0.00     0.001 A 
ATOM     27  C   UNL     1      64.029  29.663  60.293  1.00  0.00     0.002 A 
BRANCH  22  28
ATOM     28  O   UNL     1      60.275  27.120  59.781  1.00  0.00    -0.417 OA
ATOM     29  C   UNL     1      59.056  26.743  60.403  1.00  0.00     0.313 C 
ENDBRANCH  22  28
ENDBRANCH  18  19
ENDBRANCH   7  18
ENDBRANCH   4   7
ENDBRANCH   2   3
BRANCH   2  30
ATOM     30  N   UNL     1      59.975  30.023  53.274  1.00  0.00    -0.343 N 
ATOM     31  C   UNL     1      59.006  28.973  53.403  1.00  0.00     0.243 C 
ATOM     32  H   UNL     1      59.751  30.852  52.682  1.00  0.00     0.164 HD
ATOM     33  O   UNL     1      59.113  28.141  54.347  1.00  0.00    -0.273 OA
BRANCH  31  34
ATOM     34  C   UNL     1      57.851  28.822  52.428  1.00  0.00     0.174 C 
ATOM     35  N   UNL     1      57.249  30.111  52.001  1.00  0.00    -0.329 N 
ATOM     36  C   UNL     1      58.260  27.984  51.198  1.00  0.00     0.035 C 
ATOM     37  C   UNL     1      56.230  30.064  50.930  1.00  0.00     0.120 C 
ATOM     38  C   UNL     1      57.118  27.819  50.174  1.00  0.00     0.004 C 
ATOM     39  C   UNL     1      55.864  28.627  50.527  1.00  0.00     0.022 C 
BRANCH  35  40
ATOM     40  C   UNL     1      57.149  31.188  52.962  1.00  0.00     0.246 CG0
ATOM     41  O   UNL     1      57.817  32.238  52.756  1.00  0.00    -0.272 OA
ATOM     42  G   UNL     1      56.273  31.171  54.210  1.00  0.00     0.000 G0
ENDBRANCH  35  40
ENDBRANCH  31  34
ENDBRANCH   2  30
ENDBRANCH   1   2
BRANCH   1  43
ATOM     43  C   UNL     1      61.753  30.871  51.536  1.00  0.00     0.003 C 
BRANCH  43  44
ATOM     44  C   UNL     1      61.961  30.014  50.283  1.00  0.00     0.001 C 
BRANCH  44  45
ATOM     45  C   UNL     1      61.815  28.524  50.614  1.00  0.00     0.008 C 
BRANCH  45  46
ATOM     46  C   UNL     1      62.847  27.679  49.861  1.00  0.00     0.075 C 
BRANCH  46  47
ATOM     47  C   UNL     1      62.269  26.339  49.490  1.00  0.00     0.132 C 
ATOM     48  O   UNL     1      63.018  25.445  49.123  1.00  0.00    -0.300 OA
BRANCH  47  49
ATOM     49  C   UNL     1      60.786  26.081  49.556  1.00  0.00     0.072 C 
ATOM     50  C   UNL     1      60.488  24.584  49.627  1.00  0.00     0.012 C 
ENDBRANCH  47  49
ENDBRANCH  46  47
ENDBRANCH  45  46
ENDBRANCH  44  45
ENDBRANCH  43  44
ENDBRANCH   1  43
TORSDOF 12
ENDMDL
MODEL 5
REMARK VINA RESULT:    -3.741      3.821      8.029
REMARK INTER + INTRA:         -10.029
REMARK INTER:                  -6.584
REMARK INTRA:                  -3.445
REMARK UNBOUND:                -2.132
REMARK SMILES CCC(=O)CCCCC[C@@H]1NC(=O)[C@@H]2CCCCN2C(=O)[C@H]([C@@H](C)CC)NC(=O)[C@H](Cc2cn(OC)c3ccccc23)NC1=O
REMARK SMILES IDX 9 1 10 2 44 3 43 4 45 6 30 7 28 8 27 9 29 11 22 12 23 14
REMARK SMILES IDX 24 15 25 16 26 17 31 18 32 19 33 20 42 21 34 22 37 23 41 24
REMARK SMILES IDX 38 25 40 26 39 27 35 28 36 29 11 30 12 31 13 33 14 34 19 35
REMARK SMILES IDX 15 36 18 37 16 38 17 39 20 40 21 41 8 43 7 44 6 45 5 46 3 47
REMARK SMILES IDX 4 48 2 49 1 50
REMARK H PARENT 43 5 27 10 11 32
REMARK Flexibility Score: 80.00
ROOT
ATOM      1  C   UNL     1      57.773  28.267  49.599  1.00  0.00     0.035 C 
ENDROOT
BRANCH   1   2
ATOM      2  C   UNL     1      59.142  27.860  50.175  1.00  0.00     0.171 C 
BRANCH   2   3
ATOM      3  C   UNL     1      59.888  27.005  49.180  1.00  0.00     0.243 C 
ATOM      4  N   UNL     1      61.175  27.384  48.689  1.00  0.00    -0.342 N 
ATOM      5  H   UNL     1      61.240  27.759  47.714  1.00  0.00     0.164 HD
ATOM      6  O   UNL     1      59.326  25.982  48.703  1.00  0.00    -0.273 OA
BRANCH   4   7
ATOM      7  C   UNL     1      62.406  27.073  49.425  1.00  0.00     0.175 C 
BRANCH   7   8
ATOM      8  C   UNL     1      63.379  28.217  49.293  1.00  0.00     0.243 C 
ATOM      9  N   UNL     1      63.735  29.007  50.442  1.00  0.00    -0.342 N 
ATOM     10  H   UNL     1      63.679  28.538  51.373  1.00  0.00     0.164 HD
ATOM     11  O   UNL     1      63.889  28.461  48.171  1.00  0.00    -0.273 OA
BRANCH   9  12
ATOM     12  C   UNL     1      63.764  30.479  50.470  1.00  0.00     0.174 CG0
ATOM     13  G   UNL     1      62.364  31.056  50.286  1.00  0.00     0.000 G0
BRANCH  12  14
ATOM     14  C   UNL     1      64.978  31.098  49.697  1.00  0.00     0.018 C 
ATOM     15  C   UNL     1      65.060  32.611  49.986  1.00  0.00     0.010 C 
BRANCH  14  16
ATOM     16  C   UNL     1      66.344  30.430  49.991  1.00  0.00     0.002 C 
ATOM     17  C   UNL     1      67.074  29.984  48.720  1.00  0.00     0.004 C 
ENDBRANCH  14  16
ENDBRANCH  12  14
ENDBRANCH   9  12
ENDBRANCH   7   8
BRANCH   7  18
ATOM     18  C   UNL     1      63.018  25.764  48.892  1.00  0.00     0.073 C 
BRANCH  18  19
ATOM     19  C   UNL     1      63.261  24.791  50.010  1.00  0.00    -0.016 A 
ATOM     20  C   UNL     1      64.020  25.028  51.147  1.00  0.00     0.134 A 
ATOM     21  C   UNL     1      62.708  23.536  50.181  1.00  0.00     0.006 A 
ATOM     22  N   UNL     1      63.963  23.968  51.984  1.00  0.00    -0.191 N 
ATOM     23  C   UNL     1      63.153  23.050  51.392  1.00  0.00     0.087 A 
ATOM     24  C   UNL     1      61.842  22.811  49.359  1.00  0.00     0.011 A 
ATOM     25  C   UNL     1      62.734  21.788  51.847  1.00  0.00     0.030 A 
ATOM     26  C   UNL     1      61.419  21.548  49.797  1.00  0.00     0.001 A 
ATOM     27  C   UNL     1      61.866  21.040  51.033  1.00  0.00     0.002 A 
BRANCH  22  28
ATOM     28  O   UNL     1      64.650  23.944  53.187  1.00  0.00    -0.417 OA
ATOM     29  C   UNL     1      64.215  24.569  54.385  1.00  0.00     0.313 C 
ENDBRANCH  22  28
ENDBRANCH  18  19
ENDBRANCH   7  18
ENDBRANCH   4   7
ENDBRANCH   2   3
BRANCH   2  30
ATOM     30  N   UNL     1      59.910  29.062  50.531  1.00  0.00    -0.343 N 
ATOM     31  C   UNL     1      60.636  29.163  51.766  1.00  0.00     0.243 C 
ATOM     32  H   UNL     1      59.853  29.895  49.905  1.00  0.00     0.164 HD
ATOM     33  O   UNL     1      60.989  28.111  52.367  1.00  0.00    -0.273 OA
BRANCH  31  34
ATOM     34  C   UNL     1      60.988  30.506  52.382  1.00  0.00     0.174 C 
ATOM     35  N   UNL     1      61.498  31.503  51.406  1.00  0.00    -0.329 N 
ATOM     36  C   UNL     1      59.800  31.088  53.177  1.00  0.00     0.035 C 
ATOM     37  C   UNL     1      61.709  32.884  51.893  1.00  0.00     0.120 C 
ATOM     38  C   UNL     1      60.112  32.461  53.808  1.00  0.00     0.004 C 
ATOM     39  C   UNL     1      61.482  33.018  53.406  1.00  0.00     0.022 C 
BRANCH  35  40
ATOM     40  C   UNL     1      62.337  31.051  50.317  1.00  0.00     0.246 CG0
ATOM     41  O   UNL     1      61.893  31.146  49.140  1.00  0.00    -0.272 OA
ATOM     42  G   UNL     1      63.743  30.480  50.472  1.00  0.00     0.000 G0
ENDBRANCH  35  40
ENDBRANCH  31  34
ENDBRANCH   2  30
ENDBRANCH   1   2
BRANCH   1  43
ATOM     43  C   UNL     1      56.618  27.746  50.465  1.00  0.00     0.003 C 
BRANCH  43  44
ATOM     44  C   UNL     1      56.994  27.733  51.951  1.00  0.00     0.001 C 
BRANCH  44  45
ATOM     45  C   UNL     1      56.706  26.361  52.572  1.00  0.00     0.008 C 
BRANCH  45  46
ATOM     46  C   UNL     1      57.987  25.704  53.097  1.00  0.00     0.075 C 
BRANCH  46  47
ATOM     47  C   UNL     1      58.515  24.699  52.107  1.00  0.00     0.132 C 
ATOM     48  O   UNL     1      57.786  24.309  51.206  1.00  0.00    -0.300 OA
BRANCH  47  49
ATOM     49  C   UNL     1      59.919  24.164  52.208  1.00  0.00     0.072 C 
ATOM     50  C   UNL     1      60.425  24.211  53.649  1.00  0.00     0.012 C 
ENDBRANCH  47  49
ENDBRANCH  46  47
ENDBRANCH  45  46
ENDBRANCH  44  45
ENDBRANCH  43  44
ENDBRANCH   1  43
TORSDOF 12
ENDMDL
MODEL 6
REMARK VINA RESULT:    -3.730      2.189      3.345
REMARK INTER + INTRA:         -10.005
REMARK INTER:                  -7.685
REMARK INTRA:                  -2.320
REMARK UNBOUND:                -2.132
REMARK SMILES CCC(=O)CCCCC[C@@H]1NC(=O)[C@@H]2CCCCN2C(=O)[C@H]([C@@H](C)CC)NC(=O)[C@H](Cc2cn(OC)c3ccccc23)NC1=O
REMARK SMILES IDX 9 1 10 2 44 3 43 4 45 6 30 7 28 8 27 9 29 11 22 12 23 14
REMARK SMILES IDX 24 15 25 16 26 17 31 18 32 19 33 20 42 21 34 22 37 23 41 24
REMARK SMILES IDX 38 25 40 26 39 27 35 28 36 29 11 30 12 31 13 33 14 34 19 35
REMARK SMILES IDX 15 36 18 37 16 38 17 39 20 40 21 41 8 43 7 44 6 45 5 46 3 47
REMARK SMILES IDX 4 48 2 49 1 50
REMARK H PARENT 43 5 27 10 11 32
REMARK Flexibility Score: 80.00
ROOT
ATOM      1  C   UNL     1      60.511  26.087  49.000  1.00  0.00     0.035 C 
ENDROOT
BRANCH   1   2
ATOM      2  C   UNL     1      59.467  25.197  49.701  1.00  0.00     0.171 C 
BRANCH   2   3
ATOM      3  C   UNL     1      60.154  24.068  50.427  1.00  0.00     0.243 C 
ATOM      4  N   UNL     1      59.979  23.869  51.831  1.00  0.00    -0.342 N 
ATOM      5  H   UNL     1      60.764  24.139  52.469  1.00  0.00     0.164 HD
ATOM      6  O   UNL     1      60.971  23.339  49.802  1.00  0.00    -0.273 OA
BRANCH   4   7
ATOM      7  C   UNL     1      58.838  23.121  52.370  1.00  0.00     0.175 C 
BRANCH   7   8
ATOM      8  C   UNL     1      58.327  23.802  53.615  1.00  0.00     0.243 C 
ATOM      9  N   UNL     1      56.998  24.354  53.650  1.00  0.00    -0.342 N 
ATOM     10  H   UNL     1      56.288  23.913  53.025  1.00  0.00     0.164 HD
ATOM     11  O   UNL     1      59.068  23.866  54.627  1.00  0.00    -0.273 OA
BRANCH   9  12
ATOM     12  C   UNL     1      56.663  25.698  54.150  1.00  0.00     0.174 CG0
ATOM     13  G   UNL     1      57.441  26.771  53.396  1.00  0.00     0.000 G0
BRANCH  12  14
ATOM     14  C   UNL     1      56.526  25.772  55.709  1.00  0.00     0.018 C 
ATOM     15  C   UNL     1      55.648  26.980  56.096  1.00  0.00     0.010 C 
BRANCH  14  16
ATOM     16  C   UNL     1      55.978  24.487  56.376  1.00  0.00     0.002 C 
ATOM     17  C   UNL     1      54.539  24.643  56.876  1.00  0.00     0.004 C 
ENDBRANCH  14  16
ENDBRANCH  12  14
ENDBRANCH   9  12
ENDBRANCH   7   8
BRANCH   7  18
ATOM     18  C   UNL     1      59.257  21.669  52.669  1.00  0.00     0.073 C 
BRANCH  18  19
ATOM     19  C   UNL     1      58.125  20.719  52.403  1.00  0.00    -0.016 A 
ATOM     20  C   UNL     1      56.839  20.819  52.914  1.00  0.00     0.134 A 
ATOM     21  C   UNL     1      58.104  19.642  51.537  1.00  0.00     0.006 A 
ATOM     22  N   UNL     1      56.052  19.843  52.409  1.00  0.00    -0.191 N 
ATOM     23  C   UNL     1      56.828  19.119  51.558  1.00  0.00     0.087 A 
ATOM     24  C   UNL     1      59.115  19.109  50.734  1.00  0.00     0.011 A 
ATOM     25  C   UNL     1      56.500  18.017  50.751  1.00  0.00     0.030 A 
ATOM     26  C   UNL     1      58.804  18.006  49.926  1.00  0.00     0.001 A 
ATOM     27  C   UNL     1      57.504  17.462  49.939  1.00  0.00     0.002 A 
BRANCH  22  28
ATOM     28  O   UNL     1      54.721  19.710  52.772  1.00  0.00    -0.417 OA
ATOM     29  C   UNL     1      53.625  20.272  52.068  1.00  0.00     0.313 C 
ENDBRANCH  22  28
ENDBRANCH  18  19
ENDBRANCH   7  18
ENDBRANCH   4   7
ENDBRANCH   2   3
BRANCH   2  30
ATOM     30  N   UNL     1      58.655  26.010  50.617  1.00  0.00    -0.343 N 
ATOM     31  C   UNL     1      57.220  25.982  50.591  1.00  0.00     0.243 C 
ATOM     32  H   UNL     1      59.138  26.688  51.245  1.00  0.00     0.164 HD
ATOM     33  O   UNL     1      56.626  24.980  50.104  1.00  0.00    -0.273 OA
BRANCH  31  34
ATOM     34  C   UNL     1      56.385  27.133  51.126  1.00  0.00     0.174 C 
ATOM     35  N   UNL     1      56.879  27.690  52.411  1.00  0.00    -0.329 N 
ATOM     36  C   UNL     1      56.232  28.253  50.075  1.00  0.00     0.035 C 
ATOM     37  C   UNL     1      56.222  28.915  52.918  1.00  0.00     0.120 C 
ATOM     38  C   UNL     1      55.401  29.448  50.585  1.00  0.00     0.004 C 
ATOM     39  C   UNL     1      55.015  29.334  52.065  1.00  0.00     0.022 C 
BRANCH  35  40
ATOM     40  C   UNL     1      57.445  26.790  53.393  1.00  0.00     0.246 CG0
ATOM     41  O   UNL     1      58.670  26.905  53.672  1.00  0.00    -0.272 OA
ATOM     42  G   UNL     1      56.671  25.713  54.145  1.00  0.00     0.000 G0
ENDBRANCH  35  40
ENDBRANCH  31  34
ENDBRANCH   2  30
ENDBRANCH   1   2
BRANCH   1  43
ATOM     43  C   UNL     1      61.181  27.054  49.986  1.00  0.00     0.003 C 
BRANCH  43  44
ATOM     44  C   UNL     1      60.850  28.513  49.653  1.00  0.00     0.001 C 
BRANCH  44  45
ATOM     45  C   UNL     1      60.109  29.180  50.817  1.00  0.00     0.008 C 
BRANCH  45  46
ATOM     46  C   UNL     1      61.085  29.730  51.861  1.00  0.00     0.075 C 
BRANCH  46  47
ATOM     47  C   UNL     1      60.340  30.295  53.042  1.00  0.00     0.132 C 
ATOM     48  O   UNL     1      60.616  29.902  54.167  1.00  0.00    -0.300 OA
BRANCH  47  49
ATOM     49  C   UNL     1      59.258  31.328  52.864  1.00  0.00     0.072 C 
ATOM     50  C   UNL     1      59.847  32.735  52.783  1.00  0.00     0.012 C 
ENDBRANCH  47  49
ENDBRANCH  46  47
ENDBRANCH  45  46
ENDBRANCH  44  45
ENDBRANCH  43  44
ENDBRANCH   1  43
TORSDOF 12
ENDMDL
MODEL 7
REMARK VINA RESULT:    -3.725      6.516      8.836
REMARK INTER + INTRA:          -9.995
REMARK INTER:                  -7.780
REMARK INTRA:                  -2.215
REMARK UNBOUND:                -2.132
REMARK SMILES CCC(=O)CCCCC[C@@H]1NC(=O)[C@@H]2CCCCN2C(=O)[C@H]([C@@H](C)CC)NC(=O)[C@H](Cc2cn(OC)c3ccccc23)NC1=O
REMARK SMILES IDX 9 1 10 2 44 3 43 4 45 6 30 7 28 8 27 9 29 11 22 12 23 14
REMARK SMILES IDX 24 15 25 16 26 17 31 18 32 19 33 20 42 21 34 22 37 23 41 24
REMARK SMILES IDX 38 25 40 26 39 27 35 28 36 29 11 30 12 31 13 33 14 34 19 35
REMARK SMILES IDX 15 36 18 37 16 38 17 39 20 40 21 41 8 43 7 44 6 45 5 46 3 47
REMARK SMILES IDX 4 48 2 49 1 50
REMARK H PARENT 43 5 27 10 11 32
REMARK Flexibility Score: 80.00
ROOT
ATOM      1  C   UNL     1      62.246  30.869  52.050  1.00  0.00     0.035 C 
ENDROOT
BRANCH   1   2
ATOM      2  C   UNL     1      61.264  30.424  53.149  1.00  0.00     0.171 C 
BRANCH   2   3
ATOM      3  C   UNL     1      61.410  31.310  54.362  1.00  0.00     0.243 C 
ATOM      4  N   UNL     1      60.295  32.019  54.905  1.00  0.00    -0.342 N 
ATOM      5  H   UNL     1      60.235  33.050  54.734  1.00  0.00     0.164 HD
ATOM      6  O   UNL     1      62.556  31.501  54.852  1.00  0.00    -0.273 OA
BRANCH   4   7
ATOM      7  C   UNL     1      59.364  31.391  55.849  1.00  0.00     0.175 C 
BRANCH   7   8
ATOM      8  C   UNL     1      57.961  31.869  55.572  1.00  0.00     0.243 C 
ATOM      9  N   UNL     1      56.933  30.934  55.196  1.00  0.00    -0.342 N 
ATOM     10  H   UNL     1      57.041  29.953  55.534  1.00  0.00     0.164 HD
ATOM     11  O   UNL     1      57.695  33.091  55.692  1.00  0.00    -0.273 OA
BRANCH   9  12
ATOM     12  C   UNL     1      56.002  31.122  54.071  1.00  0.00     0.174 CG0
ATOM     13  G   UNL     1      56.759  31.334  52.764  1.00  0.00     0.000 G0
BRANCH  12  14
ATOM     14  C   UNL     1      54.768  32.021  54.422  1.00  0.00     0.018 C 
ATOM     15  C   UNL     1      53.614  31.725  53.441  1.00  0.00     0.010 C 
BRANCH  14  16
ATOM     16  C   UNL     1      54.265  31.895  55.881  1.00  0.00     0.002 C 
ATOM     17  C   UNL     1      54.489  33.170  56.700  1.00  0.00     0.004 C 
ENDBRANCH  14  16
ENDBRANCH  12  14
ENDBRANCH   9  12
ENDBRANCH   7   8
BRANCH   7  18
ATOM     18  C   UNL     1      59.783  31.719  57.294  1.00  0.00     0.073 C 
BRANCH  18  19
ATOM     19  C   UNL     1      59.970  30.462  58.097  1.00  0.00    -0.016 A 
ATOM     20  C   UNL     1      59.137  29.353  58.082  1.00  0.00     0.134 A 
ATOM     21  C   UNL     1      61.035  30.123  58.908  1.00  0.00     0.006 A 
ATOM     22  N   UNL     1      59.642  28.371  58.860  1.00  0.00    -0.191 N 
ATOM     23  C   UNL     1      60.814  28.841  59.367  1.00  0.00     0.087 A 
ATOM     24  C   UNL     1      62.176  30.851  59.253  1.00  0.00     0.011 A 
ATOM     25  C   UNL     1      61.751  28.216  60.206  1.00  0.00     0.030 A 
ATOM     26  C   UNL     1      63.119  30.242  60.094  1.00  0.00     0.001 A 
ATOM     27  C   UNL     1      62.904  28.933  60.570  1.00  0.00     0.002 A 
BRANCH  22  28
ATOM     28  O   UNL     1      58.992  27.159  59.030  1.00  0.00    -0.417 OA
ATOM     29  C   UNL     1      57.584  26.992  59.092  1.00  0.00     0.313 C 
ENDBRANCH  22  28
ENDBRANCH  18  19
ENDBRANCH   7  18
ENDBRANCH   4   7
ENDBRANCH   2   3
BRANCH   2  30
ATOM     30  N   UNL     1      59.890  30.447  52.630  1.00  0.00    -0.343 N 
ATOM     31  C   UNL     1      58.954  29.394  52.906  1.00  0.00     0.243 C 
ATOM     32  H   UNL     1      59.617  31.209  51.972  1.00  0.00     0.164 HD
ATOM     33  O   UNL     1      59.125  28.660  53.919  1.00  0.00    -0.273 OA
BRANCH  31  34
ATOM     34  C   UNL     1      57.758  29.127  52.008  1.00  0.00     0.174 C 
ATOM     35  N   UNL     1      56.945  30.334  51.710  1.00  0.00    -0.329 N 
ATOM     36  C   UNL     1      58.184  28.427  50.700  1.00  0.00     0.035 C 
ATOM     37  C   UNL     1      55.860  30.193  50.714  1.00  0.00     0.120 C 
ATOM     38  C   UNL     1      56.999  28.150  49.751  1.00  0.00     0.004 C 
ATOM     39  C   UNL     1      55.674  28.743  50.244  1.00  0.00     0.022 C 
BRANCH  35  40
ATOM     40  C   UNL     1      56.767  31.330  52.744  1.00  0.00     0.246 CG0
ATOM     41  O   UNL     1      57.246  32.482  52.554  1.00  0.00    -0.272 OA
ATOM     42  G   UNL     1      56.019  31.110  54.055  1.00  0.00     0.000 G0
ENDBRANCH  35  40
ENDBRANCH  31  34
ENDBRANCH   2  30
ENDBRANCH   1   2
BRANCH   1  43
ATOM     43  C   UNL     1      63.067  29.689  51.513  1.00  0.00     0.003 C 
BRANCH  43  44
ATOM     44  C   UNL     1      62.828  29.475  50.014  1.00  0.00     0.001 C 
BRANCH  44  45
ATOM     45  C   UNL     1      62.353  30.772  49.350  1.00  0.00     0.008 C 
BRANCH  45  46
ATOM     46  C   UNL     1      63.526  31.560  48.756  1.00  0.00     0.075 C 
BRANCH  46  47
ATOM     47  C   UNL     1      63.169  33.016  48.610  1.00  0.00     0.132 C 
ATOM     48  O   UNL     1      62.206  33.330  47.926  1.00  0.00    -0.300 OA
BRANCH  47  49
ATOM     49  C   UNL     1      63.979  34.092  49.285  1.00  0.00     0.072 C 
ATOM     50  C   UNL     1      64.717  33.544  50.505  1.00  0.00     0.012 C 
ENDBRANCH  47  49
ENDBRANCH  46  47
ENDBRANCH  45  46
ENDBRANCH  44  45
ENDBRANCH  43  44
ENDBRANCH   1  43
TORSDOF 12
ENDMDL
MODEL 8
REMARK VINA RESULT:    -3.615      6.429      9.361
REMARK INTER + INTRA:          -9.762
REMARK INTER:                  -7.339
REMARK INTRA:                  -2.423
REMARK UNBOUND:                -2.132
REMARK SMILES CCC(=O)CCCCC[C@@H]1NC(=O)[C@@H]2CCCCN2C(=O)[C@H]([C@@H](C)CC)NC(=O)[C@H](Cc2cn(OC)c3ccccc23)NC1=O
REMARK SMILES IDX 9 1 10 2 44 3 43 4 45 6 30 7 28 8 27 9 29 11 22 12 23 14
REMARK SMILES IDX 24 15 25 16 26 17 31 18 32 19 33 20 42 21 34 22 37 23 41 24
REMARK SMILES IDX 38 25 40 26 39 27 35 28 36 29 11 30 12 31 13 33 14 34 19 35
REMARK SMILES IDX 15 36 18 37 16 38 17 39 20 40 21 41 8 43 7 44 6 45 5 46 3 47
REMARK SMILES IDX 4 48 2 49 1 50
REMARK H PARENT 43 5 27 10 11 32
REMARK Flexibility Score: 80.00
ROOT
ATOM      1  C   UNL     1      61.482  33.256  51.991  1.00  0.00     0.035 C 
ENDROOT
BRANCH   1   2
ATOM      2  C   UNL     1      60.882  32.289  53.030  1.00  0.00     0.171 C 
BRANCH   2   3
ATOM      3  C   UNL     1      60.516  33.042  54.285  1.00  0.00     0.243 C 
ATOM      4  N   UNL     1      59.189  33.008  54.813  1.00  0.00    -0.342 N 
ATOM      5  H   UNL     1      58.585  33.853  54.686  1.00  0.00     0.164 HD
ATOM      6  O   UNL     1      61.373  33.789  54.829  1.00  0.00    -0.273 OA
BRANCH   4   7
ATOM      7  C   UNL     1      58.733  31.923  55.690  1.00  0.00     0.175 C 
BRANCH   7   8
ATOM      8  C   UNL     1      57.286  31.611  55.402  1.00  0.00     0.243 C 
ATOM      9  N   UNL     1      56.904  30.314  54.910  1.00  0.00    -0.342 N 
ATOM     10  H   UNL     1      57.519  29.512  55.168  1.00  0.00     0.164 HD
ATOM     11  O   UNL     1      56.416  32.492  55.615  1.00  0.00    -0.273 OA
BRANCH   9  12
ATOM     12  C   UNL     1      56.000  30.084  53.771  1.00  0.00     0.174 CG0
ATOM     13  G   UNL     1      56.560  30.703  52.495  1.00  0.00     0.000 G0
BRANCH  12  14
ATOM     14  C   UNL     1      54.484  30.253  54.129  1.00  0.00     0.018 C 
ATOM     15  C   UNL     1      53.621  29.477  53.113  1.00  0.00     0.010 C 
BRANCH  14  16
ATOM     16  C   UNL     1      54.105  29.835  55.571  1.00  0.00     0.002 C 
ATOM     17  C   UNL     1      53.313  30.914  56.315  1.00  0.00     0.004 C 
ENDBRANCH  14  16
ENDBRANCH  12  14
ENDBRANCH   9  12
ENDBRANCH   7   8
BRANCH   7  18
ATOM     18  C   UNL     1      58.928  32.326  57.165  1.00  0.00     0.073 C 
BRANCH  18  19
ATOM     19  C   UNL     1      59.965  31.462  57.824  1.00  0.00    -0.016 A 
ATOM     20  C   UNL     1      59.900  30.085  57.982  1.00  0.00     0.134 A 
ATOM     21  C   UNL     1      61.208  31.837  58.297  1.00  0.00     0.006 A 
ATOM     22  N   UNL     1      61.037  29.619  58.545  1.00  0.00    -0.191 N 
ATOM     23  C   UNL     1      61.846  30.695  58.735  1.00  0.00     0.087 A 
ATOM     24  C   UNL     1      61.811  33.096  58.353  1.00  0.00     0.011 A 
ATOM     25  C   UNL     1      63.148  30.766  59.256  1.00  0.00     0.030 A 
ATOM     26  C   UNL     1      63.110  33.183  58.874  1.00  0.00     0.001 A 
ATOM     27  C   UNL     1      63.772  32.024  59.326  1.00  0.00     0.002 A 
BRANCH  22  28
ATOM     28  O   UNL     1      61.220  28.274  58.826  1.00  0.00    -0.417 OA
ATOM     29  C   UNL     1      62.065  27.398  58.097  1.00  0.00     0.313 C 
ENDBRANCH  22  28
ENDBRANCH  18  19
ENDBRANCH   7  18
ENDBRANCH   4   7
ENDBRANCH   2   3
BRANCH   2  30
ATOM     30  N   UNL     1      59.717  31.601  52.456  1.00  0.00    -0.343 N 
ATOM     31  C   UNL     1      59.460  30.210  52.697  1.00  0.00     0.243 C 
ATOM     32  H   UNL     1      59.109  32.122  51.788  1.00  0.00     0.164 HD
ATOM     33  O   UNL     1      59.955  29.653  53.716  1.00  0.00    -0.273 OA
BRANCH  31  34
ATOM     34  C   UNL     1      58.612  29.375  51.752  1.00  0.00     0.174 C 
ATOM     35  N   UNL     1      57.289  29.974  51.441  1.00  0.00    -0.329 N 
ATOM     36  C   UNL     1      59.376  29.048  50.451  1.00  0.00     0.035 C 
ATOM     37  C   UNL     1      56.469  29.309  50.404  1.00  0.00     0.120 C 
ATOM     38  C   UNL     1      58.544  28.213  49.457  1.00  0.00     0.004 C 
ATOM     39  C   UNL     1      57.095  27.996  49.909  1.00  0.00     0.022 C 
BRANCH  35  40
ATOM     40  C   UNL     1      56.584  30.691  52.480  1.00  0.00     0.246 CG0
ATOM     41  O   UNL     1      56.397  31.930  52.331  1.00  0.00    -0.272 OA
ATOM     42  G   UNL     1      56.019  30.065  53.751  1.00  0.00     0.000 G0
ENDBRANCH  35  40
ENDBRANCH  31  34
ENDBRANCH   2  30
ENDBRANCH   1   2
BRANCH   1  43
ATOM     43  C   UNL     1      62.510  32.554  51.094  1.00  0.00     0.003 C 
BRANCH  43  44
ATOM     44  C   UNL     1      62.034  32.492  49.638  1.00  0.00     0.001 C 
BRANCH  44  45
ATOM     45  C   UNL     1      63.228  32.509  48.676  1.00  0.00     0.008 C 
BRANCH  45  46
ATOM     46  C   UNL     1      64.442  31.792  49.275  1.00  0.00     0.075 C 
BRANCH  46  47
ATOM     47  C   UNL     1      64.527  30.376  48.768  1.00  0.00     0.132 C 
ATOM     48  O   UNL     1      65.051  30.160  47.685  1.00  0.00    -0.300 OA
BRANCH  47  49
ATOM     49  C   UNL     1      63.976  29.224  49.567  1.00  0.00     0.072 C 
ATOM     50  C   UNL     1      63.013  28.383  48.731  1.00  0.00     0.012 C 
ENDBRANCH  47  49
ENDBRANCH  46  47
ENDBRANCH  45  46
ENDBRANCH  44  45
ENDBRANCH  43  44
ENDBRANCH   1  43
TORSDOF 12
ENDMDL
MODEL 9
REMARK VINA RESULT:    -3.564      5.574      9.073
REMARK INTER + INTRA:          -9.654
REMARK INTER:                  -8.110
REMARK INTRA:                  -1.544
REMARK UNBOUND:                -2.132
REMARK SMILES CCC(=O)CCCCC[C@@H]1NC(=O)[C@@H]2CCCCN2C(=O)[C@H]([C@@H](C)CC)NC(=O)[C@H](Cc2cn(OC)c3ccccc23)NC1=O
REMARK SMILES IDX 9 1 10 2 44 3 43 4 45 6 30 7 28 8 27 9 29 11 22 12 23 14
REMARK SMILES IDX 24 15 25 16 26 17 31 18 32 19 33 20 42 21 34 22 37 23 41 24
REMARK SMILES IDX 38 25 40 26 39 27 35 28 36 29 11 30 12 31 13 33 14 34 19 35
REMARK SMILES IDX 15 36 18 37 16 38 17 39 20 40 21 41 8 43 7 44 6 45 5 46 3 47
REMARK SMILES IDX 4 48 2 49 1 50
REMARK H PARENT 43 5 27 10 11 32
REMARK Flexibility Score: 80.00
ROOT
ATOM      1  C   UNL     1      59.991  27.096  53.043  1.00  0.00     0.035 C 
ENDROOT
BRANCH   1   2
ATOM      2  C   UNL     1      59.122  27.809  54.096  1.00  0.00     0.171 C 
BRANCH   2   3
ATOM      3  C   UNL     1      59.991  28.650  54.998  1.00  0.00     0.243 C 
ATOM      4  N   UNL     1      59.487  29.826  55.633  1.00  0.00    -0.342 N 
ATOM      5  H   UNL     1      59.781  30.756  55.255  1.00  0.00     0.164 HD
ATOM      6  O   UNL     1      61.212  28.362  55.123  1.00  0.00    -0.273 OA
BRANCH   4   7
ATOM      7  C   UNL     1      58.750  29.766  56.901  1.00  0.00     0.175 C 
BRANCH   7   8
ATOM      8  C   UNL     1      57.267  29.751  56.627  1.00  0.00     0.243 C 
ATOM      9  N   UNL     1      56.772  29.930  55.288  1.00  0.00    -0.342 N 
ATOM     10  H   UNL     1      57.400  29.636  54.508  1.00  0.00     0.164 HD
ATOM     11  O   UNL     1      56.470  29.561  57.579  1.00  0.00    -0.273 OA
BRANCH   9  12
ATOM     12  C   UNL     1      55.679  30.845  54.915  1.00  0.00     0.174 CG0
ATOM     13  G   UNL     1      54.807  30.237  53.822  1.00  0.00     0.000 G0
BRANCH  12  14
ATOM     14  C   UNL     1      56.120  32.345  54.827  1.00  0.00     0.018 C 
ATOM     15  C   UNL     1      55.739  33.075  56.132  1.00  0.00     0.010 C 
BRANCH  14  16
ATOM     16  C   UNL     1      57.621  32.566  54.519  1.00  0.00     0.002 C 
ATOM     17  C   UNL     1      57.884  32.911  53.050  1.00  0.00     0.004 C 
ENDBRANCH  14  16
ENDBRANCH  12  14
ENDBRANCH   9  12
ENDBRANCH   7   8
BRANCH   7  18
ATOM     18  C   UNL     1      59.135  30.965  57.788  1.00  0.00     0.073 C 
BRANCH  18  19
ATOM     19  C   UNL     1      60.568  30.867  58.229  1.00  0.00    -0.016 A 
ATOM     20  C   UNL     1      61.599  31.713  57.847  1.00  0.00     0.134 A 
ATOM     21  C   UNL     1      61.113  30.005  59.162  1.00  0.00     0.006 A 
ATOM     22  N   UNL     1      62.741  31.388  58.493  1.00  0.00    -0.191 N 
ATOM     23  C   UNL     1      62.443  30.339  59.306  1.00  0.00     0.087 A 
ATOM     24  C   UNL     1      60.520  28.971  59.891  1.00  0.00     0.011 A 
ATOM     25  C   UNL     1      63.256  29.639  60.213  1.00  0.00     0.030 A 
ATOM     26  C   UNL     1      61.320  28.260  60.797  1.00  0.00     0.001 A 
ATOM     27  C   UNL     1      62.681  28.592  60.953  1.00  0.00     0.002 A 
BRANCH  22  28
ATOM     28  O   UNL     1      63.927  32.071  58.277  1.00  0.00    -0.417 OA
ATOM     29  C   UNL     1      64.175  32.949  57.190  1.00  0.00     0.313 C 
ENDBRANCH  22  28
ENDBRANCH  18  19
ENDBRANCH   7  18
ENDBRANCH   4   7
ENDBRANCH   2   3
BRANCH   2  30
ATOM     30  N   UNL     1      58.096  28.622  53.428  1.00  0.00    -0.343 N 
ATOM     31  C   UNL     1      56.766  28.131  53.199  1.00  0.00     0.243 C 
ATOM     32  H   UNL     1      58.370  29.548  53.036  1.00  0.00     0.164 HD
ATOM     33  O   UNL     1      56.317  27.195  53.917  1.00  0.00    -0.273 OA
BRANCH  31  34
ATOM     34  C   UNL     1      55.878  28.699  52.105  1.00  0.00     0.174 C 
ATOM     35  N   UNL     1      55.248  29.998  52.454  1.00  0.00    -0.329 N 
ATOM     36  C   UNL     1      56.637  28.809  50.766  1.00  0.00     0.035 C 
ATOM     37  C   UNL     1      54.501  30.699  51.387  1.00  0.00     0.120 C 
ATOM     38  C   UNL     1      55.774  29.397  49.631  1.00  0.00     0.004 C 
ATOM     39  C   UNL     1      54.392  29.869  50.099  1.00  0.00     0.022 C 
BRANCH  35  40
ATOM     40  C   UNL     1      54.821  30.225  53.818  1.00  0.00     0.246 CG0
ATOM     41  O   UNL     1      53.660  29.858  54.150  1.00  0.00    -0.272 OA
ATOM     42  G   UNL     1      55.674  30.861  54.910  1.00  0.00     0.000 G0
ENDBRANCH  35  40
ENDBRANCH  31  34
ENDBRANCH   2  30
ENDBRANCH   1   2
BRANCH   1  43
ATOM     43  C   UNL     1      60.023  27.871  51.719  1.00  0.00     0.003 C 
BRANCH  43  44
ATOM     44  C   UNL     1      59.581  26.993  50.543  1.00  0.00     0.001 C 
BRANCH  44  45
ATOM     45  C   UNL     1      60.365  27.349  49.275  1.00  0.00     0.008 C 
BRANCH  45  46
ATOM     46  C   UNL     1      61.761  26.719  49.283  1.00  0.00     0.075 C 
BRANCH  46  47
ATOM     47  C   UNL     1      62.774  27.661  48.686  1.00  0.00     0.132 C 
ATOM     48  O   UNL     1      62.784  28.831  49.042  1.00  0.00    -0.300 OA
BRANCH  47  49
ATOM     49  C   UNL     1      63.769  27.192  47.657  1.00  0.00     0.072 C 
ATOM     50  C   UNL     1      64.944  26.470  48.314  1.00  0.00     0.012 C 
ENDBRANCH  47  49
ENDBRANCH  46  47
ENDBRANCH  45  46
ENDBRANCH  44  45
ENDBRANCH  43  44
ENDBRANCH   1  43
TORSDOF 12
ENDMDL
