MODEL 1
REMARK VINA RESULT:    -7.584      0.000      0.000
REMARK INTER + INTRA:          -9.486
REMARK INTER:                  -9.135
REMARK INTRA:                  -0.351
REMARK UNBOUND:                -0.351
REMARK SMILES O=c1c(O)c(-c2ccc(O)cc2O)oc2cc(O)cc(O)c12
REMARK SMILES IDX 5 1 3 2 2 3 1 4 22 5 20 6 19 7 17 8 16 9 15 10 14 11 6 12
REMARK SMILES IDX 8 13 7 14 9 15 11 16 12 17 10 18 13 20 4 22 21 24 18 26
REMARK H PARENT 10 19 13 21 4 23 21 25 18 27
REMARK Flexibility Score: inf
ROOT
ATOM      1  C   UNL     1     140.564 -18.144  78.665  1.00  0.00     0.184 A 
ATOM      2  C   UNL     1     139.199 -17.997  78.370  1.00  0.00     0.208 A 
ATOM      3  C   UNL     1     138.518 -16.869  78.852  1.00  0.00     0.238 A 
ATOM      4  O   UNL     1     137.281 -16.773  78.636  1.00  0.00    -0.285 OA
ATOM      5  C   UNL     1     139.217 -15.888  79.598  1.00  0.00     0.111 A 
ATOM      6  C   UNL     1     138.635 -14.686  80.102  1.00  0.00     0.134 A 
ATOM      7  C   UNL     1     139.393 -13.848  80.931  1.00  0.00     0.093 A 
ATOM      8  C   UNL     1     140.728 -14.137  81.221  1.00  0.00     0.123 A 
ATOM      9  C   UNL     1     141.321 -15.278  80.687  1.00  0.00     0.094 A 
ATOM     10  C   UNL     1     140.582 -16.152  79.887  1.00  0.00     0.146 A 
ATOM     11  O   UNL     1     141.182 -17.237  79.409  1.00  0.00    -0.451 OA
ENDROOT
BRANCH   1  12
ATOM     12  C   UNL     1     141.338 -19.300  78.165  1.00  0.00     0.063 A 
ATOM     13  C   UNL     1     142.987 -20.188  76.610  1.00  0.00     0.047 A 
ATOM     14  C   UNL     1     142.201 -19.129  77.069  1.00  0.00     0.020 A 
ATOM     15  C   UNL     1     142.928 -21.431  77.244  1.00  0.00     0.119 A 
ATOM     16  C   UNL     1     142.074 -21.613  78.338  1.00  0.00     0.093 A 
ATOM     17  C   UNL     1     141.273 -20.563  78.801  1.00  0.00     0.130 A 
BRANCH  15  18
ATOM     18  O   UNL     1     143.722 -22.478  76.780  1.00  0.00    -0.508 OA
ATOM     19  H   UNL     1     143.648 -23.412  77.167  1.00  0.00     0.293 HD
ENDBRANCH  15  18
BRANCH  17  20
ATOM     20  O   UNL     1     140.413 -20.810  79.872  1.00  0.00    -0.507 OA
ATOM     21  H   UNL     1     139.405 -20.748  79.798  1.00  0.00     0.293 HD
ENDBRANCH  17  20
ENDBRANCH   1  12
BRANCH   2  22
ATOM     22  O   UNL     1     138.536 -18.978  77.629  1.00  0.00    -0.502 OA
ATOM     23  H   UNL     1     137.774 -18.759  76.999  1.00  0.00     0.293 HD
ENDBRANCH   2  22
BRANCH   6  24
ATOM     24  O   UNL     1     137.340 -14.258  79.799  1.00  0.00    -0.507 OA
ATOM     25  H   UNL     1     136.997 -13.320  79.937  1.00  0.00     0.293 HD
ENDBRANCH   6  24
BRANCH   8  26
ATOM     26  O   UNL     1     141.478 -13.290  82.033  1.00  0.00    -0.508 OA
ATOM     27  H   UNL     1     141.164 -12.352  82.255  1.00  0.00     0.293 HD
ENDBRANCH   8  26
TORSDOF 6
ENDMDL
MODEL 2
REMARK VINA RESULT:    -5.668      4.394      9.686
REMARK INTER + INTRA:          -7.179
REMARK INTER:                  -7.309
REMARK INTRA:                   0.130
REMARK UNBOUND:                -0.351
REMARK SMILES O=c1c(O)c(-c2ccc(O)cc2O)oc2cc(O)cc(O)c12
REMARK SMILES IDX 5 1 3 2 2 3 1 4 22 5 20 6 19 7 17 8 16 9 15 10 14 11 6 12
REMARK SMILES IDX 8 13 7 14 9 15 11 16 12 17 10 18 13 20 4 22 21 24 18 26
REMARK H PARENT 10 19 13 21 4 23 21 25 18 27
REMARK Flexibility Score: inf
ROOT
ATOM      1  C   UNL     1     145.281 -21.938  77.017  1.00  0.00     0.184 A 
ATOM      2  C   UNL     1     145.981 -22.638  78.012  1.00  0.00     0.208 A 
ATOM      3  C   UNL     1     147.280 -23.093  77.737  1.00  0.00     0.238 A 
ATOM      4  O   UNL     1     147.879 -23.773  78.611  1.00  0.00    -0.285 OA
ATOM      5  C   UNL     1     147.872 -22.817  76.479  1.00  0.00     0.111 A 
ATOM      6  C   UNL     1     149.196 -23.196  76.106  1.00  0.00     0.134 A 
ATOM      7  C   UNL     1     149.633 -22.977  74.793  1.00  0.00     0.093 A 
ATOM      8  C   UNL     1     148.815 -22.336  73.860  1.00  0.00     0.123 A 
ATOM      9  C   UNL     1     147.542 -21.911  74.231  1.00  0.00     0.094 A 
ATOM     10  C   UNL     1     147.065 -22.147  75.522  1.00  0.00     0.146 A 
ATOM     11  O   UNL     1     145.840 -21.738  75.831  1.00  0.00    -0.451 OA
ENDROOT
BRANCH   1  12
ATOM     12  C   UNL     1     143.919 -21.415  77.258  1.00  0.00     0.063 A 
ATOM     13  C   UNL     1     141.780 -21.622  78.400  1.00  0.00     0.047 A 
ATOM     14  C   UNL     1     143.051 -22.121  78.110  1.00  0.00     0.020 A 
ATOM     15  C   UNL     1     141.359 -20.409  77.851  1.00  0.00     0.119 A 
ATOM     16  C   UNL     1     142.216 -19.696  77.004  1.00  0.00     0.093 A 
ATOM     17  C   UNL     1     143.489 -20.190  76.696  1.00  0.00     0.130 A 
BRANCH  15  18
ATOM     18  O   UNL     1     140.090 -19.920  78.154  1.00  0.00    -0.508 OA
ATOM     19  H   UNL     1     139.761 -19.035  77.785  1.00  0.00     0.293 HD
ENDBRANCH  15  18
BRANCH  17  20
ATOM     20  O   UNL     1     144.287 -19.457  75.817  1.00  0.00    -0.507 OA
ATOM     21  H   UNL     1     145.295 -19.406  75.896  1.00  0.00     0.293 HD
ENDBRANCH  17  20
ENDBRANCH   1  12
BRANCH   2  22
ATOM     22  O   UNL     1     145.374 -22.893  79.244  1.00  0.00    -0.502 OA
ATOM     23  H   UNL     1     144.386 -22.739  79.404  1.00  0.00     0.293 HD
ENDBRANCH   2  22
BRANCH   6  24
ATOM     24  O   UNL     1     150.125 -23.760  76.986  1.00  0.00    -0.507 OA
ATOM     25  H   UNL     1     151.051 -24.063  76.729  1.00  0.00     0.293 HD
ENDBRANCH   6  24
BRANCH   8  26
ATOM     26  O   UNL     1     149.263 -22.108  72.561  1.00  0.00    -0.508 OA
ATOM     27  H   UNL     1     149.019 -21.263  72.056  1.00  0.00     0.293 HD
ENDBRANCH   8  26
TORSDOF 6
ENDMDL
MODEL 3
REMARK VINA RESULT:    -4.741      1.460      2.432
REMARK INTER + INTRA:          -6.062
REMARK INTER:                  -5.667
REMARK INTRA:                  -0.395
REMARK UNBOUND:                -0.351
REMARK SMILES O=c1c(O)c(-c2ccc(O)cc2O)oc2cc(O)cc(O)c12
REMARK SMILES IDX 5 1 3 2 2 3 1 4 22 5 20 6 19 7 17 8 16 9 15 10 14 11 6 12
REMARK SMILES IDX 8 13 7 14 9 15 11 16 12 17 10 18 13 20 4 22 21 24 18 26
REMARK H PARENT 10 19 13 21 4 23 21 25 18 27
REMARK Flexibility Score: inf
ROOT
ATOM      1  C   UNL     1     140.945 -19.515  78.109  1.00  0.00     0.184 A 
ATOM      2  C   UNL     1     139.670 -19.809  77.601  1.00  0.00     0.208 A 
ATOM      3  C   UNL     1     138.609 -18.933  77.879  1.00  0.00     0.238 A 
ATOM      4  O   UNL     1     137.456 -19.233  77.472  1.00  0.00    -0.285 OA
ATOM      5  C   UNL     1     138.844 -17.760  78.637  1.00  0.00     0.111 A 
ATOM      6  C   UNL     1     137.851 -16.781  78.945  1.00  0.00     0.134 A 
ATOM      7  C   UNL     1     138.169 -15.723  79.806  1.00  0.00     0.093 A 
ATOM      8  C   UNL     1     139.460 -15.573  80.318  1.00  0.00     0.123 A 
ATOM      9  C   UNL     1     140.451 -16.490  79.976  1.00  0.00     0.094 A 
ATOM     10  C   UNL     1     140.156 -17.577  79.149  1.00  0.00     0.146 A 
ATOM     11  O   UNL     1     141.126 -18.436  78.860  1.00  0.00    -0.451 OA
ENDROOT
BRANCH   1  12
ATOM     12  C   UNL     1     142.104 -20.389  77.831  1.00  0.00     0.063 A 
ATOM     13  C   UNL     1     143.411 -22.362  78.400  1.00  0.00     0.047 A 
ATOM     14  C   UNL     1     142.357 -21.487  78.671  1.00  0.00     0.020 A 
ATOM     15  C   UNL     1     144.223 -22.158  77.283  1.00  0.00     0.119 A 
ATOM     16  C   UNL     1     143.980 -21.069  76.438  1.00  0.00     0.093 A 
ATOM     17  C   UNL     1     142.933 -20.178  76.704  1.00  0.00     0.130 A 
BRANCH  15  18
ATOM     18  O   UNL     1     145.268 -23.042  77.022  1.00  0.00    -0.508 OA
ATOM     19  H   UNL     1     145.318 -23.562  76.153  1.00  0.00     0.293 HD
ENDBRANCH  15  18
BRANCH  17  20
ATOM     20  O   UNL     1     142.759 -19.089  75.849  1.00  0.00    -0.507 OA
ATOM     21  H   UNL     1     142.892 -19.145  74.847  1.00  0.00     0.293 HD
ENDBRANCH  17  20
ENDBRANCH   1  12
BRANCH   2  22
ATOM     22  O   UNL     1     139.468 -20.971  76.853  1.00  0.00    -0.502 OA
ATOM     23  H   UNL     1     139.649 -21.895  77.227  1.00  0.00     0.293 HD
ENDBRANCH   2  22
BRANCH   6  24
ATOM     24  O   UNL     1     136.557 -16.787  78.415  1.00  0.00    -0.507 OA
ATOM     25  H   UNL     1     136.199 -16.106  77.765  1.00  0.00     0.293 HD
ENDBRANCH   6  24
BRANCH   8  26
ATOM     26  O   UNL     1     139.772 -14.509  81.160  1.00  0.00    -0.508 OA
ATOM     27  H   UNL     1     140.178 -13.651  80.803  1.00  0.00     0.293 HD
ENDBRANCH   8  26
TORSDOF 6
ENDMDL
