MODEL 1
REMARK VINA RESULT:    -7.508      0.000      0.000
REMARK INTER + INTRA:         -11.851
REMARK INTER:                 -10.141
REMARK INTRA:                  -1.710
REMARK UNBOUND:                -1.710
REMARK SMILES CC[C@@H](CC[C@@H](C)[C@@H]1CC[C@@H]2[C@H]3CC(=O)C4=CC(=O)CC[C@]4(C)[C@H]3CC[C@@]21C)C(C)C
REMARK SMILES IDX 4 1 3 2 2 3 1 4 29 5 30 6 31 7 5 8 6 9 7 10 8 11 9 12 27 13
REMARK SMILES IDX 10 14 11 15 26 16 28 17 12 18 25 19 24 20 13 21 22 22 14 23
REMARK SMILES IDX 16 24 21 25 23 26 15 27 17 28 20 29 18 30 19 31
REMARK H PARENT
REMARK Flexibility Score: inf
ROOT
ATOM      1  C   UNL     1      -6.075   5.592  14.611  1.00  0.00     0.004 C 
ENDROOT
BRANCH   1   2
ATOM      2  C   UNL     1      -7.028   5.636  15.840  1.00  0.00    -0.009 C 
BRANCH   2   3
ATOM      3  C   UNL     1      -6.182   5.857  17.128  1.00  0.00     0.000 C 
ATOM      4  C   UNL     1      -6.512   7.141  17.890  1.00  0.00     0.004 C 
ENDBRANCH   2   3
BRANCH   2   5
ATOM      5  C   UNL     1      -7.972   4.379  15.868  1.00  0.00    -0.014 C 
ATOM      6  C   UNL     1      -7.316   3.158  16.533  1.00  0.00     0.007 C 
ATOM      7  C   UNL     1      -8.562   4.002  14.498  1.00  0.00     0.007 C 
ENDBRANCH   2   5
ENDBRANCH   1   2
BRANCH   1   8
ATOM      8  C   UNL     1      -4.593   5.836  14.976  1.00  0.00     0.004 C 
BRANCH   8   9
ATOM      9  C   UNL     1      -3.676   4.618  14.681  1.00  0.00    -0.011 C 
ATOM     10  C   UNL     1      -3.136   4.043  16.011  1.00  0.00     0.008 C 
BRANCH   9  11
ATOM     11  C   UNL     1      -4.418   3.500  13.860  1.00  0.00    -0.002 C 
ATOM     12  C   UNL     1      -4.709   2.253  14.713  1.00  0.00     0.005 C 
ATOM     13  C   UNL     1      -3.723   2.944  12.569  1.00  0.00    -0.026 C 
ATOM     14  C   UNL     1      -4.708   1.048  13.782  1.00  0.00     0.005 C 
ATOM     15  C   UNL     1      -4.434   1.577  12.370  1.00  0.00    -0.001 C 
ATOM     16  C   UNL     1      -2.202   2.720  12.806  1.00  0.00     0.007 C 
ATOM     17  C   UNL     1      -3.975   3.873  11.339  1.00  0.00     0.012 C 
ATOM     18  C   UNL     1      -3.709   0.507  11.483  1.00  0.00     0.004 C 
ATOM     19  C   UNL     1      -1.558   1.874  11.709  1.00  0.00     0.005 C 
ATOM     20  C   UNL     1      -2.161   0.453  11.659  1.00  0.00     0.003 C 
ATOM     21  C   UNL     1      -4.086   0.589   9.994  1.00  0.00     0.085 C 
ATOM     22  C   UNL     1      -1.420  -0.537  10.633  1.00  0.00    -0.000 C 
ATOM     23  C   UNL     1      -3.649  -0.674   9.323  1.00  0.00     0.159 C 
ATOM     24  C   UNL     1      -2.423  -1.354   9.802  1.00  0.00     0.005 C 
ATOM     25  C   UNL     1      -0.512  -1.498  11.462  1.00  0.00     0.020 C 
ATOM     26  C   UNL     1      -0.540   0.219   9.596  1.00  0.00     0.017 C 
ATOM     27  O   UNL     1      -4.313  -1.131   8.351  1.00  0.00    -0.295 OA
ATOM     28  C   UNL     1      -2.152  -2.611   9.400  1.00  0.00     0.055 C 
ATOM     29  C   UNL     1       0.119  -2.618  10.628  1.00  0.00     0.081 C 
ATOM     30  C   UNL     1      -0.915  -3.305   9.790  1.00  0.00     0.156 C 
ATOM     31  O   UNL     1      -0.707  -4.479   9.384  1.00  0.00    -0.295 OA
ENDBRANCH   9  11
ENDBRANCH   8   9
ENDBRANCH   1   8
TORSDOF 6
ENDMDL
MODEL 2
REMARK VINA RESULT:    -7.467      1.489      2.257
REMARK INTER + INTRA:         -11.796
REMARK INTER:                 -10.569
REMARK INTRA:                  -1.227
REMARK UNBOUND:                -1.710
REMARK SMILES CC[C@@H](CC[C@@H](C)[C@@H]1CC[C@@H]2[C@H]3CC(=O)C4=CC(=O)CC[C@]4(C)[C@H]3CC[C@@]21C)C(C)C
REMARK SMILES IDX 4 1 3 2 2 3 1 4 29 5 30 6 31 7 5 8 6 9 7 10 8 11 9 12 27 13
REMARK SMILES IDX 10 14 11 15 26 16 28 17 12 18 25 19 24 20 13 21 22 22 14 23
REMARK SMILES IDX 16 24 21 25 23 26 15 27 17 28 20 29 18 30 19 31
REMARK H PARENT
REMARK Flexibility Score: inf
ROOT
ATOM      1  C   UNL     1      -6.370   5.440  14.425  1.00  0.00     0.004 C 
ENDROOT
BRANCH   1   2
ATOM      2  C   UNL     1      -7.104   5.428  15.797  1.00  0.00    -0.009 C 
BRANCH   2   3
ATOM      3  C   UNL     1      -6.055   5.608  16.933  1.00  0.00     0.000 C 
ATOM      4  C   UNL     1      -6.230   6.882  17.760  1.00  0.00     0.004 C 
ENDBRANCH   2   3
BRANCH   2   5
ATOM      5  C   UNL     1      -8.026   4.162  15.933  1.00  0.00    -0.014 C 
ATOM      6  C   UNL     1      -7.241   2.892  16.301  1.00  0.00     0.007 C 
ATOM      7  C   UNL     1      -8.934   3.909  14.717  1.00  0.00     0.007 C 
ENDBRANCH   2   5
ENDBRANCH   1   2
BRANCH   1   8
ATOM      8  C   UNL     1      -4.847   5.202  14.544  1.00  0.00     0.004 C 
BRANCH   8   9
ATOM      9  C   UNL     1      -4.230   4.513  13.296  1.00  0.00    -0.011 C 
ATOM     10  C   UNL     1      -3.083   5.387  12.738  1.00  0.00     0.008 C 
BRANCH   9  11
ATOM     11  C   UNL     1      -3.711   3.062  13.612  1.00  0.00    -0.002 C 
ATOM     12  C   UNL     1      -2.177   3.002  13.697  1.00  0.00     0.005 C 
ATOM     13  C   UNL     1      -4.100   1.905  12.626  1.00  0.00    -0.026 C 
ATOM     14  C   UNL     1      -1.746   1.607  13.265  1.00  0.00     0.005 C 
ATOM     15  C   UNL     1      -3.024   0.828  12.937  1.00  0.00    -0.001 C 
ATOM     16  C   UNL     1      -3.973   2.368  11.146  1.00  0.00     0.007 C 
ATOM     17  C   UNL     1      -5.529   1.352  12.928  1.00  0.00     0.012 C 
ATOM     18  C   UNL     1      -2.768  -0.272  11.850  1.00  0.00     0.004 C 
ATOM     19  C   UNL     1      -4.009   1.198  10.164  1.00  0.00     0.005 C 
ATOM     20  C   UNL     1      -2.817   0.239  10.378  1.00  0.00     0.003 C 
ATOM     21  C   UNL     1      -3.649  -1.521  12.023  1.00  0.00     0.085 C 
ATOM     22  C   UNL     1      -2.708  -0.926   9.277  1.00  0.00    -0.000 C 
ATOM     23  C   UNL     1      -3.076  -2.626  11.194  1.00  0.00     0.159 C 
ATOM     24  C   UNL     1      -2.405  -2.290   9.917  1.00  0.00     0.005 C 
ATOM     25  C   UNL     1      -1.568  -0.542   8.283  1.00  0.00     0.020 C 
ATOM     26  C   UNL     1      -4.028  -1.125   8.478  1.00  0.00     0.017 C 
ATOM     27  O   UNL     1      -3.188  -3.823  11.580  1.00  0.00    -0.295 OA
ATOM     28  C   UNL     1      -1.660  -3.219   9.286  1.00  0.00     0.055 C 
ATOM     29  C   UNL     1      -1.228  -1.651   7.280  1.00  0.00     0.081 C 
ATOM     30  C   UNL     1      -1.031  -2.960   7.982  1.00  0.00     0.156 C 
ATOM     31  O   UNL     1      -0.346  -3.863   7.432  1.00  0.00    -0.295 OA
ENDBRANCH   9  11
ENDBRANCH   8   9
ENDBRANCH   1   8
TORSDOF 6
ENDMDL
MODEL 3
REMARK VINA RESULT:    -7.330      1.726      3.450
REMARK INTER + INTRA:         -11.611
REMARK INTER:                  -9.804
REMARK INTRA:                  -1.808
REMARK UNBOUND:                -1.710
REMARK SMILES CC[C@@H](CC[C@@H](C)[C@@H]1CC[C@@H]2[C@H]3CC(=O)C4=CC(=O)CC[C@]4(C)[C@H]3CC[C@@]21C)C(C)C
REMARK SMILES IDX 4 1 3 2 2 3 1 4 29 5 30 6 31 7 5 8 6 9 7 10 8 11 9 12 27 13
REMARK SMILES IDX 10 14 11 15 26 16 28 17 12 18 25 19 24 20 13 21 22 22 14 23
REMARK SMILES IDX 16 24 21 25 23 26 15 27 17 28 20 29 18 30 19 31
REMARK H PARENT
REMARK Flexibility Score: inf
ROOT
ATOM      1  C   UNL     1      -6.893   5.937  16.666  1.00  0.00     0.004 C 
ENDROOT
BRANCH   1   2
ATOM      2  C   UNL     1      -5.706   6.729  17.288  1.00  0.00    -0.009 C 
BRANCH   2   3
ATOM      3  C   UNL     1      -6.215   7.499  18.542  1.00  0.00     0.000 C 
ATOM      4  C   UNL     1      -5.247   8.558  19.070  1.00  0.00     0.004 C 
ENDBRANCH   2   3
BRANCH   2   5
ATOM      5  C   UNL     1      -4.989   7.615  16.205  1.00  0.00    -0.014 C 
ATOM      6  C   UNL     1      -5.906   7.960  15.019  1.00  0.00     0.007 C 
ATOM      7  C   UNL     1      -3.649   7.046  15.710  1.00  0.00     0.007 C 
ENDBRANCH   2   5
ENDBRANCH   1   2
BRANCH   1   8
ATOM      8  C   UNL     1      -6.598   4.428  16.495  1.00  0.00     0.004 C 
BRANCH   8   9
ATOM      9  C   UNL     1      -6.583   3.967  15.012  1.00  0.00    -0.011 C 
ATOM     10  C   UNL     1      -7.540   4.855  14.185  1.00  0.00     0.008 C 
BRANCH   9  11
ATOM     11  C   UNL     1      -5.136   3.996  14.395  1.00  0.00    -0.002 C 
ATOM     12  C   UNL     1      -5.079   4.814  13.094  1.00  0.00     0.005 C 
ATOM     13  C   UNL     1      -4.457   2.628  14.035  1.00  0.00    -0.026 C 
ATOM     14  C   UNL     1      -3.978   4.219  12.225  1.00  0.00     0.005 C 
ATOM     15  C   UNL     1      -3.367   3.057  13.015  1.00  0.00    -0.001 C 
ATOM     16  C   UNL     1      -5.470   1.665  13.354  1.00  0.00     0.007 C 
ATOM     17  C   UNL     1      -3.800   1.969  15.290  1.00  0.00     0.012 C 
ATOM     18  C   UNL     1      -2.793   1.951  12.064  1.00  0.00     0.004 C 
ATOM     19  C   UNL     1      -4.784   0.473  12.689  1.00  0.00     0.005 C 
ATOM     20  C   UNL     1      -3.843   0.921  11.549  1.00  0.00     0.003 C 
ATOM     21  C   UNL     1      -1.559   1.232  12.636  1.00  0.00     0.085 C 
ATOM     22  C   UNL     1      -3.212  -0.291  10.704  1.00  0.00    -0.000 C 
ATOM     23  C   UNL     1      -0.885   0.489  11.527  1.00  0.00     0.159 C 
ATOM     24  C   UNL     1      -1.712  -0.083  10.439  1.00  0.00     0.005 C 
ATOM     25  C   UNL     1      -3.981  -0.386   9.350  1.00  0.00     0.020 C 
ATOM     26  C   UNL     1      -3.318  -1.657  11.441  1.00  0.00     0.017 C 
ATOM     27  O   UNL     1       0.369   0.342  11.541  1.00  0.00    -0.295 OA
ATOM     28  C   UNL     1      -1.125  -0.523   9.310  1.00  0.00     0.055 C 
ATOM     29  C   UNL     1      -3.367  -1.385   8.363  1.00  0.00     0.081 C 
ATOM     30  C   UNL     1      -1.892  -1.162   8.229  1.00  0.00     0.156 C 
ATOM     31  O   UNL     1      -1.295  -1.559   7.194  1.00  0.00    -0.295 OA
ENDBRANCH   9  11
ENDBRANCH   8   9
ENDBRANCH   1   8
TORSDOF 6
ENDMDL
MODEL 4
REMARK VINA RESULT:    -7.314      3.196      9.116
REMARK INTER + INTRA:         -11.589
REMARK INTER:                 -10.145
REMARK INTRA:                  -1.445
REMARK UNBOUND:                -1.710
REMARK SMILES CC[C@@H](CC[C@@H](C)[C@@H]1CC[C@@H]2[C@H]3CC(=O)C4=CC(=O)CC[C@]4(C)[C@H]3CC[C@@]21C)C(C)C
REMARK SMILES IDX 4 1 3 2 2 3 1 4 29 5 30 6 31 7 5 8 6 9 7 10 8 11 9 12 27 13
REMARK SMILES IDX 10 14 11 15 26 16 28 17 12 18 25 19 24 20 13 21 22 22 14 23
REMARK SMILES IDX 16 24 21 25 23 26 15 27 17 28 20 29 18 30 19 31
REMARK H PARENT
REMARK Flexibility Score: inf
ROOT
ATOM      1  C   UNL     1      -2.672  -0.639   9.011  1.00  0.00     0.004 C 
ENDROOT
BRANCH   1   2
ATOM      2  C   UNL     1      -2.113  -1.721   8.042  1.00  0.00    -0.009 C 
BRANCH   2   3
ATOM      3  C   UNL     1      -2.760  -3.094   8.390  1.00  0.00     0.000 C 
ATOM      4  C   UNL     1      -1.760  -4.187   8.769  1.00  0.00     0.004 C 
ENDBRANCH   2   3
BRANCH   2   5
ATOM      5  C   UNL     1      -0.541  -1.707   8.028  1.00  0.00    -0.014 C 
ATOM      6  C   UNL     1       0.050  -0.519   8.805  1.00  0.00     0.007 C 
ATOM      7  C   UNL     1       0.078  -1.803   6.623  1.00  0.00     0.007 C 
ENDBRANCH   2   5
ENDBRANCH   1   2
BRANCH   1   8
ATOM      8  C   UNL     1      -3.601  -1.218  10.104  1.00  0.00     0.004 C 
BRANCH   8   9
ATOM      9  C   UNL     1      -3.053  -1.027  11.544  1.00  0.00    -0.011 C 
ATOM     10  C   UNL     1      -1.839  -1.959  11.763  1.00  0.00     0.008 C 
BRANCH   9  11
ATOM     11  C   UNL     1      -2.657   0.467  11.838  1.00  0.00    -0.002 C 
ATOM     12  C   UNL     1      -1.843   0.606  13.135  1.00  0.00     0.005 C 
ATOM     13  C   UNL     1      -3.808   1.525  11.976  1.00  0.00    -0.026 C 
ATOM     14  C   UNL     1      -2.136   1.982  13.717  1.00  0.00     0.005 C 
ATOM     15  C   UNL     1      -3.112   2.672  12.758  1.00  0.00    -0.001 C 
ATOM     16  C   UNL     1      -4.991   0.956  12.810  1.00  0.00     0.007 C 
ATOM     17  C   UNL     1      -4.290   2.031  10.579  1.00  0.00     0.012 C 
ATOM     18  C   UNL     1      -4.033   3.696  13.509  1.00  0.00     0.004 C 
ATOM     19  C   UNL     1      -5.968   2.043  13.254  1.00  0.00     0.005 C 
ATOM     20  C   UNL     1      -5.290   3.071  14.186  1.00  0.00     0.003 C 
ATOM     21  C   UNL     1      -4.423   4.911  12.651  1.00  0.00     0.085 C 
ATOM     22  C   UNL     1      -6.299   4.152  14.815  1.00  0.00    -0.000 C 
ATOM     23  C   UNL     1      -4.965   5.975  13.552  1.00  0.00     0.159 C 
ATOM     24  C   UNL     1      -5.720   5.574  14.762  1.00  0.00     0.005 C 
ATOM     25  C   UNL     1      -6.575   3.747  16.297  1.00  0.00     0.020 C 
ATOM     26  C   UNL     1      -7.653   4.226  14.052  1.00  0.00     0.017 C 
ATOM     27  O   UNL     1      -4.793   7.192  13.262  1.00  0.00    -0.295 OA
ATOM     28  C   UNL     1      -5.991   6.485  15.716  1.00  0.00     0.055 C 
ATOM     29  C   UNL     1      -7.382   4.789  17.078  1.00  0.00     0.081 C 
ATOM     30  C   UNL     1      -6.795   6.156  16.904  1.00  0.00     0.156 C 
ATOM     31  O   UNL     1      -7.022   7.046  17.766  1.00  0.00    -0.295 OA
ENDBRANCH   9  11
ENDBRANCH   8   9
ENDBRANCH   1   8
TORSDOF 6
ENDMDL
MODEL 5
REMARK VINA RESULT:    -7.125      3.518      8.869
REMARK INTER + INTRA:         -11.334
REMARK INTER:                  -9.925
REMARK INTRA:                  -1.410
REMARK UNBOUND:                -1.710
REMARK SMILES CC[C@@H](CC[C@@H](C)[C@@H]1CC[C@@H]2[C@H]3CC(=O)C4=CC(=O)CC[C@]4(C)[C@H]3CC[C@@]21C)C(C)C
REMARK SMILES IDX 4 1 3 2 2 3 1 4 29 5 30 6 31 7 5 8 6 9 7 10 8 11 9 12 27 13
REMARK SMILES IDX 10 14 11 15 26 16 28 17 12 18 25 19 24 20 13 21 22 22 14 23
REMARK SMILES IDX 16 24 21 25 23 26 15 27 17 28 20 29 18 30 19 31
REMARK H PARENT
REMARK Flexibility Score: inf
ROOT
ATOM      1  C   UNL     1      -1.672  -2.203  10.871  1.00  0.00     0.004 C 
ENDROOT
BRANCH   1   2
ATOM      2  C   UNL     1      -3.141  -2.701  10.737  1.00  0.00    -0.009 C 
BRANCH   2   3
ATOM      3  C   UNL     1      -3.268  -4.090  11.427  1.00  0.00     0.000 C 
ATOM      4  C   UNL     1      -4.625  -4.769  11.238  1.00  0.00     0.004 C 
ENDBRANCH   2   3
BRANCH   2   5
ATOM      5  C   UNL     1      -3.618  -2.651   9.239  1.00  0.00    -0.014 C 
ATOM      6  C   UNL     1      -2.479  -2.926   8.243  1.00  0.00     0.007 C 
ATOM      7  C   UNL     1      -4.377  -1.369   8.860  1.00  0.00     0.007 C 
ENDBRANCH   2   5
ENDBRANCH   1   2
BRANCH   1   8
ATOM      8  C   UNL     1      -1.386  -1.497  12.216  1.00  0.00     0.004 C 
BRANCH   8   9
ATOM      9  C   UNL     1      -1.663   0.031  12.183  1.00  0.00    -0.011 C 
ATOM     10  C   UNL     1      -1.725   0.513  10.716  1.00  0.00     0.008 C 
BRANCH   9  11
ATOM     11  C   UNL     1      -2.988   0.411  12.942  1.00  0.00    -0.002 C 
ATOM     12  C   UNL     1      -4.160   0.651  11.976  1.00  0.00     0.005 C 
ATOM     13  C   UNL     1      -2.972   1.677  13.869  1.00  0.00    -0.026 C 
ATOM     14  C   UNL     1      -5.090   1.667  12.624  1.00  0.00     0.005 C 
ATOM     15  C   UNL     1      -4.483   2.022  13.985  1.00  0.00    -0.001 C 
ATOM     16  C   UNL     1      -2.210   2.853  13.194  1.00  0.00     0.007 C 
ATOM     17  C   UNL     1      -2.379   1.348  15.276  1.00  0.00     0.012 C 
ATOM     18  C   UNL     1      -4.858   3.480  14.423  1.00  0.00     0.004 C 
ATOM     19  C   UNL     1      -2.457   4.188  13.896  1.00  0.00     0.005 C 
ATOM     20  C   UNL     1      -3.946   4.597  13.832  1.00  0.00     0.003 C 
ATOM     21  C   UNL     1      -5.004   3.644  15.945  1.00  0.00     0.085 C 
ATOM     22  C   UNL     1      -4.248   6.064  14.413  1.00  0.00    -0.000 C 
ATOM     23  C   UNL     1      -5.714   4.931  16.220  1.00  0.00     0.159 C 
ATOM     24  C   UNL     1      -5.496   6.079  15.308  1.00  0.00     0.005 C 
ATOM     25  C   UNL     1      -4.453   7.027  13.202  1.00  0.00     0.020 C 
ATOM     26  C   UNL     1      -3.092   6.609  15.301  1.00  0.00     0.017 C 
ATOM     27  O   UNL     1      -6.467   5.030  17.228  1.00  0.00    -0.295 OA
ATOM     28  C   UNL     1      -6.308   7.152  15.375  1.00  0.00     0.055 C 
ATOM     29  C   UNL     1      -4.928   8.428  13.605  1.00  0.00     0.081 C 
ATOM     30  C   UNL     1      -6.094   8.345  14.542  1.00  0.00     0.156 C 
ATOM     31  O   UNL     1      -6.880   9.324  14.644  1.00  0.00    -0.295 OA
ENDBRANCH   9  11
ENDBRANCH   8   9
ENDBRANCH   1   8
TORSDOF 6
ENDMDL
MODEL 6
REMARK VINA RESULT:    -7.087      3.117      8.430
REMARK INTER + INTRA:         -11.282
REMARK INTER:                  -9.842
REMARK INTRA:                  -1.441
REMARK UNBOUND:                -1.710
REMARK SMILES CC[C@@H](CC[C@@H](C)[C@@H]1CC[C@@H]2[C@H]3CC(=O)C4=CC(=O)CC[C@]4(C)[C@H]3CC[C@@]21C)C(C)C
REMARK SMILES IDX 4 1 3 2 2 3 1 4 29 5 30 6 31 7 5 8 6 9 7 10 8 11 9 12 27 13
REMARK SMILES IDX 10 14 11 15 26 16 28 17 12 18 25 19 24 20 13 21 22 22 14 23
REMARK SMILES IDX 16 24 21 25 23 26 15 27 17 28 20 29 18 30 19 31
REMARK H PARENT
REMARK Flexibility Score: inf
ROOT
ATOM      1  C   UNL     1      -1.901  -3.320   9.817  1.00  0.00     0.004 C 
ENDROOT
BRANCH   1   2
ATOM      2  C   UNL     1      -3.428  -3.381   9.521  1.00  0.00    -0.009 C 
BRANCH   2   3
ATOM      3  C   UNL     1      -4.041  -1.967   9.738  1.00  0.00     0.000 C 
ATOM      4  C   UNL     1      -4.727  -1.378   8.505  1.00  0.00     0.004 C 
ENDBRANCH   2   3
BRANCH   2   5
ATOM      5  C   UNL     1      -4.114  -4.540  10.333  1.00  0.00    -0.014 C 
ATOM      6  C   UNL     1      -5.476  -4.950   9.747  1.00  0.00     0.007 C 
ATOM      7  C   UNL     1      -4.230  -4.270  11.843  1.00  0.00     0.007 C 
ENDBRANCH   2   5
ENDBRANCH   1   2
BRANCH   1   8
ATOM      8  C   UNL     1      -1.396  -1.895  10.137  1.00  0.00     0.004 C 
BRANCH   8   9
ATOM      9  C   UNL     1      -1.376  -1.573  11.657  1.00  0.00    -0.011 C 
ATOM     10  C   UNL     1      -0.249  -2.380  12.340  1.00  0.00     0.008 C 
BRANCH   9  11
ATOM     11  C   UNL     1      -1.200  -0.036  11.937  1.00  0.00    -0.002 C 
ATOM     12  C   UNL     1      -0.496   0.230  13.279  1.00  0.00     0.005 C 
ATOM     13  C   UNL     1      -2.486   0.862  11.979  1.00  0.00    -0.026 C 
ATOM     14  C   UNL     1      -1.004   1.564  13.808  1.00  0.00     0.005 C 
ATOM     15  C   UNL     1      -1.998   2.104  12.775  1.00  0.00    -0.001 C 
ATOM     16  C   UNL     1      -3.635   0.155  12.752  1.00  0.00     0.007 C 
ATOM     17  C   UNL     1      -2.938   1.278  10.543  1.00  0.00     0.012 C 
ATOM     18  C   UNL     1      -3.091   3.008  13.442  1.00  0.00     0.004 C 
ATOM     19  C   UNL     1      -4.773   1.110  13.108  1.00  0.00     0.005 C 
ATOM     20  C   UNL     1      -4.297   2.234  14.055  1.00  0.00     0.003 C 
ATOM     21  C   UNL     1      -3.582   4.148  12.533  1.00  0.00     0.085 C 
ATOM     22  C   UNL     1      -5.478   3.181  14.594  1.00  0.00    -0.000 C 
ATOM     23  C   UNL     1      -4.315   5.144  13.373  1.00  0.00     0.159 C 
ATOM     24  C   UNL     1      -5.087   4.666  14.543  1.00  0.00     0.005 C 
ATOM     25  C   UNL     1      -5.793   2.766  16.065  1.00  0.00     0.020 C 
ATOM     26  C   UNL     1      -6.777   3.063  13.747  1.00  0.00     0.017 C 
ATOM     27  O   UNL     1      -4.286   6.369  13.064  1.00  0.00    -0.295 OA
ATOM     28  C   UNL     1      -5.536   5.549  15.457  1.00  0.00     0.055 C 
ATOM     29  C   UNL     1      -6.778   3.705  16.770  1.00  0.00     0.081 C 
ATOM     30  C   UNL     1      -6.365   5.135  16.599  1.00  0.00     0.156 C 
ATOM     31  O   UNL     1      -6.762   5.999  17.425  1.00  0.00    -0.295 OA
ENDBRANCH   9  11
ENDBRANCH   8   9
ENDBRANCH   1   8
TORSDOF 6
ENDMDL
MODEL 7
REMARK VINA RESULT:    -7.055      3.072      8.494
REMARK INTER + INTRA:         -11.239
REMARK INTER:                  -9.508
REMARK INTRA:                  -1.731
REMARK UNBOUND:                -1.710
REMARK SMILES CC[C@@H](CC[C@@H](C)[C@@H]1CC[C@@H]2[C@H]3CC(=O)C4=CC(=O)CC[C@]4(C)[C@H]3CC[C@@]21C)C(C)C
REMARK SMILES IDX 4 1 3 2 2 3 1 4 29 5 30 6 31 7 5 8 6 9 7 10 8 11 9 12 27 13
REMARK SMILES IDX 10 14 11 15 26 16 28 17 12 18 25 19 24 20 13 21 22 22 14 23
REMARK SMILES IDX 16 24 21 25 23 26 15 27 17 28 20 29 18 30 19 31
REMARK H PARENT
REMARK Flexibility Score: inf
ROOT
ATOM      1  C   UNL     1      -1.021  -1.654  10.003  1.00  0.00     0.004 C 
ENDROOT
BRANCH   1   2
ATOM      2  C   UNL     1      -2.153  -2.602   9.509  1.00  0.00    -0.009 C 
BRANCH   2   3
ATOM      3  C   UNL     1      -2.983  -1.870   8.415  1.00  0.00     0.000 C 
ATOM      4  C   UNL     1      -4.386  -1.454   8.858  1.00  0.00     0.004 C 
ENDBRANCH   2   3
BRANCH   2   5
ATOM      5  C   UNL     1      -2.987  -3.162  10.719  1.00  0.00    -0.014 C 
ATOM      6  C   UNL     1      -2.126  -3.410  11.970  1.00  0.00     0.007 C 
ATOM      7  C   UNL     1      -3.831  -4.403  10.383  1.00  0.00     0.007 C 
ENDBRANCH   2   5
ENDBRANCH   1   2
BRANCH   1   8
ATOM      8  C   UNL     1      -0.822  -0.416   9.099  1.00  0.00     0.004 C 
BRANCH   8   9
ATOM      9  C   UNL     1      -1.058   0.931   9.836  1.00  0.00    -0.011 C 
ATOM     10  C   UNL     1      -0.943   2.098   8.829  1.00  0.00     0.008 C 
BRANCH   9  11
ATOM     11  C   UNL     1      -2.450   0.972  10.568  1.00  0.00    -0.002 C 
ATOM     12  C   UNL     1      -3.430   1.948   9.894  1.00  0.00     0.005 C 
ATOM     13  C   UNL     1      -2.477   1.368  12.086  1.00  0.00    -0.026 C 
ATOM     14  C   UNL     1      -4.363   2.481  10.972  1.00  0.00     0.005 C 
ATOM     15  C   UNL     1      -3.953   1.811  12.287  1.00  0.00    -0.001 C 
ATOM     16  C   UNL     1      -1.522   2.563  12.368  1.00  0.00     0.007 C 
ATOM     17  C   UNL     1      -2.145   0.146  13.001  1.00  0.00     0.012 C 
ATOM     18  C   UNL     1      -4.271   2.721  13.523  1.00  0.00     0.004 C 
ATOM     19  C   UNL     1      -1.766   3.194  13.738  1.00  0.00     0.005 C 
ATOM     20  C   UNL     1      -3.185   3.794  13.843  1.00  0.00     0.003 C 
ATOM     21  C   UNL     1      -4.642   1.929  14.788  1.00  0.00     0.085 C 
ATOM     22  C   UNL     1      -3.453   4.611  15.200  1.00  0.00    -0.000 C 
ATOM     23  C   UNL     1      -5.277   2.865  15.767  1.00  0.00     0.159 C 
ATOM     24  C   UNL     1      -4.823   4.274  15.810  1.00  0.00     0.005 C 
ATOM     25  C   UNL     1      -3.382   6.134  14.867  1.00  0.00     0.020 C 
ATOM     26  C   UNL     1      -2.412   4.289  16.311  1.00  0.00     0.017 C 
ATOM     27  O   UNL     1      -6.171   2.441  16.552  1.00  0.00    -0.295 OA
ATOM     28  C   UNL     1      -5.542   5.191  16.485  1.00  0.00     0.055 C 
ATOM     29  C   UNL     1      -3.796   7.038  16.032  1.00  0.00     0.081 C 
ATOM     30  C   UNL     1      -5.099   6.587  16.618  1.00  0.00     0.156 C 
ATOM     31  O   UNL     1      -5.807   7.406  17.262  1.00  0.00    -0.295 OA
ENDBRANCH   9  11
ENDBRANCH   8   9
ENDBRANCH   1   8
TORSDOF 6
ENDMDL
MODEL 8
REMARK VINA RESULT:    -7.013      3.326      8.904
REMARK INTER + INTRA:         -11.183
REMARK INTER:                  -9.208
REMARK INTRA:                  -1.976
REMARK UNBOUND:                -1.710
REMARK SMILES CC[C@@H](CC[C@@H](C)[C@@H]1CC[C@@H]2[C@H]3CC(=O)C4=CC(=O)CC[C@]4(C)[C@H]3CC[C@@]21C)C(C)C
REMARK SMILES IDX 4 1 3 2 2 3 1 4 29 5 30 6 31 7 5 8 6 9 7 10 8 11 9 12 27 13
REMARK SMILES IDX 10 14 11 15 26 16 28 17 12 18 25 19 24 20 13 21 22 22 14 23
REMARK SMILES IDX 16 24 21 25 23 26 15 27 17 28 20 29 18 30 19 31
REMARK H PARENT
REMARK Flexibility Score: inf
ROOT
ATOM      1  C   UNL     1      -0.924  -0.969   9.852  1.00  0.00     0.004 C 
ENDROOT
BRANCH   1   2
ATOM      2  C   UNL     1      -1.105  -2.502  10.048  1.00  0.00    -0.009 C 
BRANCH   2   3
ATOM      3  C   UNL     1      -1.708  -3.110   8.747  1.00  0.00     0.000 C 
ATOM      4  C   UNL     1      -0.860  -4.213   8.113  1.00  0.00     0.004 C 
ENDBRANCH   2   3
BRANCH   2   5
ATOM      5  C   UNL     1      -1.907  -2.812  11.365  1.00  0.00    -0.014 C 
ATOM      6  C   UNL     1      -1.046  -3.502  12.436  1.00  0.00     0.007 C 
ATOM      7  C   UNL     1      -3.218  -3.584  11.139  1.00  0.00     0.007 C 
ENDBRANCH   2   5
ENDBRANCH   1   2
BRANCH   1   8
ATOM      8  C   UNL     1      -1.891  -0.368   8.806  1.00  0.00     0.004 C 
BRANCH   8   9
ATOM      9  C   UNL     1      -3.157   0.276   9.434  1.00  0.00    -0.011 C 
ATOM     10  C   UNL     1      -4.384  -0.624   9.161  1.00  0.00     0.008 C 
BRANCH   9  11
ATOM     11  C   UNL     1      -2.993   0.528  10.978  1.00  0.00    -0.002 C 
ATOM     12  C   UNL     1      -4.227   0.067  11.774  1.00  0.00     0.005 C 
ATOM     13  C   UNL     1      -2.732   1.996  11.466  1.00  0.00    -0.026 C 
ATOM     14  C   UNL     1      -4.335   0.952  13.008  1.00  0.00     0.005 C 
ATOM     15  C   UNL     1      -3.157   1.930  12.959  1.00  0.00    -0.001 C 
ATOM     16  C   UNL     1      -3.635   3.006  10.702  1.00  0.00     0.007 C 
ATOM     17  C   UNL     1      -1.223   2.378  11.345  1.00  0.00     0.012 C 
ATOM     18  C   UNL     1      -3.500   3.284  13.672  1.00  0.00     0.004 C 
ATOM     19  C   UNL     1      -3.664   4.381  11.367  1.00  0.00     0.005 C 
ATOM     20  C   UNL     1      -4.267   4.313  12.787  1.00  0.00     0.003 C 
ATOM     21  C   UNL     1      -2.286   3.944  14.348  1.00  0.00     0.085 C 
ATOM     22  C   UNL     1      -4.472   5.748  13.482  1.00  0.00    -0.000 C 
ATOM     23  C   UNL     1      -2.781   4.995  15.291  1.00  0.00     0.159 C 
ATOM     24  C   UNL     1      -4.012   5.744  14.948  1.00  0.00     0.005 C 
ATOM     25  C   UNL     1      -5.988   6.108  13.403  1.00  0.00     0.020 C 
ATOM     26  C   UNL     1      -3.649   6.874  12.791  1.00  0.00     0.017 C 
ATOM     27  O   UNL     1      -2.137   5.243  16.349  1.00  0.00    -0.295 OA
ATOM     28  C   UNL     1      -4.619   6.500  15.883  1.00  0.00     0.055 C 
ATOM     29  C   UNL     1      -6.361   7.371  14.187  1.00  0.00     0.081 C 
ATOM     30  C   UNL     1      -5.803   7.317  15.576  1.00  0.00     0.156 C 
ATOM     31  O   UNL     1      -6.333   8.010  16.486  1.00  0.00    -0.295 OA
ENDBRANCH   9  11
ENDBRANCH   8   9
ENDBRANCH   1   8
TORSDOF 6
ENDMDL
MODEL 9
REMARK VINA RESULT:    -6.863      1.716      2.825
REMARK INTER + INTRA:         -10.980
REMARK INTER:                  -8.998
REMARK INTRA:                  -1.982
REMARK UNBOUND:                -1.710
REMARK SMILES CC[C@@H](CC[C@@H](C)[C@@H]1CC[C@@H]2[C@H]3CC(=O)C4=CC(=O)CC[C@]4(C)[C@H]3CC[C@@]21C)C(C)C
REMARK SMILES IDX 4 1 3 2 2 3 1 4 29 5 30 6 31 7 5 8 6 9 7 10 8 11 9 12 27 13
REMARK SMILES IDX 10 14 11 15 26 16 28 17 12 18 25 19 24 20 13 21 22 22 14 23
REMARK SMILES IDX 16 24 21 25 23 26 15 27 17 28 20 29 18 30 19 31
REMARK H PARENT
REMARK Flexibility Score: inf
ROOT
ATOM      1  C   UNL     1      -4.237   5.354  13.749  1.00  0.00     0.004 C 
ENDROOT
BRANCH   1   2
ATOM      2  C   UNL     1      -5.398   4.386  14.118  1.00  0.00    -0.009 C 
BRANCH   2   3
ATOM      3  C   UNL     1      -6.701   5.215  14.320  1.00  0.00     0.000 C 
ATOM      4  C   UNL     1      -7.947   4.375  14.604  1.00  0.00     0.004 C 
ENDBRANCH   2   3
BRANCH   2   5
ATOM      5  C   UNL     1      -5.000   3.461  15.325  1.00  0.00    -0.014 C 
ATOM      6  C   UNL     1      -3.688   3.897  16.000  1.00  0.00     0.007 C 
ATOM      7  C   UNL     1      -4.967   1.961  14.987  1.00  0.00     0.007 C 
ENDBRANCH   2   5
ENDBRANCH   1   2
BRANCH   1   8
ATOM      8  C   UNL     1      -3.795   5.244  12.272  1.00  0.00     0.004 C 
BRANCH   8   9
ATOM      9  C   UNL     1      -2.507   4.399  12.074  1.00  0.00    -0.011 C 
ATOM     10  C   UNL     1      -1.335   5.057  12.838  1.00  0.00     0.008 C 
BRANCH   9  11
ATOM     11  C   UNL     1      -2.697   2.908  12.539  1.00  0.00    -0.002 C 
ATOM     12  C   UNL     1      -1.511   2.409  13.382  1.00  0.00     0.005 C 
ATOM     13  C   UNL     1      -2.892   1.808  11.437  1.00  0.00    -0.026 C 
ATOM     14  C   UNL     1      -1.387   0.908  13.158  1.00  0.00     0.005 C 
ATOM     15  C   UNL     1      -2.510   0.507  12.196  1.00  0.00    -0.001 C 
ATOM     16  C   UNL     1      -1.917   2.033  10.246  1.00  0.00     0.007 C 
ATOM     17  C   UNL     1      -4.375   1.741  10.953  1.00  0.00     0.012 C 
ATOM     18  C   UNL     1      -2.113  -0.741  11.334  1.00  0.00     0.004 C 
ATOM     19  C   UNL     1      -1.832   0.817   9.325  1.00  0.00     0.005 C 
ATOM     20  C   UNL     1      -1.270  -0.418  10.063  1.00  0.00     0.003 C 
ATOM     21  C   UNL     1      -3.307  -1.645  10.981  1.00  0.00     0.085 C 
ATOM     22  C   UNL     1      -1.007  -1.687   9.113  1.00  0.00    -0.000 C 
ATOM     23  C   UNL     1      -2.781  -2.961  10.501  1.00  0.00     0.159 C 
ATOM     24  C   UNL     1      -1.504  -2.993   9.752  1.00  0.00     0.005 C 
ATOM     25  C   UNL     1       0.528  -1.778   8.846  1.00  0.00     0.020 C 
ATOM     26  C   UNL     1      -1.750  -1.582   7.750  1.00  0.00     0.017 C 
ATOM     27  O   UNL     1      -3.438  -4.017  10.720  1.00  0.00    -0.295 OA
ATOM     28  C   UNL     1      -0.881  -4.168   9.538  1.00  0.00     0.055 C 
ATOM     29  C   UNL     1       0.948  -3.048   8.099  1.00  0.00     0.081 C 
ATOM     30  C   UNL     1       0.352  -4.263   8.742  1.00  0.00     0.156 C 
ATOM     31  O   UNL     1       0.895  -5.387   8.568  1.00  0.00    -0.295 OA
ENDBRANCH   9  11
ENDBRANCH   8   9
ENDBRANCH   1   8
TORSDOF 6
ENDMDL
