MODEL 1
REMARK VINA RESULT:    -4.112      0.000      0.000
REMARK INTER + INTRA:          -4.796
REMARK INTER:                  -4.593
REMARK INTRA:                  -0.203
REMARK UNBOUND:                -0.203
REMARK SMILES CC(C)c1ccc(C(=O)[O-])cc1
REMARK SMILES IDX 7 1 6 2 11 3 5 4 12 5 4 6 8 7 9 8 10 9 2 10 1 11 3 12
REMARK H PARENT
REMARK Flexibility Score: inf
ROOT
ATOM      1  C   UNL     1       6.272   7.954   6.537  1.00  0.00    -0.003 A 
ATOM      2  C   UNL     1       7.534   7.351   6.672  1.00  0.00     0.010 A 
ATOM      3  C   UNL     1       5.122   7.186   6.787  1.00  0.00     0.010 A 
ATOM      4  C   UNL     1       7.645   6.010   7.049  1.00  0.00     0.004 A 
ATOM      5  C   UNL     1       5.232   5.845   7.163  1.00  0.00     0.004 A 
ATOM      6  C   UNL     1       6.496   5.241   7.299  1.00  0.00    -0.045 A 
ENDROOT
BRANCH   1   7
ATOM      7  C   UNL     1       6.151   9.373   6.138  1.00  0.00     0.071 C 
ATOM      8  O   UNL     1       5.599  10.209   6.904  1.00  0.00    -0.545 OA
ATOM      9  O   UNL     1       6.643   9.805   4.912  1.00  0.00    -0.545 OA
ENDBRANCH   1   7
BRANCH   6  10
ATOM     10  C   UNL     1       6.629   3.786   7.707  1.00  0.00     0.013 C 
ATOM     11  C   UNL     1       7.344   3.655   9.057  1.00  0.00     0.012 C 
ATOM     12  C   UNL     1       7.343   2.971   6.623  1.00  0.00     0.012 C 
ENDBRANCH   6  10
TORSDOF 2
ENDMDL
MODEL 2
REMARK VINA RESULT:    -4.106      0.032      1.398
REMARK INTER + INTRA:          -4.789
REMARK INTER:                  -4.589
REMARK INTRA:                  -0.200
REMARK UNBOUND:                -0.203
REMARK SMILES CC(C)c1ccc(C(=O)[O-])cc1
REMARK SMILES IDX 7 1 6 2 11 3 5 4 12 5 4 6 8 7 9 8 10 9 2 10 1 11 3 12
REMARK H PARENT
REMARK Flexibility Score: inf
ROOT
ATOM      1  C   UNL     1       6.251   7.970   6.533  1.00  0.00    -0.003 A 
ATOM      2  C   UNL     1       5.110   7.189   6.780  1.00  0.00     0.010 A 
ATOM      3  C   UNL     1       7.520   7.383   6.676  1.00  0.00     0.010 A 
ATOM      4  C   UNL     1       5.233   5.850   7.162  1.00  0.00     0.004 A 
ATOM      5  C   UNL     1       7.644   6.045   7.058  1.00  0.00     0.004 A 
ATOM      6  C   UNL     1       6.501   5.263   7.305  1.00  0.00    -0.045 A 
ENDROOT
BRANCH   1   7
ATOM      7  C   UNL     1       6.125   9.387   6.130  1.00  0.00     0.071 C 
ATOM      8  O   UNL     1       5.597  10.230   6.904  1.00  0.00    -0.545 OA
ATOM      9  O   UNL     1       6.587   9.811   4.888  1.00  0.00    -0.545 OA
ENDBRANCH   1   7
BRANCH   6  10
ATOM     10  C   UNL     1       6.621   3.808   7.719  1.00  0.00     0.013 C 
ATOM     11  C   UNL     1       7.313   3.676   9.081  1.00  0.00     0.012 C 
ATOM     12  C   UNL     1       7.348   2.987   6.649  1.00  0.00     0.012 C 
ENDBRANCH   6  10
TORSDOF 2
ENDMDL
MODEL 3
REMARK VINA RESULT:    -3.921      3.006      5.028
REMARK INTER + INTRA:          -4.583
REMARK INTER:                  -4.381
REMARK INTRA:                  -0.202
REMARK UNBOUND:                -0.203
REMARK SMILES CC(C)c1ccc(C(=O)[O-])cc1
REMARK SMILES IDX 7 1 6 2 11 3 5 4 12 5 4 6 8 7 9 8 10 9 2 10 1 11 3 12
REMARK H PARENT
REMARK Flexibility Score: inf
ROOT
ATOM      1  C   UNL     1       6.561   5.184   7.230  1.00  0.00    -0.003 A 
ATOM      2  C   UNL     1       7.607   6.108   7.073  1.00  0.00     0.010 A 
ATOM      3  C   UNL     1       5.234   5.642   7.168  1.00  0.00     0.010 A 
ATOM      4  C   UNL     1       7.334   7.462   6.859  1.00  0.00     0.004 A 
ATOM      5  C   UNL     1       4.960   6.996   6.955  1.00  0.00     0.004 A 
ATOM      6  C   UNL     1       6.007   7.922   6.798  1.00  0.00    -0.045 A 
ENDROOT
BRANCH   1   7
ATOM      7  C   UNL     1       6.846   3.750   7.456  1.00  0.00     0.071 C 
ATOM      8  O   UNL     1       7.000   3.304   8.624  1.00  0.00    -0.545 OA
ATOM      9  O   UNL     1       6.949   2.874   6.381  1.00  0.00    -0.545 OA
ENDBRANCH   1   7
BRANCH   6  10
ATOM     10  C   UNL     1       5.724   9.394   6.565  1.00  0.00     0.013 C 
ATOM     11  C   UNL     1       6.577   9.946   5.417  1.00  0.00     0.012 C 
ATOM     12  C   UNL     1       5.932  10.206   7.849  1.00  0.00     0.012 C 
ENDBRANCH   6  10
TORSDOF 2
ENDMDL
MODEL 4
REMARK VINA RESULT:    -3.871     13.125     15.446
REMARK INTER + INTRA:          -4.527
REMARK INTER:                  -4.313
REMARK INTRA:                  -0.214
REMARK UNBOUND:                -0.203
REMARK SMILES CC(C)c1ccc(C(=O)[O-])cc1
REMARK SMILES IDX 7 1 6 2 11 3 5 4 12 5 4 6 8 7 9 8 10 9 2 10 1 11 3 12
REMARK H PARENT
REMARK Flexibility Score: inf
ROOT
ATOM      1  C   UNL     1      10.468  -4.031  -1.541  1.00  0.00    -0.003 A 
ATOM      2  C   UNL     1      10.750  -4.865  -0.446  1.00  0.00     0.010 A 
ATOM      3  C   UNL     1      10.340  -4.605  -2.817  1.00  0.00     0.010 A 
ATOM      4  C   UNL     1      10.901  -6.243  -0.622  1.00  0.00     0.004 A 
ATOM      5  C   UNL     1      10.492  -5.983  -2.994  1.00  0.00     0.004 A 
ATOM      6  C   UNL     1      10.774  -6.818  -1.898  1.00  0.00    -0.045 A 
ENDROOT
BRANCH   1   7
ATOM      7  C   UNL     1      10.308  -2.572  -1.359  1.00  0.00     0.071 C 
ATOM      8  O   UNL     1      11.125  -1.767  -1.881  1.00  0.00    -0.545 OA
ATOM      9  O   UNL     1       9.252  -2.067  -0.607  1.00  0.00    -0.545 OA
ENDBRANCH   1   7
BRANCH   6  10
ATOM     10  C   UNL     1      10.940  -8.316  -2.075  1.00  0.00     0.013 C 
ATOM     11  C   UNL     1       9.987  -8.854  -3.149  1.00  0.00     0.012 C 
ATOM     12  C   UNL     1      10.748  -9.054  -0.746  1.00  0.00     0.012 C 
ENDBRANCH   6  10
TORSDOF 2
ENDMDL
MODEL 5
REMARK VINA RESULT:    -3.646      3.029      5.216
REMARK INTER + INTRA:          -4.276
REMARK INTER:                  -4.072
REMARK INTRA:                  -0.204
REMARK UNBOUND:                -0.203
REMARK SMILES CC(C)c1ccc(C(=O)[O-])cc1
REMARK SMILES IDX 7 1 6 2 11 3 5 4 12 5 4 6 8 7 9 8 10 9 2 10 1 11 3 12
REMARK H PARENT
REMARK Flexibility Score: inf
ROOT
ATOM      1  C   UNL     1       6.924   5.293   7.444  1.00  0.00    -0.003 A 
ATOM      2  C   UNL     1       5.713   5.993   7.307  1.00  0.00     0.010 A 
ATOM      3  C   UNL     1       8.119   5.919   7.053  1.00  0.00     0.010 A 
ATOM      4  C   UNL     1       5.697   7.292   6.791  1.00  0.00     0.004 A 
ATOM      5  C   UNL     1       8.104   7.218   6.536  1.00  0.00     0.004 A 
ATOM      6  C   UNL     1       6.892   7.919   6.399  1.00  0.00    -0.045 A 
ENDROOT
BRANCH   1   7
ATOM      7  C   UNL     1       6.945   3.919   7.990  1.00  0.00     0.071 C 
ATOM      8  O   UNL     1       7.018   2.924   7.219  1.00  0.00    -0.545 OA
ATOM      9  O   UNL     1       6.883   3.704   9.362  1.00  0.00    -0.545 OA
ENDBRANCH   1   7
BRANCH   6  10
ATOM     10  C   UNL     1       6.861   9.329   5.840  1.00  0.00     0.013 C 
ATOM     11  C   UNL     1       5.703  10.136   6.439  1.00  0.00     0.012 C 
ATOM     12  C   UNL     1       6.791   9.315   4.309  1.00  0.00     0.012 C 
ENDBRANCH   6  10
TORSDOF 2
ENDMDL
MODEL 6
REMARK VINA RESULT:    -3.366      2.732      4.910
REMARK INTER + INTRA:          -3.962
REMARK INTER:                  -3.747
REMARK INTRA:                  -0.215
REMARK UNBOUND:                -0.203
REMARK SMILES CC(C)c1ccc(C(=O)[O-])cc1
REMARK SMILES IDX 7 1 6 2 11 3 5 4 12 5 4 6 8 7 9 8 10 9 2 10 1 11 3 12
REMARK H PARENT
REMARK Flexibility Score: inf
ROOT
ATOM      1  C   UNL     1       6.424   7.168   7.194  1.00  0.00    -0.003 A 
ATOM      2  C   UNL     1       5.842   8.115   6.335  1.00  0.00     0.010 A 
ATOM      3  C   UNL     1       7.786   6.857   7.041  1.00  0.00     0.010 A 
ATOM      4  C   UNL     1       6.605   8.739   5.343  1.00  0.00     0.004 A 
ATOM      5  C   UNL     1       8.549   7.480   6.050  1.00  0.00     0.004 A 
ATOM      6  C   UNL     1       7.966   8.428   5.189  1.00  0.00    -0.045 A 
ENDROOT
BRANCH   1   7
ATOM      7  C   UNL     1       5.620   6.505   8.244  1.00  0.00     0.071 C 
ATOM      8  O   UNL     1       6.119   5.588   8.950  1.00  0.00    -0.545 OA
ATOM      9  O   UNL     1       4.302   6.885   8.468  1.00  0.00    -0.545 OA
ENDBRANCH   1   7
BRANCH   6  10
ATOM     10  C   UNL     1       8.783   9.113   4.109  1.00  0.00     0.013 C 
ATOM     11  C   UNL     1      10.159   8.454   3.956  1.00  0.00     0.012 C 
ATOM     12  C   UNL     1       8.917  10.615   4.386  1.00  0.00     0.012 C 
ENDBRANCH   6  10
TORSDOF 2
ENDMDL
MODEL 7
REMARK VINA RESULT:    -3.363      1.701      2.818
REMARK INTER + INTRA:          -3.959
REMARK INTER:                  -3.747
REMARK INTRA:                  -0.212
REMARK UNBOUND:                -0.203
REMARK SMILES CC(C)c1ccc(C(=O)[O-])cc1
REMARK SMILES IDX 7 1 6 2 11 3 5 4 12 5 4 6 8 7 9 8 10 9 2 10 1 11 3 12
REMARK H PARENT
REMARK Flexibility Score: inf
ROOT
ATOM      1  C   UNL     1       7.886   9.013   5.703  1.00  0.00    -0.003 A 
ATOM      2  C   UNL     1       6.490   9.120   5.820  1.00  0.00     0.010 A 
ATOM      3  C   UNL     1       8.521   7.854   6.178  1.00  0.00     0.010 A 
ATOM      4  C   UNL     1       5.744   8.090   6.400  1.00  0.00     0.004 A 
ATOM      5  C   UNL     1       7.776   6.824   6.759  1.00  0.00     0.004 A 
ATOM      6  C   UNL     1       6.378   6.931   6.877  1.00  0.00    -0.045 A 
ENDROOT
BRANCH   1   7
ATOM      7  C   UNL     1       8.679  10.101   5.089  1.00  0.00     0.071 C 
ATOM      8  O   UNL     1       8.127  10.954   4.344  1.00  0.00    -0.545 OA
ATOM      9  O   UNL     1      10.046  10.197   5.326  1.00  0.00    -0.545 OA
ENDBRANCH   1   7
BRANCH   6  10
ATOM     10  C   UNL     1       5.557   5.820   7.504  1.00  0.00     0.013 C 
ATOM     11  C   UNL     1       5.083   6.209   8.909  1.00  0.00     0.012 C 
ATOM     12  C   UNL     1       6.339   4.502   7.530  1.00  0.00     0.012 C 
ENDBRANCH   6  10
TORSDOF 2
ENDMDL
MODEL 8
REMARK VINA RESULT:    -3.154      2.030      2.636
REMARK INTER + INTRA:          -3.726
REMARK INTER:                  -3.507
REMARK INTRA:                  -0.218
REMARK UNBOUND:                -0.203
REMARK SMILES CC(C)c1ccc(C(=O)[O-])cc1
REMARK SMILES IDX 7 1 6 2 11 3 5 4 12 5 4 6 8 7 9 8 10 9 2 10 1 11 3 12
REMARK H PARENT
REMARK Flexibility Score: inf
ROOT
ATOM      1  C   UNL     1       6.820   8.530   6.012  1.00  0.00    -0.003 A 
ATOM      2  C   UNL     1       7.497   7.372   6.431  1.00  0.00     0.010 A 
ATOM      3  C   UNL     1       5.826   9.074   6.842  1.00  0.00     0.010 A 
ATOM      4  C   UNL     1       7.186   6.770   7.653  1.00  0.00     0.004 A 
ATOM      5  C   UNL     1       5.514   8.471   8.064  1.00  0.00     0.004 A 
ATOM      6  C   UNL     1       6.191   7.312   8.483  1.00  0.00    -0.045 A 
ENDROOT
BRANCH   1   7
ATOM      7  C   UNL     1       7.147   9.171   4.720  1.00  0.00     0.071 C 
ATOM      8  O   UNL     1       6.793  10.358   4.485  1.00  0.00    -0.545 OA
ATOM      9  O   UNL     1       7.848   8.472   3.743  1.00  0.00    -0.545 OA
ENDBRANCH   1   7
BRANCH   6  10
ATOM     10  C   UNL     1       5.863   6.648   9.808  1.00  0.00     0.013 C 
ATOM     11  C   UNL     1       6.691   5.375  10.008  1.00  0.00     0.012 C 
ATOM     12  C   UNL     1       4.362   6.355   9.922  1.00  0.00     0.012 C 
ENDBRANCH   6  10
TORSDOF 2
ENDMDL
