MODEL 1
REMARK VINA RESULT:   112.686      0.000      0.000
REMARK INTER + INTRA:         168.743
REMARK INTER:                 165.387
REMARK INTRA:                   3.355
REMARK UNBOUND:                 3.355
REMARK SMILES Cc1cc2c(C(C)C)c(O)c(O)c(C=O)c2c(O)c1-c1c(C)cc2c(C(C)C)c(O)c(O)c(C=O)c2c1O
REMARK SMILES IDX 1 1 2 2 3 3 4 4 16 5 13 6 11 7 9 8 5 9 17 10 19 11 20 12
REMARK SMILES IDX 37 13 21 14 36 15 23 16 22 17 24 18 33 19 25 20 31 21 29 22
REMARK SMILES IDX 38 23 34 25 35 26 26 27 27 28 28 29 32 30 30 32 18 34 6 36
REMARK SMILES IDX 7 37 8 38 14 39 15 40 10 41 12 43
REMARK H PARENT 38 24 32 31 30 33 18 35 10 42 12 44
REMARK Flexibility Score: inf
ROOT
ATOM      1  C   UNL     1       1.751  -0.717   4.871  1.00  0.00     0.045 C 
ATOM      2  C   UNL     1       2.515   0.178   3.924  1.00  0.00    -0.039 A 
ATOM      3  C   UNL     1       3.856   0.466   4.181  1.00  0.00     0.013 A 
ATOM      4  C   UNL     1       4.617   1.302   3.341  1.00  0.00    -0.006 A 
ATOM      5  C   UNL     1       3.954   1.960   2.260  1.00  0.00     0.039 A 
ATOM      6  C   UNL     1       4.654   2.960   1.523  1.00  0.00     0.072 A 
ATOM      7  C   UNL     1       6.017   3.199   1.784  1.00  0.00     0.169 A 
ATOM      8  C   UNL     1       6.689   2.476   2.775  1.00  0.00     0.162 A 
ATOM      9  C   UNL     1       6.018   1.506   3.555  1.00  0.00     0.008 A 
ATOM     10  C   UNL     1       2.621   1.574   1.931  1.00  0.00     0.132 A 
ATOM     11  C   UNL     1       1.904   0.698   2.772  1.00  0.00     0.031 A 
ENDROOT
BRANCH  11  12
ATOM     12  C   UNL     1       0.504   0.324   2.443  1.00  0.00     0.031 A 
ATOM     13  C   UNL     1      -0.523   0.515   3.392  1.00  0.00     0.132 A 
ATOM     14  C   UNL     1       0.202  -0.198   1.175  1.00  0.00    -0.039 A 
ATOM     15  C   UNL     1      -1.876   0.203   3.062  1.00  0.00     0.039 A 
ATOM     16  C   UNL     1      -1.104  -0.598   0.890  1.00  0.00     0.013 A 
ATOM     17  C   UNL     1       1.271  -0.345   0.118  1.00  0.00     0.045 C 
ATOM     18  C   UNL     1      -2.144  -0.477   1.837  1.00  0.00    -0.006 A 
ATOM     19  C   UNL     1      -2.966   0.522   3.925  1.00  0.00     0.072 A 
ATOM     20  C   UNL     1      -3.449  -0.990   1.571  1.00  0.00     0.008 A 
ATOM     21  C   UNL     1      -4.276   0.131   3.584  1.00  0.00     0.169 A 
ATOM     22  C   UNL     1      -4.522  -0.584   2.396  1.00  0.00     0.162 A 
BRANCH  13  23
ATOM     23  O   UNL     1      -0.195   0.980   4.670  1.00  0.00    -0.507 OA
ATOM     24  H   UNL     1       0.635   0.703   5.177  1.00  0.00     0.293 HD
ENDBRANCH  13  23
BRANCH  19  25
ATOM     25  C   UNL     1      -2.799   1.368   5.131  1.00  0.00     0.264 C 
ATOM     26  O   UNL     1      -3.800   1.821   5.748  1.00  0.00    -0.298 OA
ENDBRANCH  19  25
BRANCH  20  27
ATOM     27  C   UNL     1      -3.710  -1.954   0.399  1.00  0.00     0.017 C 
ATOM     28  C   UNL     1      -4.208  -1.197  -0.837  1.00  0.00     0.012 C 
ATOM     29  C   UNL     1      -4.644  -3.125   0.754  1.00  0.00     0.012 C 
ENDBRANCH  20  27
BRANCH  21  30
ATOM     30  O   UNL     1      -5.319   0.477   4.453  1.00  0.00    -0.504 OA
ATOM     31  H   UNL     1      -6.301   0.394   4.232  1.00  0.00     0.293 HD
ENDBRANCH  21  30
BRANCH  22  32
ATOM     32  O   UNL     1      -5.828  -0.869   1.989  1.00  0.00    -0.504 OA
ATOM     33  H   UNL     1      -6.586  -1.113   2.610  1.00  0.00     0.293 HD
ENDBRANCH  22  32
ENDBRANCH  11  12
BRANCH  10  34
ATOM     34  O   UNL     1       2.029   2.026   0.746  1.00  0.00    -0.507 OA
ATOM     35  H   UNL     1       1.055   2.291   0.667  1.00  0.00     0.293 HD
ENDBRANCH  10  34
BRANCH   9  36
ATOM     36  C   UNL     1       6.855   0.714   4.579  1.00  0.00     0.017 C 
ATOM     37  C   UNL     1       8.209   0.275   4.003  1.00  0.00     0.012 C 
ATOM     38  C   UNL     1       6.975   1.390   5.962  1.00  0.00     0.012 C 
ENDBRANCH   9  36
BRANCH   6  39
ATOM     39  C   UNL     1       3.974   3.847   0.554  1.00  0.00     0.264 C 
ATOM     40  O   UNL     1       4.218   5.082   0.541  1.00  0.00    -0.298 OA
ENDBRANCH   6  39
BRANCH   8  41
ATOM     41  O   UNL     1       8.044   2.739   3.005  1.00  0.00    -0.504 OA
ATOM     42  H   UNL     1       8.739   2.751   2.269  1.00  0.00     0.293 HD
ENDBRANCH   8  41
BRANCH   7  43
ATOM     43  O   UNL     1       6.736   4.175   1.083  1.00  0.00    -0.504 OA
ATOM     44  H   UNL     1       6.726   4.274   0.076  1.00  0.00     0.293 HD
ENDBRANCH   7  43
TORSDOF 11
ENDMDL
MODEL 2
REMARK VINA RESULT:   113.091      0.429      9.343
REMARK INTER + INTRA:         169.337
REMARK INTER:                 163.845
REMARK INTRA:                   5.492
REMARK UNBOUND:                 3.355
REMARK SMILES Cc1cc2c(C(C)C)c(O)c(O)c(C=O)c2c(O)c1-c1c(C)cc2c(C(C)C)c(O)c(O)c(C=O)c2c1O
REMARK SMILES IDX 1 1 2 2 3 3 4 4 16 5 13 6 11 7 9 8 5 9 17 10 19 11 20 12
REMARK SMILES IDX 37 13 21 14 36 15 23 16 22 17 24 18 33 19 25 20 31 21 29 22
REMARK SMILES IDX 38 23 34 25 35 26 26 27 27 28 28 29 32 30 30 32 18 34 6 36
REMARK SMILES IDX 7 37 8 38 14 39 15 40 10 41 12 43
REMARK H PARENT 38 24 32 31 30 33 18 35 10 42 12 44
REMARK Flexibility Score: inf
ROOT
ATOM      1  C   UNL     1       1.379  -0.186   0.020  1.00  0.00     0.045 C 
ATOM      2  C   UNL     1       0.320  -0.102   1.093  1.00  0.00    -0.039 A 
ATOM      3  C   UNL     1      -0.988  -0.495   0.801  1.00  0.00     0.013 A 
ATOM      4  C   UNL     1      -2.021  -0.429   1.756  1.00  0.00    -0.006 A 
ATOM      5  C   UNL     1      -1.735   0.166   3.023  1.00  0.00     0.039 A 
ATOM      6  C   UNL     1      -2.807   0.424   3.926  1.00  0.00     0.072 A 
ATOM      7  C   UNL     1      -4.107  -0.020   3.616  1.00  0.00     0.169 A 
ATOM      8  C   UNL     1      -4.361  -0.696   2.418  1.00  0.00     0.162 A 
ATOM      9  C   UNL     1      -3.332  -0.934   1.480  1.00  0.00     0.008 A 
ATOM     10  C   UNL     1      -0.379   0.456   3.359  1.00  0.00     0.132 A 
ATOM     11  C   UNL     1       0.637   0.336   2.388  1.00  0.00     0.031 A 
ENDROOT
BRANCH  11  12
ATOM     12  C   UNL     1       2.043   0.671   2.733  1.00  0.00     0.031 A 
ATOM     13  C   UNL     1       2.794   1.526   1.898  1.00  0.00     0.132 A 
ATOM     14  C   UNL     1       2.616   0.152   3.905  1.00  0.00    -0.039 A 
ATOM     15  C   UNL     1       4.128   1.890   2.251  1.00  0.00     0.039 A 
ATOM     16  C   UNL     1       3.953   0.425   4.195  1.00  0.00     0.013 A 
ATOM     17  C   UNL     1       1.811  -0.708   4.850  1.00  0.00     0.045 C 
ATOM     18  C   UNL     1       4.750   1.228   3.351  1.00  0.00    -0.006 A 
ATOM     19  C   UNL     1       4.871   2.869   1.528  1.00  0.00     0.072 A 
ATOM     20  C   UNL     1       6.143   1.409   3.604  1.00  0.00     0.008 A 
ATOM     21  C   UNL     1       6.208   3.142   1.875  1.00  0.00     0.169 A 
ATOM     22  C   UNL     1       6.828   2.447   2.931  1.00  0.00     0.162 A 
BRANCH  13  23
ATOM     23  O   UNL     1       2.227   1.986   0.704  1.00  0.00    -0.507 OA
ATOM     24  H   UNL     1       1.597   1.441   0.130  1.00  0.00     0.293 HD
ENDBRANCH  13  23
BRANCH  19  25
ATOM     25  C   UNL     1       4.251   3.718   0.482  1.00  0.00     0.264 C 
ATOM     26  O   UNL     1       3.999   4.934   0.699  1.00  0.00    -0.298 OA
ENDBRANCH  19  25
BRANCH  20  27
ATOM     27  C   UNL     1       6.903   0.515   4.601  1.00  0.00     0.017 C 
ATOM     28  C   UNL     1       6.922   1.142   5.999  1.00  0.00     0.012 C 
ATOM     29  C   UNL     1       8.320   0.133   4.138  1.00  0.00     0.012 C 
ENDBRANCH  20  27
BRANCH  21  30
ATOM     30  O   UNL     1       6.896   4.122   1.148  1.00  0.00    -0.504 OA
ATOM     31  H   UNL     1       6.462   4.915   0.699  1.00  0.00     0.293 HD
ENDBRANCH  21  30
BRANCH  22  32
ATOM     32  O   UNL     1       8.112   2.795   3.362  1.00  0.00    -0.504 OA
ATOM     33  H   UNL     1       8.939   2.774   2.785  1.00  0.00     0.293 HD
ENDBRANCH  22  32
ENDBRANCH  11  12
BRANCH  10  34
ATOM     34  O   UNL     1      -0.039   0.821   4.666  1.00  0.00    -0.507 OA
ATOM     35  H   UNL     1       0.415   0.201   5.325  1.00  0.00     0.293 HD
ENDBRANCH  10  34
BRANCH   9  36
ATOM     36  C   UNL     1      -3.692  -1.743   0.218  1.00  0.00     0.017 C 
ATOM     37  C   UNL     1      -4.270  -3.123   0.563  1.00  0.00     0.012 C 
ATOM     38  C   UNL     1      -4.542  -0.971  -0.813  1.00  0.00     0.012 C 
ENDBRANCH   9  36
BRANCH   6  39
ATOM     39  C   UNL     1      -2.634   1.244   5.144  1.00  0.00     0.264 C 
ATOM     40  O   UNL     1      -1.604   1.953   5.294  1.00  0.00    -0.298 OA
ENDBRANCH   6  39
BRANCH   8  41
ATOM     41  O   UNL     1      -5.666  -1.125   2.145  1.00  0.00    -0.504 OA
ATOM     42  H   UNL     1      -6.231  -1.638   2.810  1.00  0.00     0.293 HD
ENDBRANCH   8  41
BRANCH   7  43
ATOM     43  O   UNL     1      -5.186   0.218   4.477  1.00  0.00    -0.504 OA
ATOM     44  H   UNL     1      -5.301   1.061   5.026  1.00  0.00     0.293 HD
ENDBRANCH   7  43
TORSDOF 11
ENDMDL
MODEL 3
REMARK VINA RESULT:   113.093     12.208     14.737
REMARK INTER + INTRA:         169.339
REMARK INTER:                 169.906
REMARK INTRA:                  -0.566
REMARK UNBOUND:                 3.355
REMARK SMILES Cc1cc2c(C(C)C)c(O)c(O)c(C=O)c2c(O)c1-c1c(C)cc2c(C(C)C)c(O)c(O)c(C=O)c2c1O
REMARK SMILES IDX 1 1 2 2 3 3 4 4 16 5 13 6 11 7 9 8 5 9 17 10 19 11 20 12
REMARK SMILES IDX 37 13 21 14 36 15 23 16 22 17 24 18 33 19 25 20 31 21 29 22
REMARK SMILES IDX 38 23 34 25 35 26 26 27 27 28 28 29 32 30 30 32 18 34 6 36
REMARK SMILES IDX 7 37 8 38 14 39 15 40 10 41 12 43
REMARK H PARENT 38 24 32 31 30 33 18 35 10 42 12 44
REMARK Flexibility Score: inf
ROOT
ATOM      1  C   UNL     1      -2.209  14.157   7.906  1.00  0.00     0.045 C 
ATOM      2  C   UNL     1      -2.524  12.828   8.552  1.00  0.00    -0.039 A 
ATOM      3  C   UNL     1      -1.676  12.327   9.541  1.00  0.00     0.013 A 
ATOM      4  C   UNL     1      -1.911  11.090  10.172  1.00  0.00    -0.006 A 
ATOM      5  C   UNL     1      -2.987  10.280   9.697  1.00  0.00     0.039 A 
ATOM      6  C   UNL     1      -3.120   8.946  10.182  1.00  0.00     0.072 A 
ATOM      7  C   UNL     1      -2.271   8.486  11.207  1.00  0.00     0.169 A 
ATOM      8  C   UNL     1      -1.284   9.320  11.742  1.00  0.00     0.162 A 
ATOM      9  C   UNL     1      -1.096  10.635  11.259  1.00  0.00     0.008 A 
ATOM     10  C   UNL     1      -3.918  10.843   8.773  1.00  0.00     0.132 A 
ATOM     11  C   UNL     1      -3.673  12.106   8.195  1.00  0.00     0.031 A 
ENDROOT
BRANCH  11  12
ATOM     12  C   UNL     1      -4.628  12.674   7.208  1.00  0.00     0.031 A 
ATOM     13  C   UNL     1      -5.598  13.613   7.619  1.00  0.00     0.132 A 
ATOM     14  C   UNL     1      -4.546  12.291   5.859  1.00  0.00    -0.039 A 
ATOM     15  C   UNL     1      -6.486  14.197   6.665  1.00  0.00     0.039 A 
ATOM     16  C   UNL     1      -5.480  12.784   4.948  1.00  0.00     0.013 A 
ATOM     17  C   UNL     1      -3.472  11.342   5.383  1.00  0.00     0.045 C 
ATOM     18  C   UNL     1      -6.501  13.678   5.337  1.00  0.00    -0.006 A 
ATOM     19  C   UNL     1      -7.375  15.260   7.000  1.00  0.00     0.072 A 
ATOM     20  C   UNL     1      -7.513  14.089   4.417  1.00  0.00     0.008 A 
ATOM     21  C   UNL     1      -8.279  15.755   6.040  1.00  0.00     0.169 A 
ATOM     22  C   UNL     1      -8.320  15.202   4.746  1.00  0.00     0.162 A 
BRANCH  13  23
ATOM     23  O   UNL     1      -5.703  13.938   8.976  1.00  0.00    -0.507 OA
ATOM     24  H   UNL     1      -6.036  13.300   9.686  1.00  0.00     0.293 HD
ENDBRANCH  13  23
BRANCH  19  25
ATOM     25  C   UNL     1      -7.310  15.965   8.303  1.00  0.00     0.264 C 
ATOM     26  O   UNL     1      -8.269  15.910   9.118  1.00  0.00    -0.298 OA
ENDBRANCH  19  25
BRANCH  20  27
ATOM     27  C   UNL     1      -7.726  13.360   3.078  1.00  0.00     0.017 C 
ATOM     28  C   UNL     1      -9.124  12.736   3.007  1.00  0.00     0.012 C 
ATOM     29  C   UNL     1      -6.632  12.327   2.752  1.00  0.00     0.012 C 
ENDBRANCH  20  27
BRANCH  21  30
ATOM     30  O   UNL     1      -9.125  16.810   6.406  1.00  0.00    -0.504 OA
ATOM     31  H   UNL     1     -10.133  16.761   6.413  1.00  0.00     0.293 HD
ENDBRANCH  21  30
BRANCH  22  32
ATOM     32  O   UNL     1      -9.125  15.765   3.751  1.00  0.00    -0.504 OA
ATOM     33  H   UNL     1      -8.790  16.105   2.861  1.00  0.00     0.293 HD
ENDBRANCH  22  32
ENDBRANCH  11  12
BRANCH  10  34
ATOM     34  O   UNL     1      -5.104  10.166   8.466  1.00  0.00    -0.507 OA
ATOM     35  H   UNL     1      -6.020  10.595   8.486  1.00  0.00     0.293 HD
ENDBRANCH  10  34
BRANCH   9  36
ATOM     36  C   UNL     1      -0.028  11.503  11.954  1.00  0.00     0.017 C 
ATOM     37  C   UNL     1       1.105  11.899  10.996  1.00  0.00     0.012 C 
ATOM     38  C   UNL     1      -0.596  12.697  12.748  1.00  0.00     0.012 C 
ENDBRANCH   9  36
BRANCH   6  39
ATOM     39  C   UNL     1      -4.052   7.973   9.573  1.00  0.00     0.264 C 
ATOM     40  O   UNL     1      -5.022   7.520  10.235  1.00  0.00    -0.298 OA
ENDBRANCH   6  39
BRANCH   8  41
ATOM     41  O   UNL     1      -0.461   8.829  12.762  1.00  0.00    -0.504 OA
ATOM     42  H   UNL     1       0.031   7.946  12.701  1.00  0.00     0.293 HD
ENDBRANCH   8  41
BRANCH   7  43
ATOM     43  O   UNL     1      -2.369   7.180  11.706  1.00  0.00    -0.504 OA
ATOM     44  H   UNL     1      -1.943   6.372  11.271  1.00  0.00     0.293 HD
ENDBRANCH   7  43
TORSDOF 11
ENDMDL
MODEL 4
REMARK VINA RESULT:   114.414     12.505     16.072
REMARK INTER + INTRA:         171.279
REMARK INTER:                 169.779
REMARK INTRA:                   1.500
REMARK UNBOUND:                 3.355
REMARK SMILES Cc1cc2c(C(C)C)c(O)c(O)c(C=O)c2c(O)c1-c1c(C)cc2c(C(C)C)c(O)c(O)c(C=O)c2c1O
REMARK SMILES IDX 1 1 2 2 3 3 4 4 16 5 13 6 11 7 9 8 5 9 17 10 19 11 20 12
REMARK SMILES IDX 37 13 21 14 36 15 23 16 22 17 24 18 33 19 25 20 31 21 29 22
REMARK SMILES IDX 38 23 34 25 35 26 26 27 27 28 28 29 32 30 30 32 18 34 6 36
REMARK SMILES IDX 7 37 8 38 14 39 15 40 10 41 12 43
REMARK H PARENT 38 24 32 31 30 33 18 35 10 42 12 44
REMARK Flexibility Score: inf
ROOT
ATOM      1  C   UNL     1      -2.944  11.545   5.643  1.00  0.00     0.045 C 
ATOM      2  C   UNL     1      -4.098  12.372   6.158  1.00  0.00    -0.039 A 
ATOM      3  C   UNL     1      -5.048  12.861   5.260  1.00  0.00     0.013 A 
ATOM      4  C   UNL     1      -6.140  13.647   5.679  1.00  0.00    -0.006 A 
ATOM      5  C   UNL     1      -6.202  14.044   7.049  1.00  0.00     0.039 A 
ATOM      6  C   UNL     1      -7.182  14.999   7.451  1.00  0.00     0.072 A 
ATOM      7  C   UNL     1      -8.149  15.442   6.528  1.00  0.00     0.169 A 
ATOM      8  C   UNL     1      -8.146  14.968   5.212  1.00  0.00     0.162 A 
ATOM      9  C   UNL     1      -7.165  14.053   4.766  1.00  0.00     0.008 A 
ATOM     10  C   UNL     1      -5.301  13.449   7.982  1.00  0.00     0.132 A 
ATOM     11  C   UNL     1      -4.245  12.630   7.530  1.00  0.00     0.031 A 
ENDROOT
BRANCH  11  12
ATOM     12  C   UNL     1      -3.289  12.040   8.502  1.00  0.00     0.031 A 
ATOM     13  C   UNL     1      -3.693  10.976   9.338  1.00  0.00     0.132 A 
ATOM     14  C   UNL     1      -1.975  12.528   8.571  1.00  0.00    -0.039 A 
ATOM     15  C   UNL     1      -2.764  10.374  10.239  1.00  0.00     0.039 A 
ATOM     16  C   UNL     1      -1.098  12.008   9.524  1.00  0.00     0.013 A 
ATOM     17  C   UNL     1      -1.499  13.617   7.640  1.00  0.00     0.045 C 
ATOM     18  C   UNL     1      -1.487  10.985  10.415  1.00  0.00    -0.006 A 
ATOM     19  C   UNL     1      -3.076   9.201  10.988  1.00  0.00     0.072 A 
ATOM     20  C   UNL     1      -0.615  10.539  11.454  1.00  0.00     0.008 A 
ATOM     21  C   UNL     1      -2.149   8.686  11.914  1.00  0.00     0.169 A 
ATOM     22  C   UNL     1      -0.911   9.326  12.116  1.00  0.00     0.162 A 
BRANCH  13  23
ATOM     23  O   UNL     1      -5.023  10.542   9.297  1.00  0.00    -0.507 OA
ATOM     24  H   UNL     1      -5.820  11.163   9.255  1.00  0.00     0.293 HD
ENDBRANCH  13  23
BRANCH  19  25
ATOM     25  C   UNL     1      -4.308   8.412  10.745  1.00  0.00     0.264 C 
ATOM     26  O   UNL     1      -4.262   7.308  10.140  1.00  0.00    -0.298 OA
ENDBRANCH  19  25
BRANCH  20  27
ATOM     27  C   UNL     1       0.640  11.338  11.848  1.00  0.00     0.017 C 
ATOM     28  C   UNL     1       0.301  12.428  12.871  1.00  0.00     0.012 C 
ATOM     29  C   UNL     1       1.411  11.915  10.647  1.00  0.00     0.012 C 
ENDBRANCH  20  27
BRANCH  21  30
ATOM     30  O   UNL     1      -2.489   7.524  12.618  1.00  0.00    -0.504 OA
ATOM     31  H   UNL     1      -1.852   6.768  12.821  1.00  0.00     0.293 HD
ENDBRANCH  21  30
BRANCH  22  32
ATOM     32  O   UNL     1       0.064   8.757  12.942  1.00  0.00    -0.504 OA
ATOM     33  H   UNL     1      -0.122   8.103  13.688  1.00  0.00     0.293 HD
ENDBRANCH  22  32
ENDBRANCH  11  12
BRANCH  10  34
ATOM     34  O   UNL     1      -5.483  13.638   9.357  1.00  0.00    -0.507 OA
ATOM     35  H   UNL     1      -5.005  14.347   9.897  1.00  0.00     0.293 HD
ENDBRANCH  10  34
BRANCH   9  36
ATOM     36  C   UNL     1      -7.280  13.537   3.317  1.00  0.00     0.017 C 
ATOM     37  C   UNL     1      -6.219  12.474   2.998  1.00  0.00     0.012 C 
ATOM     38  C   UNL     1      -8.705  13.115   2.903  1.00  0.00     0.012 C 
ENDBRANCH   9  36
BRANCH   6  39
ATOM     39  C   UNL     1      -7.163  15.635   8.785  1.00  0.00     0.264 C 
ATOM     40  O   UNL     1      -7.904  16.624   9.030  1.00  0.00    -0.298 OA
ENDBRANCH   6  39
BRANCH   8  41
ATOM     41  O   UNL     1      -9.124  15.429   4.323  1.00  0.00    -0.504 OA
ATOM     42  H   UNL     1      -9.423  16.396   4.280  1.00  0.00     0.293 HD
ENDBRANCH   8  41
BRANCH   7  43
ATOM     43  O   UNL     1      -9.125  16.381   6.885  1.00  0.00    -0.504 OA
ATOM     44  H   UNL     1      -9.693  16.891   6.221  1.00  0.00     0.293 HD
ENDBRANCH   7  43
TORSDOF 11
ENDMDL
MODEL 5
REMARK VINA RESULT:   115.508     12.642     16.179
REMARK INTER + INTRA:         172.884
REMARK INTER:                 170.109
REMARK INTRA:                   2.775
REMARK UNBOUND:                 3.355
REMARK SMILES Cc1cc2c(C(C)C)c(O)c(O)c(C=O)c2c(O)c1-c1c(C)cc2c(C(C)C)c(O)c(O)c(C=O)c2c1O
REMARK SMILES IDX 1 1 2 2 3 3 4 4 16 5 13 6 11 7 9 8 5 9 17 10 19 11 20 12
REMARK SMILES IDX 37 13 21 14 36 15 23 16 22 17 24 18 33 19 25 20 31 21 29 22
REMARK SMILES IDX 38 23 34 25 35 26 26 27 27 28 28 29 32 30 30 32 18 34 6 36
REMARK SMILES IDX 7 37 8 38 14 39 15 40 10 41 12 43
REMARK H PARENT 38 24 32 31 30 33 18 35 10 42 12 44
REMARK Flexibility Score: inf
ROOT
ATOM      1  C   UNL     1      -3.732  10.982   5.499  1.00  0.00     0.045 C 
ATOM      2  C   UNL     1      -4.767  12.038   5.807  1.00  0.00    -0.039 A 
ATOM      3  C   UNL     1      -5.573  12.531   4.779  1.00  0.00     0.013 A 
ATOM      4  C   UNL     1      -6.548  13.523   5.001  1.00  0.00    -0.006 A 
ATOM      5  C   UNL     1      -6.627  14.115   6.299  1.00  0.00     0.039 A 
ATOM      6  C   UNL     1      -7.465  15.253   6.492  1.00  0.00     0.072 A 
ATOM      7  C   UNL     1      -8.292  15.701   5.444  1.00  0.00     0.169 A 
ATOM      8  C   UNL     1      -8.286  15.050   4.206  1.00  0.00     0.162 A 
ATOM      9  C   UNL     1      -7.440  13.945   3.964  1.00  0.00     0.008 A 
ATOM     10  C   UNL     1      -5.890  13.530   7.371  1.00  0.00     0.132 A 
ATOM     11  C   UNL     1      -4.953  12.506   7.116  1.00  0.00     0.031 A 
ENDROOT
BRANCH  11  12
ATOM     12  C   UNL     1      -4.163  11.923   8.231  1.00  0.00     0.031 A 
ATOM     13  C   UNL     1      -2.768  12.128   8.295  1.00  0.00     0.132 A 
ATOM     14  C   UNL     1      -4.812  11.186   9.234  1.00  0.00    -0.039 A 
ATOM     15  C   UNL     1      -2.012  11.611   9.390  1.00  0.00     0.039 A 
ATOM     16  C   UNL     1      -4.058  10.594  10.249  1.00  0.00     0.013 A 
ATOM     17  C   UNL     1      -6.312  11.012   9.226  1.00  0.00     0.045 C 
ATOM     18  C   UNL     1      -2.654  10.729  10.309  1.00  0.00    -0.006 A 
ATOM     19  C   UNL     1      -0.634  11.922   9.583  1.00  0.00     0.072 A 
ATOM     20  C   UNL     1      -1.887  10.030  11.289  1.00  0.00     0.008 A 
ATOM     21  C   UNL     1       0.084  11.331  10.640  1.00  0.00     0.169 A 
ATOM     22  C   UNL     1      -0.548  10.423  11.512  1.00  0.00     0.162 A 
BRANCH  13  23
ATOM     23  O   UNL     1      -2.130  12.815   7.256  1.00  0.00    -0.507 OA
ATOM     24  H   UNL     1      -1.859  13.788   7.304  1.00  0.00     0.293 HD
ENDBRANCH  13  23
BRANCH  19  25
ATOM     25  C   UNL     1       0.065  12.952   8.777  1.00  0.00     0.264 C 
ATOM     26  O   UNL     1       0.291  12.771   7.550  1.00  0.00    -0.298 OA
ENDBRANCH  19  25
BRANCH  20  27
ATOM     27  C   UNL     1      -2.492   8.878  12.112  1.00  0.00     0.017 C 
ATOM     28  C   UNL     1      -3.750   8.321  11.439  1.00  0.00     0.012 C 
ATOM     29  C   UNL     1      -2.756   9.239  13.585  1.00  0.00     0.012 C 
ENDBRANCH  20  27
BRANCH  21  30
ATOM     30  O   UNL     1       1.432  11.675  10.802  1.00  0.00    -0.504 OA
ATOM     31  H   UNL     1       2.193  11.012  10.836  1.00  0.00     0.293 HD
ENDBRANCH  21  30
BRANCH  22  32
ATOM     32  O   UNL     1       0.120   9.925  12.636  1.00  0.00    -0.504 OA
ATOM     33  H   UNL     1       0.548  10.494  13.351  1.00  0.00     0.293 HD
ENDBRANCH  22  32
ENDBRANCH  11  12
BRANCH  10  34
ATOM     34  O   UNL     1      -6.121  13.937   8.690  1.00  0.00    -0.507 OA
ATOM     35  H   UNL     1      -5.430  13.880   9.427  1.00  0.00     0.293 HD
ENDBRANCH  10  34
BRANCH   9  36
ATOM     36  C   UNL     1      -7.549  13.252   2.590  1.00  0.00     0.017 C 
ATOM     37  C   UNL     1      -6.462  12.185   2.395  1.00  0.00     0.012 C 
ATOM     38  C   UNL     1      -8.965  12.746   2.244  1.00  0.00     0.012 C 
ENDBRANCH   9  36
BRANCH   6  39
ATOM     39  C   UNL     1      -7.424  16.062   7.729  1.00  0.00     0.264 C 
ATOM     40  O   UNL     1      -8.210  15.812   8.680  1.00  0.00    -0.298 OA
ENDBRANCH   6  39
BRANCH   8  41
ATOM     41  O   UNL     1      -9.124  15.522   3.188  1.00  0.00    -0.504 OA
ATOM     42  H   UNL     1      -9.853  16.208   3.344  1.00  0.00     0.293 HD
ENDBRANCH   8  41
BRANCH   7  43
ATOM     43  O   UNL     1      -9.125  16.817   5.596  1.00  0.00    -0.504 OA
ATOM     44  H   UNL     1      -9.080  17.643   5.014  1.00  0.00     0.293 HD
ENDBRANCH   7  43
TORSDOF 11
ENDMDL
