MODEL 1
REMARK VINA RESULT:    -4.931      0.000      0.000
REMARK INTER + INTRA:          -7.553
REMARK INTER:                  -7.237
REMARK INTRA:                  -0.316
REMARK UNBOUND:                -0.316
REMARK SMILES O=C([O-])CCCCCCCC(=O)[O-]
REMARK SMILES IDX 7 1 6 2 5 3 4 4 2 5 1 6 3 7 8 8 9 9 10 10 11 11 12 12 13 13
REMARK H PARENT
REMARK Flexibility Score: inf
ROOT
ATOM      1  C   UNL     1       3.534 -29.087   1.308  1.00  0.00     0.000 C 
ENDROOT
BRANCH   1   2
ATOM      2  C   UNL     1       4.030 -29.656   2.652  1.00  0.00     0.000 C 
BRANCH   2   3
ATOM      3  C   UNL     1       3.193 -29.202   3.866  1.00  0.00     0.006 C 
BRANCH   3   4
ATOM      4  C   UNL     1       3.376 -30.126   5.077  1.00  0.00     0.053 C 
BRANCH   4   5
ATOM      5  C   UNL     1       2.335 -29.845   6.113  1.00  0.00     0.041 C 
ATOM      6  O   UNL     1       2.397 -28.794   6.806  1.00  0.00    -0.550 OA
ATOM      7  O   UNL     1       1.323 -30.767   6.351  1.00  0.00    -0.550 OA
ENDBRANCH   4   5
ENDBRANCH   3   4
ENDBRANCH   2   3
ENDBRANCH   1   2
BRANCH   1   8
ATOM      8  C   UNL     1       2.156 -28.407   1.361  1.00  0.00     0.000 C 
BRANCH   8   9
ATOM      9  C   UNL     1       1.469 -28.344  -0.013  1.00  0.00     0.006 C 
BRANCH   9  10
ATOM     10  C   UNL     1       1.634 -26.971  -0.679  1.00  0.00     0.053 C 
BRANCH  10  11
ATOM     11  C   UNL     1       2.524 -27.037  -1.882  1.00  0.00     0.041 C 
ATOM     12  O   UNL     1       3.729 -27.380  -1.760  1.00  0.00    -0.550 OA
ATOM     13  O   UNL     1       2.014 -26.749  -3.142  1.00  0.00    -0.550 OA
ENDBRANCH  10  11
ENDBRANCH   9  10
ENDBRANCH   8   9
ENDBRANCH   1   8
TORSDOF 8
ENDMDL
MODEL 2
REMARK VINA RESULT:    -4.869      2.508      3.100
REMARK INTER + INTRA:          -7.463
REMARK INTER:                  -7.248
REMARK INTRA:                  -0.215
REMARK UNBOUND:                -0.316
REMARK SMILES O=C([O-])CCCCCCCC(=O)[O-]
REMARK SMILES IDX 7 1 6 2 5 3 4 4 2 5 1 6 3 7 8 8 9 9 10 10 11 11 12 12 13 13
REMARK H PARENT
REMARK Flexibility Score: inf
ROOT
ATOM      1  C   UNL     1       2.643 -28.138   0.170  1.00  0.00     0.000 C 
ENDROOT
BRANCH   1   2
ATOM      2  C   UNL     1       3.483 -28.951   1.175  1.00  0.00     0.000 C 
BRANCH   2   3
ATOM      3  C   UNL     1       2.975 -28.857   2.630  1.00  0.00     0.006 C 
BRANCH   3   4
ATOM      4  C   UNL     1       3.896 -29.587   3.616  1.00  0.00     0.053 C 
BRANCH   4   5
ATOM      5  C   UNL     1       3.116 -30.085   4.791  1.00  0.00     0.041 C 
ATOM      6  O   UNL     1       2.598 -31.234   4.767  1.00  0.00    -0.550 OA
ATOM      7  O   UNL     1       2.916 -29.263   5.893  1.00  0.00    -0.550 OA
ENDBRANCH   4   5
ENDBRANCH   3   4
ENDBRANCH   2   3
ENDBRANCH   1   2
BRANCH   1   8
ATOM      8  C   UNL     1       1.257 -27.712   0.680  1.00  0.00     0.000 C 
BRANCH   8   9
ATOM      9  C   UNL     1       0.504 -26.815  -0.317  1.00  0.00     0.006 C 
BRANCH   9  10
ATOM     10  C   UNL     1      -0.981 -26.671   0.041  1.00  0.00     0.053 C 
BRANCH  10  11
ATOM     11  C   UNL     1      -1.573 -25.416  -0.526  1.00  0.00     0.041 C 
ATOM     12  O   UNL     1      -2.357 -24.717   0.167  1.00  0.00    -0.550 OA
ATOM     13  O   UNL     1      -1.233 -25.004  -1.808  1.00  0.00    -0.550 OA
ENDBRANCH  10  11
ENDBRANCH   9  10
ENDBRANCH   8   9
ENDBRANCH   1   8
TORSDOF 8
ENDMDL
MODEL 3
REMARK VINA RESULT:    -4.860      0.762      1.296
REMARK INTER + INTRA:          -7.449
REMARK INTER:                  -7.175
REMARK INTRA:                  -0.275
REMARK UNBOUND:                -0.316
REMARK SMILES O=C([O-])CCCCCCCC(=O)[O-]
REMARK SMILES IDX 7 1 6 2 5 3 4 4 2 5 1 6 3 7 8 8 9 9 10 10 11 11 12 12 13 13
REMARK H PARENT
REMARK Flexibility Score: inf
ROOT
ATOM      1  C   UNL     1       3.674 -29.336   1.548  1.00  0.00     0.000 C 
ENDROOT
BRANCH   1   2
ATOM      2  C   UNL     1       4.283 -29.656   2.927  1.00  0.00     0.000 C 
BRANCH   2   3
ATOM      3  C   UNL     1       3.364 -29.293   4.113  1.00  0.00     0.006 C 
BRANCH   3   4
ATOM      4  C   UNL     1       2.829 -30.535   4.835  1.00  0.00     0.053 C 
BRANCH   4   5
ATOM      5  C   UNL     1       2.055 -30.140   6.053  1.00  0.00     0.041 C 
ATOM      6  O   UNL     1       1.048 -30.809   6.410  1.00  0.00    -0.550 OA
ATOM      7  O   UNL     1       2.414 -29.004   6.768  1.00  0.00    -0.550 OA
ENDBRANCH   4   5
ENDBRANCH   3   4
ENDBRANCH   2   3
ENDBRANCH   1   2
BRANCH   1   8
ATOM      8  C   UNL     1       2.502 -28.340   1.573  1.00  0.00     0.000 C 
BRANCH   8   9
ATOM      9  C   UNL     1       1.778 -28.237   0.220  1.00  0.00     0.006 C 
BRANCH   9  10
ATOM     10  C   UNL     1       2.716 -27.780  -0.904  1.00  0.00     0.053 C 
BRANCH  10  11
ATOM     11  C   UNL     1       1.997 -26.964  -1.935  1.00  0.00     0.041 C 
ATOM     12  O   UNL     1       2.419 -26.927  -3.121  1.00  0.00    -0.550 OA
ATOM     13  O   UNL     1       0.843 -26.271  -1.593  1.00  0.00    -0.550 OA
ENDBRANCH  10  11
ENDBRANCH   9  10
ENDBRANCH   8   9
ENDBRANCH   1   8
TORSDOF 8
ENDMDL
MODEL 4
REMARK VINA RESULT:    -4.857      2.063      2.372
REMARK INTER + INTRA:          -7.445
REMARK INTER:                  -7.153
REMARK INTRA:                  -0.291
REMARK UNBOUND:                -0.316
REMARK SMILES O=C([O-])CCCCCCCC(=O)[O-]
REMARK SMILES IDX 7 1 6 2 5 3 4 4 2 5 1 6 3 7 8 8 9 9 10 10 11 11 12 12 13 13
REMARK H PARENT
REMARK Flexibility Score: inf
ROOT
ATOM      1  C   UNL     1       3.504 -28.853   0.841  1.00  0.00     0.000 C 
ENDROOT
BRANCH   1   2
ATOM      2  C   UNL     1       2.901 -28.859   2.260  1.00  0.00     0.000 C 
BRANCH   2   3
ATOM      3  C   UNL     1       3.808 -29.521   3.318  1.00  0.00     0.006 C 
BRANCH   3   4
ATOM      4  C   UNL     1       3.083 -30.625   4.098  1.00  0.00     0.053 C 
BRANCH   4   5
ATOM      5  C   UNL     1       3.118 -30.340   5.566  1.00  0.00     0.041 C 
ATOM      6  O   UNL     1       2.905 -29.173   5.990  1.00  0.00    -0.550 OA
ATOM      7  O   UNL     1       3.436 -31.351   6.464  1.00  0.00    -0.550 OA
ENDBRANCH   4   5
ENDBRANCH   3   4
ENDBRANCH   2   3
ENDBRANCH   1   2
BRANCH   1   8
ATOM      8  C   UNL     1       2.642 -28.157  -0.226  1.00  0.00     0.000 C 
BRANCH   8   9
ATOM      9  C   UNL     1       1.234 -27.803   0.283  1.00  0.00     0.006 C 
BRANCH   9  10
ATOM     10  C   UNL     1       0.841 -26.360  -0.060  1.00  0.00     0.053 C 
BRANCH  10  11
ATOM     11  C   UNL     1      -0.603 -26.251  -0.445  1.00  0.00     0.041 C 
ATOM     12  O   UNL     1      -1.486 -26.834   0.238  1.00  0.00    -0.550 OA
ATOM     13  O   UNL     1      -0.976 -25.479  -1.537  1.00  0.00    -0.550 OA
ENDBRANCH  10  11
ENDBRANCH   9  10
ENDBRANCH   8   9
ENDBRANCH   1   8
TORSDOF 8
ENDMDL
MODEL 5
REMARK VINA RESULT:    -4.809      0.606      7.108
REMARK INTER + INTRA:          -7.374
REMARK INTER:                  -7.058
REMARK INTRA:                  -0.316
REMARK UNBOUND:                -0.316
REMARK SMILES O=C([O-])CCCCCCCC(=O)[O-]
REMARK SMILES IDX 7 1 6 2 5 3 4 4 2 5 1 6 3 7 8 8 9 9 10 10 11 11 12 12 13 13
REMARK H PARENT
REMARK Flexibility Score: inf
ROOT
ATOM      1  C   UNL     1       3.698 -28.993   1.298  1.00  0.00     0.000 C 
ENDROOT
BRANCH   1   2
ATOM      2  C   UNL     1       2.338 -28.269   1.256  1.00  0.00     0.000 C 
BRANCH   2   3
ATOM      3  C   UNL     1       1.620 -28.370  -0.106  1.00  0.00     0.006 C 
BRANCH   3   4
ATOM      4  C   UNL     1       1.615 -27.034  -0.861  1.00  0.00     0.053 C 
BRANCH   4   5
ATOM      5  C   UNL     1       2.621 -27.054  -1.967  1.00  0.00     0.041 C 
ATOM      6  O   UNL     1       3.851 -27.140  -1.705  1.00  0.00    -0.550 OA
ATOM      7  O   UNL     1       2.208 -26.925  -3.287  1.00  0.00    -0.550 OA
ENDBRANCH   4   5
ENDBRANCH   3   4
ENDBRANCH   2   3
ENDBRANCH   1   2
BRANCH   1   8
ATOM      8  C   UNL     1       4.004 -29.722   2.617  1.00  0.00     0.000 C 
BRANCH   8   9
ATOM      9  C   UNL     1       3.097 -29.267   3.773  1.00  0.00     0.006 C 
BRANCH   9  10
ATOM     10  C   UNL     1       3.543 -29.850   5.121  1.00  0.00     0.053 C 
BRANCH  10  11
ATOM     11  C   UNL     1       2.445 -30.621   5.787  1.00  0.00     0.041 C 
ATOM     12  O   UNL     1       2.329 -31.859   5.587  1.00  0.00    -0.550 OA
ATOM     13  O   UNL     1       1.570 -29.979   6.653  1.00  0.00    -0.550 OA
ENDBRANCH  10  11
ENDBRANCH   9  10
ENDBRANCH   8   9
ENDBRANCH   1   8
TORSDOF 8
ENDMDL
MODEL 6
REMARK VINA RESULT:    -4.807      2.173      6.900
REMARK INTER + INTRA:          -7.371
REMARK INTER:                  -7.168
REMARK INTRA:                  -0.203
REMARK UNBOUND:                -0.316
REMARK SMILES O=C([O-])CCCCCCCC(=O)[O-]
REMARK SMILES IDX 7 1 6 2 5 3 4 4 2 5 1 6 3 7 8 8 9 9 10 10 11 11 12 12 13 13
REMARK H PARENT
REMARK Flexibility Score: inf
ROOT
ATOM      1  C   UNL     1       2.396 -29.514   1.719  1.00  0.00     0.000 C 
ENDROOT
BRANCH   1   2
ATOM      2  C   UNL     1       2.223 -28.580   0.505  1.00  0.00     0.000 C 
BRANCH   2   3
ATOM      3  C   UNL     1       1.270 -27.394   0.763  1.00  0.00     0.006 C 
BRANCH   3   4
ATOM      4  C   UNL     1       0.759 -26.764  -0.539  1.00  0.00     0.053 C 
BRANCH   4   5
ATOM      5  C   UNL     1      -0.634 -26.250  -0.361  1.00  0.00     0.041 C 
ATOM      6  O   UNL     1      -0.965 -25.135  -0.846  1.00  0.00    -0.550 OA
ATOM      7  O   UNL     1      -1.554 -26.977   0.383  1.00  0.00    -0.550 OA
ENDBRANCH   4   5
ENDBRANCH   3   4
ENDBRANCH   2   3
ENDBRANCH   1   2
BRANCH   1   8
ATOM      8  C   UNL     1       3.223 -28.927   2.875  1.00  0.00     0.000 C 
BRANCH   8   9
ATOM      9  C   UNL     1       3.615 -29.981   3.923  1.00  0.00     0.006 C 
BRANCH   9  10
ATOM     10  C   UNL     1       3.125 -29.609   5.329  1.00  0.00     0.053 C 
BRANCH  10  11
ATOM     11  C   UNL     1       2.227 -30.662   5.904  1.00  0.00     0.041 C 
ATOM     12  O   UNL     1       1.109 -30.345   6.387  1.00  0.00    -0.550 OA
ATOM     13  O   UNL     1       2.612 -31.996   5.876  1.00  0.00    -0.550 OA
ENDBRANCH  10  11
ENDBRANCH   9  10
ENDBRANCH   8   9
ENDBRANCH   1   8
TORSDOF 8
ENDMDL
MODEL 7
REMARK VINA RESULT:    -4.792      0.795      7.128
REMARK INTER + INTRA:          -7.349
REMARK INTER:                  -7.069
REMARK INTRA:                  -0.279
REMARK UNBOUND:                -0.316
REMARK SMILES O=C([O-])CCCCCCCC(=O)[O-]
REMARK SMILES IDX 7 1 6 2 5 3 4 4 2 5 1 6 3 7 8 8 9 9 10 10 11 11 12 12 13 13
REMARK H PARENT
REMARK Flexibility Score: inf
ROOT
ATOM      1  C   UNL     1       3.895 -29.227   1.637  1.00  0.00     0.000 C 
ENDROOT
BRANCH   1   2
ATOM      2  C   UNL     1       2.373 -29.162   1.399  1.00  0.00     0.000 C 
BRANCH   2   3
ATOM      3  C   UNL     1       1.960 -28.190   0.273  1.00  0.00     0.006 C 
BRANCH   3   4
ATOM      4  C   UNL     1       3.037 -28.067  -0.812  1.00  0.00     0.053 C 
BRANCH   4   5
ATOM      5  C   UNL     1       2.548 -27.215  -1.941  1.00  0.00     0.041 C 
ATOM      6  O   UNL     1       3.236 -27.096  -2.990  1.00  0.00    -0.550 OA
ATOM      7  O   UNL     1       1.357 -26.512  -1.816  1.00  0.00    -0.550 OA
ENDBRANCH   4   5
ENDBRANCH   3   4
ENDBRANCH   2   3
ENDBRANCH   1   2
BRANCH   1   8
ATOM      8  C   UNL     1       4.312 -29.724   3.031  1.00  0.00     0.000 C 
BRANCH   8   9
ATOM      9  C   UNL     1       3.382 -29.218   4.147  1.00  0.00     0.006 C 
BRANCH   9  10
ATOM     10  C   UNL     1       3.413 -30.128   5.382  1.00  0.00     0.053 C 
BRANCH  10  11
ATOM     11  C   UNL     1       2.317 -29.795   6.348  1.00  0.00     0.041 C 
ATOM     12  O   UNL     1       2.393 -28.761   7.061  1.00  0.00    -0.550 OA
ATOM     13  O   UNL     1       1.197 -30.612   6.437  1.00  0.00    -0.550 OA
ENDBRANCH  10  11
ENDBRANCH   9  10
ENDBRANCH   8   9
ENDBRANCH   1   8
TORSDOF 8
ENDMDL
MODEL 8
REMARK VINA RESULT:    -4.753      3.631      6.814
REMARK INTER + INTRA:          -7.292
REMARK INTER:                  -7.028
REMARK INTRA:                  -0.264
REMARK UNBOUND:                -0.316
REMARK SMILES O=C([O-])CCCCCCCC(=O)[O-]
REMARK SMILES IDX 7 1 6 2 5 3 4 4 2 5 1 6 3 7 8 8 9 9 10 10 11 11 12 12 13 13
REMARK H PARENT
REMARK Flexibility Score: inf
ROOT
ATOM      1  C   UNL     1       0.965 -27.660  -0.269  1.00  0.00     0.000 C 
ENDROOT
BRANCH   1   2
ATOM      2  C   UNL     1       0.388 -26.232  -0.314  1.00  0.00     0.000 C 
BRANCH   2   3
ATOM      3  C   UNL     1      -1.153 -26.180  -0.232  1.00  0.00     0.006 C 
BRANCH   3   4
ATOM      4  C   UNL     1      -1.736 -24.982  -0.992  1.00  0.00     0.053 C 
BRANCH   4   5
ATOM      5  C   UNL     1      -2.080 -23.877  -0.044  1.00  0.00     0.041 C 
ATOM      6  O   UNL     1      -3.247 -23.782   0.422  1.00  0.00    -0.550 OA
ATOM      7  O   UNL     1      -1.127 -22.921   0.286  1.00  0.00    -0.550 OA
ENDBRANCH   4   5
ENDBRANCH   3   4
ENDBRANCH   2   3
ENDBRANCH   1   2
BRANCH   1   8
ATOM      8  C   UNL     1       2.458 -27.767  -0.620  1.00  0.00     0.000 C 
BRANCH   8   9
ATOM      9  C   UNL     1       3.236 -28.670   0.353  1.00  0.00     0.006 C 
BRANCH   9  10
ATOM     10  C   UNL     1       2.660 -28.620   1.774  1.00  0.00     0.053 C 
BRANCH  10  11
ATOM     11  C   UNL     1       3.595 -29.222   2.777  1.00  0.00     0.041 C 
ATOM     12  O   UNL     1       4.691 -29.716   2.405  1.00  0.00    -0.550 OA
ATOM     13  O   UNL     1       3.270 -29.209   4.127  1.00  0.00    -0.550 OA
ENDBRANCH  10  11
ENDBRANCH   9  10
ENDBRANCH   8   9
ENDBRANCH   1   8
TORSDOF 8
ENDMDL
MODEL 9
REMARK VINA RESULT:    -4.724      5.590      7.647
REMARK INTER + INTRA:          -7.249
REMARK INTER:                  -6.721
REMARK INTRA:                  -0.529
REMARK UNBOUND:                -0.316
REMARK SMILES O=C([O-])CCCCCCCC(=O)[O-]
REMARK SMILES IDX 7 1 6 2 5 3 4 4 2 5 1 6 3 7 8 8 9 9 10 10 11 11 12 12 13 13
REMARK H PARENT
REMARK Flexibility Score: inf
ROOT
ATOM      1  C   UNL     1      -2.386 -24.590  -1.676  1.00  0.00     0.000 C 
ENDROOT
BRANCH   1   2
ATOM      2  C   UNL     1      -1.254 -24.793  -0.650  1.00  0.00     0.000 C 
BRANCH   2   3
ATOM      3  C   UNL     1      -0.280 -25.933  -1.017  1.00  0.00     0.006 C 
BRANCH   3   4
ATOM      4  C   UNL     1      -0.226 -27.022   0.062  1.00  0.00     0.053 C 
BRANCH   4   5
ATOM      5  C   UNL     1       1.152 -27.595   0.160  1.00  0.00     0.041 C 
ATOM      6  O   UNL     1       1.635 -27.896   1.284  1.00  0.00    -0.550 OA
ATOM      7  O   UNL     1       1.925 -27.750  -0.984  1.00  0.00    -0.550 OA
ENDBRANCH   4   5
ENDBRANCH   3   4
ENDBRANCH   2   3
ENDBRANCH   1   2
BRANCH   1   8
ATOM      8  C   UNL     1      -3.700 -25.319  -1.344  1.00  0.00     0.000 C 
BRANCH   8   9
ATOM      9  C   UNL     1      -3.910 -25.510   0.167  1.00  0.00     0.006 C 
BRANCH   9  10
ATOM     10  C   UNL     1      -5.115 -24.716   0.689  1.00  0.00     0.053 C 
BRANCH  10  11
ATOM     11  C   UNL     1      -4.695 -23.570   1.557  1.00  0.00     0.041 C 
ATOM     12  O   UNL     1      -3.613 -22.967   1.332  1.00  0.00    -0.550 OA
ATOM     13  O   UNL     1      -5.514 -23.147   2.597  1.00  0.00    -0.550 OA
ENDBRANCH  10  11
ENDBRANCH   9  10
ENDBRANCH   8   9
ENDBRANCH   1   8
TORSDOF 8
ENDMDL
