MODEL 1
REMARK VINA RESULT:    -2.323      0.000      0.000
REMARK INTER + INTRA:          -3.279
REMARK INTER:                  -3.002
REMARK INTRA:                  -0.278
REMARK UNBOUND:                -0.278
REMARK SMILES CCCCCCC=O
REMARK SMILES IDX 4 1 3 2 2 3 1 4 5 5 6 6 7 7 8 8
REMARK H PARENT
REMARK Flexibility Score: inf
ROOT
ATOM      1  C   UNL     1     135.579 142.460 141.419  1.00  0.00     0.000 C 
ENDROOT
BRANCH   1   2
ATOM      2  C   UNL     1     134.129 142.534 141.914  1.00  0.00    -0.000 C 
BRANCH   2   3
ATOM      3  C   UNL     1     133.209 141.663 141.050  1.00  0.00    -0.003 C 
ATOM      4  C   UNL     1     133.501 140.180 141.257  1.00  0.00     0.004 C 
ENDBRANCH   2   3
ENDBRANCH   1   2
BRANCH   1   5
ATOM      5  C   UNL     1     136.526 142.042 142.555  1.00  0.00     0.008 C 
BRANCH   5   6
ATOM      6  C   UNL     1     135.803 141.944 143.905  1.00  0.00     0.072 C 
BRANCH   6   7
ATOM      7  C   UNL     1     136.598 142.549 145.026  1.00  0.00     0.224 C 
ATOM      8  O   UNL     1     137.737 142.938 144.823  1.00  0.00    -0.303 OA
ENDBRANCH   6   7
ENDBRANCH   5   6
ENDBRANCH   1   5
TORSDOF 5
ENDMDL
MODEL 2
REMARK VINA RESULT:    -2.260      7.635      8.253
REMARK INTER + INTRA:          -3.199
REMARK INTER:                  -2.934
REMARK INTRA:                  -0.265
REMARK UNBOUND:                -0.278
REMARK SMILES CCCCCCC=O
REMARK SMILES IDX 4 1 3 2 2 3 1 4 5 5 6 6 7 7 8 8
REMARK H PARENT
REMARK Flexibility Score: inf
ROOT
ATOM      1  C   UNL     1     139.197 135.740 141.819  1.00  0.00     0.000 C 
ENDROOT
BRANCH   1   2
ATOM      2  C   UNL     1     139.435 134.240 142.032  1.00  0.00    -0.000 C 
BRANCH   2   3
ATOM      3  C   UNL     1     140.327 133.663 140.927  1.00  0.00    -0.003 C 
ATOM      4  C   UNL     1     141.702 133.284 141.471  1.00  0.00     0.004 C 
ENDBRANCH   2   3
ENDBRANCH   1   2
BRANCH   1   5
ATOM      5  C   UNL     1     140.023 136.573 142.812  1.00  0.00     0.008 C 
BRANCH   5   6
ATOM      6  C   UNL     1     139.939 136.021 144.241  1.00  0.00     0.072 C 
BRANCH   6   7
ATOM      7  C   UNL     1     138.893 136.718 145.063  1.00  0.00     0.224 C 
ATOM      8  O   UNL     1     138.672 137.905 144.886  1.00  0.00    -0.303 OA
ENDBRANCH   6   7
ENDBRANCH   5   6
ENDBRANCH   1   5
TORSDOF 5
ENDMDL
MODEL 3
REMARK VINA RESULT:    -2.256      2.321      4.397
REMARK INTER + INTRA:          -3.193
REMARK INTER:                  -3.005
REMARK INTRA:                  -0.187
REMARK UNBOUND:                -0.278
REMARK SMILES CCCCCCC=O
REMARK SMILES IDX 4 1 3 2 2 3 1 4 5 5 6 6 7 7 8 8
REMARK H PARENT
REMARK Flexibility Score: inf
ROOT
ATOM      1  C   UNL     1     135.841 142.202 141.576  1.00  0.00     0.000 C 
ENDROOT
BRANCH   1   2
ATOM      2  C   UNL     1     136.870 142.092 142.707  1.00  0.00    -0.000 C 
BRANCH   2   3
ATOM      3  C   UNL     1     136.178 141.940 144.067  1.00  0.00    -0.003 C 
ATOM      4  C   UNL     1     136.844 142.815 145.125  1.00  0.00     0.004 C 
ENDBRANCH   2   3
ENDBRANCH   1   2
BRANCH   1   5
ATOM      5  C   UNL     1     134.410 142.236 142.136  1.00  0.00     0.008 C 
BRANCH   5   6
ATOM      6  C   UNL     1     133.352 142.174 141.025  1.00  0.00     0.072 C 
BRANCH   6   7
ATOM      7  C   UNL     1     132.841 140.780 140.800  1.00  0.00     0.224 C 
ATOM      8  O   UNL     1     133.136 139.890 141.581  1.00  0.00    -0.303 OA
ENDBRANCH   6   7
ENDBRANCH   5   6
ENDBRANCH   1   5
TORSDOF 5
ENDMDL
MODEL 4
REMARK VINA RESULT:    -2.242      8.273      9.153
REMARK INTER + INTRA:          -3.176
REMARK INTER:                  -2.913
REMARK INTRA:                  -0.262
REMARK UNBOUND:                -0.278
REMARK SMILES CCCCCCC=O
REMARK SMILES IDX 4 1 3 2 2 3 1 4 5 5 6 6 7 7 8 8
REMARK H PARENT
REMARK Flexibility Score: inf
ROOT
ATOM      1  C   UNL     1     139.236 135.723 141.308  1.00  0.00     0.000 C 
ENDROOT
BRANCH   1   2
ATOM      2  C   UNL     1     139.503 136.665 142.489  1.00  0.00    -0.000 C 
BRANCH   2   3
ATOM      3  C   UNL     1     139.658 135.878 143.795  1.00  0.00    -0.003 C 
ATOM      4  C   UNL     1     138.971 136.595 144.954  1.00  0.00     0.004 C 
ENDBRANCH   2   3
ENDBRANCH   1   2
BRANCH   1   5
ATOM      5  C   UNL     1     138.883 134.311 141.801  1.00  0.00     0.008 C 
BRANCH   5   6
ATOM      6  C   UNL     1     139.703 133.227 141.087  1.00  0.00     0.072 C 
BRANCH   6   7
ATOM      7  C   UNL     1     141.133 133.635 140.882  1.00  0.00     0.224 C 
ATOM      8  O   UNL     1     142.020 133.078 141.508  1.00  0.00    -0.303 OA
ENDBRANCH   6   7
ENDBRANCH   5   6
ENDBRANCH   1   5
TORSDOF 5
ENDMDL
MODEL 5
REMARK VINA RESULT:    -2.240      2.688      4.720
REMARK INTER + INTRA:          -3.173
REMARK INTER:                  -3.030
REMARK INTRA:                  -0.142
REMARK UNBOUND:                -0.278
REMARK SMILES CCCCCCC=O
REMARK SMILES IDX 4 1 3 2 2 3 1 4 5 5 6 6 7 7 8 8
REMARK H PARENT
REMARK Flexibility Score: inf
ROOT
ATOM      1  C   UNL     1     134.946 140.945 141.561  1.00  0.00     0.000 C 
ENDROOT
BRANCH   1   2
ATOM      2  C   UNL     1     134.965 141.770 142.854  1.00  0.00    -0.000 C 
BRANCH   2   3
ATOM      3  C   UNL     1     136.403 142.079 143.287  1.00  0.00    -0.003 C 
ATOM      4  C   UNL     1     136.462 142.463 144.762  1.00  0.00     0.004 C 
ENDBRANCH   2   3
ENDBRANCH   1   2
BRANCH   1   5
ATOM      5  C   UNL     1     133.588 140.250 141.372  1.00  0.00     0.008 C 
BRANCH   5   6
ATOM      6  C   UNL     1     132.866 140.726 140.103  1.00  0.00     0.072 C 
BRANCH   6   7
ATOM      7  C   UNL     1     131.734 141.664 140.408  1.00  0.00     0.224 C 
ATOM      8  O   UNL     1     131.950 142.703 141.009  1.00  0.00    -0.303 OA
ENDBRANCH   6   7
ENDBRANCH   5   6
ENDBRANCH   1   5
TORSDOF 5
ENDMDL
MODEL 6
REMARK VINA RESULT:    -2.219      8.268      9.330
REMARK INTER + INTRA:          -3.145
REMARK INTER:                  -2.749
REMARK INTRA:                  -0.396
REMARK UNBOUND:                -0.278
REMARK SMILES CCCCCCC=O
REMARK SMILES IDX 4 1 3 2 2 3 1 4 5 5 6 6 7 7 8 8
REMARK H PARENT
REMARK Flexibility Score: inf
ROOT
ATOM      1  C   UNL     1     140.268 148.332 140.861  1.00  0.00     0.000 C 
ENDROOT
BRANCH   1   2
ATOM      2  C   UNL     1     140.624 148.583 139.390  1.00  0.00    -0.000 C 
BRANCH   2   3
ATOM      3  C   UNL     1     141.680 149.687 139.260  1.00  0.00    -0.003 C 
ATOM      4  C   UNL     1     141.748 150.534 140.528  1.00  0.00     0.004 C 
ENDBRANCH   2   3
ENDBRANCH   1   2
BRANCH   1   5
ATOM      5  C   UNL     1     140.625 146.896 141.276  1.00  0.00     0.008 C 
BRANCH   5   6
ATOM      6  C   UNL     1     141.626 146.862 142.439  1.00  0.00     0.072 C 
BRANCH   6   7
ATOM      7  C   UNL     1     142.981 147.376 142.043  1.00  0.00     0.224 C 
ATOM      8  O   UNL     1     143.491 147.004 140.999  1.00  0.00    -0.303 OA
ENDBRANCH   6   7
ENDBRANCH   5   6
ENDBRANCH   1   5
TORSDOF 5
ENDMDL
MODEL 7
REMARK VINA RESULT:    -2.217      7.795      8.839
REMARK INTER + INTRA:          -3.143
REMARK INTER:                  -2.991
REMARK INTRA:                  -0.152
REMARK UNBOUND:                -0.278
REMARK SMILES CCCCCCC=O
REMARK SMILES IDX 4 1 3 2 2 3 1 4 5 5 6 6 7 7 8 8
REMARK H PARENT
REMARK Flexibility Score: inf
ROOT
ATOM      1  C   UNL     1     140.034 136.341 143.025  1.00  0.00     0.000 C 
ENDROOT
BRANCH   1   2
ATOM      2  C   UNL     1     139.940 136.143 144.543  1.00  0.00    -0.000 C 
BRANCH   2   3
ATOM      3  C   UNL     1     138.753 136.920 145.125  1.00  0.00    -0.003 C 
ATOM      4  C   UNL     1     138.794 138.386 144.703  1.00  0.00     0.004 C 
ENDBRANCH   2   3
ENDBRANCH   1   2
BRANCH   1   5
ATOM      5  C   UNL     1     140.195 134.993 142.304  1.00  0.00     0.008 C 
BRANCH   5   6
ATOM      6  C   UNL     1     138.845 134.309 142.049  1.00  0.00     0.072 C 
BRANCH   6   7
ATOM      7  C   UNL     1     138.948 133.198 141.044  1.00  0.00     0.224 C 
ATOM      8  O   UNL     1     138.133 132.290 141.055  1.00  0.00    -0.303 OA
ENDBRANCH   6   7
ENDBRANCH   5   6
ENDBRANCH   1   5
TORSDOF 5
ENDMDL
MODEL 8
REMARK VINA RESULT:    -2.190      9.890     11.270
REMARK INTER + INTRA:          -3.108
REMARK INTER:                  -2.888
REMARK INTRA:                  -0.220
REMARK UNBOUND:                -0.278
REMARK SMILES CCCCCCC=O
REMARK SMILES IDX 4 1 3 2 2 3 1 4 5 5 6 6 7 7 8 8
REMARK H PARENT
REMARK Flexibility Score: inf
ROOT
ATOM      1  C   UNL     1     144.807 139.663 142.774  1.00  0.00     0.000 C 
ENDROOT
BRANCH   1   2
ATOM      2  C   UNL     1     145.497 139.558 144.139  1.00  0.00    -0.000 C 
BRANCH   2   3
ATOM      3  C   UNL     1     144.644 138.751 145.125  1.00  0.00    -0.003 C 
ATOM      4  C   UNL     1     143.171 138.779 144.728  1.00  0.00     0.004 C 
ENDBRANCH   2   3
ENDBRANCH   1   2
BRANCH   1   5
ATOM      5  C   UNL     1     145.787 140.164 141.700  1.00  0.00     0.008 C 
BRANCH   5   6
ATOM      6  C   UNL     1     147.250 140.024 142.142  1.00  0.00     0.072 C 
BRANCH   6   7
ATOM      7  C   UNL     1     147.965 138.924 141.411  1.00  0.00     0.224 C 
ATOM      8  O   UNL     1     147.334 137.983 140.960  1.00  0.00    -0.303 OA
ENDBRANCH   6   7
ENDBRANCH   5   6
ENDBRANCH   1   5
TORSDOF 5
ENDMDL
MODEL 9
REMARK VINA RESULT:    -1.343      7.672      8.611
REMARK INTER + INTRA:          -2.014
REMARK INTER:                  -1.847
REMARK INTRA:                  -0.166
REMARK UNBOUND:                -0.278
REMARK SMILES CCCCCCC=O
REMARK SMILES IDX 4 1 3 2 2 3 1 4 5 5 6 6 7 7 8 8
REMARK H PARENT
REMARK Flexibility Score: inf
ROOT
ATOM      1  C   UNL     1     141.804 146.272 142.864  1.00  0.00     0.000 C 
ENDROOT
BRANCH   1   2
ATOM      2  C   UNL     1     142.103 144.782 142.660  1.00  0.00    -0.000 C 
BRANCH   2   3
ATOM      3  C   UNL     1     142.388 144.091 143.999  1.00  0.00    -0.003 C 
ATOM      4  C   UNL     1     142.529 145.110 145.125  1.00  0.00     0.004 C 
ENDBRANCH   2   3
ENDBRANCH   1   2
BRANCH   1   5
ATOM      5  C   UNL     1     142.664 147.138 141.930  1.00  0.00     0.008 C 
BRANCH   5   6
ATOM      6  C   UNL     1     141.827 148.176 141.169  1.00  0.00     0.072 C 
BRANCH   6   7
ATOM      7  C   UNL     1     140.400 147.742 140.994  1.00  0.00     0.224 C 
ATOM      8  O   UNL     1     139.496 148.431 141.437  1.00  0.00    -0.303 OA
ENDBRANCH   6   7
ENDBRANCH   5   6
ENDBRANCH   1   5
TORSDOF 5
ENDMDL
