MODEL 1
REMARK VINA RESULT:    -5.429      0.000      0.000
REMARK INTER + INTRA:          -6.237
REMARK INTER:                  -5.905
REMARK INTRA:                  -0.332
REMARK UNBOUND:                -0.332
REMARK SMILES CC1=C[C@@H]2[C@@H](C(C)C)CC[C@](C)(O)[C@@H]2CC1
REMARK SMILES IDX 1 1 2 2 3 3 4 4 5 5 9 6 10 7 11 8 14 9 15 10 16 11 12 12
REMARK SMILES IDX 6 13 7 14 8 15 13 16
REMARK H PARENT 13 17
REMARK Flexibility Score: inf
ROOT
ATOM      1  C   UNL     1     112.400 118.600 125.672  1.00  0.00     0.039 C 
ATOM      2  C   UNL     1     113.509 119.559 125.335  1.00  0.00    -0.077 C 
ATOM      3  C   UNL     1     113.216 120.677 124.640  1.00  0.00    -0.024 C 
ATOM      4  C   UNL     1     114.256 121.732 124.321  1.00  0.00     0.021 C 
ATOM      5  C   UNL     1     113.833 122.615 123.105  1.00  0.00    -0.001 C 
ATOM      6  C   UNL     1     113.963 121.777 121.810  1.00  0.00     0.007 C 
ATOM      7  C   UNL     1     115.390 121.256 121.609  1.00  0.00     0.035 C 
ATOM      8  C   UNL     1     115.829 120.336 122.778  1.00  0.00     0.065 C 
ATOM      9  C   UNL     1     115.662 121.102 124.140  1.00  0.00     0.028 C 
ATOM     10  C   UNL     1     115.979 120.263 125.400  1.00  0.00     0.011 C 
ATOM     11  C   UNL     1     114.934 119.171 125.688  1.00  0.00     0.031 C 
ATOM     12  C   UNL     1     117.306 119.937 122.561  1.00  0.00     0.042 C 
ENDROOT
BRANCH   5  13
ATOM     13  C   UNL     1     114.596 123.990 123.045  1.00  0.00    -0.014 C 
ATOM     14  C   UNL     1     114.598 124.704 124.413  1.00  0.00     0.007 C 
ATOM     15  C   UNL     1     113.992 124.945 121.997  1.00  0.00     0.007 C 
ENDBRANCH   5  13
BRANCH   8  16
ATOM     16  O   UNL     1     115.033 119.174 122.776  1.00  0.00    -0.390 OA
ATOM     17  H   UNL     1     115.634 118.383 122.816  1.00  0.00     0.211 HD
ENDBRANCH   8  16
TORSDOF 2
ENDMDL
MODEL 2
REMARK VINA RESULT:    -5.366     13.454     15.585
REMARK INTER + INTRA:          -6.169
REMARK INTER:                  -5.847
REMARK INTRA:                  -0.322
REMARK UNBOUND:                -0.332
REMARK SMILES CC1=C[C@@H]2[C@@H](C(C)C)CC[C@](C)(O)[C@@H]2CC1
REMARK SMILES IDX 1 1 2 2 3 3 4 4 5 5 9 6 10 7 11 8 14 9 15 10 16 11 12 12
REMARK SMILES IDX 6 13 7 14 8 15 13 16
REMARK H PARENT 13 17
REMARK Flexibility Score: inf
ROOT
ATOM      1  C   UNL     1     128.408 116.329 113.196  1.00  0.00     0.039 C 
ATOM      2  C   UNL     1     127.450 117.329 113.785  1.00  0.00    -0.077 C 
ATOM      3  C   UNL     1     126.452 117.808 113.015  1.00  0.00    -0.024 C 
ATOM      4  C   UNL     1     125.400 118.760 113.547  1.00  0.00     0.021 C 
ATOM      5  C   UNL     1     124.711 119.565 112.400  1.00  0.00    -0.001 C 
ATOM      6  C   UNL     1     125.709 120.618 111.859  1.00  0.00     0.007 C 
ATOM      7  C   UNL     1     126.182 121.572 112.960  1.00  0.00     0.035 C 
ATOM      8  C   UNL     1     126.912 120.813 114.098  1.00  0.00     0.065 C 
ATOM      9  C   UNL     1     125.978 119.678 114.656  1.00  0.00     0.028 C 
ATOM     10  C   UNL     1     126.623 118.780 115.737  1.00  0.00     0.011 C 
ATOM     11  C   UNL     1     127.715 117.847 115.188  1.00  0.00     0.031 C 
ATOM     12  C   UNL     1     127.263 121.821 115.216  1.00  0.00     0.042 C 
ENDROOT
BRANCH   5  13
ATOM     13  C   UNL     1     123.321 120.171 112.819  1.00  0.00    -0.014 C 
ATOM     14  C   UNL     1     122.485 119.171 113.644  1.00  0.00     0.007 C 
ATOM     15  C   UNL     1     122.489 120.614 111.600  1.00  0.00     0.007 C 
ENDBRANCH   5  13
BRANCH   8  16
ATOM     16  O   UNL     1     128.102 120.254 113.591  1.00  0.00    -0.390 OA
ATOM     17  H   UNL     1     128.714 120.075 114.354  1.00  0.00     0.211 HD
ENDBRANCH   8  16
TORSDOF 2
ENDMDL
MODEL 3
REMARK VINA RESULT:    -5.287      1.364      2.801
REMARK INTER + INTRA:          -6.082
REMARK INTER:                  -5.802
REMARK INTRA:                  -0.280
REMARK UNBOUND:                -0.332
REMARK SMILES CC1=C[C@@H]2[C@@H](C(C)C)CC[C@](C)(O)[C@@H]2CC1
REMARK SMILES IDX 1 1 2 2 3 3 4 4 5 5 9 6 10 7 11 8 14 9 15 10 16 11 12 12
REMARK SMILES IDX 6 13 7 14 8 15 13 16
REMARK H PARENT 13 17
REMARK Flexibility Score: inf
ROOT
ATOM      1  C   UNL     1     111.955 120.236 120.753  1.00  0.00     0.039 C 
ATOM      2  C   UNL     1     112.522 120.771 122.040  1.00  0.00    -0.077 C 
ATOM      3  C   UNL     1     113.459 121.739 121.988  1.00  0.00    -0.024 C 
ATOM      4  C   UNL     1     114.030 122.386 123.234  1.00  0.00     0.021 C 
ATOM      5  C   UNL     1     115.416 123.050 122.960  1.00  0.00    -0.001 C 
ATOM      6  C   UNL     1     116.477 121.937 122.782  1.00  0.00     0.007 C 
ATOM      7  C   UNL     1     116.563 121.031 124.014  1.00  0.00     0.035 C 
ATOM      8  C   UNL     1     115.215 120.317 124.292  1.00  0.00     0.065 C 
ATOM      9  C   UNL     1     114.071 121.387 124.420  1.00  0.00     0.028 C 
ATOM     10  C   UNL     1     112.651 120.802 124.606  1.00  0.00     0.011 C 
ATOM     11  C   UNL     1     112.101 120.116 123.344  1.00  0.00     0.031 C 
ATOM     12  C   UNL     1     115.346 119.509 125.602  1.00  0.00     0.042 C 
ENDROOT
BRANCH   5  13
ATOM     13  C   UNL     1     115.808 124.128 124.037  1.00  0.00    -0.014 C 
ATOM     14  C   UNL     1     114.572 124.881 124.570  1.00  0.00     0.007 C 
ATOM     15  C   UNL     1     116.809 125.162 123.486  1.00  0.00     0.007 C 
ENDBRANCH   5  13
BRANCH   8  16
ATOM     16  O   UNL     1     114.932 119.433 123.232  1.00  0.00    -0.390 OA
ATOM     17  H   UNL     1     113.967 119.198 123.268  1.00  0.00     0.211 HD
ENDBRANCH   8  16
TORSDOF 2
ENDMDL
MODEL 4
REMARK VINA RESULT:    -5.233      2.429      4.861
REMARK INTER + INTRA:          -6.024
REMARK INTER:                  -5.696
REMARK INTRA:                  -0.328
REMARK UNBOUND:                -0.332
REMARK SMILES CC1=C[C@@H]2[C@@H](C(C)C)CC[C@](C)(O)[C@@H]2CC1
REMARK SMILES IDX 1 1 2 2 3 3 4 4 5 5 9 6 10 7 11 8 14 9 15 10 16 11 12 12
REMARK SMILES IDX 6 13 7 14 8 15 13 16
REMARK H PARENT 13 17
REMARK Flexibility Score: inf
ROOT
ATOM      1  C   UNL     1     116.853 125.704 123.336  1.00  0.00     0.039 C 
ATOM      2  C   UNL     1     116.359 124.781 122.254  1.00  0.00    -0.077 C 
ATOM      3  C   UNL     1     115.380 123.901 122.544  1.00  0.00    -0.024 C 
ATOM      4  C   UNL     1     114.772 122.987 121.500  1.00  0.00     0.021 C 
ATOM      5  C   UNL     1     114.084 121.743 122.145  1.00  0.00    -0.001 C 
ATOM      6  C   UNL     1     115.179 120.783 122.671  1.00  0.00     0.007 C 
ATOM      7  C   UNL     1     116.128 120.337 121.554  1.00  0.00     0.035 C 
ATOM      8  C   UNL     1     116.866 121.544 120.918  1.00  0.00     0.065 C 
ATOM      9  C   UNL     1     115.813 122.598 120.417  1.00  0.00     0.028 C 
ATOM     10  C   UNL     1     116.420 123.899 119.842  1.00  0.00     0.011 C 
ATOM     11  C   UNL     1     117.066 124.798 120.910  1.00  0.00     0.031 C 
ATOM     12  C   UNL     1     117.720 121.031 119.736  1.00  0.00     0.042 C 
ENDROOT
BRANCH   5  13
ATOM     13  C   UNL     1     113.042 121.050 121.192  1.00  0.00    -0.014 C 
ATOM     14  C   UNL     1     112.141 122.081 120.481  1.00  0.00     0.007 C 
ATOM     15  C   UNL     1     112.141 120.051 121.944  1.00  0.00     0.007 C 
ENDBRANCH   5  13
BRANCH   8  16
ATOM     16  O   UNL     1     117.714 122.127 121.880  1.00  0.00    -0.390 OA
ATOM     17  H   UNL     1     118.645 121.832 121.697  1.00  0.00     0.211 HD
ENDBRANCH   8  16
TORSDOF 2
ENDMDL
MODEL 5
REMARK VINA RESULT:    -5.212      2.566      4.950
REMARK INTER + INTRA:          -6.001
REMARK INTER:                  -6.039
REMARK INTRA:                   0.038
REMARK UNBOUND:                -0.332
REMARK SMILES CC1=C[C@@H]2[C@@H](C(C)C)CC[C@](C)(O)[C@@H]2CC1
REMARK SMILES IDX 1 1 2 2 3 3 4 4 5 5 9 6 10 7 11 8 14 9 15 10 16 11 12 12
REMARK SMILES IDX 6 13 7 14 8 15 13 16
REMARK H PARENT 13 17
REMARK Flexibility Score: inf
ROOT
ATOM      1  C   UNL     1     119.074 123.001 120.743  1.00  0.00     0.039 C 
ATOM      2  C   UNL     1     117.706 123.565 121.012  1.00  0.00    -0.077 C 
ATOM      3  C   UNL     1     117.350 123.838 122.284  1.00  0.00    -0.024 C 
ATOM      4  C   UNL     1     116.022 124.475 122.639  1.00  0.00     0.021 C 
ATOM      5  C   UNL     1     115.626 124.203 124.124  1.00  0.00    -0.001 C 
ATOM      6  C   UNL     1     115.205 122.721 124.266  1.00  0.00     0.007 C 
ATOM      7  C   UNL     1     114.037 122.369 123.338  1.00  0.00     0.035 C 
ATOM      8  C   UNL     1     114.410 122.584 121.848  1.00  0.00     0.065 C 
ATOM      9  C   UNL     1     114.911 124.058 121.639  1.00  0.00     0.028 C 
ATOM     10  C   UNL     1     115.405 124.380 120.209  1.00  0.00     0.011 C 
ATOM     11  C   UNL     1     116.735 123.695 119.851  1.00  0.00     0.031 C 
ATOM     12  C   UNL     1     113.157 122.312 120.984  1.00  0.00     0.042 C 
ENDROOT
BRANCH   5  13
ATOM     13  C   UNL     1     114.555 125.218 124.673  1.00  0.00    -0.014 C 
ATOM     14  C   UNL     1     114.206 126.301 123.632  1.00  0.00     0.007 C 
ATOM     15  C   UNL     1     115.024 125.915 125.965  1.00  0.00     0.007 C 
ENDBRANCH   5  13
BRANCH   8  16
ATOM     16  O   UNL     1     115.423 121.673 121.488  1.00  0.00    -0.390 OA
ATOM     17  H   UNL     1     115.648 121.817 120.531  1.00  0.00     0.211 HD
ENDBRANCH   8  16
TORSDOF 2
ENDMDL
MODEL 6
REMARK VINA RESULT:    -5.206      1.312      4.428
REMARK INTER + INTRA:          -5.995
REMARK INTER:                  -5.716
REMARK INTRA:                  -0.279
REMARK UNBOUND:                -0.332
REMARK SMILES CC1=C[C@@H]2[C@@H](C(C)C)CC[C@](C)(O)[C@@H]2CC1
REMARK SMILES IDX 1 1 2 2 3 3 4 4 5 5 9 6 10 7 11 8 14 9 15 10 16 11 12 12
REMARK SMILES IDX 6 13 7 14 8 15 13 16
REMARK H PARENT 13 17
REMARK Flexibility Score: inf
ROOT
ATOM      1  C   UNL     1     115.045 125.519 124.046  1.00  0.00     0.039 C 
ATOM      2  C   UNL     1     114.623 124.216 123.423  1.00  0.00    -0.077 C 
ATOM      3  C   UNL     1     114.259 123.196 124.227  1.00  0.00    -0.024 C 
ATOM      4  C   UNL     1     113.751 121.875 123.686  1.00  0.00     0.021 C 
ATOM      5  C   UNL     1     113.906 120.722 124.727  1.00  0.00    -0.001 C 
ATOM      6  C   UNL     1     115.404 120.353 124.845  1.00  0.00     0.007 C 
ATOM      7  C   UNL     1     115.992 119.924 123.497  1.00  0.00     0.035 C 
ATOM      8  C   UNL     1     115.898 121.061 122.447  1.00  0.00     0.065 C 
ATOM      9  C   UNL     1     114.405 121.536 122.320  1.00  0.00     0.028 C 
ATOM     10  C   UNL     1     114.183 122.736 121.369  1.00  0.00     0.011 C 
ATOM     11  C   UNL     1     114.738 124.062 121.917  1.00  0.00     0.031 C 
ATOM     12  C   UNL     1     116.410 120.524 121.092  1.00  0.00     0.042 C 
ENDROOT
BRANCH   5  13
ATOM     13  C   UNL     1     112.975 119.490 124.428  1.00  0.00    -0.014 C 
ATOM     14  C   UNL     1     111.635 119.924 123.798  1.00  0.00     0.007 C 
ATOM     15  C   UNL     1     112.673 118.668 125.696  1.00  0.00     0.007 C 
ENDBRANCH   5  13
BRANCH   8  16
ATOM     16  O   UNL     1     116.714 122.136 122.854  1.00  0.00    -0.390 OA
ATOM     17  H   UNL     1     116.128 122.909 123.072  1.00  0.00     0.211 HD
ENDBRANCH   8  16
TORSDOF 2
ENDMDL
MODEL 7
REMARK VINA RESULT:    -5.110      3.281      5.267
REMARK INTER + INTRA:          -5.890
REMARK INTER:                  -5.604
REMARK INTRA:                  -0.286
REMARK UNBOUND:                -0.332
REMARK SMILES CC1=C[C@@H]2[C@@H](C(C)C)CC[C@](C)(O)[C@@H]2CC1
REMARK SMILES IDX 1 1 2 2 3 3 4 4 5 5 9 6 10 7 11 8 14 9 15 10 16 11 12 12
REMARK SMILES IDX 6 13 7 14 8 15 13 16
REMARK H PARENT 13 17
REMARK Flexibility Score: inf
ROOT
ATOM      1  C   UNL     1     115.361 127.370 124.671  1.00  0.00     0.039 C 
ATOM      2  C   UNL     1     115.501 125.944 124.210  1.00  0.00    -0.077 C 
ATOM      3  C   UNL     1     116.528 125.618 123.400  1.00  0.00    -0.024 C 
ATOM      4  C   UNL     1     116.788 124.195 122.948  1.00  0.00     0.021 C 
ATOM      5  C   UNL     1     117.651 124.147 121.648  1.00  0.00    -0.001 C 
ATOM      6  C   UNL     1     116.781 124.604 120.452  1.00  0.00     0.007 C 
ATOM      7  C   UNL     1     115.535 123.729 120.287  1.00  0.00     0.035 C 
ATOM      8  C   UNL     1     114.628 123.787 121.543  1.00  0.00     0.065 C 
ATOM      9  C   UNL     1     115.464 123.396 122.815  1.00  0.00     0.028 C 
ATOM     10  C   UNL     1     114.700 123.503 124.154  1.00  0.00     0.011 C 
ATOM     11  C   UNL     1     114.411 124.953 124.581  1.00  0.00     0.031 C 
ATOM     12  C   UNL     1     113.452 122.803 121.347  1.00  0.00     0.042 C 
ENDROOT
BRANCH   5  13
ATOM     13  C   UNL     1     118.350 122.755 121.423  1.00  0.00    -0.014 C 
ATOM     14  C   UNL     1     118.766 122.100 122.756  1.00  0.00     0.007 C 
ATOM     15  C   UNL     1     119.599 122.871 120.527  1.00  0.00     0.007 C 
ENDBRANCH   5  13
BRANCH   8  16
ATOM     16  O   UNL     1     114.116 125.093 121.685  1.00  0.00    -0.390 OA
ATOM     17  H   UNL     1     114.855 125.688 121.979  1.00  0.00     0.211 HD
ENDBRANCH   8  16
TORSDOF 2
ENDMDL
MODEL 8
REMARK VINA RESULT:    -5.105      2.154      4.438
REMARK INTER + INTRA:          -5.884
REMARK INTER:                  -5.568
REMARK INTRA:                  -0.316
REMARK UNBOUND:                -0.332
REMARK SMILES CC1=C[C@@H]2[C@@H](C(C)C)CC[C@](C)(O)[C@@H]2CC1
REMARK SMILES IDX 1 1 2 2 3 3 4 4 5 5 9 6 10 7 11 8 14 9 15 10 16 11 12 12
REMARK SMILES IDX 6 13 7 14 8 15 13 16
REMARK H PARENT 13 17
REMARK Flexibility Score: inf
ROOT
ATOM      1  C   UNL     1     115.094 126.227 125.901  1.00  0.00     0.039 C 
ATOM      2  C   UNL     1     115.314 125.433 124.642  1.00  0.00    -0.077 C 
ATOM      3  C   UNL     1     114.511 124.380 124.386  1.00  0.00    -0.024 C 
ATOM      4  C   UNL     1     114.614 123.571 123.109  1.00  0.00     0.021 C 
ATOM      5  C   UNL     1     113.991 122.148 123.271  1.00  0.00    -0.001 C 
ATOM      6  C   UNL     1     114.929 121.290 124.153  1.00  0.00     0.007 C 
ATOM      7  C   UNL     1     116.334 121.182 123.553  1.00  0.00     0.035 C 
ATOM      8  C   UNL     1     117.004 122.574 123.419  1.00  0.00     0.065 C 
ATOM      9  C   UNL     1     116.074 123.527 122.585  1.00  0.00     0.028 C 
ATOM     10  C   UNL     1     116.582 124.981 122.454  1.00  0.00     0.011 C 
ATOM     11  C   UNL     1     116.507 125.778 123.768  1.00  0.00     0.031 C 
ATOM     12  C   UNL     1     118.368 122.398 122.713  1.00  0.00     0.042 C 
ENDROOT
BRANCH   5  13
ATOM     13  C   UNL     1     113.626 121.474 121.897  1.00  0.00    -0.014 C 
ATOM     14  C   UNL     1     113.009 122.485 120.908  1.00  0.00     0.007 C 
ATOM     15  C   UNL     1     112.644 120.299 122.069  1.00  0.00     0.007 C 
ENDBRANCH   5  13
BRANCH   8  16
ATOM     16  O   UNL     1     117.217 123.111 124.705  1.00  0.00    -0.390 OA
ATOM     17  H   UNL     1     118.174 122.984 124.942  1.00  0.00     0.211 HD
ENDBRANCH   8  16
TORSDOF 2
ENDMDL
MODEL 9
REMARK VINA RESULT:    -5.067      1.852      2.743
REMARK INTER + INTRA:          -5.843
REMARK INTER:                  -5.541
REMARK INTRA:                  -0.302
REMARK UNBOUND:                -0.332
REMARK SMILES CC1=C[C@@H]2[C@@H](C(C)C)CC[C@](C)(O)[C@@H]2CC1
REMARK SMILES IDX 1 1 2 2 3 3 4 4 5 5 9 6 10 7 11 8 14 9 15 10 16 11 12 12
REMARK SMILES IDX 6 13 7 14 8 15 13 16
REMARK H PARENT 13 17
REMARK Flexibility Score: inf
ROOT
ATOM      1  C   UNL     1     113.817 119.921 124.237  1.00  0.00     0.039 C 
ATOM      2  C   UNL     1     114.716 121.127 124.257  1.00  0.00    -0.077 C 
ATOM      3  C   UNL     1     114.161 122.356 124.229  1.00  0.00    -0.024 C 
ATOM      4  C   UNL     1     114.986 123.624 124.321  1.00  0.00     0.021 C 
ATOM      5  C   UNL     1     114.222 124.857 123.745  1.00  0.00    -0.001 C 
ATOM      6  C   UNL     1     114.170 124.737 122.203  1.00  0.00     0.007 C 
ATOM      7  C   UNL     1     115.572 124.656 121.591  1.00  0.00     0.035 C 
ATOM      8  C   UNL     1     116.347 123.416 122.106  1.00  0.00     0.065 C 
ATOM      9  C   UNL     1     116.385 123.434 123.677  1.00  0.00     0.028 C 
ATOM     10  C   UNL     1     117.051 122.199 124.326  1.00  0.00     0.011 C 
ATOM     11  C   UNL     1     116.218 120.912 124.191  1.00  0.00     0.031 C 
ATOM     12  C   UNL     1     117.781 123.458 121.531  1.00  0.00     0.042 C 
ENDROOT
BRANCH   5  13
ATOM     13  C   UNL     1     114.796 126.231 124.252  1.00  0.00    -0.014 C 
ATOM     14  C   UNL     1     115.243 126.157 125.726  1.00  0.00     0.007 C 
ATOM     15  C   UNL     1     113.774 127.376 124.109  1.00  0.00     0.007 C 
ENDBRANCH   5  13
BRANCH   8  16
ATOM     16  O   UNL     1     115.704 122.247 121.652  1.00  0.00    -0.390 OA
ATOM     17  H   UNL     1     115.807 121.543 122.345  1.00  0.00     0.211 HD
ENDBRANCH   8  16
TORSDOF 2
ENDMDL
