MODEL 1
REMARK VINA RESULT:    -3.802      0.000      0.000
REMARK INTER + INTRA:          -7.113
REMARK INTER:                  -5.802
REMARK INTRA:                  -1.311
REMARK UNBOUND:                -1.311
REMARK SMILES CCCCCCCCCCC(=O)[O-]
REMARK SMILES IDX 7 1 8 2 9 3 10 4 11 5 12 6 13 7 6 8 5 9 4 10 3 11 2 12 1 13
REMARK H PARENT
REMARK Flexibility Score: inf
ROOT
ATOM      1  C   UNL     1      32.966   8.468  28.624  1.00  0.00     0.000 C 
ENDROOT
BRANCH   1   2
ATOM      2  C   UNL     1      31.727   9.139  28.003  1.00  0.00     0.000 C 
BRANCH   2   3
ATOM      3  C   UNL     1      31.105  10.269  28.843  1.00  0.00     0.006 C 
BRANCH   3   4
ATOM      4  C   UNL     1      29.595  10.098  29.052  1.00  0.00     0.053 C 
BRANCH   4   5
ATOM      5  C   UNL     1      28.841  11.160  28.315  1.00  0.00     0.041 C 
ATOM      6  O   UNL     1      28.322  12.119  28.942  1.00  0.00    -0.550 OA
ATOM      7  O   UNL     1      28.669  11.062  26.940  1.00  0.00    -0.550 OA
ENDBRANCH   4   5
ENDBRANCH   3   4
ENDBRANCH   2   3
ENDBRANCH   1   2
BRANCH   1   8
ATOM      8  C   UNL     1      33.414   9.135  29.935  1.00  0.00     0.000 C 
BRANCH   8   9
ATOM      9  C   UNL     1      33.172   8.242  31.163  1.00  0.00    -0.000 C 
BRANCH   9  10
ATOM     10  C   UNL     1      32.031   8.759  32.057  1.00  0.00    -0.000 C 
BRANCH  10  11
ATOM     11  C   UNL     1      30.875   7.753  32.180  1.00  0.00    -0.000 C 
BRANCH  11  12
ATOM     12  C   UNL     1      30.974   6.613  31.155  1.00  0.00    -0.003 C 
ATOM     13  C   UNL     1      29.795   6.641  30.188  1.00  0.00     0.004 C 
ENDBRANCH  11  12
ENDBRANCH  10  11
ENDBRANCH   9  10
ENDBRANCH   8   9
ENDBRANCH   1   8
TORSDOF 9
ENDMDL
MODEL 2
REMARK VINA RESULT:    -3.589      9.734     12.011
REMARK INTER + INTRA:          -6.789
REMARK INTER:                  -5.673
REMARK INTRA:                  -1.116
REMARK UNBOUND:                -1.311
REMARK SMILES CCCCCCCCCCC(=O)[O-]
REMARK SMILES IDX 7 1 8 2 9 3 10 4 11 5 12 6 13 7 6 8 5 9 4 10 3 11 2 12 1 13
REMARK H PARENT
REMARK Flexibility Score: inf
ROOT
ATOM      1  C   UNL     1      23.151   0.657  24.821  1.00  0.00     0.000 C 
ENDROOT
BRANCH   1   2
ATOM      2  C   UNL     1      22.962   0.857  26.336  1.00  0.00     0.000 C 
BRANCH   2   3
ATOM      3  C   UNL     1      24.050   1.700  27.025  1.00  0.00     0.006 C 
BRANCH   3   4
ATOM      4  C   UNL     1      23.821   1.857  28.533  1.00  0.00     0.053 C 
BRANCH   4   5
ATOM      5  C   UNL     1      24.308   3.192  29.001  1.00  0.00     0.041 C 
ATOM      6  O   UNL     1      25.218   3.266  29.866  1.00  0.00    -0.550 OA
ATOM      7  O   UNL     1      23.720   4.354  28.517  1.00  0.00    -0.550 OA
ENDBRANCH   4   5
ENDBRANCH   3   4
ENDBRANCH   2   3
ENDBRANCH   1   2
BRANCH   1   8
ATOM      8  C   UNL     1      21.821   0.616  24.051  1.00  0.00     0.000 C 
BRANCH   8   9
ATOM      9  C   UNL     1      21.741   1.691  22.954  1.00  0.00    -0.000 C 
BRANCH   9  10
ATOM     10  C   UNL     1      21.125   3.008  23.458  1.00  0.00    -0.000 C 
BRANCH  10  11
ATOM     11  C   UNL     1      22.182   4.096  23.709  1.00  0.00    -0.000 C 
BRANCH  11  12
ATOM     12  C   UNL     1      22.403   4.370  25.204  1.00  0.00    -0.003 C 
ATOM     13  C   UNL     1      21.170   3.991  26.019  1.00  0.00     0.004 C 
ENDBRANCH  11  12
ENDBRANCH  10  11
ENDBRANCH   9  10
ENDBRANCH   8   9
ENDBRANCH   1   8
TORSDOF 9
ENDMDL
MODEL 3
REMARK VINA RESULT:    -3.567      0.921      2.716
REMARK INTER + INTRA:          -6.754
REMARK INTER:                  -5.556
REMARK INTRA:                  -1.198
REMARK UNBOUND:                -1.311
REMARK SMILES CCCCCCCCCCC(=O)[O-]
REMARK SMILES IDX 7 1 8 2 9 3 10 4 11 5 12 6 13 7 6 8 5 9 4 10 3 11 2 12 1 13
REMARK H PARENT
REMARK Flexibility Score: inf
ROOT
ATOM      1  C   UNL     1      30.026   7.899  29.882  1.00  0.00     0.000 C 
ENDROOT
BRANCH   1   2
ATOM      2  C   UNL     1      30.639   8.051  28.477  1.00  0.00     0.000 C 
BRANCH   2   3
ATOM      3  C   UNL     1      31.019   9.489  28.081  1.00  0.00     0.006 C 
BRANCH   3   4
ATOM      4  C   UNL     1      30.295  10.552  28.917  1.00  0.00     0.053 C 
BRANCH   4   5
ATOM      5  C   UNL     1      29.090  11.059  28.190  1.00  0.00     0.041 C 
ATOM      6  O   UNL     1      29.026  10.974  26.936  1.00  0.00    -0.550 OA
ATOM      7  O   UNL     1      28.060  11.672  28.893  1.00  0.00    -0.550 OA
ENDBRANCH   4   5
ENDBRANCH   3   4
ENDBRANCH   2   3
ENDBRANCH   1   2
BRANCH   1   8
ATOM      8  C   UNL     1      30.512   6.637  30.614  1.00  0.00     0.000 C 
BRANCH   8   9
ATOM      9  C   UNL     1      31.266   6.963  31.914  1.00  0.00    -0.000 C 
BRANCH   9  10
ATOM     10  C   UNL     1      31.585   8.462  32.055  1.00  0.00    -0.000 C 
BRANCH  10  11
ATOM     11  C   UNL     1      33.093   8.754  31.979  1.00  0.00    -0.000 C 
BRANCH  11  12
ATOM     12  C   UNL     1      33.460   9.656  30.791  1.00  0.00    -0.003 C 
ATOM     13  C   UNL     1      34.488   8.982  29.887  1.00  0.00     0.004 C 
ENDBRANCH  11  12
ENDBRANCH  10  11
ENDBRANCH   9  10
ENDBRANCH   8   9
ENDBRANCH   1   8
TORSDOF 9
ENDMDL
MODEL 4
REMARK VINA RESULT:    -3.542      1.569      2.487
REMARK INTER + INTRA:          -6.717
REMARK INTER:                  -5.819
REMARK INTRA:                  -0.898
REMARK UNBOUND:                -1.311
REMARK SMILES CCCCCCCCCCC(=O)[O-]
REMARK SMILES IDX 7 1 8 2 9 3 10 4 11 5 12 6 13 7 6 8 5 9 4 10 3 11 2 12 1 13
REMARK H PARENT
REMARK Flexibility Score: inf
ROOT
ATOM      1  C   UNL     1      30.298   9.002  28.089  1.00  0.00     0.000 C 
ENDROOT
BRANCH   1   2
ATOM      2  C   UNL     1      29.486  10.126  27.418  1.00  0.00     0.000 C 
BRANCH   2   3
ATOM      3  C   UNL     1      29.044  11.263  28.357  1.00  0.00     0.006 C 
BRANCH   3   4
ATOM      4  C   UNL     1      28.743  10.782  29.781  1.00  0.00     0.053 C 
BRANCH   4   5
ATOM      5  C   UNL     1      29.141  11.822  30.780  1.00  0.00     0.041 C 
ATOM      6  O   UNL     1      29.481  12.971  30.396  1.00  0.00    -0.550 OA
ATOM      7  O   UNL     1      29.186  11.506  32.132  1.00  0.00    -0.550 OA
ENDBRANCH   4   5
ENDBRANCH   3   4
ENDBRANCH   2   3
ENDBRANCH   1   2
BRANCH   1   8
ATOM      8  C   UNL     1      31.776   8.995  27.663  1.00  0.00     0.000 C 
BRANCH   8   9
ATOM      9  C   UNL     1      32.720   8.609  28.814  1.00  0.00    -0.000 C 
BRANCH   9  10
ATOM     10  C   UNL     1      32.137   8.947  30.198  1.00  0.00    -0.000 C 
BRANCH  10  11
ATOM     11  C   UNL     1      32.177   7.751  31.163  1.00  0.00    -0.000 C 
BRANCH  11  12
ATOM     12  C   UNL     1      30.781   7.176  31.448  1.00  0.00    -0.003 C 
ATOM     13  C   UNL     1      30.363   6.188  30.364  1.00  0.00     0.004 C 
ENDBRANCH  11  12
ENDBRANCH  10  11
ENDBRANCH   9  10
ENDBRANCH   8   9
ENDBRANCH   1   8
TORSDOF 9
ENDMDL
MODEL 5
REMARK VINA RESULT:    -3.526      3.106      4.831
REMARK INTER + INTRA:          -6.692
REMARK INTER:                  -5.407
REMARK INTRA:                  -1.284
REMARK UNBOUND:                -1.311
REMARK SMILES CCCCCCCCCCC(=O)[O-]
REMARK SMILES IDX 7 1 8 2 9 3 10 4 11 5 12 6 13 7 6 8 5 9 4 10 3 11 2 12 1 13
REMARK H PARENT
REMARK Flexibility Score: inf
ROOT
ATOM      1  C   UNL     1      30.050   9.759  27.789  1.00  0.00     0.000 C 
ENDROOT
BRANCH   1   2
ATOM      2  C   UNL     1      31.406   9.615  28.505  1.00  0.00     0.000 C 
BRANCH   2   3
ATOM      3  C   UNL     1      31.378   8.779  29.797  1.00  0.00     0.006 C 
BRANCH   3   4
ATOM      4  C   UNL     1      30.019   8.116  30.052  1.00  0.00     0.053 C 
BRANCH   4   5
ATOM      5  C   UNL     1      30.199   6.677  30.420  1.00  0.00     0.041 C 
ATOM      6  O   UNL     1      30.971   6.356  31.361  1.00  0.00    -0.550 OA
ATOM      7  O   UNL     1      29.553   5.687  29.691  1.00  0.00    -0.550 OA
ENDBRANCH   4   5
ENDBRANCH   3   4
ENDBRANCH   2   3
ENDBRANCH   1   2
BRANCH   1   8
ATOM      8  C   UNL     1      29.415  11.146  27.983  1.00  0.00     0.000 C 
BRANCH   8   9
ATOM      9  C   UNL     1      28.136  11.095  28.835  1.00  0.00    -0.000 C 
BRANCH   9  10
ATOM     10  C   UNL     1      28.261  11.902  30.140  1.00  0.00    -0.000 C 
BRANCH  10  11
ATOM     11  C   UNL     1      29.632  12.584  30.283  1.00  0.00    -0.000 C 
BRANCH  11  12
ATOM     12  C   UNL     1      30.474  11.984  31.419  1.00  0.00    -0.003 C 
ATOM     13  C   UNL     1      29.600  11.211  32.401  1.00  0.00     0.004 C 
ENDBRANCH  11  12
ENDBRANCH  10  11
ENDBRANCH   9  10
ENDBRANCH   8   9
ENDBRANCH   1   8
TORSDOF 9
ENDMDL
MODEL 6
REMARK VINA RESULT:    -3.515      1.791      2.903
REMARK INTER + INTRA:          -6.676
REMARK INTER:                  -5.349
REMARK INTRA:                  -1.327
REMARK UNBOUND:                -1.311
REMARK SMILES CCCCCCCCCCC(=O)[O-]
REMARK SMILES IDX 7 1 8 2 9 3 10 4 11 5 12 6 13 7 6 8 5 9 4 10 3 11 2 12 1 13
REMARK H PARENT
REMARK Flexibility Score: inf
ROOT
ATOM      1  C   UNL     1      30.600  10.053  31.916  1.00  0.00     0.000 C 
ENDROOT
BRANCH   1   2
ATOM      2  C   UNL     1      29.544  11.123  32.248  1.00  0.00     0.000 C 
BRANCH   2   3
ATOM      3  C   UNL     1      28.837  11.744  31.030  1.00  0.00     0.006 C 
BRANCH   3   4
ATOM      4  C   UNL     1      28.695  10.766  29.857  1.00  0.00     0.053 C 
BRANCH   4   5
ATOM      5  C   UNL     1      29.409  11.290  28.651  1.00  0.00     0.041 C 
ATOM      6  O   UNL     1      29.025  10.963  27.497  1.00  0.00    -0.550 OA
ATOM      7  O   UNL     1      30.529  12.097  28.802  1.00  0.00    -0.550 OA
ENDBRANCH   4   5
ENDBRANCH   3   4
ENDBRANCH   2   3
ENDBRANCH   1   2
BRANCH   1   8
ATOM      8  C   UNL     1      32.012  10.637  31.745  1.00  0.00     0.000 C 
BRANCH   8   9
ATOM      9  C   UNL     1      32.746  10.057  30.524  1.00  0.00    -0.000 C 
BRANCH   9  10
ATOM     10  C   UNL     1      32.275   8.636  30.169  1.00  0.00    -0.000 C 
BRANCH  10  11
ATOM     11  C   UNL     1      31.857   8.505  28.695  1.00  0.00    -0.000 C 
BRANCH  11  12
ATOM     12  C   UNL     1      30.537   7.738  28.521  1.00  0.00    -0.003 C 
ATOM     13  C   UNL     1      30.136   7.037  29.815  1.00  0.00     0.004 C 
ENDBRANCH  11  12
ENDBRANCH  10  11
ENDBRANCH   9  10
ENDBRANCH   8   9
ENDBRANCH   1   8
TORSDOF 9
ENDMDL
MODEL 7
REMARK VINA RESULT:    -3.444      3.010      4.589
REMARK INTER + INTRA:          -6.567
REMARK INTER:                  -5.294
REMARK INTRA:                  -1.273
REMARK UNBOUND:                -1.311
REMARK SMILES CCCCCCCCCCC(=O)[O-]
REMARK SMILES IDX 7 1 8 2 9 3 10 4 11 5 12 6 13 7 6 8 5 9 4 10 3 11 2 12 1 13
REMARK H PARENT
REMARK Flexibility Score: inf
ROOT
ATOM      1  C   UNL     1      31.591  10.127  30.938  1.00  0.00     0.000 C 
ENDROOT
BRANCH   1   2
ATOM      2  C   UNL     1      32.380   9.392  29.839  1.00  0.00     0.000 C 
BRANCH   2   3
ATOM      3  C   UNL     1      31.577   8.347  29.044  1.00  0.00     0.006 C 
BRANCH   3   4
ATOM      4  C   UNL     1      30.249   7.975  29.715  1.00  0.00     0.053 C 
BRANCH   4   5
ATOM      5  C   UNL     1      30.365   6.655  30.410  1.00  0.00     0.041 C 
ATOM      6  O   UNL     1      31.102   6.535  31.423  1.00  0.00    -0.550 OA
ATOM      7  O   UNL     1      29.698   5.545  29.907  1.00  0.00    -0.550 OA
ENDBRANCH   4   5
ENDBRANCH   3   4
ENDBRANCH   2   3
ENDBRANCH   1   2
BRANCH   1   8
ATOM      8  C   UNL     1      31.651  11.657  30.798  1.00  0.00     0.000 C 
BRANCH   8   9
ATOM      9  C   UNL     1      30.255  12.297  30.716  1.00  0.00    -0.000 C 
BRANCH   9  10
ATOM     10  C   UNL     1      29.125  11.294  31.009  1.00  0.00    -0.000 C 
BRANCH  10  11
ATOM     11  C   UNL     1      28.190  11.091  29.804  1.00  0.00    -0.000 C 
BRANCH  11  12
ATOM     12  C   UNL     1      28.733  11.738  28.521  1.00  0.00    -0.003 C 
ATOM     13  C   UNL     1      28.964  10.692  27.435  1.00  0.00     0.004 C 
ENDBRANCH  11  12
ENDBRANCH  10  11
ENDBRANCH   9  10
ENDBRANCH   8   9
ENDBRANCH   1   8
TORSDOF 9
ENDMDL
MODEL 8
REMARK VINA RESULT:    -3.436      1.163      2.242
REMARK INTER + INTRA:          -6.555
REMARK INTER:                  -5.524
REMARK INTRA:                  -1.031
REMARK UNBOUND:                -1.311
REMARK SMILES CCCCCCCCCCC(=O)[O-]
REMARK SMILES IDX 7 1 8 2 9 3 10 4 11 5 12 6 13 7 6 8 5 9 4 10 3 11 2 12 1 13
REMARK H PARENT
REMARK Flexibility Score: inf
ROOT
ATOM      1  C   UNL     1      31.678   8.112  28.673  1.00  0.00     0.000 C 
ENDROOT
BRANCH   1   2
ATOM      2  C   UNL     1      31.737   9.636  28.454  1.00  0.00     0.000 C 
BRANCH   2   3
ATOM      3  C   UNL     1      30.945  10.474  29.473  1.00  0.00     0.006 C 
BRANCH   3   4
ATOM      4  C   UNL     1      30.242  11.681  28.840  1.00  0.00     0.053 C 
BRANCH   4   5
ATOM      5  C   UNL     1      28.911  11.280  28.286  1.00  0.00     0.041 C 
ATOM      6  O   UNL     1      27.916  11.168  29.048  1.00  0.00    -0.550 OA
ATOM      7  O   UNL     1      28.782  10.979  26.936  1.00  0.00    -0.550 OA
ENDBRANCH   4   5
ENDBRANCH   3   4
ENDBRANCH   2   3
ENDBRANCH   1   2
BRANCH   1   8
ATOM      8  C   UNL     1      30.248   7.594  28.895  1.00  0.00     0.000 C 
BRANCH   8   9
ATOM      9  C   UNL     1      30.035   7.038  30.313  1.00  0.00    -0.000 C 
BRANCH   9  10
ATOM     10  C   UNL     1      31.339   6.978  31.128  1.00  0.00    -0.000 C 
BRANCH  10  11
ATOM     11  C   UNL     1      31.161   7.496  32.565  1.00  0.00    -0.000 C 
BRANCH  11  12
ATOM     12  C   UNL     1      31.729   8.910  32.757  1.00  0.00    -0.003 C 
ATOM     13  C   UNL     1      30.624   9.902  33.108  1.00  0.00     0.004 C 
ENDBRANCH  11  12
ENDBRANCH  10  11
ENDBRANCH   9  10
ENDBRANCH   8   9
ENDBRANCH   1   8
TORSDOF 9
ENDMDL
MODEL 9
REMARK VINA RESULT:    -3.380      9.605     11.600
REMARK INTER + INTRA:          -6.469
REMARK INTER:                  -5.256
REMARK INTRA:                  -1.213
REMARK UNBOUND:                -1.311
REMARK SMILES CCCCCCCCCCC(=O)[O-]
REMARK SMILES IDX 7 1 8 2 9 3 10 4 11 5 12 6 13 7 6 8 5 9 4 10 3 11 2 12 1 13
REMARK H PARENT
REMARK Flexibility Score: inf
ROOT
ATOM      1  C   UNL     1      23.214   1.015  27.634  1.00  0.00     0.000 C 
ENDROOT
BRANCH   1   2
ATOM      2  C   UNL     1      22.357   0.683  26.399  1.00  0.00     0.000 C 
BRANCH   2   3
ATOM      3  C   UNL     1      23.043   0.928  25.042  1.00  0.00     0.006 C 
BRANCH   3   4
ATOM      4  C   UNL     1      22.053   0.984  23.872  1.00  0.00     0.053 C 
BRANCH   4   5
ATOM      5  C   UNL     1      21.752   2.404  23.509  1.00  0.00     0.041 C 
ATOM      6  O   UNL     1      22.669   3.267  23.515  1.00  0.00    -0.550 OA
ATOM      7  O   UNL     1      20.450   2.785  23.214  1.00  0.00    -0.550 OA
ENDBRANCH   4   5
ENDBRANCH   3   4
ENDBRANCH   2   3
ENDBRANCH   1   2
BRANCH   1   8
ATOM      8  C   UNL     1      24.248   2.120  27.366  1.00  0.00     0.000 C 
BRANCH   8   9
ATOM      9  C   UNL     1      24.335   3.138  28.516  1.00  0.00    -0.000 C 
BRANCH   9  10
ATOM     10  C   UNL     1      23.491   4.399  28.256  1.00  0.00    -0.000 C 
BRANCH  10  11
ATOM     11  C   UNL     1      23.171   4.598  26.766  1.00  0.00    -0.000 C 
BRANCH  11  12
ATOM     12  C   UNL     1      21.669   4.785  26.504  1.00  0.00    -0.003 C 
ATOM     13  C   UNL     1      20.836   3.930  27.454  1.00  0.00     0.004 C 
ENDBRANCH  11  12
ENDBRANCH  10  11
ENDBRANCH   9  10
ENDBRANCH   8   9
ENDBRANCH   1   8
TORSDOF 9
ENDMDL
