MODEL 1
REMARK VINA RESULT:    -4.160      0.000      0.000
REMARK INTER + INTRA:          -6.129
REMARK INTER:                  -5.620
REMARK INTRA:                  -0.509
REMARK UNBOUND:                -0.509
REMARK SMILES O=C[C@H](O)[C@@H](O)[C@@H](O)CO
REMARK SMILES IDX 7 1 9 2 10 3 5 5 3 6 2 7 1 8 4 9 6 11 8 13
REMARK H PARENT 10 4 4 10 6 12 8 14
REMARK Flexibility Score: inf
ROOT
ATOM      1  C   UNL     1       6.198  -1.559  -6.674  1.00  0.00     0.171 C 
ENDROOT
BRANCH   1   2
ATOM      2  C   UNL     1       7.488  -1.192  -7.438  1.00  0.00     0.190 C 
BRANCH   2   3
ATOM      3  O   UNL     1       7.318   0.020  -8.124  1.00  0.00    -0.394 OA
ATOM      4  H   UNL     1       8.214   0.442  -8.184  1.00  0.00     0.210 HD
ENDBRANCH   2   3
ENDBRANCH   1   2
BRANCH   1   5
ATOM      5  C   UNL     1       6.374  -1.654  -5.130  1.00  0.00     0.181 C 
BRANCH   5   6
ATOM      6  C   UNL     1       5.446  -2.687  -4.440  1.00  0.00     0.209 C 
BRANCH   6   7
ATOM      7  C   UNL     1       6.107  -4.036  -4.352  1.00  0.00     0.258 C 
ATOM      8  O   UNL     1       6.764  -4.341  -3.369  1.00  0.00    -0.300 OA
ENDBRANCH   6   7
BRANCH   6   9
ATOM      9  O   UNL     1       4.265  -2.808  -5.189  1.00  0.00    -0.383 OA
ATOM     10  H   UNL     1       3.613  -3.298  -4.622  1.00  0.00     0.211 HD
ENDBRANCH   6   9
ENDBRANCH   5   6
BRANCH   5  11
ATOM     11  O   UNL     1       7.720  -1.883  -4.789  1.00  0.00    -0.387 OA
ATOM     12  H   UNL     1       7.907  -1.406  -3.940  1.00  0.00     0.211 HD
ENDBRANCH   5  11
ENDBRANCH   1   5
BRANCH   1  13
ATOM     13  O   UNL     1       5.170  -0.652  -6.986  1.00  0.00    -0.388 OA
ATOM     14  H   UNL     1       4.417  -0.819  -6.359  1.00  0.00     0.211 HD
ENDBRANCH   1  13
TORSDOF 8
ENDMDL
MODEL 2
REMARK VINA RESULT:    -3.874     11.886     13.063
REMARK INTER + INTRA:          -5.742
REMARK INTER:                  -5.193
REMARK INTRA:                  -0.549
REMARK UNBOUND:                -0.509
REMARK SMILES O=C[C@H](O)[C@@H](O)[C@@H](O)CO
REMARK SMILES IDX 7 1 9 2 10 3 5 5 3 6 2 7 1 8 4 9 6 11 8 13
REMARK H PARENT 10 4 4 10 6 12 8 14
REMARK Flexibility Score: inf
ROOT
ATOM      1  C   UNL     1      -3.837  -4.206   0.789  1.00  0.00     0.171 C 
ENDROOT
BRANCH   1   2
ATOM      2  C   UNL     1      -4.926  -4.152   1.883  1.00  0.00     0.190 C 
BRANCH   2   3
ATOM      3  O   UNL     1      -5.456  -2.857   1.978  1.00  0.00    -0.394 OA
ATOM      4  H   UNL     1      -5.530  -2.650   2.946  1.00  0.00     0.210 HD
ENDBRANCH   2   3
ENDBRANCH   1   2
BRANCH   1   5
ATOM      5  C   UNL     1      -4.378  -4.521  -0.636  1.00  0.00     0.181 C 
BRANCH   5   6
ATOM      6  C   UNL     1      -4.195  -5.995  -1.080  1.00  0.00     0.209 C 
BRANCH   6   7
ATOM      7  C   UNL     1      -5.372  -6.836  -0.663  1.00  0.00     0.258 C 
ATOM      8  O   UNL     1      -6.329  -6.975  -1.409  1.00  0.00    -0.300 OA
ENDBRANCH   6   7
BRANCH   6   9
ATOM      9  O   UNL     1      -3.034  -6.510  -0.482  1.00  0.00    -0.383 OA
ATOM     10  H   UNL     1      -3.223  -7.458  -0.255  1.00  0.00     0.211 HD
ENDBRANCH   6   9
ENDBRANCH   5   6
BRANCH   5  11
ATOM     11  O   UNL     1      -5.720  -4.121  -0.766  1.00  0.00    -0.387 OA
ATOM     12  H   UNL     1      -6.230  -4.878  -1.156  1.00  0.00     0.211 HD
ENDBRANCH   5  11
ENDBRANCH   1   5
BRANCH   1  13
ATOM     13  O   UNL     1      -3.103  -3.006   0.772  1.00  0.00    -0.388 OA
ATOM     14  H   UNL     1      -3.724  -2.275   0.510  1.00  0.00     0.211 HD
ENDBRANCH   1  13
TORSDOF 8
ENDMDL
MODEL 3
REMARK VINA RESULT:    -3.860      1.227      2.606
REMARK INTER + INTRA:          -5.724
REMARK INTER:                  -5.248
REMARK INTRA:                  -0.476
REMARK UNBOUND:                -0.509
REMARK SMILES O=C[C@H](O)[C@@H](O)[C@@H](O)CO
REMARK SMILES IDX 7 1 9 2 10 3 5 5 3 6 2 7 1 8 4 9 6 11 8 13
REMARK H PARENT 10 4 4 10 6 12 8 14
REMARK Flexibility Score: inf
ROOT
ATOM      1  C   UNL     1       6.114  -1.922  -5.196  1.00  0.00     0.171 C 
ENDROOT
BRANCH   1   2
ATOM      2  C   UNL     1       6.024  -1.638  -6.711  1.00  0.00     0.190 C 
BRANCH   2   3
ATOM      3  O   UNL     1       5.318  -0.448  -6.941  1.00  0.00    -0.394 OA
ATOM      4  H   UNL     1       5.150  -0.040  -6.052  1.00  0.00     0.210 HD
ENDBRANCH   2   3
ENDBRANCH   1   2
BRANCH   1   5
ATOM      5  C   UNL     1       5.269  -3.141  -4.722  1.00  0.00     0.181 C 
BRANCH   5   6
ATOM      6  C   UNL     1       6.099  -4.410  -4.401  1.00  0.00     0.209 C 
BRANCH   6   7
ATOM      7  C   UNL     1       5.222  -5.632  -4.347  1.00  0.00     0.258 C 
ATOM      8  O   UNL     1       4.015  -5.522  -4.203  1.00  0.00    -0.300 OA
ENDBRANCH   6   7
BRANCH   6   9
ATOM      9  O   UNL     1       6.722  -4.243  -3.155  1.00  0.00    -0.383 OA
ATOM     10  H   UNL     1       6.940  -5.151  -2.817  1.00  0.00     0.211 HD
ENDBRANCH   6   9
ENDBRANCH   5   6
BRANCH   5  11
ATOM     11  O   UNL     1       4.446  -2.792  -3.636  1.00  0.00    -0.387 OA
ATOM     12  H   UNL     1       4.544  -1.818  -3.476  1.00  0.00     0.211 HD
ENDBRANCH   5  11
ENDBRANCH   1   5
BRANCH   1  13
ATOM     13  O   UNL     1       7.456  -2.087  -4.809  1.00  0.00    -0.388 OA
ATOM     14  H   UNL     1       7.925  -1.225  -4.966  1.00  0.00     0.211 HD
ENDBRANCH   1  13
TORSDOF 8
ENDMDL
MODEL 4
REMARK VINA RESULT:    -3.838      1.763      2.745
REMARK INTER + INTRA:          -5.693
REMARK INTER:                  -5.253
REMARK INTRA:                  -0.440
REMARK UNBOUND:                -0.509
REMARK SMILES O=C[C@H](O)[C@@H](O)[C@@H](O)CO
REMARK SMILES IDX 7 1 9 2 10 3 5 5 3 6 2 7 1 8 4 9 6 11 8 13
REMARK H PARENT 10 4 4 10 6 12 8 14
REMARK Flexibility Score: inf
ROOT
ATOM      1  C   UNL     1       5.620  -2.815  -5.884  1.00  0.00     0.171 C 
ENDROOT
BRANCH   1   2
ATOM      2  C   UNL     1       6.737  -1.850  -5.430  1.00  0.00     0.190 C 
BRANCH   2   3
ATOM      3  O   UNL     1       6.185  -0.750  -4.756  1.00  0.00    -0.394 OA
ATOM      4  H   UNL     1       5.656  -0.243  -5.425  1.00  0.00     0.210 HD
ENDBRANCH   2   3
ENDBRANCH   1   2
BRANCH   1   5
ATOM      5  C   UNL     1       5.095  -3.758  -4.762  1.00  0.00     0.181 C 
BRANCH   5   6
ATOM      6  C   UNL     1       6.102  -4.852  -4.322  1.00  0.00     0.209 C 
BRANCH   6   7
ATOM      7  C   UNL     1       5.395  -6.140  -3.994  1.00  0.00     0.258 C 
ATOM      8  O   UNL     1       4.176  -6.182  -3.947  1.00  0.00    -0.300 OA
ENDBRANCH   6   7
BRANCH   6   9
ATOM      9  O   UNL     1       6.787  -4.407  -3.181  1.00  0.00    -0.383 OA
ATOM     10  H   UNL     1       7.239  -3.557  -3.428  1.00  0.00     0.211 HD
ENDBRANCH   6   9
ENDBRANCH   5   6
BRANCH   5  11
ATOM     11  O   UNL     1       4.641  -3.020  -3.654  1.00  0.00    -0.387 OA
ATOM     12  H   UNL     1       3.869  -3.502  -3.260  1.00  0.00     0.211 HD
ENDBRANCH   5  11
ENDBRANCH   1   5
BRANCH   1  13
ATOM     13  O   UNL     1       4.551  -2.094  -6.446  1.00  0.00    -0.388 OA
ATOM     14  H   UNL     1       3.747  -2.678  -6.424  1.00  0.00     0.211 HD
ENDBRANCH   1  13
TORSDOF 8
ENDMDL
MODEL 5
REMARK VINA RESULT:    -3.816      1.045      4.469
REMARK INTER + INTRA:          -5.663
REMARK INTER:                  -4.984
REMARK INTRA:                  -0.679
REMARK UNBOUND:                -0.509
REMARK SMILES O=C[C@H](O)[C@@H](O)[C@@H](O)CO
REMARK SMILES IDX 7 1 9 2 10 3 5 5 3 6 2 7 1 8 4 9 6 11 8 13
REMARK H PARENT 10 4 4 10 6 12 8 14
REMARK Flexibility Score: inf
ROOT
ATOM      1  C   UNL     1       6.017  -4.182  -4.435  1.00  0.00     0.171 C 
ENDROOT
BRANCH   1   2
ATOM      2  C   UNL     1       4.998  -5.327  -4.619  1.00  0.00     0.190 C 
BRANCH   2   3
ATOM      3  O   UNL     1       3.905  -5.148  -3.759  1.00  0.00    -0.394 OA
ATOM      4  H   UNL     1       4.050  -5.750  -2.984  1.00  0.00     0.210 HD
ENDBRANCH   2   3
ENDBRANCH   1   2
BRANCH   1   5
ATOM      5  C   UNL     1       5.387  -2.758  -4.451  1.00  0.00     0.181 C 
BRANCH   5   6
ATOM      6  C   UNL     1       6.283  -1.668  -5.094  1.00  0.00     0.209 C 
BRANCH   6   7
ATOM      7  C   UNL     1       6.105  -1.633  -6.589  1.00  0.00     0.258 C 
ATOM      8  O   UNL     1       5.159  -1.043  -7.086  1.00  0.00    -0.300 OA
ENDBRANCH   6   7
BRANCH   6   9
ATOM      9  O   UNL     1       7.626  -1.953  -4.803  1.00  0.00    -0.383 OA
ATOM     10  H   UNL     1       7.873  -2.756  -5.334  1.00  0.00     0.211 HD
ENDBRANCH   6   9
ENDBRANCH   5   6
BRANCH   5  11
ATOM     11  O   UNL     1       4.113  -2.776  -5.048  1.00  0.00    -0.387 OA
ATOM     12  H   UNL     1       3.986  -1.917  -5.526  1.00  0.00     0.211 HD
ENDBRANCH   5  11
ENDBRANCH   1   5
BRANCH   1  13
ATOM     13  O   UNL     1       6.754  -4.369  -3.252  1.00  0.00    -0.388 OA
ATOM     14  H   UNL     1       6.644  -3.554  -2.694  1.00  0.00     0.211 HD
ENDBRANCH   1  13
TORSDOF 8
ENDMDL
MODEL 6
REMARK VINA RESULT:    -3.809      0.966      3.817
REMARK INTER + INTRA:          -5.654
REMARK INTER:                  -5.180
REMARK INTRA:                  -0.474
REMARK UNBOUND:                -0.509
REMARK SMILES O=C[C@H](O)[C@@H](O)[C@@H](O)CO
REMARK SMILES IDX 7 1 9 2 10 3 5 5 3 6 2 7 1 8 4 9 6 11 8 13
REMARK H PARENT 10 4 4 10 6 12 8 14
REMARK Flexibility Score: inf
ROOT
ATOM      1  C   UNL     1       5.421  -2.974  -4.310  1.00  0.00     0.171 C 
ENDROOT
BRANCH   1   2
ATOM      2  C   UNL     1       5.916  -4.436  -4.255  1.00  0.00     0.190 C 
BRANCH   2   3
ATOM      3  O   UNL     1       6.805  -4.608  -3.184  1.00  0.00    -0.394 OA
ATOM      4  H   UNL     1       6.318  -4.333  -2.363  1.00  0.00     0.210 HD
ENDBRANCH   2   3
ENDBRANCH   1   2
BRANCH   1   5
ATOM      5  C   UNL     1       6.280  -2.042  -5.214  1.00  0.00     0.181 C 
BRANCH   5   6
ATOM      6  C   UNL     1       5.922  -2.102  -6.721  1.00  0.00     0.209 C 
BRANCH   6   7
ATOM      7  C   UNL     1       7.131  -1.836  -7.577  1.00  0.00     0.258 C 
ATOM      8  O   UNL     1       8.152  -1.383  -7.084  1.00  0.00    -0.300 OA
ENDBRANCH   6   7
BRANCH   6   9
ATOM      9  O   UNL     1       4.948  -1.130  -6.996  1.00  0.00    -0.383 OA
ATOM     10  H   UNL     1       4.565  -0.850  -6.124  1.00  0.00     0.211 HD
ENDBRANCH   6   9
ENDBRANCH   5   6
BRANCH   5  11
ATOM     11  O   UNL     1       6.250  -0.716  -4.745  1.00  0.00    -0.387 OA
ATOM     12  H   UNL     1       6.399  -0.734  -3.764  1.00  0.00     0.211 HD
ENDBRANCH   5  11
ENDBRANCH   1   5
BRANCH   1  13
ATOM     13  O   UNL     1       4.075  -2.929  -4.715  1.00  0.00    -0.388 OA
ATOM     14  H   UNL     1       3.863  -1.990  -4.961  1.00  0.00     0.211 HD
ENDBRANCH   1  13
TORSDOF 8
ENDMDL
MODEL 7
REMARK VINA RESULT:    -3.794     11.644     13.058
REMARK INTER + INTRA:          -5.634
REMARK INTER:                  -5.465
REMARK INTRA:                  -0.169
REMARK UNBOUND:                -0.509
REMARK SMILES O=C[C@H](O)[C@@H](O)[C@@H](O)CO
REMARK SMILES IDX 7 1 9 2 10 3 5 5 3 6 2 7 1 8 4 9 6 11 8 13
REMARK H PARENT 10 4 4 10 6 12 8 14
REMARK Flexibility Score: inf
ROOT
ATOM      1  C   UNL     1      -5.946  -4.842   0.328  1.00  0.00     0.171 C 
ENDROOT
BRANCH   1   2
ATOM      2  C   UNL     1      -5.538  -4.886  -1.161  1.00  0.00     0.190 C 
BRANCH   2   3
ATOM      3  O   UNL     1      -6.419  -4.111  -1.929  1.00  0.00    -0.394 OA
ATOM      4  H   UNL     1      -7.335  -4.434  -1.725  1.00  0.00     0.210 HD
ENDBRANCH   2   3
ENDBRANCH   1   2
BRANCH   1   5
ATOM      5  C   UNL     1      -4.837  -4.303   1.278  1.00  0.00     0.181 C 
BRANCH   5   6
ATOM      6  C   UNL     1      -3.432  -4.201   0.632  1.00  0.00     0.209 C 
BRANCH   6   7
ATOM      7  C   UNL     1      -2.496  -5.232   1.202  1.00  0.00     0.258 C 
ATOM      8  O   UNL     1      -2.729  -5.749   2.283  1.00  0.00    -0.300 OA
ENDBRANCH   6   7
BRANCH   6   9
ATOM      9  O   UNL     1      -2.908  -2.923   0.883  1.00  0.00    -0.383 OA
ATOM     10  H   UNL     1      -2.404  -2.981   1.737  1.00  0.00     0.211 HD
ENDBRANCH   6   9
ENDBRANCH   5   6
BRANCH   5  11
ATOM     11  O   UNL     1      -5.216  -3.075   1.850  1.00  0.00    -0.387 OA
ATOM     12  H   UNL     1      -5.522  -3.249   2.777  1.00  0.00     0.211 HD
ENDBRANCH   5  11
ENDBRANCH   1   5
BRANCH   1  13
ATOM     13  O   UNL     1      -7.125  -4.091   0.489  1.00  0.00    -0.388 OA
ATOM     14  H   UNL     1      -7.298  -3.611  -0.364  1.00  0.00     0.211 HD
ENDBRANCH   1  13
TORSDOF 8
ENDMDL
MODEL 8
REMARK VINA RESULT:    -3.773      1.995      4.153
REMARK INTER + INTRA:          -5.605
REMARK INTER:                  -4.624
REMARK INTRA:                  -0.981
REMARK UNBOUND:                -0.509
REMARK SMILES O=C[C@H](O)[C@@H](O)[C@@H](O)CO
REMARK SMILES IDX 7 1 9 2 10 3 5 5 3 6 2 7 1 8 4 9 6 11 8 13
REMARK H PARENT 10 4 4 10 6 12 8 14
REMARK Flexibility Score: inf
ROOT
ATOM      1  C   UNL     1       5.221  -5.207  -4.388  1.00  0.00     0.171 C 
ENDROOT
BRANCH   1   2
ATOM      2  C   UNL     1       6.474  -5.638  -3.596  1.00  0.00     0.190 C 
BRANCH   2   3
ATOM      3  O   UNL     1       7.063  -4.527  -2.975  1.00  0.00    -0.394 OA
ATOM      4  H   UNL     1       7.613  -4.877  -2.227  1.00  0.00     0.210 HD
ENDBRANCH   2   3
ENDBRANCH   1   2
BRANCH   1   5
ATOM      5  C   UNL     1       5.517  -4.250  -5.580  1.00  0.00     0.181 C 
BRANCH   5   6
ATOM      6  C   UNL     1       5.243  -2.753  -5.284  1.00  0.00     0.209 C 
BRANCH   6   7
ATOM      7  C   UNL     1       6.480  -1.922  -5.496  1.00  0.00     0.258 C 
ATOM      8  O   UNL     1       7.428  -2.018  -4.733  1.00  0.00    -0.300 OA
ENDBRANCH   6   7
BRANCH   6   9
ATOM      9  O   UNL     1       4.831  -2.622  -3.948  1.00  0.00    -0.383 OA
ATOM     10  H   UNL     1       5.622  -2.822  -3.381  1.00  0.00     0.211 HD
ENDBRANCH   6   9
ENDBRANCH   5   6
BRANCH   5  11
ATOM     11  O   UNL     1       6.826  -4.433  -6.062  1.00  0.00    -0.387 OA
ATOM     12  H   UNL     1       7.067  -3.640  -6.606  1.00  0.00     0.211 HD
ENDBRANCH   5  11
ENDBRANCH   1   5
BRANCH   1  13
ATOM     13  O   UNL     1       4.517  -6.337  -4.842  1.00  0.00    -0.388 OA
ATOM     14  H   UNL     1       4.466  -6.284  -5.833  1.00  0.00     0.211 HD
ENDBRANCH   1  13
TORSDOF 8
ENDMDL
