MODEL 1
REMARK VINA RESULT:    -5.163      0.000      0.000
REMARK INTER + INTRA:          -6.386
REMARK INTER:                  -6.069
REMARK INTRA:                  -0.317
REMARK UNBOUND:                -0.317
REMARK SMILES O=c1c(O)c(-c2ccc(O)c(O)c2)oc2cc(O)ccc12
REMARK SMILES IDX 5 1 3 2 2 3 1 4 21 5 15 6 14 7 16 8 17 9 19 10 20 11 6 12
REMARK SMILES IDX 7 13 8 14 9 15 13 16 11 17 10 18 12 20 4 22 18 24
REMARK H PARENT 10 19 12 21 4 23 18 25
REMARK Flexibility Score: inf
ROOT
ATOM      1  C   UNL     1      -2.357 -10.414   5.590  1.00  0.00     0.180 A 
ATOM      2  C   UNL     1      -1.413  -9.367   5.549  1.00  0.00     0.208 A 
ATOM      3  C   UNL     1      -0.049  -9.689   5.483  1.00  0.00     0.235 A 
ATOM      4  O   UNL     1       0.816  -8.771   5.455  1.00  0.00    -0.285 OA
ATOM      5  C   UNL     1       0.341 -11.038   5.439  1.00  0.00     0.069 A 
ATOM      6  C   UNL     1      -0.667 -12.025   5.461  1.00  0.00     0.142 A 
ATOM      7  O   UNL     1      -1.946 -11.679   5.532  1.00  0.00    -0.452 OA
ATOM      8  C   UNL     1      -0.319 -13.379   5.409  1.00  0.00     0.094 A 
ATOM      9  C   UNL     1       1.025 -13.762   5.338  1.00  0.00     0.119 A 
ATOM     10  C   UNL     1       2.028 -12.783   5.318  1.00  0.00     0.047 A 
ATOM     11  C   UNL     1       1.691 -11.427   5.367  1.00  0.00     0.020 A 
ENDROOT
BRANCH   1  12
ATOM     12  C   UNL     1      -3.813 -10.157   5.678  1.00  0.00     0.025 A 
ATOM     13  C   UNL     1      -4.599  -9.993   4.524  1.00  0.00     0.016 A 
ATOM     14  C   UNL     1      -5.966  -9.726   4.632  1.00  0.00     0.051 A 
ATOM     15  C   UNL     1      -6.566  -9.607   5.890  1.00  0.00     0.157 A 
ATOM     16  C   UNL     1      -4.414 -10.015   6.939  1.00  0.00     0.062 A 
ATOM     17  C   UNL     1      -5.787  -9.747   7.050  1.00  0.00     0.158 A 
BRANCH  15  18
ATOM     18  O   UNL     1      -7.934  -9.342   5.966  1.00  0.00    -0.504 OA
ATOM     19  H   UNL     1      -8.306  -8.404   5.876  1.00  0.00     0.293 HD
ENDBRANCH  15  18
BRANCH  17  20
ATOM     20  O   UNL     1      -6.376  -9.622   8.307  1.00  0.00    -0.504 OA
ATOM     21  H   UNL     1      -5.858  -9.808   9.157  1.00  0.00     0.293 HD
ENDBRANCH  17  20
ENDBRANCH   1  12
BRANCH   2  22
ATOM     22  O   UNL     1      -1.833  -8.035   5.544  1.00  0.00    -0.502 OA
ATOM     23  H   UNL     1      -1.619  -7.396   6.300  1.00  0.00     0.293 HD
ENDBRANCH   2  22
BRANCH   9  24
ATOM     24  O   UNL     1       1.353 -15.115   5.287  1.00  0.00    -0.508 OA
ATOM     25  H   UNL     1       0.645 -15.826   5.151  1.00  0.00     0.293 HD
ENDBRANCH   9  24
TORSDOF 5
ENDMDL
MODEL 2
REMARK VINA RESULT:    -4.754      1.641      7.009
REMARK INTER + INTRA:          -5.905
REMARK INTER:                  -5.633
REMARK INTRA:                  -0.273
REMARK UNBOUND:                -0.317
REMARK SMILES O=c1c(O)c(-c2ccc(O)c(O)c2)oc2cc(O)ccc12
REMARK SMILES IDX 5 1 3 2 2 3 1 4 21 5 15 6 14 7 16 8 17 9 19 10 20 11 6 12
REMARK SMILES IDX 7 13 8 14 9 15 13 16 11 17 10 18 12 20 4 22 18 24
REMARK H PARENT 10 19 12 21 4 23 18 25
REMARK Flexibility Score: inf
ROOT
ATOM      1  C   UNL     1      -2.371 -11.394   6.365  1.00  0.00     0.180 A 
ATOM      2  C   UNL     1      -3.044 -11.721   7.562  1.00  0.00     0.208 A 
ATOM      3  C   UNL     1      -4.361 -11.273   7.740  1.00  0.00     0.235 A 
ATOM      4  O   UNL     1      -4.981 -11.544   8.806  1.00  0.00    -0.285 OA
ATOM      5  C   UNL     1      -4.983 -10.530   6.723  1.00  0.00     0.069 A 
ATOM      6  C   UNL     1      -4.250 -10.265   5.547  1.00  0.00     0.142 A 
ATOM      7  O   UNL     1      -3.002 -10.699   5.420  1.00  0.00    -0.452 OA
ATOM      8  C   UNL     1      -4.837  -9.537   4.506  1.00  0.00     0.094 A 
ATOM      9  C   UNL     1      -6.150  -9.067   4.626  1.00  0.00     0.119 A 
ATOM     10  C   UNL     1      -6.880  -9.329   5.793  1.00  0.00     0.047 A 
ATOM     11  C   UNL     1      -6.303 -10.057   6.838  1.00  0.00     0.020 A 
ENDROOT
BRANCH   1  12
ATOM     12  C   UNL     1      -0.974 -11.813   6.109  1.00  0.00     0.025 A 
ATOM     13  C   UNL     1       0.093 -10.904   6.210  1.00  0.00     0.016 A 
ATOM     14  C   UNL     1       1.400 -11.317   5.940  1.00  0.00     0.051 A 
ATOM     15  C   UNL     1       1.660 -12.635   5.553  1.00  0.00     0.157 A 
ATOM     16  C   UNL     1      -0.713 -13.130   5.700  1.00  0.00     0.062 A 
ATOM     17  C   UNL     1       0.599 -13.547   5.427  1.00  0.00     0.158 A 
BRANCH  15  18
ATOM     18  O   UNL     1       2.976 -13.018   5.291  1.00  0.00    -0.504 OA
ATOM     19  H   UNL     1       3.284 -13.284   4.363  1.00  0.00     0.293 HD
ENDBRANCH  15  18
BRANCH  17  20
ATOM     20  O   UNL     1       0.849 -14.860   5.035  1.00  0.00    -0.504 OA
ATOM     21  H   UNL     1       0.812 -15.628   5.695  1.00  0.00     0.293 HD
ENDBRANCH  17  20
ENDBRANCH   1  12
BRANCH   2  22
ATOM     22  O   UNL     1      -2.418 -12.503   8.534  1.00  0.00    -0.502 OA
ATOM     23  H   UNL     1      -1.481 -12.306   8.869  1.00  0.00     0.293 HD
ENDBRANCH   2  22
BRANCH   9  24
ATOM     24  O   UNL     1      -6.719  -8.344   3.580  1.00  0.00    -0.508 OA
ATOM     25  H   UNL     1      -6.151  -7.801   2.942  1.00  0.00     0.293 HD
ENDBRANCH   9  24
TORSDOF 5
ENDMDL
MODEL 3
REMARK VINA RESULT:    -4.635      9.465     12.299
REMARK INTER + INTRA:          -5.765
REMARK INTER:                  -5.455
REMARK INTRA:                  -0.310
REMARK UNBOUND:                -0.317
REMARK SMILES O=c1c(O)c(-c2ccc(O)c(O)c2)oc2cc(O)ccc12
REMARK SMILES IDX 5 1 3 2 2 3 1 4 21 5 15 6 14 7 16 8 17 9 19 10 20 11 6 12
REMARK SMILES IDX 7 13 8 14 9 15 13 16 11 17 10 18 12 20 4 22 18 24
REMARK H PARENT 10 19 12 21 4 23 18 25
REMARK Flexibility Score: inf
ROOT
ATOM      1  C   UNL     1     -13.467 -13.266   5.643  1.00  0.00     0.180 A 
ATOM      2  C   UNL     1     -14.479 -13.662   6.543  1.00  0.00     0.208 A 
ATOM      3  C   UNL     1     -14.256 -13.507   7.920  1.00  0.00     0.235 A 
ATOM      4  O   UNL     1     -15.141 -13.863   8.746  1.00  0.00    -0.285 OA
ATOM      5  C   UNL     1     -13.048 -12.947   8.366  1.00  0.00     0.069 A 
ATOM      6  C   UNL     1     -12.097 -12.554   7.400  1.00  0.00     0.142 A 
ATOM      7  O   UNL     1     -12.342 -12.726   6.107  1.00  0.00    -0.452 OA
ATOM      8  C   UNL     1     -10.886 -11.983   7.804  1.00  0.00     0.094 A 
ATOM      9  C   UNL     1     -10.609 -11.800   9.163  1.00  0.00     0.119 A 
ATOM     10  C   UNL     1     -11.552 -12.190  10.125  1.00  0.00     0.047 A 
ATOM     11  C   UNL     1     -12.766 -12.760   9.732  1.00  0.00     0.020 A 
ENDROOT
BRANCH   1  12
ATOM     12  C   UNL     1     -13.618 -13.413   4.177  1.00  0.00     0.025 A 
ATOM     13  C   UNL     1     -13.089 -14.523   3.495  1.00  0.00     0.016 A 
ATOM     14  C   UNL     1     -13.222 -14.629   2.108  1.00  0.00     0.051 A 
ATOM     15  C   UNL     1     -13.871 -13.627   1.381  1.00  0.00     0.157 A 
ATOM     16  C   UNL     1     -14.251 -12.399   3.442  1.00  0.00     0.062 A 
ATOM     17  C   UNL     1     -14.385 -12.503   2.049  1.00  0.00     0.158 A 
BRANCH  15  18
ATOM     18  O   UNL     1     -13.990 -13.761  -0.002  1.00  0.00    -0.504 OA
ATOM     19  H   UNL     1     -14.395 -14.586  -0.430  1.00  0.00     0.293 HD
ENDBRANCH  15  18
BRANCH  17  20
ATOM     20  O   UNL     1     -15.027 -11.496   1.330  1.00  0.00    -0.504 OA
ATOM     21  H   UNL     1     -15.672 -11.709   0.579  1.00  0.00     0.293 HD
ENDBRANCH  17  20
ENDBRANCH   1  12
BRANCH   2  22
ATOM     22  O   UNL     1     -15.689 -14.171   6.068  1.00  0.00    -0.502 OA
ATOM     23  H   UNL     1     -15.897 -14.244   5.079  1.00  0.00     0.293 HD
ENDBRANCH   2  22
BRANCH   9  24
ATOM     24  O   UNL     1      -9.398 -11.229   9.548  1.00  0.00    -0.508 OA
ATOM     25  H   UNL     1      -8.730 -11.738  10.114  1.00  0.00     0.293 HD
ENDBRANCH   9  24
TORSDOF 5
ENDMDL
MODEL 4
REMARK VINA RESULT:    -4.609      2.448      4.365
REMARK INTER + INTRA:          -5.735
REMARK INTER:                  -5.436
REMARK INTRA:                  -0.299
REMARK UNBOUND:                -0.317
REMARK SMILES O=c1c(O)c(-c2ccc(O)c(O)c2)oc2cc(O)ccc12
REMARK SMILES IDX 5 1 3 2 2 3 1 4 21 5 15 6 14 7 16 8 17 9 19 10 20 11 6 12
REMARK SMILES IDX 7 13 8 14 9 15 13 16 11 17 10 18 12 20 4 22 18 24
REMARK H PARENT 10 19 12 21 4 23 18 25
REMARK Flexibility Score: inf
ROOT
ATOM      1  C   UNL     1       0.122 -12.558   6.670  1.00  0.00     0.180 A 
ATOM      2  C   UNL     1       0.496 -12.673   8.025  1.00  0.00     0.208 A 
ATOM      3  C   UNL     1       1.399 -13.682   8.394  1.00  0.00     0.235 A 
ATOM      4  O   UNL     1       1.741 -13.811   9.603  1.00  0.00    -0.285 OA
ATOM      5  C   UNL     1       1.922 -14.535   7.410  1.00  0.00     0.069 A 
ATOM      6  C   UNL     1       1.516 -14.340   6.073  1.00  0.00     0.142 A 
ATOM      7  O   UNL     1       0.652 -13.380   5.765  1.00  0.00    -0.452 OA
ATOM      8  C   UNL     1       2.022 -15.163   5.061  1.00  0.00     0.094 A 
ATOM      9  C   UNL     1       2.929 -16.184   5.368  1.00  0.00     0.119 A 
ATOM     10  C   UNL     1       3.333 -16.380   6.696  1.00  0.00     0.047 A 
ATOM     11  C   UNL     1       2.834 -15.562   7.713  1.00  0.00     0.020 A 
ENDROOT
BRANCH   1  12
ATOM     12  C   UNL     1      -0.839 -11.533   6.203  1.00  0.00     0.025 A 
ATOM     13  C   UNL     1      -2.225 -11.701   6.365  1.00  0.00     0.016 A 
ATOM     14  C   UNL     1      -3.114 -10.732   5.895  1.00  0.00     0.051 A 
ATOM     15  C   UNL     1      -2.636  -9.589   5.247  1.00  0.00     0.157 A 
ATOM     16  C   UNL     1      -0.363 -10.395   5.533  1.00  0.00     0.062 A 
ATOM     17  C   UNL     1      -1.254  -9.420   5.060  1.00  0.00     0.158 A 
BRANCH  15  18
ATOM     18  O   UNL     1      -3.548  -8.637   4.789  1.00  0.00    -0.504 OA
ATOM     19  H   UNL     1      -3.534  -8.292   3.837  1.00  0.00     0.293 HD
ENDBRANCH  15  18
BRANCH  17  20
ATOM     20  O   UNL     1      -0.771  -8.287   4.408  1.00  0.00    -0.504 OA
ATOM     21  H   UNL     1      -0.195  -7.604   4.886  1.00  0.00     0.293 HD
ENDBRANCH  17  20
ENDBRANCH   1  12
BRANCH   2  22
ATOM     22  O   UNL     1      -0.003 -11.779   8.975  1.00  0.00    -0.502 OA
ATOM     23  H   UNL     1       0.264 -11.819   9.951  1.00  0.00     0.293 HD
ENDBRANCH   2  22
BRANCH   9  24
ATOM     24  O   UNL     1       3.423 -16.994   4.349  1.00  0.00    -0.508 OA
ATOM     25  H   UNL     1       3.932 -16.606   3.564  1.00  0.00     0.293 HD
ENDBRANCH   9  24
TORSDOF 5
ENDMDL
MODEL 5
REMARK VINA RESULT:    -4.592     12.415     13.889
REMARK INTER + INTRA:          -5.715
REMARK INTER:                  -5.400
REMARK INTRA:                  -0.315
REMARK UNBOUND:                -0.317
REMARK SMILES O=c1c(O)c(-c2ccc(O)c(O)c2)oc2cc(O)ccc12
REMARK SMILES IDX 5 1 3 2 2 3 1 4 21 5 15 6 14 7 16 8 17 9 19 10 20 11 6 12
REMARK SMILES IDX 7 13 8 14 9 15 13 16 11 17 10 18 12 20 4 22 18 24
REMARK H PARENT 10 19 12 21 4 23 18 25
REMARK Flexibility Score: inf
ROOT
ATOM      1  C   UNL     1     -14.358 -12.770   1.898  1.00  0.00     0.180 A 
ATOM      2  C   UNL     1     -13.576 -13.916   2.151  1.00  0.00     0.208 A 
ATOM      3  C   UNL     1     -13.435 -14.358   3.476  1.00  0.00     0.235 A 
ATOM      4  O   UNL     1     -12.733 -15.375   3.730  1.00  0.00    -0.285 OA
ATOM      5  C   UNL     1     -14.088 -13.666   4.508  1.00  0.00     0.069 A 
ATOM      6  C   UNL     1     -14.871 -12.543   4.168  1.00  0.00     0.142 A 
ATOM      7  O   UNL     1     -14.972 -12.150   2.904  1.00  0.00    -0.452 OA
ATOM      8  C   UNL     1     -15.546 -11.833   5.167  1.00  0.00     0.094 A 
ATOM      9  C   UNL     1     -15.447 -12.229   6.506  1.00  0.00     0.119 A 
ATOM     10  C   UNL     1     -14.669 -13.344   6.846  1.00  0.00     0.047 A 
ATOM     11  C   UNL     1     -13.993 -14.061   5.856  1.00  0.00     0.020 A 
ENDROOT
BRANCH   1  12
ATOM     12  C   UNL     1     -14.540 -12.229   0.531  1.00  0.00     0.025 A 
ATOM     13  C   UNL     1     -15.619 -12.629  -0.277  1.00  0.00     0.016 A 
ATOM     14  C   UNL     1     -15.757 -12.124  -1.572  1.00  0.00     0.051 A 
ATOM     15  C   UNL     1     -14.816 -11.226  -2.085  1.00  0.00     0.157 A 
ATOM     16  C   UNL     1     -13.586 -11.343   0.006  1.00  0.00     0.062 A 
ATOM     17  C   UNL     1     -13.722 -10.835  -1.295  1.00  0.00     0.158 A 
BRANCH  15  18
ATOM     18  O   UNL     1     -14.981 -10.737  -3.381  1.00  0.00    -0.504 OA
ATOM     19  H   UNL     1     -14.572  -9.860  -3.681  1.00  0.00     0.293 HD
ENDBRANCH  15  18
BRANCH  17  20
ATOM     20  O   UNL     1     -12.776  -9.946  -1.801  1.00  0.00    -0.504 OA
ATOM     21  H   UNL     1     -12.865  -8.945  -1.671  1.00  0.00     0.293 HD
ENDBRANCH  17  20
ENDBRANCH   1  12
BRANCH   2  22
ATOM     22  O   UNL     1     -12.978 -14.612   1.099  1.00  0.00    -0.502 OA
ATOM     23  H   UNL     1     -13.498 -15.247   0.504  1.00  0.00     0.293 HD
ENDBRANCH   2  22
BRANCH   9  24
ATOM     24  O   UNL     1     -16.125 -11.511   7.488  1.00  0.00    -0.508 OA
ATOM     25  H   UNL     1     -15.629 -10.964   8.181  1.00  0.00     0.293 HD
ENDBRANCH   9  24
TORSDOF 5
ENDMDL
MODEL 6
REMARK VINA RESULT:    -4.585      1.526      6.535
REMARK INTER + INTRA:          -5.706
REMARK INTER:                  -5.390
REMARK INTRA:                  -0.316
REMARK UNBOUND:                -0.317
REMARK SMILES O=c1c(O)c(-c2ccc(O)c(O)c2)oc2cc(O)ccc12
REMARK SMILES IDX 5 1 3 2 2 3 1 4 21 5 15 6 14 7 16 8 17 9 19 10 20 11 6 12
REMARK SMILES IDX 7 13 8 14 9 15 13 16 11 17 10 18 12 20 4 22 18 24
REMARK H PARENT 10 19 12 21 4 23 18 25
REMARK Flexibility Score: inf
ROOT
ATOM      1  C   UNL     1      -1.125 -11.331   6.079  1.00  0.00     0.180 A 
ATOM      2  C   UNL     1      -0.481 -10.092   5.877  1.00  0.00     0.208 A 
ATOM      3  C   UNL     1      -1.248  -8.992   5.462  1.00  0.00     0.235 A 
ATOM      4  O   UNL     1      -0.694  -7.875   5.265  1.00  0.00    -0.285 OA
ATOM      5  C   UNL     1      -2.632  -9.144   5.279  1.00  0.00     0.069 A 
ATOM      6  C   UNL     1      -3.203 -10.410   5.525  1.00  0.00     0.142 A 
ATOM      7  O   UNL     1      -2.442 -11.429   5.907  1.00  0.00    -0.452 OA
ATOM      8  C   UNL     1      -4.580 -10.599   5.363  1.00  0.00     0.094 A 
ATOM      9  C   UNL     1      -5.396  -9.538   4.956  1.00  0.00     0.119 A 
ATOM     10  C   UNL     1      -4.830  -8.279   4.710  1.00  0.00     0.047 A 
ATOM     11  C   UNL     1      -3.457  -8.079   4.870  1.00  0.00     0.020 A 
ENDROOT
BRANCH   1  12
ATOM     12  C   UNL     1      -0.384 -12.542   6.498  1.00  0.00     0.025 A 
ATOM     13  C   UNL     1      -0.214 -12.864   7.856  1.00  0.00     0.016 A 
ATOM     14  C   UNL     1       0.510 -13.999   8.228  1.00  0.00     0.051 A 
ATOM     15  C   UNL     1       1.085 -14.822   7.255  1.00  0.00     0.157 A 
ATOM     16  C   UNL     1       0.212 -13.359   5.524  1.00  0.00     0.062 A 
ATOM     17  C   UNL     1       0.940 -14.499   5.896  1.00  0.00     0.158 A 
BRANCH  15  18
ATOM     18  O   UNL     1       1.800 -15.950   7.657  1.00  0.00    -0.504 OA
ATOM     19  H   UNL     1       1.340 -16.812   7.925  1.00  0.00     0.293 HD
ENDBRANCH  15  18
BRANCH  17  20
ATOM     20  O   UNL     1       1.516 -15.311   4.920  1.00  0.00    -0.504 OA
ATOM     21  H   UNL     1       2.130 -16.079   5.163  1.00  0.00     0.293 HD
ENDBRANCH  17  20
ENDBRANCH   1  12
BRANCH   2  22
ATOM     22  O   UNL     1       0.888  -9.959   6.114  1.00  0.00    -0.502 OA
ATOM     23  H   UNL     1       1.320  -9.064   6.315  1.00  0.00     0.293 HD
ENDBRANCH   2  22
BRANCH   9  24
ATOM     24  O   UNL     1      -6.764  -9.744   4.800  1.00  0.00    -0.508 OA
ATOM     25  H   UNL     1      -7.366  -9.028   4.411  1.00  0.00     0.293 HD
ENDBRANCH   9  24
TORSDOF 5
ENDMDL
MODEL 7
REMARK VINA RESULT:    -4.546      1.558      2.657
REMARK INTER + INTRA:          -5.661
REMARK INTER:                  -5.377
REMARK INTRA:                  -0.283
REMARK UNBOUND:                -0.317
REMARK SMILES O=c1c(O)c(-c2ccc(O)c(O)c2)oc2cc(O)ccc12
REMARK SMILES IDX 5 1 3 2 2 3 1 4 21 5 15 6 14 7 16 8 17 9 19 10 20 11 6 12
REMARK SMILES IDX 7 13 8 14 9 15 13 16 11 17 10 18 12 20 4 22 18 24
REMARK H PARENT 10 19 12 21 4 23 18 25
REMARK Flexibility Score: inf
ROOT
ATOM      1  C   UNL     1      -2.603 -11.022   6.020  1.00  0.00     0.180 A 
ATOM      2  C   UNL     1      -2.501 -12.179   6.822  1.00  0.00     0.208 A 
ATOM      3  C   UNL     1      -1.251 -12.803   6.950  1.00  0.00     0.235 A 
ATOM      4  O   UNL     1      -1.135 -13.845   7.653  1.00  0.00    -0.285 OA
ATOM      5  C   UNL     1      -0.134 -12.256   6.298  1.00  0.00     0.069 A 
ATOM      6  C   UNL     1      -0.316 -11.084   5.534  1.00  0.00     0.142 A 
ATOM      7  O   UNL     1      -1.516 -10.527   5.430  1.00  0.00    -0.452 OA
ATOM      8  C   UNL     1       0.774 -10.502   4.877  1.00  0.00     0.094 A 
ATOM      9  C   UNL     1       2.046 -11.078   4.971  1.00  0.00     0.119 A 
ATOM     10  C   UNL     1       2.228 -12.243   5.729  1.00  0.00     0.047 A 
ATOM     11  C   UNL     1       1.147 -12.831   6.390  1.00  0.00     0.020 A 
ENDROOT
BRANCH   1  12
ATOM     12  C   UNL     1      -3.889 -10.316   5.820  1.00  0.00     0.025 A 
ATOM     13  C   UNL     1      -4.627 -10.461   4.633  1.00  0.00     0.016 A 
ATOM     14  C   UNL     1      -5.826  -9.766   4.456  1.00  0.00     0.051 A 
ATOM     15  C   UNL     1      -6.299  -8.907   5.453  1.00  0.00     0.157 A 
ATOM     16  C   UNL     1      -4.355  -9.437   6.810  1.00  0.00     0.062 A 
ATOM     17  C   UNL     1      -5.559  -8.737   6.635  1.00  0.00     0.158 A 
BRANCH  15  18
ATOM     18  O   UNL     1      -7.500  -8.227   5.249  1.00  0.00    -0.504 OA
ATOM     19  H   UNL     1      -8.295  -8.343   5.866  1.00  0.00     0.293 HD
ENDBRANCH  15  18
BRANCH  17  20
ATOM     20  O   UNL     1      -6.020  -7.877   7.630  1.00  0.00    -0.504 OA
ATOM     21  H   UNL     1      -6.904  -8.033   8.100  1.00  0.00     0.293 HD
ENDBRANCH  17  20
ENDBRANCH   1  12
BRANCH   2  22
ATOM     22  O   UNL     1      -3.618 -12.672   7.498  1.00  0.00    -0.502 OA
ATOM     23  H   UNL     1      -4.039 -13.566   7.272  1.00  0.00     0.293 HD
ENDBRANCH   2  22
BRANCH   9  24
ATOM     24  O   UNL     1       3.120 -10.486   4.311  1.00  0.00    -0.508 OA
ATOM     25  H   UNL     1       2.998 -10.004   3.428  1.00  0.00     0.293 HD
ENDBRANCH   9  24
TORSDOF 5
ENDMDL
MODEL 8
REMARK VINA RESULT:    -4.537     10.423     13.379
REMARK INTER + INTRA:          -5.650
REMARK INTER:                  -5.332
REMARK INTRA:                  -0.318
REMARK UNBOUND:                -0.317
REMARK SMILES O=c1c(O)c(-c2ccc(O)c(O)c2)oc2cc(O)ccc12
REMARK SMILES IDX 5 1 3 2 2 3 1 4 21 5 15 6 14 7 16 8 17 9 19 10 20 11 6 12
REMARK SMILES IDX 7 13 8 14 9 15 13 16 11 17 10 18 12 20 4 22 18 24
REMARK H PARENT 10 19 12 21 4 23 18 25
REMARK Flexibility Score: inf
ROOT
ATOM      1  C   UNL     1      -2.703 -22.743   8.916  1.00  0.00     0.180 A 
ATOM      2  C   UNL     1      -1.344 -22.431   8.698  1.00  0.00     0.208 A 
ATOM      3  C   UNL     1      -0.950 -21.085   8.712  1.00  0.00     0.235 A 
ATOM      4  O   UNL     1       0.258 -20.779   8.510  1.00  0.00    -0.285 OA
ATOM      5  C   UNL     1      -1.906 -20.087   8.960  1.00  0.00     0.069 A 
ATOM      6  C   UNL     1      -3.240 -20.483   9.192  1.00  0.00     0.142 A 
ATOM      7  O   UNL     1      -3.576 -21.767   9.162  1.00  0.00    -0.452 OA
ATOM      8  C   UNL     1      -4.221 -19.520   9.453  1.00  0.00     0.094 A 
ATOM      9  C   UNL     1      -3.886 -18.161   9.484  1.00  0.00     0.119 A 
ATOM     10  C   UNL     1      -2.561 -17.765   9.253  1.00  0.00     0.047 A 
ATOM     11  C   UNL     1      -1.574 -18.720   8.993  1.00  0.00     0.020 A 
ENDROOT
BRANCH   1  12
ATOM     12  C   UNL     1      -3.202 -24.137   8.899  1.00  0.00     0.025 A 
ATOM     13  C   UNL     1      -3.209 -24.927  10.062  1.00  0.00     0.016 A 
ATOM     14  C   UNL     1      -3.662 -26.247  10.017  1.00  0.00     0.051 A 
ATOM     15  C   UNL     1      -4.100 -26.804   8.812  1.00  0.00     0.157 A 
ATOM     16  C   UNL     1      -3.623 -24.705   7.686  1.00  0.00     0.062 A 
ATOM     17  C   UNL     1      -4.078 -26.032   7.639  1.00  0.00     0.158 A 
BRANCH  15  18
ATOM     18  O   UNL     1      -4.548 -28.125   8.798  1.00  0.00    -0.504 OA
ATOM     19  H   UNL     1      -5.476 -28.375   8.476  1.00  0.00     0.293 HD
ENDBRANCH  15  18
BRANCH  17  20
ATOM     20  O   UNL     1      -4.506 -26.581   6.432  1.00  0.00    -0.504 OA
ATOM     21  H   UNL     1      -5.483 -26.783   6.257  1.00  0.00     0.293 HD
ENDBRANCH  17  20
ENDBRANCH   1  12
BRANCH   2  22
ATOM     22  O   UNL     1      -0.407 -23.448   8.503  1.00  0.00    -0.502 OA
ATOM     23  H   UNL     1       0.494 -23.279   8.072  1.00  0.00     0.293 HD
ENDBRANCH   2  22
BRANCH   9  24
ATOM     24  O   UNL     1      -4.874 -17.215   9.745  1.00  0.00    -0.508 OA
ATOM     25  H   UNL     1      -4.739 -16.485  10.433  1.00  0.00     0.293 HD
ENDBRANCH   9  24
TORSDOF 5
ENDMDL
MODEL 9
REMARK VINA RESULT:    -4.500      8.489     12.437
REMARK INTER + INTRA:          -5.607
REMARK INTER:                  -5.357
REMARK INTRA:                  -0.250
REMARK UNBOUND:                -0.317
REMARK SMILES O=c1c(O)c(-c2ccc(O)c(O)c2)oc2cc(O)ccc12
REMARK SMILES IDX 5 1 3 2 2 3 1 4 21 5 15 6 14 7 16 8 17 9 19 10 20 11 6 12
REMARK SMILES IDX 7 13 8 14 9 15 13 16 11 17 10 18 12 20 4 22 18 24
REMARK H PARENT 10 19 12 21 4 23 18 25
REMARK Flexibility Score: inf
ROOT
ATOM      1  C   UNL     1     -12.761 -13.354   6.450  1.00  0.00     0.180 A 
ATOM      2  C   UNL     1     -13.955 -13.802   7.053  1.00  0.00     0.208 A 
ATOM      3  C   UNL     1     -15.042 -14.136   6.232  1.00  0.00     0.235 A 
ATOM      4  O   UNL     1     -16.125 -14.530   6.748  1.00  0.00    -0.285 OA
ATOM      5  C   UNL     1     -14.912 -14.038   4.838  1.00  0.00     0.069 A 
ATOM      6  C   UNL     1     -13.676 -13.604   4.312  1.00  0.00     0.142 A 
ATOM      7  O   UNL     1     -12.673 -13.288   5.122  1.00  0.00    -0.452 OA
ATOM      8  C   UNL     1     -13.503 -13.502   2.927  1.00  0.00     0.094 A 
ATOM      9  C   UNL     1     -14.550 -13.826   2.058  1.00  0.00     0.119 A 
ATOM     10  C   UNL     1     -15.779 -14.256   2.578  1.00  0.00     0.047 A 
ATOM     11  C   UNL     1     -15.962 -14.363   3.959  1.00  0.00     0.020 A 
ENDROOT
BRANCH   1  12
ATOM     12  C   UNL     1     -11.575 -12.964   7.247  1.00  0.00     0.025 A 
ATOM     13  C   UNL     1     -10.768 -13.927   7.878  1.00  0.00     0.016 A 
ATOM     14  C   UNL     1      -9.669 -13.535   8.645  1.00  0.00     0.051 A 
ATOM     15  C   UNL     1      -9.366 -12.180   8.806  1.00  0.00     0.157 A 
ATOM     16  C   UNL     1     -11.281 -11.604   7.427  1.00  0.00     0.062 A 
ATOM     17  C   UNL     1     -10.177 -11.207   8.198  1.00  0.00     0.158 A 
BRANCH  15  18
ATOM     18  O   UNL     1      -8.261 -11.818   9.577  1.00  0.00    -0.504 OA
ATOM     19  H   UNL     1      -7.315 -12.069   9.312  1.00  0.00     0.293 HD
ENDBRANCH  15  18
BRANCH  17  20
ATOM     20  O   UNL     1      -9.886  -9.854   8.359  1.00  0.00    -0.504 OA
ATOM     21  H   UNL     1      -9.090  -9.543   8.903  1.00  0.00     0.293 HD
ENDBRANCH  17  20
ENDBRANCH   1  12
BRANCH   2  22
ATOM     22  O   UNL     1     -14.039 -13.937   8.440  1.00  0.00    -0.502 OA
ATOM     23  H   UNL     1     -14.532 -13.269   9.022  1.00  0.00     0.293 HD
ENDBRANCH   2  22
BRANCH   9  24
ATOM     24  O   UNL     1     -14.361 -13.719   0.682  1.00  0.00    -0.508 OA
ATOM     25  H   UNL     1     -13.589 -14.181   0.217  1.00  0.00     0.293 HD
ENDBRANCH   9  24
TORSDOF 5
ENDMDL
