MODEL 1
REMARK VINA RESULT:    -4.416      0.000      0.000
REMARK INTER + INTRA:          -6.491
REMARK INTER:                  -6.739
REMARK INTRA:                   0.249
REMARK UNBOUND:                 0.249
REMARK SMILES CC1=CCC[C@H](C)C(=O)C[C@@H](C(C)C)C(=O)C1
REMARK SMILES IDX 8 1 9 2 6 3 7 4 5 5 4 6 3 7 2 8 1 9 10 11 11 12 15 13 16 14
REMARK SMILES IDX 17 15 12 17 13 18 14 19
REMARK H PARENT
REMARK Flexibility Score: 70.00
ROOT
ATOM      1  C   UNL     1      33.825  42.536  82.968  1.00  0.00     0.136 C 
ATOM      2  O   UNL     1      33.061  43.491  82.979  1.00  0.00    -0.299 OA
ENDROOT
BRANCH   1   3
ATOM      3  C   UNL     1      33.279  41.135  82.790  1.00  0.00     0.053 C 
ATOM      4  C   UNL     1      34.416  40.121  82.954  1.00  0.00     0.016 C 
BRANCH   3   5
ATOM      5  C   UNL     1      32.142  40.829  83.791  1.00  0.00     0.015 C 
BRANCH   5   6
ATOM      6  C   UNL     1      32.633  40.673  85.237  1.00  0.00     0.028 C 
BRANCH   6   7
ATOM      7  C   UNL     1      32.204  41.841  86.094  1.00  0.00    -0.028 C 
ATOM      8  C   UNL     1      33.028  42.621  86.830  1.00  0.00    -0.070 CG0
ATOM      9  C   UNL     1      32.439  43.725  87.674  1.00  0.00     0.039 C 
ATOM     10  G   UNL     1      34.532  42.435  86.877  1.00  0.00     0.000 G0
ENDBRANCH   6   7
ENDBRANCH   5   6
ENDBRANCH   3   5
ENDBRANCH   1   3
BRANCH   1  11
ATOM     11  C   UNL     1      35.299  42.777  83.171  1.00  0.00     0.087 C 
BRANCH  11  12
ATOM     12  C   UNL     1      35.792  42.235  84.538  1.00  0.00     0.066 C 
BRANCH  12  13
ATOM     13  C   UNL     1      35.189  43.071  85.656  1.00  0.00     0.140 C 
ATOM     14  O   UNL     1      35.300  44.289  85.621  1.00  0.00    -0.299 OA
BRANCH  13  15
ATOM     15  C   UNL     1      34.544  42.431  86.859  1.00  0.00     0.106 CG0
ATOM     16  G   UNL     1      33.042  42.637  86.851  1.00  0.00     0.000 G0
ENDBRANCH  13  15
ENDBRANCH  12  13
BRANCH  12  17
ATOM     17  C   UNL     1      37.353  42.227  84.643  1.00  0.00    -0.006 C 
ATOM     18  C   UNL     1      37.943  40.871  84.203  1.00  0.00     0.008 C 
ATOM     19  C   UNL     1      37.999  43.339  83.793  1.00  0.00     0.008 C 
ENDBRANCH  12  17
ENDBRANCH  11  12
ENDBRANCH   1  11
TORSDOF 1
ENDMDL
MODEL 2
REMARK VINA RESULT:    -4.307      2.037      3.746
REMARK INTER + INTRA:          -6.324
REMARK INTER:                  -6.153
REMARK INTRA:                  -0.172
REMARK UNBOUND:                 0.249
REMARK SMILES CC1=CCC[C@H](C)C(=O)C[C@@H](C(C)C)C(=O)C1
REMARK SMILES IDX 8 1 9 2 6 3 7 4 5 5 4 6 3 7 2 8 1 9 10 11 11 12 15 13 16 14
REMARK SMILES IDX 17 15 12 17 13 18 14 19
REMARK H PARENT
REMARK Flexibility Score: 70.00
ROOT
ATOM      1  C   UNL     1      32.780  42.434  85.605  1.00  0.00     0.136 C 
ATOM      2  O   UNL     1      31.693  42.994  85.661  1.00  0.00    -0.299 OA
ENDROOT
BRANCH   1   3
ATOM      3  C   UNL     1      32.908  41.108  84.884  1.00  0.00     0.053 C 
ATOM      4  C   UNL     1      31.865  40.128  85.432  1.00  0.00     0.016 C 
BRANCH   3   5
ATOM      5  C   UNL     1      32.742  41.266  83.355  1.00  0.00     0.015 C 
BRANCH   5   6
ATOM      6  C   UNL     1      34.054  41.075  82.580  1.00  0.00     0.028 C 
BRANCH   6   7
ATOM      7  C   UNL     1      34.981  40.120  83.294  1.00  0.00    -0.028 C 
ATOM      8  C   UNL     1      36.137  40.457  83.911  1.00  0.00    -0.070 CG0
ATOM      9  C   UNL     1      36.979  39.375  84.541  1.00  0.00     0.039 C 
ATOM     10  G   UNL     1      36.657  41.879  83.988  1.00  0.00     0.000 G0
ENDBRANCH   6   7
ENDBRANCH   5   6
ENDBRANCH   3   5
ENDBRANCH   1   3
BRANCH   1  11
ATOM     11  C   UNL     1      33.963  43.065  86.291  1.00  0.00     0.087 C 
BRANCH  11  12
ATOM     12  C   UNL     1      35.033  43.545  85.275  1.00  0.00     0.066 C 
BRANCH  12  13
ATOM     13  C   UNL     1      36.196  42.565  85.272  1.00  0.00     0.140 C 
ATOM     14  O   UNL     1      36.828  42.380  86.303  1.00  0.00    -0.299 OA
BRANCH  13  15
ATOM     15  C   UNL     1      36.655  41.891  84.004  1.00  0.00     0.106 CG0
ATOM     16  G   UNL     1      36.126  40.473  83.915  1.00  0.00     0.000 G0
ENDBRANCH  13  15
ENDBRANCH  12  13
BRANCH  12  17
ATOM     17  C   UNL     1      35.539  44.993  85.589  1.00  0.00    -0.006 C 
ATOM     18  C   UNL     1      36.427  45.540  84.453  1.00  0.00     0.008 C 
ATOM     19  C   UNL     1      34.376  45.978  85.817  1.00  0.00     0.008 C 
ENDBRANCH  12  17
ENDBRANCH  11  12
ENDBRANCH   1  11
TORSDOF 1
ENDMDL
MODEL 3
REMARK VINA RESULT:    -4.177      1.928      2.589
REMARK INTER + INTRA:          -6.126
REMARK INTER:                  -6.317
REMARK INTRA:                   0.191
REMARK UNBOUND:                 0.249
REMARK SMILES CC1=CCC[C@H](C)C(=O)C[C@@H](C(C)C)C(=O)C1
REMARK SMILES IDX 8 1 9 2 6 3 7 4 5 5 4 6 3 7 2 8 1 9 10 11 11 12 15 13 16 14
REMARK SMILES IDX 17 15 12 17 13 18 14 19
REMARK H PARENT
REMARK Flexibility Score: 70.00
ROOT
ATOM      1  C   UNL     1      34.372  40.403  83.707  1.00  0.00     0.136 C 
ATOM      2  O   UNL     1      33.708  40.254  82.690  1.00  0.00    -0.299 OA
ENDROOT
BRANCH   1   3
ATOM      3  C   UNL     1      33.904  39.788  85.010  1.00  0.00     0.053 C 
ATOM      4  C   UNL     1      34.796  40.283  86.154  1.00  0.00     0.016 C 
BRANCH   3   5
ATOM      5  C   UNL     1      32.424  40.120  85.303  1.00  0.00     0.015 C 
BRANCH   5   6
ATOM      6  C   UNL     1      32.216  41.547  85.831  1.00  0.00     0.028 C 
BRANCH   6   7
ATOM      7  C   UNL     1      31.566  42.429  84.791  1.00  0.00    -0.028 C 
ATOM      8  C   UNL     1      32.091  43.569  84.286  1.00  0.00    -0.070 CG0
ATOM      9  C   UNL     1      31.294  44.367  83.283  1.00  0.00     0.039 C 
ATOM     10  G   UNL     1      33.447  44.114  84.691  1.00  0.00     0.000 G0
ENDBRANCH   6   7
ENDBRANCH   5   6
ENDBRANCH   3   5
ENDBRANCH   1   3
BRANCH   1  11
ATOM     11  C   UNL     1      35.629  41.231  83.644  1.00  0.00     0.087 C 
BRANCH  11  12
ATOM     12  C   UNL     1      35.533  42.498  84.533  1.00  0.00     0.066 C 
BRANCH  12  13
ATOM     13  C   UNL     1      34.572  43.489  83.892  1.00  0.00     0.140 C 
ATOM     14  O   UNL     1      34.756  43.840  82.734  1.00  0.00    -0.299 OA
BRANCH  13  15
ATOM     15  C   UNL     1      33.457  44.127  84.680  1.00  0.00     0.106 CG0
ATOM     16  G   UNL     1      32.110  43.550  84.290  1.00  0.00     0.000 G0
ENDBRANCH  13  15
ENDBRANCH  12  13
BRANCH  12  17
ATOM     17  C   UNL     1      36.929  43.165  84.766  1.00  0.00    -0.006 C 
ATOM     18  C   UNL     1      37.028  43.795  86.171  1.00  0.00     0.008 C 
ATOM     19  C   UNL     1      38.088  42.162  84.598  1.00  0.00     0.008 C 
ENDBRANCH  12  17
ENDBRANCH  11  12
ENDBRANCH   1  11
TORSDOF 1
ENDMDL
MODEL 4
REMARK VINA RESULT:    -4.171      2.155      3.838
REMARK INTER + INTRA:          -6.116
REMARK INTER:                  -5.849
REMARK INTRA:                  -0.267
REMARK UNBOUND:                 0.249
REMARK SMILES CC1=CCC[C@H](C)C(=O)C[C@@H](C(C)C)C(=O)C1
REMARK SMILES IDX 8 1 9 2 6 3 7 4 5 5 4 6 3 7 2 8 1 9 10 11 11 12 15 13 16 14
REMARK SMILES IDX 17 15 12 17 13 18 14 19
REMARK H PARENT
REMARK Flexibility Score: 70.00
ROOT
ATOM      1  C   UNL     1      35.340  41.460  86.183  1.00  0.00     0.136 C 
ATOM      2  O   UNL     1      36.016  40.795  86.957  1.00  0.00    -0.299 OA
ENDROOT
BRANCH   1   3
ATOM      3  C   UNL     1      34.740  40.809  84.954  1.00  0.00     0.053 C 
ATOM      4  C   UNL     1      35.843  40.095  84.167  1.00  0.00     0.016 C 
BRANCH   3   5
ATOM      5  C   UNL     1      33.616  39.813  85.323  1.00  0.00     0.015 C 
BRANCH   5   6
ATOM      6  C   UNL     1      32.213  40.433  85.262  1.00  0.00     0.028 C 
BRANCH   6   7
ATOM      7  C   UNL     1      32.075  41.371  84.086  1.00  0.00    -0.028 C 
ATOM      8  C   UNL     1      31.817  42.697  84.162  1.00  0.00    -0.070 CG0
ATOM      9  C   UNL     1      31.662  43.492  82.889  1.00  0.00     0.039 C 
ATOM     10  G   UNL     1      31.648  43.440  85.472  1.00  0.00     0.000 G0
ENDBRANCH   6   7
ENDBRANCH   5   6
ENDBRANCH   3   5
ENDBRANCH   1   3
BRANCH   1  11
ATOM     11  C   UNL     1      35.152  42.929  86.455  1.00  0.00     0.087 C 
BRANCH  11  12
ATOM     12  C   UNL     1      33.743  43.237  87.026  1.00  0.00     0.066 C 
BRANCH  12  13
ATOM     13  C   UNL     1      32.935  43.997  85.986  1.00  0.00     0.140 C 
ATOM     14  O   UNL     1      33.313  45.103  85.623  1.00  0.00    -0.299 OA
BRANCH  13  15
ATOM     15  C   UNL     1      31.625  43.466  85.462  1.00  0.00     0.106 CG0
ATOM     16  G   UNL     1      31.821  42.702  84.167  1.00  0.00     0.000 G0
ENDBRANCH  13  15
ENDBRANCH  12  13
BRANCH  12  17
ATOM     17  C   UNL     1      33.810  44.046  88.364  1.00  0.00    -0.006 C 
ATOM     18  C   UNL     1      33.411  43.175  89.573  1.00  0.00     0.008 C 
ATOM     19  C   UNL     1      35.214  44.627  88.623  1.00  0.00     0.008 C 
ENDBRANCH  12  17
ENDBRANCH  11  12
ENDBRANCH   1  11
TORSDOF 1
ENDMDL
MODEL 5
REMARK VINA RESULT:    -4.123      1.795      2.459
REMARK INTER + INTRA:          -6.043
REMARK INTER:                  -5.873
REMARK INTRA:                  -0.170
REMARK UNBOUND:                 0.249
REMARK SMILES CC1=CCC[C@H](C)C(=O)C[C@@H](C(C)C)C(=O)C1
REMARK SMILES IDX 8 1 9 2 6 3 7 4 5 5 4 6 3 7 2 8 1 9 10 11 11 12 15 13 16 14
REMARK SMILES IDX 17 15 12 17 13 18 14 19
REMARK H PARENT
REMARK Flexibility Score: 70.00
ROOT
ATOM      1  C   UNL     1      35.972  41.360  84.102  1.00  0.00     0.136 C 
ATOM      2  O   UNL     1      37.171  41.137  84.201  1.00  0.00    -0.299 OA
ENDROOT
BRANCH   1   3
ATOM      3  C   UNL     1      35.013  40.219  83.829  1.00  0.00     0.053 C 
ATOM      4  C   UNL     1      34.980  39.283  85.041  1.00  0.00     0.016 C 
BRANCH   3   5
ATOM      5  C   UNL     1      33.590  40.729  83.508  1.00  0.00     0.015 C 
BRANCH   5   6
ATOM      6  C   UNL     1      32.591  40.499  84.651  1.00  0.00     0.028 C 
BRANCH   6   7
ATOM      7  C   UNL     1      31.502  41.545  84.649  1.00  0.00    -0.028 C 
ATOM      8  C   UNL     1      31.476  42.656  85.421  1.00  0.00    -0.070 CG0
ATOM      9  C   UNL     1      30.289  43.585  85.337  1.00  0.00     0.039 C 
ATOM     10  G   UNL     1      32.576  43.018  86.399  1.00  0.00     0.000 G0
ENDBRANCH   6   7
ENDBRANCH   5   6
ENDBRANCH   3   5
ENDBRANCH   1   3
BRANCH   1  11
ATOM     11  C   UNL     1      35.480  42.779  84.219  1.00  0.00     0.087 C 
BRANCH  11  12
ATOM     12  C   UNL     1      35.115  43.147  85.680  1.00  0.00     0.066 C 
BRANCH  12  13
ATOM     13  C   UNL     1      33.715  43.741  85.713  1.00  0.00     0.140 C 
ATOM     14  O   UNL     1      33.526  44.857  85.247  1.00  0.00    -0.299 OA
BRANCH  13  15
ATOM     15  C   UNL     1      32.573  43.031  86.394  1.00  0.00     0.106 CG0
ATOM     16  G   UNL     1      31.487  42.661  85.403  1.00  0.00     0.000 G0
ENDBRANCH  13  15
ENDBRANCH  12  13
BRANCH  12  17
ATOM     17  C   UNL     1      36.144  44.139  86.316  1.00  0.00    -0.006 C 
ATOM     18  C   UNL     1      37.053  43.431  87.342  1.00  0.00     0.008 C 
ATOM     19  C   UNL     1      37.036  44.811  85.254  1.00  0.00     0.008 C 
ENDBRANCH  12  17
ENDBRANCH  11  12
ENDBRANCH   1  11
TORSDOF 1
ENDMDL
MODEL 6
REMARK VINA RESULT:    -4.093      2.268      4.621
REMARK INTER + INTRA:          -5.998
REMARK INTER:                  -5.699
REMARK INTRA:                  -0.299
REMARK UNBOUND:                 0.249
REMARK SMILES CC1=CCC[C@H](C)C(=O)C[C@@H](C(C)C)C(=O)C1
REMARK SMILES IDX 8 1 9 2 6 3 7 4 5 5 4 6 3 7 2 8 1 9 10 11 11 12 15 13 16 14
REMARK SMILES IDX 17 15 12 17 13 18 14 19
REMARK H PARENT
REMARK Flexibility Score: 70.00
ROOT
ATOM      1  C   UNL     1      33.024  40.813  85.521  1.00  0.00     0.136 C 
ATOM      2  O   UNL     1      32.108  40.002  85.495  1.00  0.00    -0.299 OA
ENDROOT
BRANCH   1   3
ATOM      3  C   UNL     1      34.231  40.617  84.627  1.00  0.00     0.053 C 
ATOM      4  C   UNL     1      34.948  39.321  85.020  1.00  0.00     0.016 C 
BRANCH   3   5
ATOM      5  C   UNL     1      33.840  40.579  83.133  1.00  0.00     0.015 C 
BRANCH   5   6
ATOM      6  C   UNL     1      33.575  41.971  82.540  1.00  0.00     0.028 C 
BRANCH   6   7
ATOM      7  C   UNL     1      34.692  42.932  82.872  1.00  0.00    -0.028 C 
ATOM      8  C   UNL     1      34.549  44.113  83.516  1.00  0.00    -0.070 CG0
ATOM      9  C   UNL     1      35.761  44.986  83.733  1.00  0.00     0.039 C 
ATOM     10  G   UNL     1      33.217  44.632  84.021  1.00  0.00     0.000 G0
ENDBRANCH   6   7
ENDBRANCH   5   6
ENDBRANCH   3   5
ENDBRANCH   1   3
BRANCH   1  11
ATOM     11  C   UNL     1      32.943  41.976  86.475  1.00  0.00     0.087 C 
BRANCH  11  12
ATOM     12  C   UNL     1      32.085  43.135  85.904  1.00  0.00     0.066 C 
BRANCH  12  13
ATOM     13  C   UNL     1      32.999  44.276  85.485  1.00  0.00     0.140 C 
ATOM     14  O   UNL     1      33.510  44.982  86.344  1.00  0.00    -0.299 OA
BRANCH  13  15
ATOM     15  C   UNL     1      33.213  44.623  84.034  1.00  0.00     0.106 CG0
ATOM     16  G   UNL     1      34.551  44.111  83.538  1.00  0.00     0.000 G0
ENDBRANCH  13  15
ENDBRANCH  12  13
BRANCH  12  17
ATOM     17  C   UNL     1      31.015  43.641  86.929  1.00  0.00    -0.006 C 
ATOM     18  C   UNL     1      29.868  44.394  86.224  1.00  0.00     0.008 C 
ATOM     19  C   UNL     1      30.409  42.487  87.752  1.00  0.00     0.008 C 
ENDBRANCH  12  17
ENDBRANCH  11  12
ENDBRANCH   1  11
TORSDOF 1
ENDMDL
MODEL 7
REMARK VINA RESULT:    -4.066      1.701      2.767
REMARK INTER + INTRA:          -5.956
REMARK INTER:                  -5.770
REMARK INTRA:                  -0.186
REMARK UNBOUND:                 0.249
REMARK SMILES CC1=CCC[C@H](C)C(=O)C[C@@H](C(C)C)C(=O)C1
REMARK SMILES IDX 8 1 9 2 6 3 7 4 5 5 4 6 3 7 2 8 1 9 10 11 11 12 15 13 16 14
REMARK SMILES IDX 17 15 12 17 13 18 14 19
REMARK H PARENT
REMARK Flexibility Score: 70.00
ROOT
ATOM      1  C   UNL     1      32.448  43.522  83.569  1.00  0.00     0.136 C 
ATOM      2  O   UNL     1      31.765  43.523  82.553  1.00  0.00    -0.299 OA
ENDROOT
BRANCH   1   3
ATOM      3  C   UNL     1      31.823  43.895  84.897  1.00  0.00     0.053 C 
ATOM      4  C   UNL     1      30.825  45.038  84.687  1.00  0.00     0.016 C 
BRANCH   3   5
ATOM      5  C   UNL     1      31.121  42.688  85.561  1.00  0.00     0.015 C 
BRANCH   5   6
ATOM      6  C   UNL     1      31.730  42.303  86.917  1.00  0.00     0.028 C 
BRANCH   6   7
ATOM      7  C   UNL     1      32.730  43.334  87.384  1.00  0.00    -0.028 C 
ATOM      8  C   UNL     1      34.076  43.199  87.348  1.00  0.00    -0.070 CG0
ATOM      9  C   UNL     1      34.943  44.305  87.898  1.00  0.00     0.039 C 
ATOM     10  G   UNL     1      34.776  41.971  86.800  1.00  0.00     0.000 G0
ENDBRANCH   6   7
ENDBRANCH   5   6
ENDBRANCH   3   5
ENDBRANCH   1   3
BRANCH   1  11
ATOM     11  C   UNL     1      33.911  43.183  83.465  1.00  0.00     0.087 C 
BRANCH  11  12
ATOM     12  C   UNL     1      34.255  41.866  84.209  1.00  0.00     0.066 C 
BRANCH  12  13
ATOM     13  C   UNL     1      35.205  42.171  85.356  1.00  0.00     0.140 C 
ATOM     14  O   UNL     1      36.356  42.506  85.110  1.00  0.00    -0.299 OA
BRANCH  13  15
ATOM     15  C   UNL     1      34.795  41.974  86.793  1.00  0.00     0.106 CG0
ATOM     16  G   UNL     1      34.083  43.198  87.334  1.00  0.00     0.000 G0
ENDBRANCH  13  15
ENDBRANCH  12  13
BRANCH  12  17
ATOM     17  C   UNL     1      34.878  40.792  83.255  1.00  0.00    -0.006 C 
ATOM     18  C   UNL     1      35.195  39.483  84.006  1.00  0.00     0.008 C 
ATOM     19  C   UNL     1      33.952  40.463  82.067  1.00  0.00     0.008 C 
ENDBRANCH  12  17
ENDBRANCH  11  12
ENDBRANCH   1  11
TORSDOF 1
ENDMDL
MODEL 8
REMARK VINA RESULT:    -4.059      1.940      4.010
REMARK INTER + INTRA:          -5.947
REMARK INTER:                  -6.076
REMARK INTRA:                   0.130
REMARK UNBOUND:                 0.249
REMARK SMILES CC1=CCC[C@H](C)C(=O)C[C@@H](C(C)C)C(=O)C1
REMARK SMILES IDX 8 1 9 2 6 3 7 4 5 5 4 6 3 7 2 8 1 9 10 11 11 12 15 13 16 14
REMARK SMILES IDX 17 15 12 17 13 18 14 19
REMARK H PARENT
REMARK Flexibility Score: 70.00
ROOT
ATOM      1  C   UNL     1      34.307  40.195  84.755  1.00  0.00     0.136 C 
ATOM      2  O   UNL     1      34.820  39.352  85.479  1.00  0.00    -0.299 OA
ENDROOT
BRANCH   1   3
ATOM      3  C   UNL     1      34.845  40.416  83.357  1.00  0.00     0.053 C 
ATOM      4  C   UNL     1      33.682  40.725  82.408  1.00  0.00     0.016 C 
BRANCH   3   5
ATOM      5  C   UNL     1      35.887  41.557  83.315  1.00  0.00     0.015 C 
BRANCH   5   6
ATOM      6  C   UNL     1      36.996  41.404  84.366  1.00  0.00     0.028 C 
BRANCH   6   7
ATOM      7  C   UNL     1      37.260  42.708  85.082  1.00  0.00    -0.028 C 
ATOM      8  C   UNL     1      36.679  43.103  86.238  1.00  0.00    -0.070 CG0
ATOM      9  C   UNL     1      37.014  44.460  86.806  1.00  0.00     0.039 C 
ATOM     10  G   UNL     1      35.676  42.258  86.999  1.00  0.00     0.000 G0
ENDBRANCH   6   7
ENDBRANCH   5   6
ENDBRANCH   3   5
ENDBRANCH   1   3
BRANCH   1  11
ATOM     11  C   UNL     1      33.169  41.022  85.292  1.00  0.00     0.087 C 
BRANCH  11  12
ATOM     12  C   UNL     1      33.559  42.516  85.443  1.00  0.00     0.066 C 
BRANCH  12  13
ATOM     13  C   UNL     1      34.255  42.719  86.780  1.00  0.00     0.140 C 
ATOM     14  O   UNL     1      33.687  43.348  87.663  1.00  0.00    -0.299 OA
BRANCH  13  15
ATOM     15  C   UNL     1      35.669  42.250  87.012  1.00  0.00     0.106 CG0
ATOM     16  G   UNL     1      36.662  43.107  86.252  1.00  0.00     0.000 G0
ENDBRANCH  13  15
ENDBRANCH  12  13
BRANCH  12  17
ATOM     17  C   UNL     1      32.321  43.466  85.322  1.00  0.00    -0.006 C 
ATOM     18  C   UNL     1      32.284  44.176  83.953  1.00  0.00     0.008 C 
ATOM     19  C   UNL     1      30.990  42.715  85.519  1.00  0.00     0.008 C 
ENDBRANCH  12  17
ENDBRANCH  11  12
ENDBRANCH   1  11
TORSDOF 1
ENDMDL
MODEL 9
REMARK VINA RESULT:    -4.055      1.995      4.522
REMARK INTER + INTRA:          -5.940
REMARK INTER:                  -5.749
REMARK INTRA:                  -0.190
REMARK UNBOUND:                 0.249
REMARK SMILES CC1=CCC[C@H](C)C(=O)C[C@@H](C(C)C)C(=O)C1
REMARK SMILES IDX 8 1 9 2 6 3 7 4 5 5 4 6 3 7 2 8 1 9 10 11 11 12 15 13 16 14
REMARK SMILES IDX 17 15 12 17 13 18 14 19
REMARK H PARENT
REMARK Flexibility Score: 70.00
ROOT
ATOM      1  C   UNL     1      35.284  44.165  83.533  1.00  0.00     0.136 C 
ATOM      2  O   UNL     1      35.330  45.380  83.395  1.00  0.00    -0.299 OA
ENDROOT
BRANCH   1   3
ATOM      3  C   UNL     1      36.359  43.454  84.327  1.00  0.00     0.053 C 
ATOM      4  C   UNL     1      37.721  44.085  84.018  1.00  0.00     0.016 C 
BRANCH   3   5
ATOM      5  C   UNL     1      36.079  43.502  85.846  1.00  0.00     0.015 C 
BRANCH   5   6
ATOM      6  C   UNL     1      35.852  42.115  86.465  1.00  0.00     0.028 C 
BRANCH   6   7
ATOM      7  C   UNL     1      36.226  41.014  85.501  1.00  0.00    -0.028 C 
ATOM      8  C   UNL     1      35.355  40.235  84.820  1.00  0.00    -0.070 CG0
ATOM      9  C   UNL     1      35.887  39.141  83.926  1.00  0.00     0.039 C 
ATOM     10  G   UNL     1      33.849  40.382  84.921  1.00  0.00     0.000 G0
ENDBRANCH   6   7
ENDBRANCH   5   6
ENDBRANCH   3   5
ENDBRANCH   1   3
BRANCH   1  11
ATOM     11  C   UNL     1      34.168  43.398  82.872  1.00  0.00     0.087 C 
BRANCH  11  12
ATOM     12  C   UNL     1      33.221  42.742  83.911  1.00  0.00     0.066 C 
BRANCH  12  13
ATOM     13  C   UNL     1      33.311  41.229  83.786  1.00  0.00     0.140 C 
ATOM     14  O   UNL     1      32.862  40.682  82.788  1.00  0.00    -0.299 OA
BRANCH  13  15
ATOM     15  C   UNL     1      33.848  40.376  84.907  1.00  0.00     0.106 CG0
ATOM     16  G   UNL     1      35.352  40.220  84.806  1.00  0.00     0.000 G0
ENDBRANCH  13  15
ENDBRANCH  12  13
BRANCH  12  17
ATOM     17  C   UNL     1      31.740  43.217  83.745  1.00  0.00    -0.006 C 
ATOM     18  C   UNL     1      31.033  43.355  85.109  1.00  0.00     0.008 C 
ATOM     19  C   UNL     1      31.641  44.566  83.005  1.00  0.00     0.008 C 
ENDBRANCH  12  17
ENDBRANCH  11  12
ENDBRANCH   1  11
TORSDOF 1
ENDMDL
