MODEL 1
REMARK VINA RESULT:    -7.116      0.000      0.000
REMARK INTER + INTRA:          -8.818
REMARK INTER:                  -8.572
REMARK INTRA:                  -0.245
REMARK UNBOUND:                -0.245
REMARK SMILES O=c1c(O)c(-c2ccc(O)c(O)c2)oc2cc(O)cc(O)c12
REMARK SMILES IDX 5 1 3 2 2 3 1 4 22 5 20 6 19 7 17 8 16 9 15 10 14 11 6 12
REMARK SMILES IDX 7 13 8 14 9 15 13 16 11 17 10 18 12 20 4 22 21 24 18 26
REMARK H PARENT 10 19 12 21 4 23 21 25 18 27
REMARK Flexibility Score: inf
ROOT
ATOM      1  C   UNL     1      18.341  24.581  41.817  1.00  0.00     0.180 A 
ATOM      2  C   UNL     1      17.068  24.327  42.358  1.00  0.00     0.208 A 
ATOM      3  C   UNL     1      16.649  25.055  43.483  1.00  0.00     0.238 A 
ATOM      4  O   UNL     1      15.488  24.863  43.929  1.00  0.00    -0.285 OA
ATOM      5  C   UNL     1      17.513  26.015  44.063  1.00  0.00     0.111 A 
ATOM      6  C   UNL     1      17.208  26.781  45.228  1.00  0.00     0.134 A 
ATOM      7  C   UNL     1      18.083  27.794  45.637  1.00  0.00     0.093 A 
ATOM      8  C   UNL     1      19.284  28.025  44.962  1.00  0.00     0.123 A 
ATOM      9  C   UNL     1      19.618  27.242  43.859  1.00  0.00     0.094 A 
ATOM     10  C   UNL     1      18.749  26.248  43.406  1.00  0.00     0.146 A 
ATOM     11  O   UNL     1      19.101  25.533  42.344  1.00  0.00    -0.452 OA
ENDROOT
BRANCH   1  12
ATOM     12  C   UNL     1      18.862  23.837  40.648  1.00  0.00     0.025 A 
ATOM     13  C   UNL     1      18.374  24.135  39.365  1.00  0.00     0.016 A 
ATOM     14  C   UNL     1      18.867  23.461  38.247  1.00  0.00     0.051 A 
ATOM     15  C   UNL     1      19.863  22.491  38.387  1.00  0.00     0.157 A 
ATOM     16  C   UNL     1      19.879  22.875  40.785  1.00  0.00     0.062 A 
ATOM     17  C   UNL     1      20.376  22.199  39.661  1.00  0.00     0.158 A 
BRANCH  15  18
ATOM     18  O   UNL     1      20.334  21.832  37.251  1.00  0.00    -0.504 OA
ATOM     19  H   UNL     1      21.082  22.208  36.683  1.00  0.00     0.293 HD
ENDBRANCH  15  18
BRANCH  17  20
ATOM     20  O   UNL     1      21.380  21.243  39.808  1.00  0.00    -0.504 OA
ATOM     21  H   UNL     1      21.263  20.292  39.477  1.00  0.00     0.293 HD
ENDBRANCH  17  20
ENDBRANCH   1  12
BRANCH   2  22
ATOM     22  O   UNL     1      16.222  23.391  41.756  1.00  0.00    -0.502 OA
ATOM     23  H   UNL     1      16.572  22.592  41.244  1.00  0.00     0.293 HD
ENDBRANCH   2  22
BRANCH   6  24
ATOM     24  O   UNL     1      16.080  26.568  46.028  1.00  0.00    -0.507 OA
ATOM     25  H   UNL     1      16.088  26.536  47.036  1.00  0.00     0.293 HD
ENDBRANCH   6  24
BRANCH   8  26
ATOM     26  O   UNL     1      20.157  29.025  45.385  1.00  0.00    -0.508 OA
ATOM     27  H   UNL     1      20.702  28.927  46.234  1.00  0.00     0.293 HD
ENDBRANCH   8  26
TORSDOF 6
ENDMDL
MODEL 2
REMARK VINA RESULT:    -6.683      1.217      2.884
REMARK INTER + INTRA:          -8.296
REMARK INTER:                  -7.992
REMARK INTRA:                  -0.304
REMARK UNBOUND:                -0.245
REMARK SMILES O=c1c(O)c(-c2ccc(O)c(O)c2)oc2cc(O)cc(O)c12
REMARK SMILES IDX 5 1 3 2 2 3 1 4 22 5 20 6 19 7 17 8 16 9 15 10 14 11 6 12
REMARK SMILES IDX 7 13 8 14 9 15 13 16 11 17 10 18 12 20 4 22 21 24 18 26
REMARK H PARENT 10 19 12 21 4 23 21 25 18 27
REMARK Flexibility Score: inf
ROOT
ATOM      1  C   UNL     1      19.115  25.138  41.510  1.00  0.00     0.180 A 
ATOM      2  C   UNL     1      19.967  26.201  41.856  1.00  0.00     0.208 A 
ATOM      3  C   UNL     1      19.700  26.935  43.024  1.00  0.00     0.238 A 
ATOM      4  O   UNL     1      20.498  27.850  43.357  1.00  0.00    -0.285 OA
ATOM      5  C   UNL     1      18.578  26.607  43.821  1.00  0.00     0.111 A 
ATOM      6  C   UNL     1      18.190  27.307  45.002  1.00  0.00     0.134 A 
ATOM      7  C   UNL     1      17.138  26.815  45.783  1.00  0.00     0.093 A 
ATOM      8  C   UNL     1      16.417  25.684  45.390  1.00  0.00     0.123 A 
ATOM      9  C   UNL     1      16.750  25.029  44.208  1.00  0.00     0.094 A 
ATOM     10  C   UNL     1      17.818  25.475  43.426  1.00  0.00     0.146 A 
ATOM     11  O   UNL     1      18.108  24.814  42.312  1.00  0.00    -0.452 OA
ENDROOT
BRANCH   1  12
ATOM     12  C   UNL     1      19.316  24.336  40.281  1.00  0.00     0.025 A 
ATOM     13  C   UNL     1      18.867  24.835  39.048  1.00  0.00     0.016 A 
ATOM     14  C   UNL     1      19.066  24.104  37.875  1.00  0.00     0.051 A 
ATOM     15  C   UNL     1      19.729  22.874  37.911  1.00  0.00     0.157 A 
ATOM     16  C   UNL     1      20.002  23.107  40.313  1.00  0.00     0.062 A 
ATOM     17  C   UNL     1      20.204  22.374  39.134  1.00  0.00     0.158 A 
BRANCH  15  18
ATOM     18  O   UNL     1      19.910  22.166  36.723  1.00  0.00    -0.504 OA
ATOM     19  H   UNL     1      20.678  21.519  36.595  1.00  0.00     0.293 HD
ENDBRANCH  15  18
BRANCH  17  20
ATOM     20  O   UNL     1      20.878  21.155  39.176  1.00  0.00    -0.504 OA
ATOM     21  H   UNL     1      20.772  20.462  38.444  1.00  0.00     0.293 HD
ENDBRANCH  17  20
ENDBRANCH   1  12
BRANCH   2  22
ATOM     22  O   UNL     1      21.083  26.494  41.066  1.00  0.00    -0.502 OA
ATOM     23  H   UNL     1      22.011  26.156  41.289  1.00  0.00     0.293 HD
ENDBRANCH   2  22
BRANCH   6  24
ATOM     24  O   UNL     1      18.784  28.498  45.433  1.00  0.00    -0.507 OA
ATOM     25  H   UNL     1      19.384  29.078  44.867  1.00  0.00     0.293 HD
ENDBRANCH   6  24
BRANCH   8  26
ATOM     26  O   UNL     1      15.361  25.210  46.166  1.00  0.00    -0.508 OA
ATOM     27  H   UNL     1      15.406  25.212  47.179  1.00  0.00     0.293 HD
ENDBRANCH   8  26
TORSDOF 6
ENDMDL
MODEL 3
REMARK VINA RESULT:    -6.581      1.569      6.885
REMARK INTER + INTRA:          -8.173
REMARK INTER:                  -7.850
REMARK INTRA:                  -0.323
REMARK UNBOUND:                -0.245
REMARK SMILES O=c1c(O)c(-c2ccc(O)c(O)c2)oc2cc(O)cc(O)c12
REMARK SMILES IDX 5 1 3 2 2 3 1 4 22 5 20 6 19 7 17 8 16 9 15 10 14 11 6 12
REMARK SMILES IDX 7 13 8 14 9 15 13 16 11 17 10 18 12 20 4 22 21 24 18 26
REMARK H PARENT 10 19 12 21 4 23 21 25 18 27
REMARK Flexibility Score: inf
ROOT
ATOM      1  C   UNL     1      17.387  25.250  42.356  1.00  0.00     0.180 A 
ATOM      2  C   UNL     1      16.556  25.518  41.254  1.00  0.00     0.208 A 
ATOM      3  C   UNL     1      16.878  24.957  40.008  1.00  0.00     0.238 A 
ATOM      4  O   UNL     1      16.100  25.155  39.038  1.00  0.00    -0.285 OA
ATOM      5  C   UNL     1      18.033  24.150  39.875  1.00  0.00     0.111 A 
ATOM      6  C   UNL     1      18.476  23.563  38.652  1.00  0.00     0.134 A 
ATOM      7  C   UNL     1      19.559  22.677  38.663  1.00  0.00     0.093 A 
ATOM      8  C   UNL     1      20.256  22.406  39.843  1.00  0.00     0.123 A 
ATOM      9  C   UNL     1      19.868  23.020  41.031  1.00  0.00     0.094 A 
ATOM     10  C   UNL     1      18.769  23.881  41.058  1.00  0.00     0.146 A 
ATOM     11  O   UNL     1      18.426  24.437  42.215  1.00  0.00    -0.452 OA
ENDROOT
BRANCH   1  12
ATOM     12  C   UNL     1      17.128  25.826  43.696  1.00  0.00     0.025 A 
ATOM     13  C   UNL     1      16.296  25.138  44.594  1.00  0.00     0.016 A 
ATOM     14  C   UNL     1      16.055  25.652  45.870  1.00  0.00     0.051 A 
ATOM     15  C   UNL     1      16.651  26.850  46.275  1.00  0.00     0.157 A 
ATOM     16  C   UNL     1      17.743  27.021  44.112  1.00  0.00     0.062 A 
ATOM     17  C   UNL     1      17.503  27.537  45.394  1.00  0.00     0.158 A 
BRANCH  15  18
ATOM     18  O   UNL     1      16.389  27.340  47.554  1.00  0.00    -0.504 OA
ATOM     19  H   UNL     1      16.918  27.040  48.364  1.00  0.00     0.293 HD
ENDBRANCH  15  18
BRANCH  17  20
ATOM     20  O   UNL     1      18.112  28.724  45.795  1.00  0.00    -0.504 OA
ATOM     21  H   UNL     1      19.056  28.960  45.512  1.00  0.00     0.293 HD
ENDBRANCH  17  20
ENDBRANCH   1  12
BRANCH   2  22
ATOM     22  O   UNL     1      15.408  26.299  41.412  1.00  0.00    -0.502 OA
ATOM     23  H   UNL     1      14.537  26.087  40.942  1.00  0.00     0.293 HD
ENDBRANCH   2  22
BRANCH   6  24
ATOM     24  O   UNL     1      17.907  23.839  37.404  1.00  0.00    -0.507 OA
ATOM     25  H   UNL     1      18.330  23.614  36.517  1.00  0.00     0.293 HD
ENDBRANCH   6  24
BRANCH   8  26
ATOM     26  O   UNL     1      21.343  21.535  39.843  1.00  0.00    -0.508 OA
ATOM     27  H   UNL     1      21.420  20.784  39.165  1.00  0.00     0.293 HD
ENDBRANCH   8  26
TORSDOF 6
ENDMDL
MODEL 4
REMARK VINA RESULT:    -6.399      1.351      1.946
REMARK INTER + INTRA:          -7.954
REMARK INTER:                  -7.637
REMARK INTRA:                  -0.317
REMARK UNBOUND:                -0.245
REMARK SMILES O=c1c(O)c(-c2ccc(O)c(O)c2)oc2cc(O)cc(O)c12
REMARK SMILES IDX 5 1 3 2 2 3 1 4 22 5 20 6 19 7 17 8 16 9 15 10 14 11 6 12
REMARK SMILES IDX 7 13 8 14 9 15 13 16 11 17 10 18 12 20 4 22 21 24 18 26
REMARK H PARENT 10 19 12 21 4 23 21 25 18 27
REMARK Flexibility Score: inf
ROOT
ATOM      1  C   UNL     1      17.804  24.524  42.554  1.00  0.00     0.180 A 
ATOM      2  C   UNL     1      16.845  23.789  43.272  1.00  0.00     0.208 A 
ATOM      3  C   UNL     1      16.371  24.297  44.493  1.00  0.00     0.238 A 
ATOM      4  O   UNL     1      15.474  23.661  45.104  1.00  0.00    -0.285 OA
ATOM      5  C   UNL     1      16.874  25.524  44.987  1.00  0.00     0.111 A 
ATOM      6  C   UNL     1      16.496  26.113  46.231  1.00  0.00     0.134 A 
ATOM      7  C   UNL     1      16.958  27.392  46.559  1.00  0.00     0.093 A 
ATOM      8  C   UNL     1      17.838  28.078  45.718  1.00  0.00     0.123 A 
ATOM      9  C   UNL     1      18.260  27.486  44.530  1.00  0.00     0.094 A 
ATOM     10  C   UNL     1      17.788  26.226  44.158  1.00  0.00     0.146 A 
ATOM     11  O   UNL     1      18.207  25.703  43.012  1.00  0.00    -0.452 OA
ENDROOT
BRANCH   1  12
ATOM     12  C   UNL     1      18.368  24.042  41.273  1.00  0.00     0.025 A 
ATOM     13  C   UNL     1      19.545  23.276  41.281  1.00  0.00     0.016 A 
ATOM     14  C   UNL     1      20.082  22.793  40.086  1.00  0.00     0.051 A 
ATOM     15  C   UNL     1      19.448  23.052  38.868  1.00  0.00     0.157 A 
ATOM     16  C   UNL     1      17.718  24.284  40.048  1.00  0.00     0.062 A 
ATOM     17  C   UNL     1      18.257  23.797  38.848  1.00  0.00     0.158 A 
BRANCH  15  18
ATOM     18  O   UNL     1      20.010  22.558  37.691  1.00  0.00    -0.504 OA
ATOM     19  H   UNL     1      20.264  21.584  37.583  1.00  0.00     0.293 HD
ENDBRANCH  15  18
BRANCH  17  20
ATOM     20  O   UNL     1      17.610  24.047  37.639  1.00  0.00    -0.504 OA
ATOM     21  H   UNL     1      16.754  24.589  37.596  1.00  0.00     0.293 HD
ENDBRANCH  17  20
ENDBRANCH   1  12
BRANCH   2  22
ATOM     22  O   UNL     1      16.345  22.590  42.755  1.00  0.00    -0.502 OA
ATOM     23  H   UNL     1      16.862  21.721  42.801  1.00  0.00     0.293 HD
ENDBRANCH   2  22
BRANCH   6  24
ATOM     24  O   UNL     1      15.696  25.474  47.185  1.00  0.00    -0.507 OA
ATOM     25  H   UNL     1      16.010  25.184  48.098  1.00  0.00     0.293 HD
ENDBRANCH   6  24
BRANCH   8  26
ATOM     26  O   UNL     1      18.306  29.345  46.059  1.00  0.00    -0.508 OA
ATOM     27  H   UNL     1      18.181  29.723  46.991  1.00  0.00     0.293 HD
ENDBRANCH   8  26
TORSDOF 6
ENDMDL
MODEL 5
REMARK VINA RESULT:    -6.374      2.970      5.758
REMARK INTER + INTRA:          -7.923
REMARK INTER:                  -7.602
REMARK INTRA:                  -0.321
REMARK UNBOUND:                -0.245
REMARK SMILES O=c1c(O)c(-c2ccc(O)c(O)c2)oc2cc(O)cc(O)c12
REMARK SMILES IDX 5 1 3 2 2 3 1 4 22 5 20 6 19 7 17 8 16 9 15 10 14 11 6 12
REMARK SMILES IDX 7 13 8 14 9 15 13 16 11 17 10 18 12 20 4 22 21 24 18 26
REMARK H PARENT 10 19 12 21 4 23 21 25 18 27
REMARK Flexibility Score: inf
ROOT
ATOM      1  C   UNL     1      17.318  24.307  42.800  1.00  0.00     0.180 A 
ATOM      2  C   UNL     1      15.986  24.628  42.484  1.00  0.00     0.208 A 
ATOM      3  C   UNL     1      14.991  23.652  42.654  1.00  0.00     0.238 A 
ATOM      4  O   UNL     1      13.794  23.963  42.421  1.00  0.00    -0.285 OA
ATOM      5  C   UNL     1      15.342  22.363  43.123  1.00  0.00     0.111 A 
ATOM      6  C   UNL     1      14.422  21.285  43.295  1.00  0.00     0.134 A 
ATOM      7  C   UNL     1      14.857  20.095  43.888  1.00  0.00     0.093 A 
ATOM      8  C   UNL     1      16.194  19.919  44.255  1.00  0.00     0.123 A 
ATOM      9  C   UNL     1      17.111  20.944  44.036  1.00  0.00     0.094 A 
ATOM     10  C   UNL     1      16.700  22.156  43.480  1.00  0.00     0.146 A 
ATOM     11  O   UNL     1      17.605  23.111  43.299  1.00  0.00    -0.452 OA
ENDROOT
BRANCH   1  12
ATOM     12  C   UNL     1      18.425  25.275  42.622  1.00  0.00     0.025 A 
ATOM     13  C   UNL     1      19.113  25.321  41.400  1.00  0.00     0.016 A 
ATOM     14  C   UNL     1      20.145  26.240  41.204  1.00  0.00     0.051 A 
ATOM     15  C   UNL     1      20.497  27.137  42.217  1.00  0.00     0.157 A 
ATOM     16  C   UNL     1      18.765  26.192  43.634  1.00  0.00     0.062 A 
ATOM     17  C   UNL     1      19.801  27.117  43.437  1.00  0.00     0.158 A 
BRANCH  15  18
ATOM     18  O   UNL     1      21.534  28.042  41.993  1.00  0.00    -0.504 OA
ATOM     19  H   UNL     1      22.507  27.768  42.044  1.00  0.00     0.293 HD
ENDBRANCH  15  18
BRANCH  17  20
ATOM     20  O   UNL     1      20.135  28.018  44.447  1.00  0.00    -0.504 OA
ATOM     21  H   UNL     1      20.511  27.706  45.335  1.00  0.00     0.293 HD
ENDBRANCH  17  20
ENDBRANCH   1  12
BRANCH   2  22
ATOM     22  O   UNL     1      15.658  25.914  42.043  1.00  0.00    -0.502 OA
ATOM     23  H   UNL     1      14.987  26.081  41.305  1.00  0.00     0.293 HD
ENDBRANCH   2  22
BRANCH   6  24
ATOM     24  O   UNL     1      13.088  21.325  42.877  1.00  0.00    -0.507 OA
ATOM     25  H   UNL     1      12.728  20.858  42.059  1.00  0.00     0.293 HD
ENDBRANCH   6  24
BRANCH   8  26
ATOM     26  O   UNL     1      16.622  18.725  44.831  1.00  0.00    -0.508 OA
ATOM     27  H   UNL     1      17.040  17.988  44.274  1.00  0.00     0.293 HD
ENDBRANCH   8  26
TORSDOF 6
ENDMDL
MODEL 6
REMARK VINA RESULT:    -6.315      4.095      7.264
REMARK INTER + INTRA:          -7.853
REMARK INTER:                  -7.679
REMARK INTRA:                  -0.174
REMARK UNBOUND:                -0.245
REMARK SMILES O=c1c(O)c(-c2ccc(O)c(O)c2)oc2cc(O)cc(O)c12
REMARK SMILES IDX 5 1 3 2 2 3 1 4 22 5 20 6 19 7 17 8 16 9 15 10 14 11 6 12
REMARK SMILES IDX 7 13 8 14 9 15 13 16 11 17 10 18 12 20 4 22 21 24 18 26
REMARK H PARENT 10 19 12 21 4 23 21 25 18 27
REMARK Flexibility Score: inf
ROOT
ATOM      1  C   UNL     1      16.928  23.836  45.620  1.00  0.00     0.180 A 
ATOM      2  C   UNL     1      16.507  23.180  44.450  1.00  0.00     0.208 A 
ATOM      3  C   UNL     1      16.286  21.793  44.489  1.00  0.00     0.238 A 
ATOM      4  O   UNL     1      15.857  21.221  43.454  1.00  0.00    -0.285 OA
ATOM      5  C   UNL     1      16.504  21.079  45.692  1.00  0.00     0.111 A 
ATOM      6  C   UNL     1      16.351  19.667  45.835  1.00  0.00     0.134 A 
ATOM      7  C   UNL     1      16.466  19.085  47.102  1.00  0.00     0.093 A 
ATOM      8  C   UNL     1      16.795  19.855  48.222  1.00  0.00     0.123 A 
ATOM      9  C   UNL     1      17.005  21.225  48.081  1.00  0.00     0.094 A 
ATOM     10  C   UNL     1      16.861  21.839  46.836  1.00  0.00     0.146 A 
ATOM     11  O   UNL     1      17.060  23.149  46.748  1.00  0.00    -0.452 OA
ENDROOT
BRANCH   1  12
ATOM     12  C   UNL     1      17.205  25.291  45.650  1.00  0.00     0.025 A 
ATOM     13  C   UNL     1      16.469  26.116  46.515  1.00  0.00     0.016 A 
ATOM     14  C   UNL     1      16.729  27.487  46.575  1.00  0.00     0.051 A 
ATOM     15  C   UNL     1      17.734  28.052  45.786  1.00  0.00     0.157 A 
ATOM     16  C   UNL     1      18.231  25.857  44.872  1.00  0.00     0.062 A 
ATOM     17  C   UNL     1      18.493  27.234  44.933  1.00  0.00     0.158 A 
BRANCH  15  18
ATOM     18  O   UNL     1      17.969  29.425  45.866  1.00  0.00    -0.504 OA
ATOM     19  H   UNL     1      17.252  30.107  45.651  1.00  0.00     0.293 HD
ENDBRANCH  15  18
BRANCH  17  20
ATOM     20  O   UNL     1      19.508  27.788  44.154  1.00  0.00    -0.504 OA
ATOM     21  H   UNL     1      19.664  28.788  44.116  1.00  0.00     0.293 HD
ENDBRANCH  17  20
ENDBRANCH   1  12
BRANCH   2  22
ATOM     22  O   UNL     1      16.276  23.908  43.279  1.00  0.00    -0.502 OA
ATOM     23  H   UNL     1      15.511  24.564  43.188  1.00  0.00     0.293 HD
ENDBRANCH   2  22
BRANCH   6  24
ATOM     24  O   UNL     1      16.113  18.796  44.766  1.00  0.00    -0.507 OA
ATOM     25  H   UNL     1      16.713  18.028  44.507  1.00  0.00     0.293 HD
ENDBRANCH   6  24
BRANCH   8  26
ATOM     26  O   UNL     1      16.923  19.265  49.477  1.00  0.00    -0.508 OA
ATOM     27  H   UNL     1      17.827  18.982  49.839  1.00  0.00     0.293 HD
ENDBRANCH   8  26
TORSDOF 6
ENDMDL
MODEL 7
REMARK VINA RESULT:    -6.240      2.319      7.018
REMARK INTER + INTRA:          -7.762
REMARK INTER:                  -7.443
REMARK INTRA:                  -0.319
REMARK UNBOUND:                -0.245
REMARK SMILES O=c1c(O)c(-c2ccc(O)c(O)c2)oc2cc(O)cc(O)c12
REMARK SMILES IDX 5 1 3 2 2 3 1 4 22 5 20 6 19 7 17 8 16 9 15 10 14 11 6 12
REMARK SMILES IDX 7 13 8 14 9 15 13 16 11 17 10 18 12 20 4 22 21 24 18 26
REMARK H PARENT 10 19 12 21 4 23 21 25 18 27
REMARK Flexibility Score: inf
ROOT
ATOM      1  C   UNL     1      18.849  25.493  40.745  1.00  0.00     0.180 A 
ATOM      2  C   UNL     1      19.184  24.141  40.553  1.00  0.00     0.208 A 
ATOM      3  C   UNL     1      19.490  23.693  39.258  1.00  0.00     0.238 A 
ATOM      4  O   UNL     1      19.842  22.494  39.102  1.00  0.00    -0.285 OA
ATOM      5  C   UNL     1      19.441  24.596  38.170  1.00  0.00     0.111 A 
ATOM      6  C   UNL     1      19.693  24.242  36.810  1.00  0.00     0.134 A 
ATOM      7  C   UNL     1      19.744  25.243  35.834  1.00  0.00     0.093 A 
ATOM      8  C   UNL     1      19.489  26.578  36.157  1.00  0.00     0.123 A 
ATOM      9  C   UNL     1      19.183  26.925  37.470  1.00  0.00     0.094 A 
ATOM     10  C   UNL     1      19.160  25.954  38.473  1.00  0.00     0.146 A 
ATOM     11  O   UNL     1      18.875  26.330  39.714  1.00  0.00    -0.452 OA
ENDROOT
BRANCH   1  12
ATOM     12  C   UNL     1      18.490  26.035  42.076  1.00  0.00     0.025 A 
ATOM     13  C   UNL     1      17.168  25.921  42.534  1.00  0.00     0.016 A 
ATOM     14  C   UNL     1      16.813  26.406  43.795  1.00  0.00     0.051 A 
ATOM     15  C   UNL     1      17.772  26.996  44.623  1.00  0.00     0.157 A 
ATOM     16  C   UNL     1      19.459  26.610  42.918  1.00  0.00     0.062 A 
ATOM     17  C   UNL     1      19.103  27.094  44.186  1.00  0.00     0.158 A 
BRANCH  15  18
ATOM     18  O   UNL     1      17.387  27.473  45.876  1.00  0.00    -0.504 OA
ATOM     19  H   UNL     1      17.885  28.220  46.343  1.00  0.00     0.293 HD
ENDBRANCH  15  18
BRANCH  17  20
ATOM     20  O   UNL     1      20.069  27.668  45.011  1.00  0.00    -0.504 OA
ATOM     21  H   UNL     1      20.041  27.560  46.018  1.00  0.00     0.293 HD
ENDBRANCH  17  20
ENDBRANCH   1  12
BRANCH   2  22
ATOM     22  O   UNL     1      19.248  23.271  41.645  1.00  0.00    -0.502 OA
ATOM     23  H   UNL     1      18.424  22.972  42.152  1.00  0.00     0.293 HD
ENDBRANCH   2  22
BRANCH   6  24
ATOM     24  O   UNL     1      19.869  22.927  36.367  1.00  0.00    -0.507 OA
ATOM     25  H   UNL     1      20.759  22.457  36.302  1.00  0.00     0.293 HD
ENDBRANCH   6  24
BRANCH   8  26
ATOM     26  O   UNL     1      19.527  27.566  35.176  1.00  0.00    -0.508 OA
ATOM     27  H   UNL     1      18.845  28.316  35.152  1.00  0.00     0.293 HD
ENDBRANCH   8  26
TORSDOF 6
ENDMDL
MODEL 8
REMARK VINA RESULT:    -6.197      1.788      6.900
REMARK INTER + INTRA:          -7.710
REMARK INTER:                  -7.589
REMARK INTRA:                  -0.120
REMARK UNBOUND:                -0.245
REMARK SMILES O=c1c(O)c(-c2ccc(O)c(O)c2)oc2cc(O)cc(O)c12
REMARK SMILES IDX 5 1 3 2 2 3 1 4 22 5 20 6 19 7 17 8 16 9 15 10 14 11 6 12
REMARK SMILES IDX 7 13 8 14 9 15 13 16 11 17 10 18 12 20 4 22 21 24 18 26
REMARK H PARENT 10 19 12 21 4 23 21 25 18 27
REMARK Flexibility Score: inf
ROOT
ATOM      1  C   UNL     1      18.521  25.046  40.931  1.00  0.00     0.180 A 
ATOM      2  C   UNL     1      17.255  25.197  40.337  1.00  0.00     0.208 A 
ATOM      3  C   UNL     1      16.940  24.429  39.204  1.00  0.00     0.238 A 
ATOM      4  O   UNL     1      15.786  24.528  38.710  1.00  0.00    -0.285 OA
ATOM      5  C   UNL     1      17.898  23.535  38.670  1.00  0.00     0.111 A 
ATOM      6  C   UNL     1      17.700  22.738  37.503  1.00  0.00     0.134 A 
ATOM      7  C   UNL     1      18.666  21.792  37.140  1.00  0.00     0.093 A 
ATOM      8  C   UNL     1      19.853  21.660  37.866  1.00  0.00     0.123 A 
ATOM      9  C   UNL     1      20.081  22.475  38.972  1.00  0.00     0.094 A 
ATOM     10  C   UNL     1      19.120  23.402  39.379  1.00  0.00     0.146 A 
ATOM     11  O   UNL     1      19.373  24.152  40.446  1.00  0.00    -0.452 OA
ENDROOT
BRANCH   1  12
ATOM     12  C   UNL     1      18.935  25.838  42.112  1.00  0.00     0.025 A 
ATOM     13  C   UNL     1      20.005  26.740  41.999  1.00  0.00     0.016 A 
ATOM     14  C   UNL     1      20.399  27.512  43.093  1.00  0.00     0.051 A 
ATOM     15  C   UNL     1      19.722  27.409  44.312  1.00  0.00     0.157 A 
ATOM     16  C   UNL     1      18.242  25.750  43.333  1.00  0.00     0.062 A 
ATOM     17  C   UNL     1      18.635  26.527  44.433  1.00  0.00     0.158 A 
BRANCH  15  18
ATOM     18  O   UNL     1      20.140  28.190  45.389  1.00  0.00    -0.504 OA
ATOM     19  H   UNL     1      19.503  28.482  46.120  1.00  0.00     0.293 HD
ENDBRANCH  15  18
BRANCH  17  20
ATOM     20  O   UNL     1      17.946  26.429  45.641  1.00  0.00    -0.504 OA
ATOM     21  H   UNL     1      16.937  26.340  45.672  1.00  0.00     0.293 HD
ENDBRANCH  17  20
ENDBRANCH   1  12
BRANCH   2  22
ATOM     22  O   UNL     1      16.316  26.070  40.894  1.00  0.00    -0.502 OA
ATOM     23  H   UNL     1      15.574  25.753  41.505  1.00  0.00     0.293 HD
ENDBRANCH   2  22
BRANCH   6  24
ATOM     24  O   UNL     1      16.593  22.856  36.656  1.00  0.00    -0.507 OA
ATOM     25  H   UNL     1      16.593  23.346  35.775  1.00  0.00     0.293 HD
ENDBRANCH   6  24
BRANCH   8  26
ATOM     26  O   UNL     1      20.816  20.727  37.490  1.00  0.00    -0.508 OA
ATOM     27  H   UNL     1      21.465  20.911  36.732  1.00  0.00     0.293 HD
ENDBRANCH   8  26
TORSDOF 6
ENDMDL
MODEL 9
REMARK VINA RESULT:    -6.177      1.867      3.592
REMARK INTER + INTRA:          -7.686
REMARK INTER:                  -7.408
REMARK INTRA:                  -0.278
REMARK UNBOUND:                -0.245
REMARK SMILES O=c1c(O)c(-c2ccc(O)c(O)c2)oc2cc(O)cc(O)c12
REMARK SMILES IDX 5 1 3 2 2 3 1 4 22 5 20 6 19 7 17 8 16 9 15 10 14 11 6 12
REMARK SMILES IDX 7 13 8 14 9 15 13 16 11 17 10 18 12 20 4 22 21 24 18 26
REMARK H PARENT 10 19 12 21 4 23 21 25 18 27
REMARK Flexibility Score: inf
ROOT
ATOM      1  C   UNL     1      18.484  25.737  42.393  1.00  0.00     0.180 A 
ATOM      2  C   UNL     1      19.211  26.726  43.077  1.00  0.00     0.208 A 
ATOM      3  C   UNL     1      18.755  27.160  44.333  1.00  0.00     0.238 A 
ATOM      4  O   UNL     1      19.440  28.006  44.964  1.00  0.00    -0.285 OA
ATOM      5  C   UNL     1      17.571  26.611  44.880  1.00  0.00     0.111 A 
ATOM      6  C   UNL     1      16.996  27.004  46.126  1.00  0.00     0.134 A 
ATOM      7  C   UNL     1      15.896  26.302  46.631  1.00  0.00     0.093 A 
ATOM      8  C   UNL     1      15.309  25.263  45.905  1.00  0.00     0.123 A 
ATOM      9  C   UNL     1      15.827  24.911  44.660  1.00  0.00     0.094 A 
ATOM     10  C   UNL     1      16.946  25.569  44.147  1.00  0.00     0.146 A 
ATOM     11  O   UNL     1      17.414  25.195  42.962  1.00  0.00    -0.452 OA
ENDROOT
BRANCH   1  12
ATOM     12  C   UNL     1      18.887  25.247  41.054  1.00  0.00     0.025 A 
ATOM     13  C   UNL     1      19.432  23.959  40.925  1.00  0.00     0.016 A 
ATOM     14  C   UNL     1      19.799  23.470  39.670  1.00  0.00     0.051 A 
ATOM     15  C   UNL     1      19.615  24.249  38.525  1.00  0.00     0.157 A 
ATOM     16  C   UNL     1      18.683  26.022  39.898  1.00  0.00     0.062 A 
ATOM     17  C   UNL     1      19.050  25.530  38.637  1.00  0.00     0.158 A 
BRANCH  15  18
ATOM     18  O   UNL     1      19.994  23.734  37.285  1.00  0.00    -0.504 OA
ATOM     19  H   UNL     1      20.944  23.441  37.092  1.00  0.00     0.293 HD
ENDBRANCH  15  18
BRANCH  17  20
ATOM     20  O   UNL     1      18.850  26.308  37.498  1.00  0.00    -0.504 OA
ATOM     21  H   UNL     1      19.609  26.822  37.064  1.00  0.00     0.293 HD
ENDBRANCH  17  20
ENDBRANCH   1  12
BRANCH   2  22
ATOM     22  O   UNL     1      20.390  27.239  42.528  1.00  0.00    -0.502 OA
ATOM     23  H   UNL     1      20.534  27.320  41.529  1.00  0.00     0.293 HD
ENDBRANCH   2  22
BRANCH   6  24
ATOM     24  O   UNL     1      17.449  28.088  46.886  1.00  0.00    -0.507 OA
ATOM     25  H   UNL     1      18.027  28.012  47.708  1.00  0.00     0.293 HD
ENDBRANCH   6  24
BRANCH   8  26
ATOM     26  O   UNL     1      14.204  24.580  46.408  1.00  0.00    -0.508 OA
ATOM     27  H   UNL     1      13.540  24.121  45.794  1.00  0.00     0.293 HD
ENDBRANCH   8  26
TORSDOF 6
ENDMDL
