MODEL 1
REMARK VINA RESULT:    -6.474      0.000      0.000
REMARK INTER + INTRA:          -8.725
REMARK INTER:                  -8.177
REMARK INTRA:                  -0.548
REMARK UNBOUND:                -0.548
REMARK SMILES Oc1cc(O)cc(CCc2ccccc2O)c1
REMARK SMILES IDX 9 1 10 2 12 3 13 4 11 5 14 6 15 7 16 8 8 10 7 11 6 12 17 13
REMARK SMILES IDX 4 14 2 15 3 16 5 17 1 19
REMARK H PARENT 16 9 5 18 1 20
REMARK Flexibility Score: inf
ROOT
ATOM      1  C   UNL     1     -10.986  -0.017  -9.378  1.00  0.00     0.044 C 
ENDROOT
BRANCH   1   2
ATOM      2  C   UNL     1     -12.324   0.659  -9.541  1.00  0.00    -0.006 A 
ATOM      3  C   UNL     1     -14.683   0.519 -10.121  1.00  0.00     0.001 A 
ATOM      4  C   UNL     1     -14.848   1.865  -9.791  1.00  0.00     0.004 A 
ATOM      5  C   UNL     1     -13.429  -0.085  -9.994  1.00  0.00     0.007 A 
ATOM      6  C   UNL     1     -13.762   2.610  -9.325  1.00  0.00     0.046 A 
ATOM      7  C   UNL     1     -12.500   2.013  -9.193  1.00  0.00     0.118 A 
BRANCH   7   8
ATOM      8  O   UNL     1     -11.423   2.760  -8.714  1.00  0.00    -0.508 OA
ATOM      9  H   UNL     1     -11.504   3.337  -7.885  1.00  0.00     0.293 HD
ENDBRANCH   7   8
ENDBRANCH   1   2
BRANCH   1  10
ATOM     10  C   UNL     1     -10.868  -1.215 -10.323  1.00  0.00     0.040 C 
BRANCH  10  11
ATOM     11  C   UNL     1     -10.759  -2.497  -9.541  1.00  0.00    -0.040 A 
ATOM     12  C   UNL     1     -11.538  -3.611  -9.895  1.00  0.00     0.050 A 
ATOM     13  C   UNL     1      -9.837  -2.607  -8.488  1.00  0.00     0.050 A 
ATOM     14  C   UNL     1     -11.415  -4.813  -9.191  1.00  0.00     0.119 A 
ATOM     15  C   UNL     1      -9.711  -3.807  -7.782  1.00  0.00     0.119 A 
ATOM     16  C   UNL     1     -10.502  -4.910  -8.131  1.00  0.00     0.092 A 
BRANCH  14  17
ATOM     17  O   UNL     1     -12.201  -5.904  -9.552  1.00  0.00    -0.508 OA
ATOM     18  H   UNL     1     -12.048  -6.403 -10.421  1.00  0.00     0.293 HD
ENDBRANCH  14  17
BRANCH  15  19
ATOM     19  O   UNL     1      -8.795  -3.895  -6.735  1.00  0.00    -0.508 OA
ATOM     20  H   UNL     1      -8.137  -4.664  -6.671  1.00  0.00     0.293 HD
ENDBRANCH  15  19
ENDBRANCH  10  11
ENDBRANCH   1  10
TORSDOF 6
ENDMDL
MODEL 2
REMARK VINA RESULT:    -6.446      0.170      2.045
REMARK INTER + INTRA:          -8.689
REMARK INTER:                  -8.133
REMARK INTRA:                  -0.556
REMARK UNBOUND:                -0.548
REMARK SMILES Oc1cc(O)cc(CCc2ccccc2O)c1
REMARK SMILES IDX 9 1 10 2 12 3 13 4 11 5 14 6 15 7 16 8 8 10 7 11 6 12 17 13
REMARK SMILES IDX 4 14 2 15 3 16 5 17 1 19
REMARK H PARENT 16 9 5 18 1 20
REMARK Flexibility Score: inf
ROOT
ATOM      1  C   UNL     1     -11.002  -0.206  -9.440  1.00  0.00     0.044 C 
ENDROOT
BRANCH   1   2
ATOM      2  C   UNL     1     -12.318   0.514  -9.592  1.00  0.00    -0.006 A 
ATOM      3  C   UNL     1     -14.683   0.454 -10.160  1.00  0.00     0.001 A 
ATOM      4  C   UNL     1     -14.803   1.802  -9.821  1.00  0.00     0.004 A 
ATOM      5  C   UNL     1     -13.448  -0.191 -10.043  1.00  0.00     0.007 A 
ATOM      6  C   UNL     1     -13.691   2.509  -9.356  1.00  0.00     0.046 A 
ATOM      7  C   UNL     1     -12.448   1.871  -9.235  1.00  0.00     0.118 A 
BRANCH   7   8
ATOM      8  O   UNL     1     -11.345   2.580  -8.757  1.00  0.00    -0.508 OA
ATOM      9  H   UNL     1     -10.712   2.179  -8.074  1.00  0.00     0.293 HD
ENDBRANCH   7   8
ENDBRANCH   1   2
BRANCH   1  10
ATOM     10  C   UNL     1     -10.946  -1.429 -10.358  1.00  0.00     0.040 C 
BRANCH  10  11
ATOM     11  C   UNL     1     -10.761  -2.687  -9.553  1.00  0.00    -0.040 A 
ATOM     12  C   UNL     1      -9.849  -2.717  -8.485  1.00  0.00     0.050 A 
ATOM     13  C   UNL     1     -11.540  -3.823  -9.827  1.00  0.00     0.050 A 
ATOM     14  C   UNL     1      -9.699  -3.875  -7.715  1.00  0.00     0.119 A 
ATOM     15  C   UNL     1     -11.393  -4.983  -9.058  1.00  0.00     0.119 A 
ATOM     16  C   UNL     1     -10.471  -5.010  -8.004  1.00  0.00     0.092 A 
BRANCH  14  17
ATOM     17  O   UNL     1      -8.786  -3.888  -6.664  1.00  0.00    -0.508 OA
ATOM     18  H   UNL     1      -9.046  -3.589  -5.731  1.00  0.00     0.293 HD
ENDBRANCH  14  17
BRANCH  15  19
ATOM     19  O   UNL     1     -12.170  -6.102  -9.350  1.00  0.00    -0.508 OA
ATOM     20  H   UNL     1     -11.975  -7.005  -8.932  1.00  0.00     0.293 HD
ENDBRANCH  15  19
ENDBRANCH  10  11
ENDBRANCH   1  10
TORSDOF 6
ENDMDL
MODEL 3
REMARK VINA RESULT:    -6.224     17.180     19.189
REMARK INTER + INTRA:          -8.409
REMARK INTER:                  -8.094
REMARK INTRA:                  -0.315
REMARK UNBOUND:                -0.548
REMARK SMILES Oc1cc(O)cc(CCc2ccccc2O)c1
REMARK SMILES IDX 9 1 10 2 12 3 13 4 11 5 14 6 15 7 16 8 8 10 7 11 6 12 17 13
REMARK SMILES IDX 4 14 2 15 3 16 5 17 1 19
REMARK H PARENT 16 9 5 18 1 20
REMARK Flexibility Score: inf
ROOT
ATOM      1  C   UNL     1     -10.216   7.315   6.443  1.00  0.00     0.044 C 
ENDROOT
BRANCH   1   2
ATOM      2  C   UNL     1     -10.670   5.889   6.623  1.00  0.00    -0.006 A 
ATOM      3  C   UNL     1     -11.835   3.937   5.756  1.00  0.00     0.001 A 
ATOM      4  C   UNL     1     -11.475   3.211   6.892  1.00  0.00     0.004 A 
ATOM      5  C   UNL     1     -11.432   5.268   5.617  1.00  0.00     0.007 A 
ATOM      6  C   UNL     1     -10.705   3.812   7.891  1.00  0.00     0.046 A 
ATOM      7  C   UNL     1     -10.295   5.147   7.762  1.00  0.00     0.118 A 
BRANCH   7   8
ATOM      8  O   UNL     1      -9.514   5.736   8.757  1.00  0.00    -0.508 OA
ATOM      9  H   UNL     1      -8.534   5.945   8.608  1.00  0.00     0.293 HD
ENDBRANCH   7   8
ENDBRANCH   1   2
BRANCH   1  10
ATOM     10  C   UNL     1      -8.756   7.363   5.984  1.00  0.00     0.040 C 
BRANCH  10  11
ATOM     11  C   UNL     1      -8.235   8.774   6.026  1.00  0.00    -0.040 A 
ATOM     12  C   UNL     1      -7.015   9.060   6.661  1.00  0.00     0.050 A 
ATOM     13  C   UNL     1      -8.935   9.806   5.381  1.00  0.00     0.050 A 
ATOM     14  C   UNL     1      -6.512  10.365   6.672  1.00  0.00     0.119 A 
ATOM     15  C   UNL     1      -8.435  11.112   5.390  1.00  0.00     0.119 A 
ATOM     16  C   UNL     1      -7.225  11.392   6.038  1.00  0.00     0.092 A 
BRANCH  14  17
ATOM     17  O   UNL     1      -5.304  10.630   7.313  1.00  0.00    -0.508 OA
ATOM     18  H   UNL     1      -5.008  11.578   7.515  1.00  0.00     0.293 HD
ENDBRANCH  14  17
BRANCH  15  19
ATOM     19  O   UNL     1      -9.147  12.125   4.750  1.00  0.00    -0.508 OA
ATOM     20  H   UNL     1     -10.144  12.242   4.893  1.00  0.00     0.293 HD
ENDBRANCH  15  19
ENDBRANCH  10  11
ENDBRANCH   1  10
TORSDOF 6
ENDMDL
MODEL 4
REMARK VINA RESULT:    -6.189     17.170     19.098
REMARK INTER + INTRA:          -8.365
REMARK INTER:                  -8.034
REMARK INTRA:                  -0.331
REMARK UNBOUND:                -0.548
REMARK SMILES Oc1cc(O)cc(CCc2ccccc2O)c1
REMARK SMILES IDX 9 1 10 2 12 3 13 4 11 5 14 6 15 7 16 8 8 10 7 11 6 12 17 13
REMARK SMILES IDX 4 14 2 15 3 16 5 17 1 19
REMARK H PARENT 16 9 5 18 1 20
REMARK Flexibility Score: inf
ROOT
ATOM      1  C   UNL     1     -10.145   7.318   6.412  1.00  0.00     0.044 C 
ENDROOT
BRANCH   1   2
ATOM      2  C   UNL     1     -10.621   5.898   6.588  1.00  0.00    -0.006 A 
ATOM      3  C   UNL     1     -11.783   3.954   5.698  1.00  0.00     0.001 A 
ATOM      4  C   UNL     1     -11.464   3.231   6.849  1.00  0.00     0.004 A 
ATOM      5  C   UNL     1     -11.361   5.280   5.564  1.00  0.00     0.007 A 
ATOM      6  C   UNL     1     -10.716   3.830   7.866  1.00  0.00     0.046 A 
ATOM      7  C   UNL     1     -10.287   5.159   7.741  1.00  0.00     0.118 A 
BRANCH   7   8
ATOM      8  O   UNL     1      -9.529   5.745   8.755  1.00  0.00    -0.508 OA
ATOM      9  H   UNL     1      -9.430   5.309   9.664  1.00  0.00     0.293 HD
ENDBRANCH   7   8
ENDBRANCH   1   2
BRANCH   1  10
ATOM     10  C   UNL     1      -8.682   7.345   5.965  1.00  0.00     0.040 C 
BRANCH  10  11
ATOM     11  C   UNL     1      -8.152   8.754   5.973  1.00  0.00    -0.040 A 
ATOM     12  C   UNL     1      -8.896   9.793   5.390  1.00  0.00     0.050 A 
ATOM     13  C   UNL     1      -6.938   9.049   6.612  1.00  0.00     0.050 A 
ATOM     14  C   UNL     1      -8.420  11.108   5.424  1.00  0.00     0.119 A 
ATOM     15  C   UNL     1      -6.460  10.364   6.649  1.00  0.00     0.119 A 
ATOM     16  C   UNL     1      -7.200  11.393   6.053  1.00  0.00     0.092 A 
BRANCH  14  17
ATOM     17  O   UNL     1      -9.169  12.125   4.835  1.00  0.00    -0.508 OA
ATOM     18  H   UNL     1     -10.167  12.206   4.991  1.00  0.00     0.293 HD
ENDBRANCH  14  17
BRANCH  15  19
ATOM     19  O   UNL     1      -5.249  10.636   7.283  1.00  0.00    -0.508 OA
ATOM     20  H   UNL     1      -4.888  10.036   8.016  1.00  0.00     0.293 HD
ENDBRANCH  15  19
ENDBRANCH  10  11
ENDBRANCH   1  10
TORSDOF 6
ENDMDL
MODEL 5
REMARK VINA RESULT:    -6.124     15.314     16.706
REMARK INTER + INTRA:          -8.283
REMARK INTER:                  -7.720
REMARK INTRA:                  -0.563
REMARK UNBOUND:                -0.548
REMARK SMILES Oc1cc(O)cc(CCc2ccccc2O)c1
REMARK SMILES IDX 9 1 10 2 12 3 13 4 11 5 14 6 15 7 16 8 8 10 7 11 6 12 17 13
REMARK SMILES IDX 4 14 2 15 3 16 5 17 1 19
REMARK H PARENT 16 9 5 18 1 20
REMARK Flexibility Score: inf
ROOT
ATOM      1  C   UNL     1     -14.707   6.915   5.604  1.00  0.00     0.044 C 
ENDROOT
BRANCH   1   2
ATOM      2  C   UNL     1     -14.495   7.547   4.251  1.00  0.00    -0.006 A 
ATOM      3  C   UNL     1     -14.043   9.529   2.914  1.00  0.00     0.001 A 
ATOM      4  C   UNL     1     -14.026   8.749   1.757  1.00  0.00     0.004 A 
ATOM      5  C   UNL     1     -14.272   8.933   4.158  1.00  0.00     0.007 A 
ATOM      6  C   UNL     1     -14.231   7.369   1.839  1.00  0.00     0.046 A 
ATOM      7  C   UNL     1     -14.460   6.761   3.082  1.00  0.00     0.118 A 
BRANCH   7   8
ATOM      8  O   UNL     1     -14.650   5.381   3.158  1.00  0.00    -0.508 OA
ATOM      9  H   UNL     1     -14.795   4.914   4.045  1.00  0.00     0.293 HD
ENDBRANCH   7   8
ENDBRANCH   1   2
BRANCH   1  10
ATOM     10  C   UNL     1     -13.606   7.343   6.578  1.00  0.00     0.040 C 
BRANCH  10  11
ATOM     11  C   UNL     1     -12.684   6.192   6.873  1.00  0.00    -0.040 A 
ATOM     12  C   UNL     1     -12.786   4.997   6.141  1.00  0.00     0.050 A 
ATOM     13  C   UNL     1     -11.677   6.322   7.842  1.00  0.00     0.050 A 
ATOM     14  C   UNL     1     -11.908   3.937   6.391  1.00  0.00     0.119 A 
ATOM     15  C   UNL     1     -10.797   5.264   8.095  1.00  0.00     0.119 A 
ATOM     16  C   UNL     1     -10.915   4.071   7.371  1.00  0.00     0.092 A 
BRANCH  14  17
ATOM     17  O   UNL     1     -12.029   2.758   5.659  1.00  0.00    -0.508 OA
ATOM     18  H   UNL     1     -12.930   2.321   5.502  1.00  0.00     0.293 HD
ENDBRANCH  14  17
BRANCH  15  19
ATOM     19  O   UNL     1      -9.808   5.410   9.066  1.00  0.00    -0.508 OA
ATOM     20  H   UNL     1      -8.826   5.301   8.841  1.00  0.00     0.293 HD
ENDBRANCH  15  19
ENDBRANCH  10  11
ENDBRANCH   1  10
TORSDOF 6
ENDMDL
MODEL 6
REMARK VINA RESULT:    -6.103     15.336     16.850
REMARK INTER + INTRA:          -8.256
REMARK INTER:                  -7.695
REMARK INTRA:                  -0.561
REMARK UNBOUND:                -0.548
REMARK SMILES Oc1cc(O)cc(CCc2ccccc2O)c1
REMARK SMILES IDX 9 1 10 2 12 3 13 4 11 5 14 6 15 7 16 8 8 10 7 11 6 12 17 13
REMARK SMILES IDX 4 14 2 15 3 16 5 17 1 19
REMARK H PARENT 16 9 5 18 1 20
REMARK Flexibility Score: inf
ROOT
ATOM      1  C   UNL     1     -14.691   6.964   5.632  1.00  0.00     0.044 C 
ENDROOT
BRANCH   1   2
ATOM      2  C   UNL     1     -14.488   7.543   4.255  1.00  0.00    -0.006 A 
ATOM      3  C   UNL     1     -14.009   9.465   2.842  1.00  0.00     0.001 A 
ATOM      4  C   UNL     1     -14.036   8.646   1.712  1.00  0.00     0.004 A 
ATOM      5  C   UNL     1     -14.229   8.918   4.109  1.00  0.00     0.007 A 
ATOM      6  C   UNL     1     -14.276   7.276   1.846  1.00  0.00     0.046 A 
ATOM      7  C   UNL     1     -14.498   6.717   3.112  1.00  0.00     0.118 A 
BRANCH   7   8
ATOM      8  O   UNL     1     -14.723   5.346   3.240  1.00  0.00    -0.508 OA
ATOM      9  H   UNL     1     -15.369   4.856   2.632  1.00  0.00     0.293 HD
ENDBRANCH   7   8
ENDBRANCH   1   2
BRANCH   1  10
ATOM     10  C   UNL     1     -13.568   7.407   6.575  1.00  0.00     0.040 C 
BRANCH  10  11
ATOM     11  C   UNL     1     -12.633   6.263   6.859  1.00  0.00    -0.040 A 
ATOM     12  C   UNL     1     -11.647   6.384   7.852  1.00  0.00     0.050 A 
ATOM     13  C   UNL     1     -12.776   5.046   6.173  1.00  0.00     0.050 A 
ATOM     14  C   UNL     1     -10.799   5.310   8.140  1.00  0.00     0.119 A 
ATOM     15  C   UNL     1     -11.929   3.970   6.459  1.00  0.00     0.119 A 
ATOM     16  C   UNL     1     -10.939   4.103   7.441  1.00  0.00     0.092 A 
BRANCH  14  17
ATOM     17  O   UNL     1      -9.823   5.451   9.124  1.00  0.00    -0.508 OA
ATOM     18  H   UNL     1      -9.923   5.019  10.036  1.00  0.00     0.293 HD
ENDBRANCH  14  17
BRANCH  15  19
ATOM     19  O   UNL     1     -12.082   2.772   5.763  1.00  0.00    -0.508 OA
ATOM     20  H   UNL     1     -12.180   2.755   4.755  1.00  0.00     0.293 HD
ENDBRANCH  15  19
ENDBRANCH  10  11
ENDBRANCH   1  10
TORSDOF 6
ENDMDL
MODEL 7
REMARK VINA RESULT:    -5.975     15.488     16.749
REMARK INTER + INTRA:          -8.094
REMARK INTER:                  -7.475
REMARK INTRA:                  -0.619
REMARK UNBOUND:                -0.548
REMARK SMILES Oc1cc(O)cc(CCc2ccccc2O)c1
REMARK SMILES IDX 9 1 10 2 12 3 13 4 11 5 14 6 15 7 16 8 8 10 7 11 6 12 17 13
REMARK SMILES IDX 4 14 2 15 3 16 5 17 1 19
REMARK H PARENT 16 9 5 18 1 20
REMARK Flexibility Score: inf
ROOT
ATOM      1  C   UNL     1     -13.955   5.153   4.734  1.00  0.00     0.044 C 
ENDROOT
BRANCH   1   2
ATOM      2  C   UNL     1     -14.024   6.634   4.457  1.00  0.00    -0.006 A 
ATOM      3  C   UNL     1     -13.783   8.924   5.242  1.00  0.00     0.001 A 
ATOM      4  C   UNL     1     -14.073   9.398   3.961  1.00  0.00     0.004 A 
ATOM      5  C   UNL     1     -13.754   7.549   5.490  1.00  0.00     0.007 A 
ATOM      6  C   UNL     1     -14.328   8.498   2.923  1.00  0.00     0.046 A 
ATOM      7  C   UNL     1     -14.300   7.117   3.161  1.00  0.00     0.118 A 
BRANCH   7   8
ATOM      8  O   UNL     1     -14.541   6.224   2.117  1.00  0.00    -0.508 OA
ATOM      9  H   UNL     1     -14.331   5.237   2.203  1.00  0.00     0.293 HD
ENDBRANCH   7   8
ENDBRANCH   1   2
BRANCH   1  10
ATOM     10  C   UNL     1     -12.521   4.641   4.579  1.00  0.00     0.040 C 
BRANCH  10  11
ATOM     11  C   UNL     1     -11.827   4.598   5.913  1.00  0.00    -0.040 A 
ATOM     12  C   UNL     1     -12.247   3.692   6.901  1.00  0.00     0.050 A 
ATOM     13  C   UNL     1     -10.719   5.424   6.161  1.00  0.00     0.050 A 
ATOM     14  C   UNL     1     -11.583   3.628   8.130  1.00  0.00     0.119 A 
ATOM     15  C   UNL     1     -10.052   5.362   7.389  1.00  0.00     0.119 A 
ATOM     16  C   UNL     1     -10.486   4.466   8.375  1.00  0.00     0.092 A 
BRANCH  14  17
ATOM     17  O   UNL     1     -12.018   2.727   9.100  1.00  0.00    -0.508 OA
ATOM     18  H   UNL     1     -12.313   3.038  10.018  1.00  0.00     0.293 HD
ENDBRANCH  14  17
BRANCH  15  19
ATOM     19  O   UNL     1      -8.957   6.194   7.619  1.00  0.00    -0.508 OA
ATOM     20  H   UNL     1      -9.060   7.201   7.673  1.00  0.00     0.293 HD
ENDBRANCH  15  19
ENDBRANCH  10  11
ENDBRANCH   1  10
TORSDOF 6
ENDMDL
MODEL 8
REMARK VINA RESULT:    -5.970     16.706     17.968
REMARK INTER + INTRA:          -8.088
REMARK INTER:                  -7.674
REMARK INTRA:                  -0.414
REMARK UNBOUND:                -0.548
REMARK SMILES Oc1cc(O)cc(CCc2ccccc2O)c1
REMARK SMILES IDX 9 1 10 2 12 3 13 4 11 5 14 6 15 7 16 8 8 10 7 11 6 12 17 13
REMARK SMILES IDX 4 14 2 15 3 16 5 17 1 19
REMARK H PARENT 16 9 5 18 1 20
REMARK Flexibility Score: inf
ROOT
ATOM      1  C   UNL     1      -9.648   7.964   6.152  1.00  0.00     0.044 C 
ENDROOT
BRANCH   1   2
ATOM      2  C   UNL     1      -8.604   9.048   6.058  1.00  0.00    -0.006 A 
ATOM      3  C   UNL     1      -6.302   9.771   6.372  1.00  0.00     0.001 A 
ATOM      4  C   UNL     1      -6.616  11.020   5.833  1.00  0.00     0.004 A 
ATOM      5  C   UNL     1      -7.288   8.787   6.481  1.00  0.00     0.007 A 
ATOM      6  C   UNL     1      -7.916  11.286   5.395  1.00  0.00     0.046 A 
ATOM      7  C   UNL     1      -8.913  10.305   5.499  1.00  0.00     0.118 A 
BRANCH   7   8
ATOM      8  O   UNL     1     -10.205  10.574   5.047  1.00  0.00    -0.508 OA
ATOM      9  H   UNL     1     -10.509  10.302   4.119  1.00  0.00     0.293 HD
ENDBRANCH   7   8
ENDBRANCH   1   2
BRANCH   1  10
ATOM     10  C   UNL     1      -9.029   6.663   6.670  1.00  0.00     0.040 C 
BRANCH  10  11
ATOM     11  C   UNL     1     -10.032   5.543   6.618  1.00  0.00    -0.040 A 
ATOM     12  C   UNL     1     -10.742   5.282   5.434  1.00  0.00     0.050 A 
ATOM     13  C   UNL     1     -10.224   4.714   7.734  1.00  0.00     0.050 A 
ATOM     14  C   UNL     1     -11.651   4.220   5.374  1.00  0.00     0.119 A 
ATOM     15  C   UNL     1     -11.132   3.651   7.677  1.00  0.00     0.119 A 
ATOM     16  C   UNL     1     -11.848   3.406   6.498  1.00  0.00     0.092 A 
BRANCH  14  17
ATOM     17  O   UNL     1     -12.350   3.981   4.193  1.00  0.00    -0.508 OA
ATOM     18  H   UNL     1     -11.983   3.367   3.475  1.00  0.00     0.293 HD
ENDBRANCH  14  17
BRANCH  15  19
ATOM     19  O   UNL     1     -11.315   2.843   8.798  1.00  0.00    -0.508 OA
ATOM     20  H   UNL     1     -11.599   3.232   9.690  1.00  0.00     0.293 HD
ENDBRANCH  15  19
ENDBRANCH  10  11
ENDBRANCH   1  10
TORSDOF 6
ENDMDL
MODEL 9
REMARK VINA RESULT:    -5.955     16.675     18.015
REMARK INTER + INTRA:          -8.069
REMARK INTER:                  -7.649
REMARK INTRA:                  -0.420
REMARK UNBOUND:                -0.548
REMARK SMILES Oc1cc(O)cc(CCc2ccccc2O)c1
REMARK SMILES IDX 9 1 10 2 12 3 13 4 11 5 14 6 15 7 16 8 8 10 7 11 6 12 17 13
REMARK SMILES IDX 4 14 2 15 3 16 5 17 1 19
REMARK H PARENT 16 9 5 18 1 20
REMARK Flexibility Score: inf
ROOT
ATOM      1  C   UNL     1      -9.667   7.937   6.139  1.00  0.00     0.044 C 
ENDROOT
BRANCH   1   2
ATOM      2  C   UNL     1      -8.622   9.021   6.062  1.00  0.00    -0.006 A 
ATOM      3  C   UNL     1      -6.324   9.742   6.404  1.00  0.00     0.001 A 
ATOM      4  C   UNL     1      -6.632  10.993   5.868  1.00  0.00     0.004 A 
ATOM      5  C   UNL     1      -7.311   8.757   6.497  1.00  0.00     0.007 A 
ATOM      6  C   UNL     1      -7.927  11.262   5.418  1.00  0.00     0.046 A 
ATOM      7  C   UNL     1      -8.925  10.281   5.507  1.00  0.00     0.118 A 
BRANCH   7   8
ATOM      8  O   UNL     1     -10.212  10.552   5.042  1.00  0.00    -0.508 OA
ATOM      9  H   UNL     1     -10.373  10.932   4.116  1.00  0.00     0.293 HD
ENDBRANCH   7   8
ENDBRANCH   1   2
BRANCH   1  10
ATOM     10  C   UNL     1      -9.053   6.631   6.650  1.00  0.00     0.040 C 
BRANCH  10  11
ATOM     11  C   UNL     1     -10.050   5.507   6.563  1.00  0.00    -0.040 A 
ATOM     12  C   UNL     1     -10.265   4.664   7.665  1.00  0.00     0.050 A 
ATOM     13  C   UNL     1     -10.813   5.329   5.398  1.00  0.00     0.050 A 
ATOM     14  C   UNL     1     -11.214   3.639   7.597  1.00  0.00     0.119 A 
ATOM     15  C   UNL     1     -11.764   4.305   5.326  1.00  0.00     0.119 A 
ATOM     16  C   UNL     1     -11.963   3.458   6.425  1.00  0.00     0.092 A 
BRANCH  14  17
ATOM     17  O   UNL     1     -11.409   2.808   8.698  1.00  0.00    -0.508 OA
ATOM     18  H   UNL     1     -12.154   2.977   9.363  1.00  0.00     0.293 HD
ENDBRANCH  14  17
BRANCH  15  19
ATOM     19  O   UNL     1     -12.508   4.139   4.159  1.00  0.00    -0.508 OA
ATOM     20  H   UNL     1     -13.495   3.909   4.189  1.00  0.00     0.293 HD
ENDBRANCH  15  19
ENDBRANCH  10  11
ENDBRANCH   1  10
TORSDOF 6
ENDMDL
