MODEL 1
REMARK VINA RESULT:    -3.602      0.000      0.000
REMARK INTER + INTRA:          -6.586
REMARK INTER:                  -5.497
REMARK INTRA:                  -1.088
REMARK UNBOUND:                -1.088
REMARK SMILES CCCCCCCCCC=CC(=O)[O-]
REMARK SMILES IDX 7 1 8 2 9 3 10 4 11 5 12 6 13 7 14 8 6 9 5 10 4 11 3 12 2 13
REMARK SMILES IDX 1 14
REMARK H PARENT
REMARK Flexibility Score: inf
ROOT
ATOM      1  C   UNL     1      60.750  30.998  59.735  1.00  0.00     0.000 C 
ENDROOT
BRANCH   1   2
ATOM      2  C   UNL     1      60.575  30.793  61.248  1.00  0.00     0.004 C 
BRANCH   2   3
ATOM      3  C   UNL     1      61.850  30.266  61.923  1.00  0.00     0.027 C 
BRANCH   3   4
ATOM      4  C   UNL     1      62.982  30.171  60.940  1.00  0.00    -0.025 C 
ATOM      5  C   UNL     1      64.119  30.853  61.116  1.00  0.00     0.020 C 
BRANCH   5   6
ATOM      6  C   UNL     1      65.245  30.764  60.174  1.00  0.00     0.064 C 
ATOM      7  O   UNL     1      66.073  29.816  60.235  1.00  0.00    -0.545 OA
ATOM      8  O   UNL     1      65.399  31.742  59.199  1.00  0.00    -0.545 OA
ENDBRANCH   5   6
ENDBRANCH   3   4
ENDBRANCH   2   3
ENDBRANCH   1   2
BRANCH   1   9
ATOM      9  C   UNL     1      60.432  32.438  59.294  1.00  0.00     0.000 C 
BRANCH   9  10
ATOM     10  C   UNL     1      61.136  33.491  60.164  1.00  0.00     0.000 C 
BRANCH  10  11
ATOM     11  C   UNL     1      62.564  33.800  59.681  1.00  0.00    -0.000 C 
BRANCH  11  12
ATOM     12  C   UNL     1      63.193  34.984  60.445  1.00  0.00    -0.000 C 
BRANCH  12  13
ATOM     13  C   UNL     1      64.436  34.596  61.263  1.00  0.00    -0.003 C 
ATOM     14  C   UNL     1      65.162  35.802  61.856  1.00  0.00     0.004 C 
ENDBRANCH  12  13
ENDBRANCH  11  12
ENDBRANCH  10  11
ENDBRANCH   9  10
ENDBRANCH   1   9
TORSDOF 9
ENDMDL
MODEL 2
REMARK VINA RESULT:    -3.588     11.540     13.488
REMARK INTER + INTRA:          -6.563
REMARK INTER:                  -5.163
REMARK INTRA:                  -1.400
REMARK UNBOUND:                -1.088
REMARK SMILES CCCCCCCCCC=CC(=O)[O-]
REMARK SMILES IDX 7 1 8 2 9 3 10 4 11 5 12 6 13 7 14 8 6 9 5 10 4 11 3 12 2 13
REMARK SMILES IDX 1 14
REMARK H PARENT
REMARK Flexibility Score: inf
ROOT
ATOM      1  C   UNL     1      57.951  25.274  51.445  1.00  0.00     0.000 C 
ENDROOT
BRANCH   1   2
ATOM      2  C   UNL     1      56.435  25.518  51.517  1.00  0.00     0.004 C 
BRANCH   2   3
ATOM      3  C   UNL     1      55.775  25.545  50.131  1.00  0.00     0.027 C 
BRANCH   3   4
ATOM      4  C   UNL     1      54.849  26.720  49.995  1.00  0.00    -0.025 C 
ATOM      5  C   UNL     1      55.070  27.863  50.652  1.00  0.00     0.020 C 
BRANCH   5   6
ATOM      6  C   UNL     1      54.184  29.031  50.523  1.00  0.00     0.064 C 
ATOM      7  O   UNL     1      54.579  30.187  50.831  1.00  0.00    -0.545 OA
ATOM      8  O   UNL     1      52.887  28.856  50.053  1.00  0.00    -0.545 OA
ENDBRANCH   5   6
ENDBRANCH   3   4
ENDBRANCH   2   3
ENDBRANCH   1   2
BRANCH   1   9
ATOM      9  C   UNL     1      58.532  25.583  50.054  1.00  0.00     0.000 C 
BRANCH   9  10
ATOM     10  C   UNL     1      60.003  26.024  50.114  1.00  0.00     0.000 C 
BRANCH  10  11
ATOM     11  C   UNL     1      60.207  27.471  49.629  1.00  0.00    -0.000 C 
BRANCH  11  12
ATOM     12  C   UNL     1      58.875  28.150  49.248  1.00  0.00    -0.000 C 
BRANCH  12  13
ATOM     13  C   UNL     1      58.540  29.376  50.114  1.00  0.00    -0.003 C 
ATOM     14  C   UNL     1      58.426  29.046  51.601  1.00  0.00     0.004 C 
ENDBRANCH  12  13
ENDBRANCH  11  12
ENDBRANCH  10  11
ENDBRANCH   9  10
ENDBRANCH   1   9
TORSDOF 9
ENDMDL
MODEL 3
REMARK VINA RESULT:    -3.559     11.691     13.375
REMARK INTER + INTRA:          -6.520
REMARK INTER:                  -5.399
REMARK INTRA:                  -1.121
REMARK UNBOUND:                -1.088
REMARK SMILES CCCCCCCCCC=CC(=O)[O-]
REMARK SMILES IDX 7 1 8 2 9 3 10 4 11 5 12 6 13 7 14 8 6 9 5 10 4 11 3 12 2 13
REMARK SMILES IDX 1 14
REMARK H PARENT
REMARK Flexibility Score: inf
ROOT
ATOM      1  C   UNL     1      58.367  29.213  50.813  1.00  0.00     0.000 C 
ENDROOT
BRANCH   1   2
ATOM      2  C   UNL     1      58.807  28.768  49.409  1.00  0.00     0.004 C 
BRANCH   2   3
ATOM      3  C   UNL     1      60.005  27.808  49.443  1.00  0.00     0.027 C 
BRANCH   3   4
ATOM      4  C   UNL     1      59.562  26.399  49.714  1.00  0.00    -0.025 C 
ATOM      5  C   UNL     1      60.235  25.604  50.552  1.00  0.00     0.020 C 
BRANCH   5   6
ATOM      6  C   UNL     1      59.811  24.225  50.843  1.00  0.00     0.064 C 
ATOM      7  O   UNL     1      58.944  23.981  51.724  1.00  0.00    -0.545 OA
ATOM      8  O   UNL     1      60.376  23.173  50.132  1.00  0.00    -0.545 OA
ENDBRANCH   5   6
ENDBRANCH   3   4
ENDBRANCH   2   3
ENDBRANCH   1   2
BRANCH   1   9
ATOM      9  C   UNL     1      56.845  29.406  50.922  1.00  0.00     0.000 C 
BRANCH   9  10
ATOM     10  C   UNL     1      56.065  28.109  50.656  1.00  0.00     0.000 C 
BRANCH  10  11
ATOM     11  C   UNL     1      56.468  26.970  51.610  1.00  0.00    -0.000 C 
BRANCH  11  12
ATOM     12  C   UNL     1      55.896  25.609  51.164  1.00  0.00    -0.000 C 
BRANCH  12  13
ATOM     13  C   UNL     1      55.399  25.598  49.708  1.00  0.00    -0.003 C 
ATOM     14  C   UNL     1      53.943  25.155  49.576  1.00  0.00     0.004 C 
ENDBRANCH  12  13
ENDBRANCH  11  12
ENDBRANCH  10  11
ENDBRANCH   9  10
ENDBRANCH   1   9
TORSDOF 9
ENDMDL
MODEL 4
REMARK VINA RESULT:    -3.449      1.926      4.162
REMARK INTER + INTRA:          -6.352
REMARK INTER:                  -5.041
REMARK INTRA:                  -1.310
REMARK UNBOUND:                -1.088
REMARK SMILES CCCCCCCCCC=CC(=O)[O-]
REMARK SMILES IDX 7 1 8 2 9 3 10 4 11 5 12 6 13 7 14 8 6 9 5 10 4 11 3 12 2 13
REMARK SMILES IDX 1 14
REMARK H PARENT
REMARK Flexibility Score: inf
ROOT
ATOM      1  C   UNL     1      60.842  31.315  59.658  1.00  0.00     0.000 C 
ENDROOT
BRANCH   1   2
ATOM      2  C   UNL     1      61.092  32.753  59.177  1.00  0.00     0.004 C 
BRANCH   2   3
ATOM      3  C   UNL     1      61.357  33.725  60.336  1.00  0.00     0.027 C 
BRANCH   3   4
ATOM      4  C   UNL     1      62.813  34.085  60.418  1.00  0.00    -0.025 C 
ATOM      5  C   UNL     1      63.221  35.218  60.999  1.00  0.00     0.020 C 
BRANCH   5   6
ATOM      6  C   UNL     1      64.643  35.584  61.102  1.00  0.00     0.064 C 
ATOM      7  O   UNL     1      65.142  35.958  62.196  1.00  0.00    -0.545 OA
ATOM      8  O   UNL     1      65.450  35.515  59.972  1.00  0.00    -0.545 OA
ENDBRANCH   5   6
ENDBRANCH   3   4
ENDBRANCH   2   3
ENDBRANCH   1   2
BRANCH   1   9
ATOM      9  C   UNL     1      60.726  31.217  61.189  1.00  0.00     0.000 C 
BRANCH   9  10
ATOM     10  C   UNL     1      61.785  30.287  61.803  1.00  0.00     0.000 C 
BRANCH  10  11
ATOM     11  C   UNL     1      62.913  29.941  60.814  1.00  0.00    -0.000 C 
BRANCH  11  12
ATOM     12  C   UNL     1      64.200  30.745  61.097  1.00  0.00    -0.000 C 
BRANCH  12  13
ATOM     13  C   UNL     1      65.173  30.784  59.907  1.00  0.00    -0.003 C 
ATOM     14  C   UNL     1      64.534  31.320  58.628  1.00  0.00     0.004 C 
ENDBRANCH  12  13
ENDBRANCH  11  12
ENDBRANCH  10  11
ENDBRANCH   9  10
ENDBRANCH   1   9
TORSDOF 9
ENDMDL
MODEL 5
REMARK VINA RESULT:    -3.396     11.428     13.234
REMARK INTER + INTRA:          -6.271
REMARK INTER:                  -5.053
REMARK INTRA:                  -1.218
REMARK UNBOUND:                -1.088
REMARK SMILES CCCCCCCCCC=CC(=O)[O-]
REMARK SMILES IDX 7 1 8 2 9 3 10 4 11 5 12 6 13 7 14 8 6 9 5 10 4 11 3 12 2 13
REMARK SMILES IDX 1 14
REMARK H PARENT
REMARK Flexibility Score: inf
ROOT
ATOM      1  C   UNL     1      59.600  28.056  49.250  1.00  0.00     0.000 C 
ENDROOT
BRANCH   1   2
ATOM      2  C   UNL     1      59.997  27.030  50.323  1.00  0.00     0.004 C 
BRANCH   2   3
ATOM      3  C   UNL     1      59.512  25.612  49.990  1.00  0.00     0.027 C 
BRANCH   3   4
ATOM      4  C   UNL     1      58.225  25.300  50.699  1.00  0.00    -0.025 C 
ATOM      5  C   UNL     1      57.050  25.745  50.242  1.00  0.00     0.020 C 
BRANCH   5   6
ATOM      6  C   UNL     1      55.777  25.440  50.913  1.00  0.00     0.064 C 
ATOM      7  O   UNL     1      54.787  25.006  50.265  1.00  0.00    -0.545 OA
ATOM      8  O   UNL     1      55.663  25.634  52.284  1.00  0.00    -0.545 OA
ENDBRANCH   5   6
ENDBRANCH   3   4
ENDBRANCH   2   3
ENDBRANCH   1   2
BRANCH   1   9
ATOM      9  C   UNL     1      58.840  29.259  49.836  1.00  0.00     0.000 C 
BRANCH   9  10
ATOM     10  C   UNL     1      58.597  29.124  51.348  1.00  0.00     0.000 C 
BRANCH  10  11
ATOM     11  C   UNL     1      57.113  29.279  51.725  1.00  0.00    -0.000 C 
BRANCH  11  12
ATOM     12  C   UNL     1      56.187  29.173  50.495  1.00  0.00    -0.000 C 
BRANCH  12  13
ATOM     13  C   UNL     1      54.713  29.479  50.808  1.00  0.00    -0.003 C 
ATOM     14  C   UNL     1      53.754  28.418  50.270  1.00  0.00     0.004 C 
ENDBRANCH  12  13
ENDBRANCH  11  12
ENDBRANCH  10  11
ENDBRANCH   9  10
ENDBRANCH   1   9
TORSDOF 9
ENDMDL
MODEL 6
REMARK VINA RESULT:    -3.393     12.358     13.974
REMARK INTER + INTRA:          -6.266
REMARK INTER:                  -4.968
REMARK INTRA:                  -1.298
REMARK UNBOUND:                -1.088
REMARK SMILES CCCCCCCCCC=CC(=O)[O-]
REMARK SMILES IDX 7 1 8 2 9 3 10 4 11 5 12 6 13 7 14 8 6 9 5 10 4 11 3 12 2 13
REMARK SMILES IDX 1 14
REMARK H PARENT
REMARK Flexibility Score: inf
ROOT
ATOM      1  C   UNL     1      57.974  29.147  50.805  1.00  0.00     0.000 C 
ENDROOT
BRANCH   1   2
ATOM      2  C   UNL     1      56.474  28.984  50.515  1.00  0.00     0.004 C 
BRANCH   2   3
ATOM      3  C   UNL     1      55.820  27.899  51.384  1.00  0.00     0.027 C 
BRANCH   3   4
ATOM      4  C   UNL     1      54.761  27.158  50.619  1.00  0.00    -0.025 C 
ATOM      5  C   UNL     1      54.811  25.831  50.464  1.00  0.00     0.020 C 
BRANCH   5   6
ATOM      6  C   UNL     1      53.777  25.084  49.730  1.00  0.00     0.064 C 
ATOM      7  O   UNL     1      53.504  23.889  50.025  1.00  0.00    -0.545 OA
ATOM      8  O   UNL     1      53.090  25.706  48.694  1.00  0.00    -0.545 OA
ENDBRANCH   5   6
ENDBRANCH   3   4
ENDBRANCH   2   3
ENDBRANCH   1   2
BRANCH   1   9
ATOM      9  C   UNL     1      58.815  29.256  49.521  1.00  0.00     0.000 C 
BRANCH   9  10
ATOM     10  C   UNL     1      59.591  27.965  49.213  1.00  0.00     0.000 C 
BRANCH  10  11
ATOM     11  C   UNL     1      59.575  26.970  50.387  1.00  0.00    -0.000 C 
BRANCH  11  12
ATOM     12  C   UNL     1      58.737  25.714  50.073  1.00  0.00    -0.000 C 
BRANCH  12  13
ATOM     13  C   UNL     1      58.312  24.929  51.326  1.00  0.00    -0.003 C 
ATOM     14  C   UNL     1      58.510  25.714  52.620  1.00  0.00     0.004 C 
ENDBRANCH  12  13
ENDBRANCH  11  12
ENDBRANCH  10  11
ENDBRANCH   9  10
ENDBRANCH   1   9
TORSDOF 9
ENDMDL
MODEL 7
REMARK VINA RESULT:    -3.384     11.884     13.482
REMARK INTER + INTRA:          -6.252
REMARK INTER:                  -4.848
REMARK INTRA:                  -1.404
REMARK UNBOUND:                -1.088
REMARK SMILES CCCCCCCCCC=CC(=O)[O-]
REMARK SMILES IDX 7 1 8 2 9 3 10 4 11 5 12 6 13 7 14 8 6 9 5 10 4 11 3 12 2 13
REMARK SMILES IDX 1 14
REMARK H PARENT
REMARK Flexibility Score: inf
ROOT
ATOM      1  C   UNL     1      59.999  27.098  50.270  1.00  0.00     0.000 C 
ENDROOT
BRANCH   1   2
ATOM      2  C   UNL     1      59.239  25.791  49.995  1.00  0.00     0.004 C 
BRANCH   2   3
ATOM      3  C   UNL     1      58.094  25.555  50.991  1.00  0.00     0.027 C 
BRANCH   3   4
ATOM      4  C   UNL     1      56.758  25.634  50.308  1.00  0.00    -0.025 C 
ATOM      5  C   UNL     1      55.619  25.687  51.005  1.00  0.00     0.020 C 
BRANCH   5   6
ATOM      6  C   UNL     1      54.301  25.778  50.357  1.00  0.00     0.064 C 
ATOM      7  O   UNL     1      53.321  26.311  50.944  1.00  0.00    -0.545 OA
ATOM      8  O   UNL     1      54.133  25.267  49.075  1.00  0.00    -0.545 OA
ENDBRANCH   5   6
ENDBRANCH   3   4
ENDBRANCH   2   3
ENDBRANCH   1   2
BRANCH   1   9
ATOM      9  C   UNL     1      59.752  28.164  49.188  1.00  0.00     0.000 C 
BRANCH   9  10
ATOM     10  C   UNL     1      58.742  29.234  49.633  1.00  0.00     0.000 C 
BRANCH  10  11
ATOM     11  C   UNL     1      58.661  29.371  51.164  1.00  0.00    -0.000 C 
BRANCH  11  12
ATOM     12  C   UNL     1      57.204  29.390  51.670  1.00  0.00    -0.000 C 
BRANCH  12  13
ATOM     13  C   UNL     1      56.162  29.259  50.547  1.00  0.00    -0.003 C 
ATOM     14  C   UNL     1      54.757  29.672  50.983  1.00  0.00     0.004 C 
ENDBRANCH  12  13
ENDBRANCH  11  12
ENDBRANCH  10  11
ENDBRANCH   9  10
ENDBRANCH   1   9
TORSDOF 9
ENDMDL
MODEL 8
REMARK VINA RESULT:    -3.352     11.361     13.188
REMARK INTER + INTRA:          -6.204
REMARK INTER:                  -5.074
REMARK INTRA:                  -1.130
REMARK UNBOUND:                -1.088
REMARK SMILES CCCCCCCCCC=CC(=O)[O-]
REMARK SMILES IDX 7 1 8 2 9 3 10 4 11 5 12 6 13 7 14 8 6 9 5 10 4 11 3 12 2 13
REMARK SMILES IDX 1 14
REMARK H PARENT
REMARK Flexibility Score: inf
ROOT
ATOM      1  C   UNL     1      53.886  27.466  50.980  1.00  0.00     0.000 C 
ENDROOT
BRANCH   1   2
ATOM      2  C   UNL     1      54.144  28.914  50.536  1.00  0.00     0.004 C 
BRANCH   2   3
ATOM      3  C   UNL     1      55.348  29.545  51.250  1.00  0.00     0.027 C 
BRANCH   3   4
ATOM      4  C   UNL     1      56.612  29.336  50.466  1.00  0.00    -0.025 C 
ATOM      5  C   UNL     1      57.815  29.527  51.017  1.00  0.00     0.020 C 
BRANCH   5   6
ATOM      6  C   UNL     1      59.066  29.316  50.271  1.00  0.00     0.064 C 
ATOM      7  O   UNL     1      60.163  29.768  50.696  1.00  0.00    -0.545 OA
ATOM      8  O   UNL     1      59.038  28.605  49.077  1.00  0.00    -0.545 OA
ENDBRANCH   5   6
ENDBRANCH   3   4
ENDBRANCH   2   3
ENDBRANCH   1   2
BRANCH   1   9
ATOM      9  C   UNL     1      53.679  26.511  49.791  1.00  0.00     0.000 C 
BRANCH   9  10
ATOM     10  C   UNL     1      54.808  25.476  49.662  1.00  0.00     0.000 C 
BRANCH  10  11
ATOM     11  C   UNL     1      55.803  25.536  50.835  1.00  0.00    -0.000 C 
BRANCH  11  12
ATOM     12  C   UNL     1      57.246  25.803  50.360  1.00  0.00    -0.000 C 
BRANCH  12  13
ATOM     13  C   UNL     1      58.311  25.046  51.171  1.00  0.00    -0.003 C 
ATOM     14  C   UNL     1      59.608  25.833  51.337  1.00  0.00     0.004 C 
ENDBRANCH  12  13
ENDBRANCH  11  12
ENDBRANCH  10  11
ENDBRANCH   9  10
ENDBRANCH   1   9
TORSDOF 9
ENDMDL
MODEL 9
REMARK VINA RESULT:    -3.351      2.463      4.844
REMARK INTER + INTRA:          -6.202
REMARK INTER:                  -5.061
REMARK INTRA:                  -1.140
REMARK UNBOUND:                -1.088
REMARK SMILES CCCCCCCCCC=CC(=O)[O-]
REMARK SMILES IDX 7 1 8 2 9 3 10 4 11 5 12 6 13 7 14 8 6 9 5 10 4 11 3 12 2 13
REMARK SMILES IDX 1 14
REMARK H PARENT
REMARK Flexibility Score: inf
ROOT
ATOM      1  C   UNL     1      64.023  29.769  60.359  1.00  0.00     0.000 C 
ENDROOT
BRANCH   1   2
ATOM      2  C   UNL     1      64.452  31.121  60.951  1.00  0.00     0.004 C 
BRANCH   2   3
ATOM      3  C   UNL     1      64.412  32.256  59.917  1.00  0.00     0.027 C 
BRANCH   3   4
ATOM      4  C   UNL     1      64.443  33.600  60.588  1.00  0.00    -0.025 C 
ATOM      5  C   UNL     1      63.359  34.382  60.635  1.00  0.00     0.020 C 
BRANCH   5   6
ATOM      6  C   UNL     1      63.363  35.695  61.299  1.00  0.00     0.064 C 
ATOM      7  O   UNL     1      62.341  36.433  61.291  1.00  0.00    -0.545 OA
ATOM      8  O   UNL     1      64.513  36.130  61.946  1.00  0.00    -0.545 OA
ENDBRANCH   5   6
ENDBRANCH   3   4
ENDBRANCH   2   3
ENDBRANCH   1   2
BRANCH   1   9
ATOM      9  C   UNL     1      62.551  29.434  60.658  1.00  0.00     0.000 C 
BRANCH   9  10
ATOM     10  C   UNL     1      62.005  30.206  61.869  1.00  0.00     0.000 C 
BRANCH  10  11
ATOM     11  C   UNL     1      60.861  31.166  61.493  1.00  0.00    -0.000 C 
BRANCH  11  12
ATOM     12  C   UNL     1      60.552  31.137  59.982  1.00  0.00    -0.000 C 
BRANCH  12  13
ATOM     13  C   UNL     1      60.539  32.530  59.330  1.00  0.00    -0.003 C 
ATOM     14  C   UNL     1      59.411  32.706  58.316  1.00  0.00     0.004 C 
ENDBRANCH  12  13
ENDBRANCH  11  12
ENDBRANCH  10  11
ENDBRANCH   9  10
ENDBRANCH   1   9
TORSDOF 9
ENDMDL
