MODEL 1
REMARK VINA RESULT:    -4.470      0.000      0.000
REMARK INTER + INTRA:          -5.444
REMARK INTER:                  -5.385
REMARK INTRA:                  -0.059
REMARK UNBOUND:                -0.059
REMARK SMILES CC[C@@H](C)[C@H]([NH3+])C(=O)[O-]
REMARK SMILES IDX 3 1 4 2 5 3 6 4 7 8 8 9 9 10 2 11 1 12
REMARK H PARENT 6 5 6 6 6 7
REMARK Flexibility Score: inf
ROOT
ATOM      1  C   UNL     1      19.661  -0.778 -16.143  1.00  0.00     0.050 C 
ATOM      2  C   UNL     1      20.955  -1.242 -15.445  1.00  0.00     0.014 C 
ENDROOT
BRANCH   1   3
ATOM      3  C   UNL     1      19.463   0.759 -15.953  1.00  0.00     0.230 C 
BRANCH   3   4
ATOM      4  N   UNL     1      20.256   1.282 -14.831  1.00  0.00    -0.350 N 
ATOM      5  H   UNL     1      20.456   2.298 -14.975  1.00  0.00     0.345 HD
ATOM      6  H   UNL     1      21.157   0.767 -14.718  1.00  0.00     0.345 HD
ATOM      7  H   UNL     1      19.707   1.185 -13.944  1.00  0.00     0.345 HD
ENDBRANCH   3   4
BRANCH   3   8
ATOM      8  C   UNL     1      18.010   1.141 -15.804  1.00  0.00     0.099 C 
ATOM      9  O   UNL     1      17.374   0.810 -14.768  1.00  0.00    -0.544 OA
ATOM     10  O   UNL     1      17.370   1.889 -16.786  1.00  0.00    -0.544 OA
ENDBRANCH   3   8
ENDBRANCH   1   3
BRANCH   1  11
ATOM     11  C   UNL     1      19.643  -1.215 -17.632  1.00  0.00     0.006 C 
ATOM     12  C   UNL     1      19.724  -2.732 -17.808  1.00  0.00     0.004 C 
ENDBRANCH   1  11
TORSDOF 4
ENDMDL
MODEL 2
REMARK VINA RESULT:    -4.326      1.922      2.220
REMARK INTER + INTRA:          -5.271
REMARK INTER:                  -5.126
REMARK INTRA:                  -0.144
REMARK UNBOUND:                -0.059
REMARK SMILES CC[C@@H](C)[C@H]([NH3+])C(=O)[O-]
REMARK SMILES IDX 3 1 4 2 5 3 6 4 7 8 8 9 9 10 2 11 1 12
REMARK H PARENT 6 5 6 6 6 7
REMARK Flexibility Score: inf
ROOT
ATOM      1  C   UNL     1      20.431  -0.040 -17.491  1.00  0.00     0.050 C 
ATOM      2  C   UNL     1      20.942   1.193 -18.261  1.00  0.00     0.014 C 
ENDROOT
BRANCH   1   3
ATOM      3  C   UNL     1      18.930   0.145 -17.102  1.00  0.00     0.230 C 
BRANCH   3   4
ATOM      4  N   UNL     1      18.288   1.215 -17.881  1.00  0.00    -0.350 N 
ATOM      5  H   UNL     1      18.982   1.657 -18.525  1.00  0.00     0.345 HD
ATOM      6  H   UNL     1      17.875   1.949 -17.264  1.00  0.00     0.345 HD
ATOM      7  H   UNL     1      17.522   0.806 -18.465  1.00  0.00     0.345 HD
ENDBRANCH   3   4
BRANCH   3   8
ATOM      8  C   UNL     1      18.740   0.374 -15.622  1.00  0.00     0.099 C 
ATOM      9  O   UNL     1      19.684   0.142 -14.822  1.00  0.00    -0.544 OA
ATOM     10  O   UNL     1      17.539   0.876 -15.132  1.00  0.00    -0.544 OA
ENDBRANCH   3   8
ENDBRANCH   1   3
BRANCH   1  11
ATOM     11  C   UNL     1      20.697  -1.345 -18.287  1.00  0.00     0.006 C 
ATOM     12  C   UNL     1      19.731  -2.474 -17.921  1.00  0.00     0.004 C 
ENDBRANCH   1  11
TORSDOF 4
ENDMDL
MODEL 3
REMARK VINA RESULT:    -4.255      1.676      2.326
REMARK INTER + INTRA:          -5.185
REMARK INTER:                  -5.076
REMARK INTRA:                  -0.109
REMARK UNBOUND:                -0.059
REMARK SMILES CC[C@@H](C)[C@H]([NH3+])C(=O)[O-]
REMARK SMILES IDX 3 1 4 2 5 3 6 4 7 8 8 9 9 10 2 11 1 12
REMARK H PARENT 6 5 6 6 6 7
REMARK Flexibility Score: inf
ROOT
ATOM      1  C   UNL     1      19.890  -0.699 -17.013  1.00  0.00     0.050 C 
ATOM      2  C   UNL     1      19.842  -1.707 -18.178  1.00  0.00     0.014 C 
ENDROOT
BRANCH   1   3
ATOM      3  C   UNL     1      18.641   0.237 -17.052  1.00  0.00     0.230 C 
BRANCH   3   4
ATOM      4  N   UNL     1      18.645   1.112 -18.234  1.00  0.00    -0.350 N 
ATOM      5  H   UNL     1      18.060   1.959 -18.055  1.00  0.00     0.345 HD
ATOM      6  H   UNL     1      18.288   0.620 -19.082  1.00  0.00     0.345 HD
ATOM      7  H   UNL     1      19.624   1.431 -18.425  1.00  0.00     0.345 HD
ENDBRANCH   3   4
BRANCH   3   8
ATOM      8  C   UNL     1      18.487   1.048 -15.787  1.00  0.00     0.099 C 
ATOM      9  O   UNL     1      17.512   0.836 -15.018  1.00  0.00    -0.544 OA
ATOM     10  O   UNL     1      19.431   2.007 -15.441  1.00  0.00    -0.544 OA
ENDBRANCH   3   8
ENDBRANCH   1   3
BRANCH   1  11
ATOM     11  C   UNL     1      20.065  -1.426 -15.653  1.00  0.00     0.006 C 
ATOM     12  C   UNL     1      21.506  -1.394 -15.142  1.00  0.00     0.004 C 
ENDBRANCH   1  11
TORSDOF 4
ENDMDL
MODEL 4
REMARK VINA RESULT:    -4.245      9.210     10.120
REMARK INTER + INTRA:          -5.173
REMARK INTER:                  -5.063
REMARK INTRA:                  -0.110
REMARK UNBOUND:                -0.059
REMARK SMILES CC[C@@H](C)[C@H]([NH3+])C(=O)[O-]
REMARK SMILES IDX 3 1 4 2 5 3 6 4 7 8 8 9 9 10 2 11 1 12
REMARK H PARENT 6 5 6 6 6 7
REMARK Flexibility Score: inf
ROOT
ATOM      1  C   UNL     1      17.641   0.866 -25.899  1.00  0.00     0.050 C 
ATOM      2  C   UNL     1      17.010   2.180 -26.399  1.00  0.00     0.014 C 
ENDROOT
BRANCH   1   3
ATOM      3  C   UNL     1      16.534  -0.202 -25.634  1.00  0.00     0.230 C 
BRANCH   3   4
ATOM      4  N   UNL     1      15.182   0.354 -25.797  1.00  0.00    -0.350 N 
ATOM      5  H   UNL     1      14.489  -0.230 -25.276  1.00  0.00     0.345 HD
ATOM      6  H   UNL     1      14.902   0.405 -26.801  1.00  0.00     0.345 HD
ATOM      7  H   UNL     1      15.154   1.321 -25.397  1.00  0.00     0.345 HD
ENDBRANCH   3   4
BRANCH   3   8
ATOM      8  C   UNL     1      16.679  -0.864 -24.284  1.00  0.00     0.099 C 
ATOM      9  O   UNL     1      17.061  -2.062 -24.208  1.00  0.00    -0.544 OA
ATOM     10  O   UNL     1      16.430  -0.153 -23.116  1.00  0.00    -0.544 OA
ENDBRANCH   3   8
ENDBRANCH   1   3
BRANCH   1  11
ATOM     11  C   UNL     1      18.744   0.371 -26.872  1.00  0.00     0.006 C 
ATOM     12  C   UNL     1      18.179  -0.377 -28.081  1.00  0.00     0.004 C 
ENDBRANCH   1  11
TORSDOF 4
ENDMDL
MODEL 5
REMARK VINA RESULT:    -4.225      7.956      8.932
REMARK INTER + INTRA:          -5.149
REMARK INTER:                  -5.073
REMARK INTRA:                  -0.075
REMARK UNBOUND:                -0.059
REMARK SMILES CC[C@@H](C)[C@H]([NH3+])C(=O)[O-]
REMARK SMILES IDX 3 1 4 2 5 3 6 4 7 8 8 9 9 10 2 11 1 12
REMARK H PARENT 6 5 6 6 6 7
REMARK Flexibility Score: inf
ROOT
ATOM      1  C   UNL     1      17.243   0.725 -24.063  1.00  0.00     0.050 C 
ATOM      2  C   UNL     1      17.195   1.868 -23.030  1.00  0.00     0.014 C 
ENDROOT
BRANCH   1   3
ATOM      3  C   UNL     1      17.394  -0.652 -23.343  1.00  0.00     0.230 C 
BRANCH   3   4
ATOM      4  N   UNL     1      18.411  -0.609 -22.281  1.00  0.00    -0.350 N 
ATOM      5  H   UNL     1      19.188  -1.272 -22.502  1.00  0.00     0.345 HD
ATOM      6  H   UNL     1      18.008  -0.851 -21.348  1.00  0.00     0.345 HD
ATOM      7  H   UNL     1      18.815   0.355 -22.226  1.00  0.00     0.345 HD
ENDBRANCH   3   4
BRANCH   3   8
ATOM      8  C   UNL     1      17.675  -1.781 -24.305  1.00  0.00     0.099 C 
ATOM      9  O   UNL     1      17.069  -2.878 -24.183  1.00  0.00    -0.544 OA
ATOM     10  O   UNL     1      18.573  -1.612 -25.353  1.00  0.00    -0.544 OA
ENDBRANCH   3   8
ENDBRANCH   1   3
BRANCH   1  11
ATOM     11  C   UNL     1      16.020   0.783 -25.016  1.00  0.00     0.006 C 
ATOM     12  C   UNL     1      15.802   2.171 -25.620  1.00  0.00     0.004 C 
ENDBRANCH   1  11
TORSDOF 4
ENDMDL
MODEL 6
REMARK VINA RESULT:    -4.149      1.346      2.047
REMARK INTER + INTRA:          -5.058
REMARK INTER:                  -4.970
REMARK INTRA:                  -0.088
REMARK UNBOUND:                -0.059
REMARK SMILES CC[C@@H](C)[C@H]([NH3+])C(=O)[O-]
REMARK SMILES IDX 3 1 4 2 5 3 6 4 7 8 8 9 9 10 2 11 1 12
REMARK H PARENT 6 5 6 6 6 7
REMARK Flexibility Score: inf
ROOT
ATOM      1  C   UNL     1      19.678  -0.789 -17.511  1.00  0.00     0.050 C 
ATOM      2  C   UNL     1      19.826  -2.281 -17.151  1.00  0.00     0.014 C 
ENDROOT
BRANCH   1   3
ATOM      3  C   UNL     1      19.584   0.076 -16.215  1.00  0.00     0.230 C 
BRANCH   3   4
ATOM      4  N   UNL     1      19.777  -0.729 -15.000  1.00  0.00    -0.350 N 
ATOM      5  H   UNL     1      19.530  -0.167 -14.154  1.00  0.00     0.345 HD
ATOM      6  H   UNL     1      20.761  -1.068 -14.911  1.00  0.00     0.345 HD
ATOM      7  H   UNL     1      19.143  -1.561 -15.031  1.00  0.00     0.345 HD
ENDBRANCH   3   4
BRANCH   3   8
ATOM      8  C   UNL     1      18.297   0.862 -16.136  1.00  0.00     0.099 C 
ATOM      9  O   UNL     1      17.894   1.513 -17.135  1.00  0.00    -0.544 OA
ATOM     10  O   UNL     1      17.528   0.846 -14.978  1.00  0.00    -0.544 OA
ENDBRANCH   3   8
ENDBRANCH   1   3
BRANCH   1  11
ATOM     11  C   UNL     1      20.811  -0.332 -18.467  1.00  0.00     0.006 C 
ATOM     12  C   UNL     1      20.313  -0.046 -19.886  1.00  0.00     0.004 C 
ENDBRANCH   1  11
TORSDOF 4
ENDMDL
MODEL 7
REMARK VINA RESULT:    -4.145      8.937      9.953
REMARK INTER + INTRA:          -5.053
REMARK INTER:                  -4.941
REMARK INTRA:                  -0.112
REMARK UNBOUND:                -0.059
REMARK SMILES CC[C@@H](C)[C@H]([NH3+])C(=O)[O-]
REMARK SMILES IDX 3 1 4 2 5 3 6 4 7 8 8 9 9 10 2 11 1 12
REMARK H PARENT 6 5 6 6 6 7
REMARK Flexibility Score: inf
ROOT
ATOM      1  C   UNL     1      17.348   0.102 -26.436  1.00  0.00     0.050 C 
ATOM      2  C   UNL     1      18.126  -0.400 -27.668  1.00  0.00     0.014 C 
ENDROOT
BRANCH   1   3
ATOM      3  C   UNL     1      18.063  -0.344 -25.122  1.00  0.00     0.230 C 
BRANCH   3   4
ATOM      4  N   UNL     1      19.250  -1.169 -25.394  1.00  0.00    -0.350 N 
ATOM      5  H   UNL     1      19.178  -1.599 -26.344  1.00  0.00     0.345 HD
ATOM      6  H   UNL     1      19.368  -1.924 -24.683  1.00  0.00     0.345 HD
ATOM      7  H   UNL     1      20.104  -0.564 -25.378  1.00  0.00     0.345 HD
ENDBRANCH   3   4
BRANCH   3   8
ATOM      8  C   UNL     1      17.130  -1.049 -24.166  1.00  0.00     0.099 C 
ATOM      9  O   UNL     1      16.979  -2.297 -24.239  1.00  0.00    -0.544 OA
ATOM     10  O   UNL     1      16.460  -0.338 -23.178  1.00  0.00    -0.544 OA
ENDBRANCH   3   8
ENDBRANCH   1   3
BRANCH   1  11
ATOM     11  C   UNL     1      17.112   1.634 -26.512  1.00  0.00     0.006 C 
ATOM     12  C   UNL     1      15.890   2.088 -25.712  1.00  0.00     0.004 C 
ENDBRANCH   1  11
TORSDOF 4
ENDMDL
MODEL 8
REMARK VINA RESULT:    -4.132      8.606      9.476
REMARK INTER + INTRA:          -5.036
REMARK INTER:                  -4.900
REMARK INTRA:                  -0.136
REMARK UNBOUND:                -0.059
REMARK SMILES CC[C@@H](C)[C@H]([NH3+])C(=O)[O-]
REMARK SMILES IDX 3 1 4 2 5 3 6 4 7 8 8 9 9 10 2 11 1 12
REMARK H PARENT 6 5 6 6 6 7
REMARK Flexibility Score: inf
ROOT
ATOM      1  C   UNL     1      16.996   1.717 -23.849  1.00  0.00     0.050 C 
ATOM      2  C   UNL     1      18.089   2.498 -23.094  1.00  0.00     0.014 C 
ENDROOT
BRANCH   1   3
ATOM      3  C   UNL     1      17.388   1.546 -25.350  1.00  0.00     0.230 C 
BRANCH   3   4
ATOM      4  N   UNL     1      17.632   2.839 -26.006  1.00  0.00    -0.350 N 
ATOM      5  H   UNL     1      17.878   3.563 -25.293  1.00  0.00     0.345 HD
ATOM      6  H   UNL     1      16.801   3.161 -26.550  1.00  0.00     0.345 HD
ATOM      7  H   UNL     1      18.441   2.747 -26.664  1.00  0.00     0.345 HD
ENDBRANCH   3   4
BRANCH   3   8
ATOM      8  C   UNL     1      16.375   0.737 -26.125  1.00  0.00     0.099 C 
ATOM      9  O   UNL     1      15.199   1.166 -26.262  1.00  0.00    -0.544 OA
ATOM     10  O   UNL     1      16.736  -0.465 -26.722  1.00  0.00    -0.544 OA
ENDBRANCH   3   8
ENDBRANCH   1   3
BRANCH   1  11
ATOM     11  C   UNL     1      16.686   0.370 -23.143  1.00  0.00     0.006 C 
ATOM     12  C   UNL     1      17.926  -0.508 -22.965  1.00  0.00     0.004 C 
ENDBRANCH   1  11
TORSDOF 4
ENDMDL
MODEL 9
REMARK VINA RESULT:    -4.065      9.036     10.089
REMARK INTER + INTRA:          -4.956
REMARK INTER:                  -4.829
REMARK INTRA:                  -0.127
REMARK UNBOUND:                -0.059
REMARK SMILES CC[C@@H](C)[C@H]([NH3+])C(=O)[O-]
REMARK SMILES IDX 3 1 4 2 5 3 6 4 7 8 8 9 9 10 2 11 1 12
REMARK H PARENT 6 5 6 6 6 7
REMARK Flexibility Score: inf
ROOT
ATOM      1  C   UNL     1      16.485   0.664 -25.284  1.00  0.00     0.050 C 
ATOM      2  C   UNL     1      15.784   2.030 -25.411  1.00  0.00     0.014 C 
ENDROOT
BRANCH   1   3
ATOM      3  C   UNL     1      17.927   0.736 -25.877  1.00  0.00     0.230 C 
BRANCH   3   4
ATOM      4  N   UNL     1      17.929   1.218 -27.266  1.00  0.00    -0.350 N 
ATOM      5  H   UNL     1      18.464   2.112 -27.335  1.00  0.00     0.345 HD
ATOM      6  H   UNL     1      16.960   1.368 -27.626  1.00  0.00     0.345 HD
ATOM      7  H   UNL     1      18.402   0.511 -27.877  1.00  0.00     0.345 HD
ENDBRANCH   3   4
BRANCH   3   8
ATOM      8  C   UNL     1      18.665  -0.577 -25.766  1.00  0.00     0.099 C 
ATOM      9  O   UNL     1      18.422  -1.507 -26.580  1.00  0.00    -0.544 OA
ATOM     10  O   UNL     1      19.642  -0.761 -24.794  1.00  0.00    -0.544 OA
ENDBRANCH   3   8
ENDBRANCH   1   3
BRANCH   1  11
ATOM     11  C   UNL     1      16.453   0.154 -23.819  1.00  0.00     0.006 C 
ATOM     12  C   UNL     1      17.054   1.152 -22.828  1.00  0.00     0.004 C 
ENDBRANCH   1  11
TORSDOF 4
ENDMDL
