MODEL 1
REMARK VINA RESULT:    -4.662      0.000      0.000
REMARK INTER + INTRA:          -5.426
REMARK INTER:                  -5.344
REMARK INTRA:                  -0.083
REMARK UNBOUND:                -0.083
REMARK SMILES COc1cc(C(=O)[O-])ccc1O
REMARK SMILES IDX 5 1 9 2 4 3 10 4 3 5 11 6 6 7 7 8 8 9 2 10 1 11 12 12
REMARK H PARENT 12 13
REMARK Flexibility Score: inf
ROOT
ATOM      1  C   UNL     1      30.650  77.847  38.039  1.00  0.00     0.001 A 
ATOM      2  C   UNL     1      30.113  78.228  36.800  1.00  0.00     0.014 A 
ATOM      3  C   UNL     1      31.738  78.567  38.563  1.00  0.00     0.060 A 
ATOM      4  C   UNL     1      30.653  79.306  36.096  1.00  0.00     0.051 A 
ATOM      5  C   UNL     1      32.288  79.657  37.857  1.00  0.00     0.161 A 
ATOM      6  C   UNL     1      31.734  80.022  36.617  1.00  0.00     0.157 A 
ENDROOT
BRANCH   1   7
ATOM      7  C   UNL     1      30.074  76.702  38.780  1.00  0.00     0.072 C 
ATOM      8  O   UNL     1      30.073  76.689  40.040  1.00  0.00    -0.545 OA
ATOM      9  O   UNL     1      29.524  75.624  38.096  1.00  0.00    -0.545 OA
ENDBRANCH   1   7
BRANCH   5  10
ATOM     10  O   UNL     1      33.374  80.396  38.355  1.00  0.00    -0.493 OA
ATOM     11  C   UNL     1      33.562  80.732  39.727  1.00  0.00     0.278 C 
ENDBRANCH   5  10
BRANCH   6  12
ATOM     12  O   UNL     1      32.246  81.094  35.885  1.00  0.00    -0.504 OA
ATOM     13  H   UNL     1      32.415  81.035  34.889  1.00  0.00     0.293 HD
ENDBRANCH   6  12
TORSDOF 3
ENDMDL
MODEL 2
REMARK VINA RESULT:    -4.656      1.541      3.010
REMARK INTER + INTRA:          -5.419
REMARK INTER:                  -5.316
REMARK INTRA:                  -0.104
REMARK UNBOUND:                -0.083
REMARK SMILES COc1cc(C(=O)[O-])ccc1O
REMARK SMILES IDX 5 1 9 2 4 3 10 4 3 5 11 6 6 7 7 8 8 9 2 10 1 11 12 12
REMARK H PARENT 12 13
REMARK Flexibility Score: inf
ROOT
ATOM      1  C   UNL     1      31.648  78.535  39.267  1.00  0.00     0.001 A 
ATOM      2  C   UNL     1      32.583  79.579  39.322  1.00  0.00     0.014 A 
ATOM      3  C   UNL     1      30.902  78.346  38.090  1.00  0.00     0.060 A 
ATOM      4  C   UNL     1      32.769  80.420  38.224  1.00  0.00     0.051 A 
ATOM      5  C   UNL     1      31.086  79.192  36.977  1.00  0.00     0.161 A 
ATOM      6  C   UNL     1      32.029  80.232  37.054  1.00  0.00     0.157 A 
ENDROOT
BRANCH   1   7
ATOM      7  C   UNL     1      31.453  77.647  40.436  1.00  0.00     0.072 C 
ATOM      8  O   UNL     1      32.164  77.779  41.468  1.00  0.00    -0.545 OA
ATOM      9  O   UNL     1      30.482  76.652  40.411  1.00  0.00    -0.545 OA
ENDBRANCH   1   7
BRANCH   5  10
ATOM     10  O   UNL     1      30.357  79.027  35.788  1.00  0.00    -0.493 OA
ATOM     11  C   UNL     1      29.006  79.442  35.603  1.00  0.00     0.278 C 
ENDBRANCH   5  10
BRANCH   6  12
ATOM     12  O   UNL     1      32.244  81.092  35.976  1.00  0.00    -0.504 OA
ATOM     13  H   UNL     1      33.046  81.003  35.366  1.00  0.00     0.293 HD
ENDBRANCH   6  12
TORSDOF 3
ENDMDL
MODEL 3
REMARK VINA RESULT:    -4.613      1.881      3.730
REMARK INTER + INTRA:          -5.369
REMARK INTER:                  -5.280
REMARK INTRA:                  -0.090
REMARK UNBOUND:                -0.083
REMARK SMILES COc1cc(C(=O)[O-])ccc1O
REMARK SMILES IDX 5 1 9 2 4 3 10 4 3 5 11 6 6 7 7 8 8 9 2 10 1 11 12 12
REMARK H PARENT 12 13
REMARK Flexibility Score: inf
ROOT
ATOM      1  C   UNL     1      30.049  79.532  35.919  1.00  0.00     0.001 A 
ATOM      2  C   UNL     1      29.542  78.330  36.436  1.00  0.00     0.014 A 
ATOM      3  C   UNL     1      31.224  80.073  36.471  1.00  0.00     0.060 A 
ATOM      4  C   UNL     1      30.195  77.681  37.486  1.00  0.00     0.051 A 
ATOM      5  C   UNL     1      31.887  79.422  37.531  1.00  0.00     0.161 A 
ATOM      6  C   UNL     1      31.362  78.218  38.034  1.00  0.00     0.157 A 
ENDROOT
BRANCH   1   7
ATOM      7  C   UNL     1      29.352  80.216  34.806  1.00  0.00     0.072 C 
ATOM      8  O   UNL     1      29.999  80.896  33.965  1.00  0.00    -0.545 OA
ATOM      9  O   UNL     1      27.971  80.119  34.673  1.00  0.00    -0.545 OA
ENDBRANCH   1   7
BRANCH   5  10
ATOM     10  O   UNL     1      33.062  79.938  38.102  1.00  0.00    -0.493 OA
ATOM     11  C   UNL     1      33.097  80.849  39.197  1.00  0.00     0.278 C 
ENDBRANCH   5  10
BRANCH   6  12
ATOM     12  O   UNL     1      31.987  77.541  39.082  1.00  0.00    -0.504 OA
ATOM     13  H   UNL     1      32.821  77.896  39.532  1.00  0.00     0.293 HD
ENDBRANCH   6  12
TORSDOF 3
ENDMDL
MODEL 4
REMARK VINA RESULT:    -4.530      1.954      4.293
REMARK INTER + INTRA:          -5.275
REMARK INTER:                  -5.201
REMARK INTRA:                  -0.073
REMARK UNBOUND:                -0.083
REMARK SMILES COc1cc(C(=O)[O-])ccc1O
REMARK SMILES IDX 5 1 9 2 4 3 10 4 3 5 11 6 6 7 7 8 8 9 2 10 1 11 12 12
REMARK H PARENT 12 13
REMARK Flexibility Score: inf
ROOT
ATOM      1  C   UNL     1      31.266  78.955  39.951  1.00  0.00     0.001 A 
ATOM      2  C   UNL     1      30.685  77.829  40.552  1.00  0.00     0.014 A 
ATOM      3  C   UNL     1      31.270  79.056  38.548  1.00  0.00     0.060 A 
ATOM      4  C   UNL     1      30.120  76.821  39.768  1.00  0.00     0.051 A 
ATOM      5  C   UNL     1      30.702  78.042  37.751  1.00  0.00     0.161 A 
ATOM      6  C   UNL     1      30.124  76.922  38.374  1.00  0.00     0.157 A 
ENDROOT
BRANCH   1   7
ATOM      7  C   UNL     1      31.864  80.020  40.787  1.00  0.00     0.072 C 
ATOM      8  O   UNL     1      31.151  80.952  41.246  1.00  0.00    -0.545 OA
ATOM      9  O   UNL     1      33.224  80.008  41.078  1.00  0.00    -0.545 OA
ENDBRANCH   1   7
BRANCH   5  10
ATOM     10  O   UNL     1      30.691  78.115  36.348  1.00  0.00    -0.493 OA
ATOM     11  C   UNL     1      30.937  79.301  35.598  1.00  0.00     0.278 C 
ENDBRANCH   5  10
BRANCH   6  12
ATOM     12  O   UNL     1      29.550  75.895  37.624  1.00  0.00    -0.504 OA
ATOM     13  H   UNL     1      29.963  74.973  37.566  1.00  0.00     0.293 HD
ENDBRANCH   6  12
TORSDOF 3
ENDMDL
MODEL 5
REMARK VINA RESULT:    -4.442      2.053      4.377
REMARK INTER + INTRA:          -5.173
REMARK INTER:                  -5.086
REMARK INTRA:                  -0.087
REMARK UNBOUND:                -0.083
REMARK SMILES COc1cc(C(=O)[O-])ccc1O
REMARK SMILES IDX 5 1 9 2 4 3 10 4 3 5 11 6 6 7 7 8 8 9 2 10 1 11 12 12
REMARK H PARENT 12 13
REMARK Flexibility Score: inf
ROOT
ATOM      1  C   UNL     1      29.978  79.833  35.997  1.00  0.00     0.001 A 
ATOM      2  C   UNL     1      30.612  80.819  36.768  1.00  0.00     0.014 A 
ATOM      3  C   UNL     1      30.007  78.497  36.438  1.00  0.00     0.060 A 
ATOM      4  C   UNL     1      31.264  80.479  37.955  1.00  0.00     0.051 A 
ATOM      5  C   UNL     1      30.663  78.148  37.635  1.00  0.00     0.161 A 
ATOM      6  C   UNL     1      31.292  79.152  38.393  1.00  0.00     0.157 A 
ENDROOT
BRANCH   1   7
ATOM      7  C   UNL     1      29.290  80.199  34.739  1.00  0.00     0.072 C 
ATOM      8  O   UNL     1      29.928  80.728  33.789  1.00  0.00    -0.545 OA
ATOM      9  O   UNL     1      27.928  79.965  34.587  1.00  0.00    -0.545 OA
ENDBRANCH   1   7
BRANCH   5  10
ATOM     10  O   UNL     1      30.708  76.823  38.101  1.00  0.00    -0.493 OA
ATOM     11  C   UNL     1      29.726  76.229  38.945  1.00  0.00     0.278 C 
ENDBRANCH   5  10
BRANCH   6  12
ATOM     12  O   UNL     1      31.952  78.851  39.584  1.00  0.00    -0.504 OA
ATOM     13  H   UNL     1      31.574  79.102  40.489  1.00  0.00     0.293 HD
ENDBRANCH   6  12
TORSDOF 3
ENDMDL
MODEL 6
REMARK VINA RESULT:    -4.424     14.802     16.689
REMARK INTER + INTRA:          -5.153
REMARK INTER:                  -5.065
REMARK INTRA:                  -0.089
REMARK UNBOUND:                -0.083
REMARK SMILES COc1cc(C(=O)[O-])ccc1O
REMARK SMILES IDX 5 1 9 2 4 3 10 4 3 5 11 6 6 7 7 8 8 9 2 10 1 11 12 12
REMARK H PARENT 12 13
REMARK Flexibility Score: inf
ROOT
ATOM      1  C   UNL     1      31.686  62.041  40.712  1.00  0.00     0.001 A 
ATOM      2  C   UNL     1      32.570  60.994  40.410  1.00  0.00     0.014 A 
ATOM      3  C   UNL     1      31.548  63.103  39.800  1.00  0.00     0.060 A 
ATOM      4  C   UNL     1      33.304  61.008  39.223  1.00  0.00     0.051 A 
ATOM      5  C   UNL     1      32.287  63.123  38.600  1.00  0.00     0.161 A 
ATOM      6  C   UNL     1      33.167  62.063  38.317  1.00  0.00     0.157 A 
ENDROOT
BRANCH   1   7
ATOM      7  C   UNL     1      30.911  62.022  41.973  1.00  0.00     0.072 C 
ATOM      8  O   UNL     1      31.383  61.479  43.008  1.00  0.00    -0.545 OA
ATOM      9  O   UNL     1      29.649  62.603  42.034  1.00  0.00    -0.545 OA
ENDBRANCH   1   7
BRANCH   5  10
ATOM     10  O   UNL     1      32.170  64.170  37.670  1.00  0.00    -0.493 OA
ATOM     11  C   UNL     1      31.232  64.199  36.599  1.00  0.00     0.278 C 
ENDBRANCH   5  10
BRANCH   6  12
ATOM     12  O   UNL     1      33.917  62.042  37.141  1.00  0.00    -0.504 OA
ATOM     13  H   UNL     1      34.926  62.111  37.143  1.00  0.00     0.293 HD
ENDBRANCH   6  12
TORSDOF 3
ENDMDL
MODEL 7
REMARK VINA RESULT:    -4.403      2.002      3.871
REMARK INTER + INTRA:          -5.129
REMARK INTER:                  -5.042
REMARK INTRA:                  -0.087
REMARK UNBOUND:                -0.083
REMARK SMILES COc1cc(C(=O)[O-])ccc1O
REMARK SMILES IDX 5 1 9 2 4 3 10 4 3 5 11 6 6 7 7 8 8 9 2 10 1 11 12 12
REMARK H PARENT 12 13
REMARK Flexibility Score: inf
ROOT
ATOM      1  C   UNL     1      31.535  79.196  37.578  1.00  0.00     0.001 A 
ATOM      2  C   UNL     1      32.427  80.250  37.827  1.00  0.00     0.014 A 
ATOM      3  C   UNL     1      31.421  78.158  38.520  1.00  0.00     0.060 A 
ATOM      4  C   UNL     1      33.194  80.266  38.994  1.00  0.00     0.051 A 
ATOM      5  C   UNL     1      32.192  78.169  39.700  1.00  0.00     0.161 A 
ATOM      6  C   UNL     1      33.080  79.235  39.930  1.00  0.00     0.157 A 
ENDROOT
BRANCH   1   7
ATOM      7  C   UNL     1      30.725  79.183  36.338  1.00  0.00     0.072 C 
ATOM      8  O   UNL     1      31.262  79.405  35.220  1.00  0.00    -0.545 OA
ATOM      9  O   UNL     1      29.360  78.926  36.391  1.00  0.00    -0.545 OA
ENDBRANCH   1   7
BRANCH   5  10
ATOM     10  O   UNL     1      32.100  77.147  40.660  1.00  0.00    -0.493 OA
ATOM     11  C   UNL     1      31.188  77.145  41.754  1.00  0.00     0.278 C 
ENDBRANCH   5  10
BRANCH   6  12
ATOM     12  O   UNL     1      33.862  79.286  41.085  1.00  0.00    -0.504 OA
ATOM     13  H   UNL     1      33.455  79.336  42.011  1.00  0.00     0.293 HD
ENDBRANCH   6  12
TORSDOF 3
ENDMDL
MODEL 8
REMARK VINA RESULT:    -4.391      1.921      3.785
REMARK INTER + INTRA:          -5.115
REMARK INTER:                  -5.040
REMARK INTRA:                  -0.076
REMARK UNBOUND:                -0.083
REMARK SMILES COc1cc(C(=O)[O-])ccc1O
REMARK SMILES IDX 5 1 9 2 4 3 10 4 3 5 11 6 6 7 7 8 8 9 2 10 1 11 12 12
REMARK H PARENT 12 13
REMARK Flexibility Score: inf
ROOT
ATOM      1  C   UNL     1      31.704  80.133  38.953  1.00  0.00     0.001 A 
ATOM      2  C   UNL     1      31.976  81.122  37.995  1.00  0.00     0.014 A 
ATOM      3  C   UNL     1      31.221  78.883  38.527  1.00  0.00     0.060 A 
ATOM      4  C   UNL     1      31.767  80.869  36.638  1.00  0.00     0.051 A 
ATOM      5  C   UNL     1      31.008  78.621  37.158  1.00  0.00     0.161 A 
ATOM      6  C   UNL     1      31.288  79.627  36.215  1.00  0.00     0.157 A 
ENDROOT
BRANCH   1   7
ATOM      7  C   UNL     1      31.926  80.407  40.391  1.00  0.00     0.072 C 
ATOM      8  O   UNL     1      33.094  80.470  40.859  1.00  0.00    -0.545 OA
ATOM      9  O   UNL     1      30.847  80.600  41.246  1.00  0.00    -0.545 OA
ENDBRANCH   1   7
BRANCH   5  10
ATOM     10  O   UNL     1      30.527  77.382  36.702  1.00  0.00    -0.493 OA
ATOM     11  C   UNL     1      29.688  76.514  37.457  1.00  0.00     0.278 C 
ENDBRANCH   5  10
BRANCH   6  12
ATOM     12  O   UNL     1      31.092  79.410  34.851  1.00  0.00    -0.504 OA
ATOM     13  H   UNL     1      31.618  79.910  34.144  1.00  0.00     0.293 HD
ENDBRANCH   6  12
TORSDOF 3
ENDMDL
MODEL 9
REMARK VINA RESULT:    -4.344      1.956      3.097
REMARK INTER + INTRA:          -5.062
REMARK INTER:                  -4.987
REMARK INTRA:                  -0.075
REMARK UNBOUND:                -0.083
REMARK SMILES COc1cc(C(=O)[O-])ccc1O
REMARK SMILES IDX 5 1 9 2 4 3 10 4 3 5 11 6 6 7 7 8 8 9 2 10 1 11 12 12
REMARK H PARENT 12 13
REMARK Flexibility Score: inf
ROOT
ATOM      1  C   UNL     1      30.787  77.468  39.276  1.00  0.00     0.001 A 
ATOM      2  C   UNL     1      30.547  77.574  40.655  1.00  0.00     0.014 A 
ATOM      3  C   UNL     1      31.227  78.601  38.570  1.00  0.00     0.060 A 
ATOM      4  C   UNL     1      30.741  78.789  41.315  1.00  0.00     0.051 A 
ATOM      5  C   UNL     1      31.425  79.831  39.231  1.00  0.00     0.161 A 
ATOM      6  C   UNL     1      31.178  79.915  40.612  1.00  0.00     0.157 A 
ENDROOT
BRANCH   1   7
ATOM      7  C   UNL     1      30.579  76.178  38.582  1.00  0.00     0.072 C 
ATOM      8  O   UNL     1      29.451  75.615  38.596  1.00  0.00    -0.545 OA
ATOM      9  O   UNL     1      31.627  75.566  37.902  1.00  0.00    -0.545 OA
ENDBRANCH   1   7
BRANCH   5  10
ATOM     10  O   UNL     1      31.864  80.980  38.551  1.00  0.00    -0.493 OA
ATOM     11  C   UNL     1      31.881  81.124  37.134  1.00  0.00     0.278 C 
ENDBRANCH   5  10
BRANCH   6  12
ATOM     12  O   UNL     1      31.361  81.112  41.306  1.00  0.00    -0.504 OA
ATOM     13  H   UNL     1      31.985  81.837  40.976  1.00  0.00     0.293 HD
ENDBRANCH   6  12
TORSDOF 3
ENDMDL
