MODEL 1
REMARK VINA RESULT:    -5.839      0.000      0.000
REMARK INTER + INTRA:          -7.148
REMARK INTER:                  -6.863
REMARK INTRA:                  -0.285
REMARK UNBOUND:                -0.285
REMARK SMILES O=c1c(O)c(-c2ccc(O)c(O)c2)oc2cc(O)ccc12
REMARK SMILES IDX 5 1 3 2 2 3 1 4 21 5 15 6 14 7 16 8 17 9 19 10 20 11 6 12
REMARK SMILES IDX 7 13 8 14 9 15 13 16 11 17 10 18 12 20 4 22 18 24
REMARK H PARENT 10 19 12 21 4 23 18 25
REMARK Flexibility Score: inf
ROOT
ATOM      1  C   UNL     1      24.540   7.271 -21.955  1.00  0.00     0.180 A 
ATOM      2  C   UNL     1      25.786   7.929 -22.004  1.00  0.00     0.208 A 
ATOM      3  C   UNL     1      26.448   8.034 -23.237  1.00  0.00     0.235 A 
ATOM      4  O   UNL     1      27.560   8.628 -23.308  1.00  0.00    -0.285 OA
ATOM      5  C   UNL     1      25.867   7.468 -24.383  1.00  0.00     0.069 A 
ATOM      6  C   UNL     1      24.629   6.804 -24.247  1.00  0.00     0.142 A 
ATOM      7  O   UNL     1      24.032   6.734 -23.062  1.00  0.00    -0.452 OA
ATOM      8  C   UNL     1      24.023   6.218 -25.363  1.00  0.00     0.094 A 
ATOM      9  C   UNL     1      24.641   6.288 -26.620  1.00  0.00     0.119 A 
ATOM     10  C   UNL     1      25.867   6.946 -26.756  1.00  0.00     0.047 A 
ATOM     11  C   UNL     1      26.481   7.534 -25.647  1.00  0.00     0.020 A 
ENDROOT
BRANCH   1  12
ATOM     12  C   UNL     1      23.772   7.135 -20.697  1.00  0.00     0.025 A 
ATOM     13  C   UNL     1      23.723   5.890 -20.049  1.00  0.00     0.016 A 
ATOM     14  C   UNL     1      22.986   5.733 -18.872  1.00  0.00     0.051 A 
ATOM     15  C   UNL     1      22.277   6.814 -18.334  1.00  0.00     0.157 A 
ATOM     16  C   UNL     1      23.040   8.211 -20.165  1.00  0.00     0.062 A 
ATOM     17  C   UNL     1      22.300   8.054 -18.984  1.00  0.00     0.158 A 
BRANCH  15  18
ATOM     18  O   UNL     1      21.543   6.662 -17.159  1.00  0.00    -0.504 OA
ATOM     19  H   UNL     1      21.884   7.017 -16.273  1.00  0.00     0.293 HD
ENDBRANCH  15  18
BRANCH  17  20
ATOM     20  O   UNL     1      21.581   9.124 -18.454  1.00  0.00    -0.504 OA
ATOM     21  H   UNL     1      20.625   9.015 -18.136  1.00  0.00     0.293 HD
ENDBRANCH  17  20
ENDBRANCH   1  12
BRANCH   2  22
ATOM     22  O   UNL     1      26.363   8.441 -20.838  1.00  0.00    -0.502 OA
ATOM     23  H   UNL     1      27.352   8.647 -20.769  1.00  0.00     0.293 HD
ENDBRANCH   2  22
BRANCH   9  24
ATOM     24  O   UNL     1      24.044   5.707 -27.736  1.00  0.00    -0.508 OA
ATOM     25  H   UNL     1      24.545   5.052 -28.325  1.00  0.00     0.293 HD
ENDBRANCH   9  24
TORSDOF 5
ENDMDL
MODEL 2
REMARK VINA RESULT:    -5.642      1.708      7.073
REMARK INTER + INTRA:          -6.917
REMARK INTER:                  -6.725
REMARK INTRA:                  -0.191
REMARK UNBOUND:                -0.285
REMARK SMILES O=c1c(O)c(-c2ccc(O)c(O)c2)oc2cc(O)ccc12
REMARK SMILES IDX 5 1 3 2 2 3 1 4 21 5 15 6 14 7 16 8 17 9 19 10 20 11 6 12
REMARK SMILES IDX 7 13 8 14 9 15 13 16 11 17 10 18 12 20 4 22 18 24
REMARK H PARENT 10 19 12 21 4 23 18 25
REMARK Flexibility Score: inf
ROOT
ATOM      1  C   UNL     1      24.321   5.760 -22.670  1.00  0.00     0.180 A 
ATOM      2  C   UNL     1      24.328   4.419 -22.234  1.00  0.00     0.208 A 
ATOM      3  C   UNL     1      23.868   4.126 -20.941  1.00  0.00     0.235 A 
ATOM      4  O   UNL     1      23.856   2.932 -20.531  1.00  0.00    -0.285 OA
ATOM      5  C   UNL     1      23.433   5.170 -20.110  1.00  0.00     0.069 A 
ATOM      6  C   UNL     1      23.479   6.488 -20.612  1.00  0.00     0.142 A 
ATOM      7  O   UNL     1      23.913   6.722 -21.845  1.00  0.00    -0.452 OA
ATOM      8  C   UNL     1      23.063   7.557 -19.810  1.00  0.00     0.094 A 
ATOM      9  C   UNL     1      22.598   7.324 -18.509  1.00  0.00     0.119 A 
ATOM     10  C   UNL     1      22.551   6.018 -18.010  1.00  0.00     0.047 A 
ATOM     11  C   UNL     1      22.965   4.944 -18.803  1.00  0.00     0.020 A 
ENDROOT
BRANCH   1  12
ATOM     12  C   UNL     1      24.772   6.148 -24.026  1.00  0.00     0.025 A 
ATOM     13  C   UNL     1      25.886   6.992 -24.168  1.00  0.00     0.016 A 
ATOM     14  C   UNL     1      26.317   7.389 -25.436  1.00  0.00     0.051 A 
ATOM     15  C   UNL     1      25.632   6.959 -26.580  1.00  0.00     0.157 A 
ATOM     16  C   UNL     1      24.076   5.737 -25.176  1.00  0.00     0.062 A 
ATOM     17  C   UNL     1      24.507   6.135 -26.450  1.00  0.00     0.158 A 
BRANCH  15  18
ATOM     18  O   UNL     1      26.061   7.350 -27.847  1.00  0.00    -0.504 OA
ATOM     19  H   UNL     1      26.583   8.206 -27.989  1.00  0.00     0.293 HD
ENDBRANCH  15  18
BRANCH  17  20
ATOM     20  O   UNL     1      23.821   5.720 -27.589  1.00  0.00    -0.504 OA
ATOM     21  H   UNL     1      23.077   6.278 -27.993  1.00  0.00     0.293 HD
ENDBRANCH  17  20
ENDBRANCH   1  12
BRANCH   2  22
ATOM     22  O   UNL     1      24.814   3.406 -23.066  1.00  0.00    -0.502 OA
ATOM     23  H   UNL     1      25.338   2.617 -22.709  1.00  0.00     0.293 HD
ENDBRANCH   2  22
BRANCH   9  24
ATOM     24  O   UNL     1      22.182   8.383 -17.705  1.00  0.00    -0.508 OA
ATOM     25  H   UNL     1      22.836   8.904 -17.133  1.00  0.00     0.293 HD
ENDBRANCH   9  24
TORSDOF 5
ENDMDL
MODEL 3
REMARK VINA RESULT:    -5.603      3.015      3.887
REMARK INTER + INTRA:          -6.871
REMARK INTER:                  -6.611
REMARK INTRA:                  -0.260
REMARK UNBOUND:                -0.285
REMARK SMILES O=c1c(O)c(-c2ccc(O)c(O)c2)oc2cc(O)ccc12
REMARK SMILES IDX 5 1 3 2 2 3 1 4 21 5 15 6 14 7 16 8 17 9 19 10 20 11 6 12
REMARK SMILES IDX 7 13 8 14 9 15 13 16 11 17 10 18 12 20 4 22 18 24
REMARK H PARENT 10 19 12 21 4 23 18 25
REMARK Flexibility Score: inf
ROOT
ATOM      1  C   UNL     1      23.061   5.091 -22.578  1.00  0.00     0.180 A 
ATOM      2  C   UNL     1      24.115   5.233 -23.505  1.00  0.00     0.208 A 
ATOM      3  C   UNL     1      24.016   4.585 -24.745  1.00  0.00     0.235 A 
ATOM      4  O   UNL     1      24.941   4.705 -25.596  1.00  0.00    -0.285 OA
ATOM      5  C   UNL     1      22.886   3.800 -25.026  1.00  0.00     0.069 A 
ATOM      6  C   UNL     1      21.886   3.689 -24.037  1.00  0.00     0.142 A 
ATOM      7  O   UNL     1      22.015   4.325 -22.878  1.00  0.00    -0.452 OA
ATOM      8  C   UNL     1      20.750   2.908 -24.275  1.00  0.00     0.094 A 
ATOM      9  C   UNL     1      20.599   2.235 -25.495  1.00  0.00     0.119 A 
ATOM     10  C   UNL     1      21.589   2.345 -26.477  1.00  0.00     0.047 A 
ATOM     11  C   UNL     1      22.728   3.122 -26.249  1.00  0.00     0.020 A 
ENDROOT
BRANCH   1  12
ATOM     12  C   UNL     1      23.083   5.757 -21.256  1.00  0.00     0.025 A 
ATOM     13  C   UNL     1      23.251   4.984 -20.096  1.00  0.00     0.016 A 
ATOM     14  C   UNL     1      23.252   5.588 -18.836  1.00  0.00     0.051 A 
ATOM     15  C   UNL     1      23.072   6.972 -18.717  1.00  0.00     0.157 A 
ATOM     16  C   UNL     1      22.880   7.143 -21.130  1.00  0.00     0.062 A 
ATOM     17  C   UNL     1      22.881   7.750 -19.866  1.00  0.00     0.158 A 
BRANCH  15  18
ATOM     18  O   UNL     1      23.076   7.579 -17.463  1.00  0.00    -0.504 OA
ATOM     19  H   UNL     1      23.742   8.306 -17.228  1.00  0.00     0.293 HD
ENDBRANCH  15  18
BRANCH  17  20
ATOM     20  O   UNL     1      22.688   9.125 -19.743  1.00  0.00    -0.504 OA
ATOM     21  H   UNL     1      23.297   9.790 -20.205  1.00  0.00     0.293 HD
ENDBRANCH  17  20
ENDBRANCH   1  12
BRANCH   2  22
ATOM     22  O   UNL     1      25.250   5.981 -23.178  1.00  0.00    -0.502 OA
ATOM     23  H   UNL     1      26.137   5.852 -23.648  1.00  0.00     0.293 HD
ENDBRANCH   2  22
BRANCH   9  24
ATOM     24  O   UNL     1      19.471   1.456 -25.740  1.00  0.00    -0.508 OA
ATOM     25  H   UNL     1      18.546   1.864 -25.797  1.00  0.00     0.293 HD
ENDBRANCH   9  24
TORSDOF 5
ENDMDL
MODEL 4
REMARK VINA RESULT:    -5.388      2.462      7.120
REMARK INTER + INTRA:          -6.618
REMARK INTER:                  -6.449
REMARK INTRA:                  -0.169
REMARK UNBOUND:                -0.285
REMARK SMILES O=c1c(O)c(-c2ccc(O)c(O)c2)oc2cc(O)ccc12
REMARK SMILES IDX 5 1 3 2 2 3 1 4 21 5 15 6 14 7 16 8 17 9 19 10 20 11 6 12
REMARK SMILES IDX 7 13 8 14 9 15 13 16 11 17 10 18 12 20 4 22 18 24
REMARK H PARENT 10 19 12 21 4 23 18 25
REMARK Flexibility Score: inf
ROOT
ATOM      1  C   UNL     1      23.293   4.819 -22.598  1.00  0.00     0.180 A 
ATOM      2  C   UNL     1      23.677   3.785 -21.719  1.00  0.00     0.208 A 
ATOM      3  C   UNL     1      23.648   4.026 -20.337  1.00  0.00     0.235 A 
ATOM      4  O   UNL     1      23.979   3.113 -19.529  1.00  0.00    -0.285 OA
ATOM      5  C   UNL     1      23.258   5.289 -19.864  1.00  0.00     0.069 A 
ATOM      6  C   UNL     1      22.911   6.278 -20.809  1.00  0.00     0.142 A 
ATOM      7  O   UNL     1      22.944   6.007 -22.109  1.00  0.00    -0.452 OA
ATOM      8  C   UNL     1      22.527   7.553 -20.378  1.00  0.00     0.094 A 
ATOM      9  C   UNL     1      22.483   7.852 -19.009  1.00  0.00     0.119 A 
ATOM     10  C   UNL     1      22.827   6.872 -18.072  1.00  0.00     0.047 A 
ATOM     11  C   UNL     1      23.213   5.596 -18.492  1.00  0.00     0.020 A 
ENDROOT
BRANCH   1  12
ATOM     12  C   UNL     1      23.279   4.636 -24.067  1.00  0.00     0.025 A 
ATOM     13  C   UNL     1      22.384   3.719 -24.640  1.00  0.00     0.016 A 
ATOM     14  C   UNL     1      22.368   3.514 -26.022  1.00  0.00     0.051 A 
ATOM     15  C   UNL     1      23.257   4.214 -26.849  1.00  0.00     0.157 A 
ATOM     16  C   UNL     1      24.184   5.320 -24.899  1.00  0.00     0.062 A 
ATOM     17  C   UNL     1      24.169   5.114 -26.286  1.00  0.00     0.158 A 
BRANCH  15  18
ATOM     18  O   UNL     1      23.243   4.015 -28.228  1.00  0.00    -0.504 OA
ATOM     19  H   UNL     1      22.591   4.508 -28.828  1.00  0.00     0.293 HD
ENDBRANCH  15  18
BRANCH  17  20
ATOM     20  O   UNL     1      25.061   5.798 -27.110  1.00  0.00    -0.504 OA
ATOM     21  H   UNL     1      25.453   6.693 -26.841  1.00  0.00     0.293 HD
ENDBRANCH  17  20
ENDBRANCH   1  12
BRANCH   2  22
ATOM     22  O   UNL     1      24.108   2.553 -22.220  1.00  0.00    -0.502 OA
ATOM     23  H   UNL     1      24.623   2.472 -23.088  1.00  0.00     0.293 HD
ENDBRANCH   2  22
BRANCH   9  24
ATOM     24  O   UNL     1      22.101   9.118 -18.572  1.00  0.00    -0.508 OA
ATOM     25  H   UNL     1      21.773   9.277 -17.627  1.00  0.00     0.293 HD
ENDBRANCH   9  24
TORSDOF 5
ENDMDL
MODEL 5
REMARK VINA RESULT:    -5.385      1.456      6.376
REMARK INTER + INTRA:          -6.614
REMARK INTER:                  -6.777
REMARK INTRA:                   0.163
REMARK UNBOUND:                -0.285
REMARK SMILES O=c1c(O)c(-c2ccc(O)c(O)c2)oc2cc(O)ccc12
REMARK SMILES IDX 5 1 3 2 2 3 1 4 21 5 15 6 14 7 16 8 17 9 19 10 20 11 6 12
REMARK SMILES IDX 7 13 8 14 9 15 13 16 11 17 10 18 12 20 4 22 18 24
REMARK H PARENT 10 19 12 21 4 23 18 25
REMARK Flexibility Score: inf
ROOT
ATOM      1  C   UNL     1      24.432   6.830 -22.890  1.00  0.00     0.180 A 
ATOM      2  C   UNL     1      25.574   7.653 -22.799  1.00  0.00     0.208 A 
ATOM      3  C   UNL     1      25.786   8.388 -21.624  1.00  0.00     0.235 A 
ATOM      4  O   UNL     1      26.806   9.125 -21.515  1.00  0.00    -0.285 OA
ATOM      5  C   UNL     1      24.854   8.303 -20.578  1.00  0.00     0.069 A 
ATOM      6  C   UNL     1      23.724   7.475 -20.754  1.00  0.00     0.142 A 
ATOM      7  O   UNL     1      23.565   6.789 -21.881  1.00  0.00    -0.452 OA
ATOM      8  C   UNL     1      22.767   7.371 -19.739  1.00  0.00     0.094 A 
ATOM      9  C   UNL     1      22.925   8.085 -18.544  1.00  0.00     0.119 A 
ATOM     10  C   UNL     1      24.044   8.906 -18.367  1.00  0.00     0.047 A 
ATOM     11  C   UNL     1      25.006   9.017 -19.375  1.00  0.00     0.020 A 
ENDROOT
BRANCH   1  12
ATOM     12  C   UNL     1      24.148   6.010 -24.089  1.00  0.00     0.025 A 
ATOM     13  C   UNL     1      23.681   4.695 -23.932  1.00  0.00     0.016 A 
ATOM     14  C   UNL     1      23.427   3.895 -25.049  1.00  0.00     0.051 A 
ATOM     15  C   UNL     1      23.649   4.395 -26.339  1.00  0.00     0.157 A 
ATOM     16  C   UNL     1      24.389   6.499 -25.385  1.00  0.00     0.062 A 
ATOM     17  C   UNL     1      24.135   5.697 -26.507  1.00  0.00     0.158 A 
BRANCH  15  18
ATOM     18  O   UNL     1      23.393   3.601 -27.456  1.00  0.00    -0.504 OA
ATOM     19  H   UNL     1      22.447   3.399 -27.757  1.00  0.00     0.293 HD
ENDBRANCH  15  18
BRANCH  17  20
ATOM     20  O   UNL     1      24.368   6.185 -27.792  1.00  0.00    -0.504 OA
ATOM     21  H   UNL     1      25.028   5.738 -28.417  1.00  0.00     0.293 HD
ENDBRANCH  17  20
ENDBRANCH   1  12
BRANCH   2  22
ATOM     22  O   UNL     1      26.459   7.757 -23.876  1.00  0.00    -0.502 OA
ATOM     23  H   UNL     1      26.303   7.276 -24.754  1.00  0.00     0.293 HD
ENDBRANCH   2  22
BRANCH   9  24
ATOM     24  O   UNL     1      21.977   7.987 -17.529  1.00  0.00    -0.508 OA
ATOM     25  H   UNL     1      21.153   7.406 -17.627  1.00  0.00     0.293 HD
ENDBRANCH   9  24
TORSDOF 5
ENDMDL
MODEL 6
REMARK VINA RESULT:    -5.373     16.916     17.992
REMARK INTER + INTRA:          -6.600
REMARK INTER:                  -6.283
REMARK INTRA:                  -0.317
REMARK UNBOUND:                -0.285
REMARK SMILES O=c1c(O)c(-c2ccc(O)c(O)c2)oc2cc(O)ccc12
REMARK SMILES IDX 5 1 3 2 2 3 1 4 21 5 15 6 14 7 16 8 17 9 19 10 20 11 6 12
REMARK SMILES IDX 7 13 8 14 9 15 13 16 11 17 10 18 12 20 4 22 18 24
REMARK H PARENT 10 19 12 21 4 23 18 25
REMARK Flexibility Score: inf
ROOT
ATOM      1  C   UNL     1      31.749  -8.039 -27.584  1.00  0.00     0.180 A 
ATOM      2  C   UNL     1      32.748  -8.172 -28.572  1.00  0.00     0.208 A 
ATOM      3  C   UNL     1      32.377  -8.101 -29.922  1.00  0.00     0.235 A 
ATOM      4  O   UNL     1      33.254  -8.207 -30.825  1.00  0.00    -0.285 OA
ATOM      5  C   UNL     1      31.026  -7.919 -30.259  1.00  0.00     0.069 A 
ATOM      6  C   UNL     1      30.084  -7.819 -29.213  1.00  0.00     0.142 A 
ATOM      7  O   UNL     1      30.478  -7.883 -27.946  1.00  0.00    -0.452 OA
ATOM      8  C   UNL     1      28.726  -7.648 -29.508  1.00  0.00     0.094 A 
ATOM      9  C   UNL     1      28.297  -7.574 -30.840  1.00  0.00     0.119 A 
ATOM     10  C   UNL     1      29.230  -7.673 -31.878  1.00  0.00     0.047 A 
ATOM     11  C   UNL     1      30.588  -7.844 -31.594  1.00  0.00     0.020 A 
ENDROOT
BRANCH   1  12
ATOM     12  C   UNL     1      32.063  -8.084 -26.138  1.00  0.00     0.025 A 
ATOM     13  C   UNL     1      32.425  -6.902 -25.473  1.00  0.00     0.016 A 
ATOM     14  C   UNL     1      32.748  -6.925 -24.113  1.00  0.00     0.051 A 
ATOM     15  C   UNL     1      32.725  -8.132 -23.403  1.00  0.00     0.157 A 
ATOM     16  C   UNL     1      32.063  -9.297 -25.426  1.00  0.00     0.062 A 
ATOM     17  C   UNL     1      32.387  -9.321 -24.062  1.00  0.00     0.158 A 
BRANCH  15  18
ATOM     18  O   UNL     1      33.042  -8.159 -22.046  1.00  0.00    -0.504 OA
ATOM     19  H   UNL     1      33.564  -8.926 -21.639  1.00  0.00     0.293 HD
ENDBRANCH  15  18
BRANCH  17  20
ATOM     20  O   UNL     1      32.380 -10.522 -23.355  1.00  0.00    -0.504 OA
ATOM     21  H   UNL     1      33.238 -10.950 -23.027  1.00  0.00     0.293 HD
ENDBRANCH  17  20
ENDBRANCH   1  12
BRANCH   2  22
ATOM     22  O   UNL     1      34.078  -8.401 -28.207  1.00  0.00    -0.502 OA
ATOM     23  H   UNL     1      34.497  -9.322 -28.239  1.00  0.00     0.293 HD
ENDBRANCH   2  22
BRANCH   9  24
ATOM     24  O   UNL     1      26.948  -7.404 -31.142  1.00  0.00    -0.508 OA
ATOM     25  H   UNL     1      26.353  -8.190 -31.372  1.00  0.00     0.293 HD
ENDBRANCH   9  24
TORSDOF 5
ENDMDL
MODEL 7
REMARK VINA RESULT:    -5.226     14.356     16.675
REMARK INTER + INTRA:          -6.427
REMARK INTER:                  -6.154
REMARK INTRA:                  -0.273
REMARK UNBOUND:                -0.285
REMARK SMILES O=c1c(O)c(-c2ccc(O)c(O)c2)oc2cc(O)ccc12
REMARK SMILES IDX 5 1 3 2 2 3 1 4 21 5 15 6 14 7 16 8 17 9 19 10 20 11 6 12
REMARK SMILES IDX 7 13 8 14 9 15 13 16 11 17 10 18 12 20 4 22 18 24
REMARK H PARENT 10 19 12 21 4 23 18 25
REMARK Flexibility Score: inf
ROOT
ATOM      1  C   UNL     1      28.131  -6.947 -29.154  1.00  0.00     0.180 A 
ATOM      2  C   UNL     1      27.916  -7.406 -30.470  1.00  0.00     0.208 A 
ATOM      3  C   UNL     1      29.018  -7.828 -31.227  1.00  0.00     0.235 A 
ATOM      4  O   UNL     1      28.850  -8.253 -32.405  1.00  0.00    -0.285 OA
ATOM      5  C   UNL     1      30.305  -7.766 -30.669  1.00  0.00     0.069 A 
ATOM      6  C   UNL     1      30.440  -7.271 -29.354  1.00  0.00     0.142 A 
ATOM      7  O   UNL     1      29.369  -6.889 -28.667  1.00  0.00    -0.452 OA
ATOM      8  C   UNL     1      31.707  -7.184 -28.766  1.00  0.00     0.094 A 
ATOM      9  C   UNL     1      32.845  -7.587 -29.478  1.00  0.00     0.119 A 
ATOM     10  C   UNL     1      32.712  -8.078 -30.781  1.00  0.00     0.047 A 
ATOM     11  C   UNL     1      31.451  -8.169 -31.377  1.00  0.00     0.020 A 
ENDROOT
BRANCH   1  12
ATOM     12  C   UNL     1      27.018  -6.502 -28.285  1.00  0.00     0.025 A 
ATOM     13  C   UNL     1      26.478  -5.217 -28.457  1.00  0.00     0.016 A 
ATOM     14  C   UNL     1      25.443  -4.768 -27.634  1.00  0.00     0.051 A 
ATOM     15  C   UNL     1      24.941  -5.591 -26.618  1.00  0.00     0.157 A 
ATOM     16  C   UNL     1      26.526  -7.316 -27.249  1.00  0.00     0.062 A 
ATOM     17  C   UNL     1      25.487  -6.866 -26.422  1.00  0.00     0.158 A 
BRANCH  15  18
ATOM     18  O   UNL     1      23.906  -5.148 -25.797  1.00  0.00    -0.504 OA
ATOM     19  H   UNL     1      23.489  -4.232 -25.918  1.00  0.00     0.293 HD
ENDBRANCH  15  18
BRANCH  17  20
ATOM     20  O   UNL     1      24.995  -7.677 -25.401  1.00  0.00    -0.504 OA
ATOM     21  H   UNL     1      25.077  -8.686 -25.439  1.00  0.00     0.293 HD
ENDBRANCH  17  20
ENDBRANCH   1  12
BRANCH   2  22
ATOM     22  O   UNL     1      26.629  -7.411 -31.016  1.00  0.00    -0.502 OA
ATOM     23  H   UNL     1      25.956  -8.138 -30.810  1.00  0.00     0.293 HD
ENDBRANCH   2  22
BRANCH   9  24
ATOM     24  O   UNL     1      34.109  -7.503 -28.899  1.00  0.00    -0.508 OA
ATOM     25  H   UNL     1      34.247  -7.633 -27.904  1.00  0.00     0.293 HD
ENDBRANCH   9  24
TORSDOF 5
ENDMDL
MODEL 8
REMARK VINA RESULT:    -5.187     16.719     17.593
REMARK INTER + INTRA:          -6.382
REMARK INTER:                  -6.068
REMARK INTRA:                  -0.314
REMARK UNBOUND:                -0.285
REMARK SMILES O=c1c(O)c(-c2ccc(O)c(O)c2)oc2cc(O)ccc12
REMARK SMILES IDX 5 1 3 2 2 3 1 4 21 5 15 6 14 7 16 8 17 9 19 10 20 11 6 12
REMARK SMILES IDX 7 13 8 14 9 15 13 16 11 17 10 18 12 20 4 22 18 24
REMARK H PARENT 10 19 12 21 4 23 18 25
REMARK Flexibility Score: inf
ROOT
ATOM      1  C   UNL     1      31.003  -7.443 -28.820  1.00  0.00     0.180 A 
ATOM      2  C   UNL     1      29.819  -7.560 -29.577  1.00  0.00     0.208 A 
ATOM      3  C   UNL     1      29.704  -6.830 -30.769  1.00  0.00     0.235 A 
ATOM      4  O   UNL     1      28.658  -6.926 -31.470  1.00  0.00    -0.285 OA
ATOM      5  C   UNL     1      30.756  -5.990 -31.169  1.00  0.00     0.069 A 
ATOM      6  C   UNL     1      31.898  -5.910 -30.344  1.00  0.00     0.142 A 
ATOM      7  O   UNL     1      31.971  -6.624 -29.226  1.00  0.00    -0.452 OA
ATOM      8  C   UNL     1      32.963  -5.076 -30.703  1.00  0.00     0.094 A 
ATOM      9  C   UNL     1      32.902  -4.321 -31.882  1.00  0.00     0.119 A 
ATOM     10  C   UNL     1      31.771  -4.400 -32.701  1.00  0.00     0.047 A 
ATOM     11  C   UNL     1      30.701  -5.229 -32.351  1.00  0.00     0.020 A 
ENDROOT
BRANCH   1  12
ATOM     12  C   UNL     1      31.208  -8.194 -27.560  1.00  0.00     0.025 A 
ATOM     13  C   UNL     1      31.818  -9.458 -27.602  1.00  0.00     0.016 A 
ATOM     14  C   UNL     1      32.001 -10.195 -26.429  1.00  0.00     0.051 A 
ATOM     15  C   UNL     1      31.565  -9.684 -25.200  1.00  0.00     0.157 A 
ATOM     16  C   UNL     1      30.752  -7.696 -26.327  1.00  0.00     0.062 A 
ATOM     17  C   UNL     1      30.935  -8.435 -25.149  1.00  0.00     0.158 A 
BRANCH  15  18
ATOM     18  O   UNL     1      31.749 -10.414 -24.027  1.00  0.00    -0.504 OA
ATOM     19  H   UNL     1      31.289 -11.306 -23.880  1.00  0.00     0.293 HD
ENDBRANCH  15  18
BRANCH  17  20
ATOM     20  O   UNL     1      30.489  -7.936 -23.927  1.00  0.00    -0.504 OA
ATOM     21  H   UNL     1      30.755  -8.368 -23.049  1.00  0.00     0.293 HD
ENDBRANCH  17  20
ENDBRANCH   1  12
BRANCH   2  22
ATOM     22  O   UNL     1      28.769  -8.366 -29.129  1.00  0.00    -0.502 OA
ATOM     23  H   UNL     1      28.754  -9.367 -29.276  1.00  0.00     0.293 HD
ENDBRANCH   2  22
BRANCH   9  24
ATOM     24  O   UNL     1      33.958  -3.489 -32.246  1.00  0.00    -0.508 OA
ATOM     25  H   UNL     1      34.873  -3.576 -31.820  1.00  0.00     0.293 HD
ENDBRANCH   9  24
TORSDOF 5
ENDMDL
MODEL 9
REMARK VINA RESULT:    -5.120     13.608     16.724
REMARK INTER + INTRA:          -6.303
REMARK INTER:                  -5.997
REMARK INTRA:                  -0.306
REMARK UNBOUND:                -0.285
REMARK SMILES O=c1c(O)c(-c2ccc(O)c(O)c2)oc2cc(O)ccc12
REMARK SMILES IDX 5 1 3 2 2 3 1 4 21 5 15 6 14 7 16 8 17 9 19 10 20 11 6 12
REMARK SMILES IDX 7 13 8 14 9 15 13 16 11 17 10 18 12 20 4 22 18 24
REMARK H PARENT 10 19 12 21 4 23 18 25
REMARK Flexibility Score: inf
ROOT
ATOM      1  C   UNL     1      26.900  -6.555 -28.177  1.00  0.00     0.180 A 
ATOM      2  C   UNL     1      26.290  -5.291 -28.314  1.00  0.00     0.208 A 
ATOM      3  C   UNL     1      25.281  -4.926 -27.410  1.00  0.00     0.235 A 
ATOM      4  O   UNL     1      24.726  -3.796 -27.505  1.00  0.00    -0.285 OA
ATOM      5  C   UNL     1      24.892  -5.829 -26.408  1.00  0.00     0.069 A 
ATOM      6  C   UNL     1      25.535  -7.085 -26.352  1.00  0.00     0.142 A 
ATOM      7  O   UNL     1      26.491  -7.388 -27.223  1.00  0.00    -0.452 OA
ATOM      8  C   UNL     1      25.168  -8.017 -25.375  1.00  0.00     0.094 A 
ATOM      9  C   UNL     1      24.164  -7.708 -24.447  1.00  0.00     0.119 A 
ATOM     10  C   UNL     1      23.526  -6.464 -24.500  1.00  0.00     0.047 A 
ATOM     11  C   UNL     1      23.885  -5.527 -25.474  1.00  0.00     0.020 A 
ENDROOT
BRANCH   1  12
ATOM     12  C   UNL     1      27.984  -7.006 -29.080  1.00  0.00     0.025 A 
ATOM     13  C   UNL     1      29.322  -6.801 -28.709  1.00  0.00     0.016 A 
ATOM     14  C   UNL     1      30.361  -7.197 -29.555  1.00  0.00     0.051 A 
ATOM     15  C   UNL     1      30.075  -7.793 -30.791  1.00  0.00     0.157 A 
ATOM     16  C   UNL     1      27.703  -7.584 -30.331  1.00  0.00     0.062 A 
ATOM     17  C   UNL     1      28.744  -7.982 -31.181  1.00  0.00     0.158 A 
BRANCH  15  18
ATOM     18  O   UNL     1      31.109  -8.193 -31.636  1.00  0.00    -0.504 OA
ATOM     19  H   UNL     1      31.943  -8.641 -31.277  1.00  0.00     0.293 HD
ENDBRANCH  15  18
BRANCH  17  20
ATOM     20  O   UNL     1      28.464  -8.562 -32.417  1.00  0.00    -0.504 OA
ATOM     21  H   UNL     1      29.164  -8.616 -33.149  1.00  0.00     0.293 HD
ENDBRANCH  17  20
ENDBRANCH   1  12
BRANCH   2  22
ATOM     22  O   UNL     1      26.664  -4.432 -29.351  1.00  0.00    -0.502 OA
ATOM     23  H   UNL     1      26.103  -4.316 -30.187  1.00  0.00     0.293 HD
ENDBRANCH   2  22
BRANCH   9  24
ATOM     24  O   UNL     1      23.793  -8.630 -23.471  1.00  0.00    -0.508 OA
ATOM     25  H   UNL     1      23.035  -9.285 -23.621  1.00  0.00     0.293 HD
ENDBRANCH   9  24
TORSDOF 5
ENDMDL
