MODEL 1
REMARK VINA RESULT:    -5.427      0.000      0.000
REMARK INTER + INTRA:          -5.427
REMARK INTER:                  -5.427
REMARK INTRA:                   0.000
REMARK UNBOUND:                 0.000
REMARK SMILES CC1=CC[C@@]23C[C@@H]1C(C)(C)[C@@H]2CC[C@H]3C
REMARK SMILES IDX 15 1 14 2 13 3 12 4 11 5 5 6 4 7 3 8 2 9 7 10 6 11 8 12 9 13
REMARK SMILES IDX 10 14 1 15
REMARK H PARENT
REMARK Flexibility Score: inf
ROOT
ATOM      1  C   UNL     1      30.740   5.886  37.114  1.00  0.00     0.008 C 
ATOM      2  C   UNL     1      31.433   6.987  36.299  1.00  0.00    -0.007 C 
ATOM      3  C   UNL     1      31.177   8.369  36.903  1.00  0.00     0.004 C 
ATOM      4  C   UNL     1      31.362   9.339  35.753  1.00  0.00     0.005 C 
ATOM      5  C   UNL     1      30.765   8.609  34.543  1.00  0.00     0.002 C 
ATOM      6  C   UNL     1      31.019   7.105  34.798  1.00  0.00    -0.020 C 
ATOM      7  C   UNL     1      29.769   6.267  34.364  1.00  0.00     0.035 C 
ATOM      8  C   UNL     1      29.559   6.273  32.858  1.00  0.00    -0.027 C 
ATOM      9  C   UNL     1      30.493   6.771  32.013  1.00  0.00    -0.074 C 
ATOM     10  C   UNL     1      31.711   7.509  32.574  1.00  0.00     0.021 C 
ATOM     11  C   UNL     1      32.159   6.764  33.829  1.00  0.00     0.016 C 
ATOM     12  C   UNL     1      31.336   8.922  33.114  1.00  0.00    -0.025 C 
ATOM     13  C   UNL     1      30.271   9.641  32.247  1.00  0.00     0.012 C 
ATOM     14  C   UNL     1      32.600   9.821  33.111  1.00  0.00     0.012 C 
ATOM     15  C   UNL     1      30.299   6.641  30.527  1.00  0.00     0.039 C 
ENDROOT
TORSDOF 0
ENDMDL
MODEL 2
REMARK VINA RESULT:    -5.205      1.306      4.115
REMARK INTER + INTRA:          -5.205
REMARK INTER:                  -5.205
REMARK INTRA:                   0.000
REMARK UNBOUND:                 0.000
REMARK SMILES CC1=CC[C@@]23C[C@@H]1C(C)(C)[C@@H]2CC[C@H]3C
REMARK SMILES IDX 15 1 14 2 13 3 12 4 11 5 5 6 4 7 3 8 2 9 7 10 6 11 8 12 9 13
REMARK SMILES IDX 10 14 1 15
REMARK H PARENT
REMARK Flexibility Score: inf
ROOT
ATOM      1  C   UNL     1      31.113   8.022  31.135  1.00  0.00     0.008 C 
ATOM      2  C   UNL     1      30.709   8.969  32.275  1.00  0.00    -0.007 C 
ATOM      3  C   UNL     1      31.555  10.243  32.263  1.00  0.00     0.004 C 
ATOM      4  C   UNL     1      31.502  10.761  33.687  1.00  0.00     0.005 C 
ATOM      5  C   UNL     1      31.545   9.495  34.552  1.00  0.00     0.002 C 
ATOM      6  C   UNL     1      30.829   8.401  33.725  1.00  0.00    -0.020 C 
ATOM      7  C   UNL     1      31.585   7.037  33.866  1.00  0.00     0.035 C 
ATOM      8  C   UNL     1      31.476   6.456  35.267  1.00  0.00    -0.027 C 
ATOM      9  C   UNL     1      30.632   6.976  36.189  1.00  0.00    -0.074 C 
ATOM     10  C   UNL     1      29.895   8.284  35.893  1.00  0.00     0.021 C 
ATOM     11  C   UNL     1      29.473   8.250  34.427  1.00  0.00     0.016 C 
ATOM     12  C   UNL     1      30.848   9.517  35.959  1.00  0.00    -0.025 C 
ATOM     13  C   UNL     1      31.902   9.408  37.091  1.00  0.00     0.012 C 
ATOM     14  C   UNL     1      30.013  10.793  36.243  1.00  0.00     0.012 C 
ATOM     15  C   UNL     1      30.465   6.292  37.518  1.00  0.00     0.039 C 
ENDROOT
TORSDOF 0
ENDMDL
MODEL 3
REMARK VINA RESULT:    -5.144      1.025      3.129
REMARK INTER + INTRA:          -5.144
REMARK INTER:                  -5.144
REMARK INTRA:                   0.000
REMARK UNBOUND:                 0.000
REMARK SMILES CC1=CC[C@@]23C[C@@H]1C(C)(C)[C@@H]2CC[C@H]3C
REMARK SMILES IDX 15 1 14 2 13 3 12 4 11 5 5 6 4 7 3 8 2 9 7 10 6 11 8 12 9 13
REMARK SMILES IDX 10 14 1 15
REMARK H PARENT
REMARK Flexibility Score: inf
ROOT
ATOM      1  C   UNL     1      31.809   9.730  37.325  1.00  0.00     0.008 C 
ATOM      2  C   UNL     1      31.049   8.680  36.501  1.00  0.00    -0.007 C 
ATOM      3  C   UNL     1      31.610   7.277  36.738  1.00  0.00     0.004 C 
ATOM      4  C   UNL     1      31.233   6.490  35.499  1.00  0.00     0.005 C 
ATOM      5  C   UNL     1      31.398   7.493  34.350  1.00  0.00     0.002 C 
ATOM      6  C   UNL     1      31.056   8.876  34.952  1.00  0.00    -0.020 C 
ATOM      7  C   UNL     1      32.042   9.961  34.402  1.00  0.00     0.035 C 
ATOM      8  C   UNL     1      31.839  10.234  32.920  1.00  0.00    -0.027 C 
ATOM      9  C   UNL     1      30.774   9.738  32.246  1.00  0.00    -0.074 C 
ATOM     10  C   UNL     1      29.842   8.735  32.928  1.00  0.00     0.021 C 
ATOM     11  C   UNL     1      29.667   9.184  34.377  1.00  0.00     0.016 C 
ATOM     12  C   UNL     1      30.502   7.330  33.070  1.00  0.00    -0.025 C 
ATOM     13  C   UNL     1      31.368   6.941  31.845  1.00  0.00     0.012 C 
ATOM     14  C   UNL     1      29.392   6.254  33.196  1.00  0.00     0.012 C 
ATOM     15  C   UNL     1      30.546  10.137  30.814  1.00  0.00     0.039 C 
ENDROOT
TORSDOF 0
ENDMDL
MODEL 4
REMARK VINA RESULT:    -5.076      1.686      4.933
REMARK INTER + INTRA:          -5.076
REMARK INTER:                  -5.076
REMARK INTRA:                   0.000
REMARK UNBOUND:                 0.000
REMARK SMILES CC1=CC[C@@]23C[C@@H]1C(C)(C)[C@@H]2CC[C@H]3C
REMARK SMILES IDX 15 1 14 2 13 3 12 4 11 5 5 6 4 7 3 8 2 9 7 10 6 11 8 12 9 13
REMARK SMILES IDX 10 14 1 15
REMARK H PARENT
REMARK Flexibility Score: inf
ROOT
ATOM      1  C   UNL     1      32.075  11.337  33.043  1.00  0.00     0.008 C 
ATOM      2  C   UNL     1      32.228   9.998  33.780  1.00  0.00    -0.007 C 
ATOM      3  C   UNL     1      32.003   8.816  32.836  1.00  0.00     0.004 C 
ATOM      4  C   UNL     1      31.587   7.670  33.737  1.00  0.00     0.005 C 
ATOM      5  C   UNL     1      30.704   8.329  34.804  1.00  0.00     0.002 C 
ATOM      6  C   UNL     1      31.269   9.757  34.988  1.00  0.00    -0.020 C 
ATOM      7  C   UNL     1      30.097  10.784  35.148  1.00  0.00     0.035 C 
ATOM      8  C   UNL     1      29.341  10.603  36.454  1.00  0.00    -0.027 C 
ATOM      9  C   UNL     1      29.798   9.786  37.434  1.00  0.00    -0.074 C 
ATOM     10  C   UNL     1      31.004   8.882  37.168  1.00  0.00     0.021 C 
ATOM     11  C   UNL     1      32.001   9.683  36.334  1.00  0.00     0.016 C 
ATOM     12  C   UNL     1      30.641   7.687  36.236  1.00  0.00    -0.025 C 
ATOM     13  C   UNL     1      29.229   7.109  36.512  1.00  0.00     0.012 C 
ATOM     14  C   UNL     1      31.652   6.534  36.467  1.00  0.00     0.012 C 
ATOM     15  C   UNL     1      29.085   9.735  38.756  1.00  0.00     0.039 C 
ENDROOT
TORSDOF 0
ENDMDL
MODEL 5
REMARK VINA RESULT:    -4.888      4.954      7.366
REMARK INTER + INTRA:          -4.888
REMARK INTER:                  -4.888
REMARK INTRA:                   0.000
REMARK UNBOUND:                 0.000
REMARK SMILES CC1=CC[C@@]23C[C@@H]1C(C)(C)[C@@H]2CC[C@H]3C
REMARK SMILES IDX 15 1 14 2 13 3 12 4 11 5 5 6 4 7 3 8 2 9 7 10 6 11 8 12 9 13
REMARK SMILES IDX 10 14 1 15
REMARK H PARENT
REMARK Flexibility Score: inf
ROOT
ATOM      1  C   UNL     1      31.230   6.003  29.408  1.00  0.00     0.008 C 
ATOM      2  C   UNL     1      31.105   7.434  28.864  1.00  0.00    -0.007 C 
ATOM      3  C   UNL     1      30.212   8.292  29.761  1.00  0.00     0.004 C 
ATOM      4  C   UNL     1      29.697   9.396  28.858  1.00  0.00     0.005 C 
ATOM      5  C   UNL     1      29.456   8.702  27.512  1.00  0.00     0.002 C 
ATOM      6  C   UNL     1      30.518   7.581  27.425  1.00  0.00    -0.020 C 
ATOM      7  C   UNL     1      29.887   6.288  26.807  1.00  0.00     0.035 C 
ATOM      8  C   UNL     1      29.530   6.461  25.339  1.00  0.00    -0.027 C 
ATOM      9  C   UNL     1      29.931   7.544  24.633  1.00  0.00    -0.074 C 
ATOM     10  C   UNL     1      30.605   8.714  25.352  1.00  0.00     0.021 C 
ATOM     11  C   UNL     1      31.533   8.126  26.412  1.00  0.00     0.016 C 
ATOM     12  C   UNL     1      29.588   9.544  26.193  1.00  0.00    -0.025 C 
ATOM     13  C   UNL     1      28.208   9.693  25.502  1.00  0.00     0.012 C 
ATOM     14  C   UNL     1      30.145  10.977  26.399  1.00  0.00     0.012 C 
ATOM     15  C   UNL     1      29.663   7.612  23.155  1.00  0.00     0.039 C 
ENDROOT
TORSDOF 0
ENDMDL
MODEL 6
REMARK VINA RESULT:    -4.842      5.194      7.751
REMARK INTER + INTRA:          -4.842
REMARK INTER:                  -4.842
REMARK INTRA:                   0.000
REMARK UNBOUND:                 0.000
REMARK SMILES CC1=CC[C@@]23C[C@@H]1C(C)(C)[C@@H]2CC[C@H]3C
REMARK SMILES IDX 15 1 14 2 13 3 12 4 11 5 5 6 4 7 3 8 2 9 7 10 6 11 8 12 9 13
REMARK SMILES IDX 10 14 1 15
REMARK H PARENT
REMARK Flexibility Score: inf
ROOT
ATOM      1  C   UNL     1      29.514  11.755  27.934  1.00  0.00     0.008 C 
ATOM      2  C   UNL     1      29.212  10.293  28.296  1.00  0.00    -0.007 C 
ATOM      3  C   UNL     1      29.912   9.887  29.593  1.00  0.00     0.004 C 
ATOM      4  C   UNL     1      30.043   8.379  29.511  1.00  0.00     0.005 C 
ATOM      5  C   UNL     1      30.356   8.107  28.034  1.00  0.00     0.002 C 
ATOM      6  C   UNL     1      29.627   9.218  27.243  1.00  0.00    -0.020 C 
ATOM      7  C   UNL     1      30.529   9.722  26.066  1.00  0.00     0.035 C 
ATOM      8  C   UNL     1      30.714   8.671  24.984  1.00  0.00    -0.027 C 
ATOM      9  C   UNL     1      29.986   7.529  24.970  1.00  0.00    -0.074 C 
ATOM     10  C   UNL     1      29.083   7.189  26.158  1.00  0.00     0.021 C 
ATOM     11  C   UNL     1      28.428   8.488  26.622  1.00  0.00     0.016 C 
ATOM     12  C   UNL     1      29.904   6.741  27.405  1.00  0.00    -0.025 C 
ATOM     13  C   UNL     1      31.137   5.875  27.040  1.00  0.00     0.012 C 
ATOM     14  C   UNL     1      29.004   5.876  28.326  1.00  0.00     0.012 C 
ATOM     15  C   UNL     1      30.112   6.577  23.813  1.00  0.00     0.039 C 
ENDROOT
TORSDOF 0
ENDMDL
MODEL 7
REMARK VINA RESULT:    -4.765      1.824      3.129
REMARK INTER + INTRA:          -4.765
REMARK INTER:                  -4.765
REMARK INTRA:                   0.000
REMARK UNBOUND:                 0.000
REMARK SMILES CC1=CC[C@@]23C[C@@H]1C(C)(C)[C@@H]2CC[C@H]3C
REMARK SMILES IDX 15 1 14 2 13 3 12 4 11 5 5 6 4 7 3 8 2 9 7 10 6 11 8 12 9 13
REMARK SMILES IDX 10 14 1 15
REMARK H PARENT
REMARK Flexibility Score: inf
ROOT
ATOM      1  C   UNL     1      31.668   6.143  36.314  1.00  0.00     0.008 C 
ATOM      2  C   UNL     1      30.846   7.433  36.459  1.00  0.00    -0.007 C 
ATOM      3  C   UNL     1      29.356   7.126  36.616  1.00  0.00     0.004 C 
ATOM      4  C   UNL     1      28.647   8.382  36.149  1.00  0.00     0.005 C 
ATOM      5  C   UNL     1      29.486   8.871  34.962  1.00  0.00     0.002 C 
ATOM      6  C   UNL     1      30.941   8.452  35.281  1.00  0.00    -0.020 C 
ATOM      7  C   UNL     1      31.649   7.936  33.983  1.00  0.00     0.035 C 
ATOM      8  C   UNL     1      31.883   9.044  32.969  1.00  0.00    -0.027 C 
ATOM      9  C   UNL     1      31.690  10.348  33.283  1.00  0.00    -0.074 C 
ATOM     10  C   UNL     1      31.051  10.720  34.623  1.00  0.00     0.021 C 
ATOM     11  C   UNL     1      31.616   9.772  35.678  1.00  0.00     0.016 C 
ATOM     12  C   UNL     1      29.524  10.409  34.646  1.00  0.00    -0.025 C 
ATOM     13  C   UNL     1      28.824  10.705  33.295  1.00  0.00     0.012 C 
ATOM     14  C   UNL     1      28.838  11.301  35.713  1.00  0.00     0.012 C 
ATOM     15  C   UNL     1      32.055  11.416  32.290  1.00  0.00     0.039 C 
ENDROOT
TORSDOF 0
ENDMDL
MODEL 8
REMARK VINA RESULT:    -4.695      1.417      4.882
REMARK INTER + INTRA:          -4.695
REMARK INTER:                  -4.695
REMARK INTRA:                   0.000
REMARK UNBOUND:                 0.000
REMARK SMILES CC1=CC[C@@]23C[C@@H]1C(C)(C)[C@@H]2CC[C@H]3C
REMARK SMILES IDX 15 1 14 2 13 3 12 4 11 5 5 6 4 7 3 8 2 9 7 10 6 11 8 12 9 13
REMARK SMILES IDX 10 14 1 15
REMARK H PARENT
REMARK Flexibility Score: inf
ROOT
ATOM      1  C   UNL     1      29.992  11.620  30.516  1.00  0.00     0.008 C 
ATOM      2  C   UNL     1      30.748  10.331  30.873  1.00  0.00    -0.007 C 
ATOM      3  C   UNL     1      30.162   9.124  30.139  1.00  0.00     0.004 C 
ATOM      4  C   UNL     1      30.546   7.927  30.987  1.00  0.00     0.005 C 
ATOM      5  C   UNL     1      30.414   8.429  32.431  1.00  0.00     0.002 C 
ATOM      6  C   UNL     1      30.767   9.934  32.383  1.00  0.00    -0.020 C 
ATOM      7  C   UNL     1      29.806  10.743  33.317  1.00  0.00     0.035 C 
ATOM      8  C   UNL     1      30.036  10.440  34.789  1.00  0.00    -0.027 C 
ATOM      9  C   UNL     1      31.103   9.719  35.209  1.00  0.00    -0.074 C 
ATOM     10  C   UNL     1      32.009   9.036  34.183  1.00  0.00     0.021 C 
ATOM     11  C   UNL     1      32.169   9.993  33.004  1.00  0.00     0.016 C 
ATOM     12  C   UNL     1      31.326   7.792  33.539  1.00  0.00    -0.025 C 
ATOM     13  C   UNL     1      30.472   6.980  34.547  1.00  0.00     0.012 C 
ATOM     14  C   UNL     1      32.418   6.832  32.999  1.00  0.00     0.012 C 
ATOM     15  C   UNL     1      31.358   9.552  36.681  1.00  0.00     0.039 C 
ENDROOT
TORSDOF 0
ENDMDL
MODEL 9
REMARK VINA RESULT:    -4.620      6.235      8.778
REMARK INTER + INTRA:          -4.620
REMARK INTER:                  -4.620
REMARK INTRA:                   0.000
REMARK UNBOUND:                 0.000
REMARK SMILES CC1=CC[C@@]23C[C@@H]1C(C)(C)[C@@H]2CC[C@H]3C
REMARK SMILES IDX 15 1 14 2 13 3 12 4 11 5 5 6 4 7 3 8 2 9 7 10 6 11 8 12 9 13
REMARK SMILES IDX 10 14 1 15
REMARK H PARENT
REMARK Flexibility Score: inf
ROOT
ATOM      1  C   UNL     1      29.886   6.861  25.376  1.00  0.00     0.008 C 
ATOM      2  C   UNL     1      29.673   8.348  25.055  1.00  0.00    -0.007 C 
ATOM      3  C   UNL     1      30.854   8.921  24.271  1.00  0.00     0.004 C 
ATOM      4  C   UNL     1      30.819  10.411  24.545  1.00  0.00     0.005 C 
ATOM      5  C   UNL     1      30.403  10.514  26.018  1.00  0.00     0.002 C 
ATOM      6  C   UNL     1      29.480   9.301  26.276  1.00  0.00    -0.020 C 
ATOM      7  C   UNL     1      29.782   8.683  27.683  1.00  0.00     0.035 C 
ATOM      8  C   UNL     1      29.373   9.603  28.822  1.00  0.00    -0.027 C 
ATOM      9  C   UNL     1      28.635  10.718  28.605  1.00  0.00    -0.074 C 
ATOM     10  C   UNL     1      28.350  11.174  27.172  1.00  0.00     0.021 C 
ATOM     11  C   UNL     1      28.078   9.923  26.339  1.00  0.00     0.016 C 
ATOM     12  C   UNL     1      29.612  11.785  26.493  1.00  0.00    -0.025 C 
ATOM     13  C   UNL     1      30.474  12.631  27.465  1.00  0.00     0.012 C 
ATOM     14  C   UNL     1      29.168  12.731  25.347  1.00  0.00     0.012 C 
ATOM     15  C   UNL     1      28.147  11.529  29.773  1.00  0.00     0.039 C 
ENDROOT
TORSDOF 0
ENDMDL
