MODEL 1
REMARK VINA RESULT:    -4.872      0.000      0.000
REMARK INTER + INTRA:          -4.872
REMARK INTER:                  -4.872
REMARK INTRA:                   0.000
REMARK UNBOUND:                 0.000
REMARK SMILES CC1(C)O[C@]2(C)CC[C@H]1CC2
REMARK SMILES IDX 1 1 2 2 9 3 10 4 11 5 5 6 4 7 7 8 8 9 6 10 3 11
REMARK H PARENT
REMARK Flexibility Score: inf
ROOT
ATOM      1  C   UNL     1       0.518   6.267   6.850  1.00  0.00     0.042 C 
ATOM      2  C   UNL     1       0.592   7.014   5.501  1.00  0.00     0.066 C 
ATOM      3  C   UNL     1      -0.482   8.168   5.441  1.00  0.00     0.021 C 
ATOM      4  C   UNL     1      -0.397   8.845   4.053  1.00  0.00     0.009 C 
ATOM      5  C   UNL     1      -0.475   7.761   2.952  1.00  0.00     0.035 C 
ATOM      6  C   UNL     1      -0.705   6.366   3.602  1.00  0.00     0.066 C 
ATOM      7  O   UNL     1       0.402   6.055   4.449  1.00  0.00    -0.369 OA
ATOM      8  C   UNL     1      -2.005   6.415   4.457  1.00  0.00     0.035 C 
ATOM      9  C   UNL     1      -1.890   7.531   5.522  1.00  0.00     0.009 C 
ATOM     10  C   UNL     1      -0.818   5.286   2.520  1.00  0.00     0.042 C 
ATOM     11  C   UNL     1       2.019   7.590   5.373  1.00  0.00     0.042 C 
ENDROOT
TORSDOF 0
ENDMDL
MODEL 2
REMARK VINA RESULT:    -4.262      1.116      2.702
REMARK INTER + INTRA:          -4.262
REMARK INTER:                  -4.262
REMARK INTRA:                   0.000
REMARK UNBOUND:                 0.000
REMARK SMILES CC1(C)O[C@]2(C)CC[C@H]1CC2
REMARK SMILES IDX 1 1 2 2 9 3 10 4 11 5 5 6 4 7 7 8 8 9 6 10 3 11
REMARK H PARENT
REMARK Flexibility Score: inf
ROOT
ATOM      1  C   UNL     1       0.914   9.646   3.812  1.00  0.00     0.042 C 
ATOM      2  C   UNL     1      -0.424   8.922   4.074  1.00  0.00     0.066 C 
ATOM      3  C   UNL     1      -0.441   8.284   5.517  1.00  0.00     0.021 C 
ATOM      4  C   UNL     1      -1.780   7.531   5.704  1.00  0.00     0.009 C 
ATOM      5  C   UNL     1      -1.993   6.568   4.511  1.00  0.00     0.035 C 
ATOM      6  C   UNL     1      -0.753   6.610   3.572  1.00  0.00     0.066 C 
ATOM      7  O   UNL     1      -0.603   7.931   3.051  1.00  0.00    -0.369 OA
ATOM      8  C   UNL     1       0.515   6.238   4.394  1.00  0.00     0.035 C 
ATOM      9  C   UNL     1       0.669   7.208   5.590  1.00  0.00     0.009 C 
ATOM     10  C   UNL     1      -0.937   5.635   2.404  1.00  0.00     0.042 C 
ATOM     11  C   UNL     1      -1.549   9.970   3.928  1.00  0.00     0.042 C 
ENDROOT
TORSDOF 0
ENDMDL
MODEL 3
REMARK VINA RESULT:    -4.178      1.388      3.164
REMARK INTER + INTRA:          -4.178
REMARK INTER:                  -4.178
REMARK INTRA:                   0.000
REMARK UNBOUND:                 0.000
REMARK SMILES CC1(C)O[C@]2(C)CC[C@H]1CC2
REMARK SMILES IDX 1 1 2 2 9 3 10 4 11 5 5 6 4 7 7 8 8 9 6 10 3 11
REMARK H PARENT
REMARK Flexibility Score: inf
ROOT
ATOM      1  C   UNL     1      -1.570   7.821   7.044  1.00  0.00     0.042 C 
ATOM      2  C   UNL     1      -1.703   7.629   5.518  1.00  0.00     0.066 C 
ATOM      3  C   UNL     1      -0.837   6.403   5.032  1.00  0.00     0.021 C 
ATOM      4  C   UNL     1      -0.967   6.291   3.494  1.00  0.00     0.009 C 
ATOM      5  C   UNL     1      -0.653   7.665   2.855  1.00  0.00     0.035 C 
ATOM      6  C   UNL     1      -0.225   8.674   3.959  1.00  0.00     0.066 C 
ATOM      7  O   UNL     1      -1.303   8.851   4.878  1.00  0.00    -0.369 OA
ATOM      8  C   UNL     1       1.005   8.098   4.720  1.00  0.00     0.035 C 
ATOM      9  C   UNL     1       0.653   6.713   5.314  1.00  0.00     0.009 C 
ATOM     10  C   UNL     1       0.121  10.030   3.336  1.00  0.00     0.042 C 
ATOM     11  C   UNL     1      -3.199   7.395   5.213  1.00  0.00     0.042 C 
ENDROOT
TORSDOF 0
ENDMDL
MODEL 4
REMARK VINA RESULT:    -3.954      1.162      2.452
REMARK INTER + INTRA:          -3.954
REMARK INTER:                  -3.954
REMARK INTRA:                   0.000
REMARK UNBOUND:                 0.000
REMARK SMILES CC1(C)O[C@]2(C)CC[C@H]1CC2
REMARK SMILES IDX 1 1 2 2 9 3 10 4 11 5 5 6 4 7 7 8 8 9 6 10 3 11
REMARK H PARENT
REMARK Flexibility Score: inf
ROOT
ATOM      1  C   UNL     1      -2.687   8.754   5.596  1.00  0.00     0.042 C 
ATOM      2  C   UNL     1      -1.406   7.893   5.632  1.00  0.00     0.066 C 
ATOM      3  C   UNL     1      -0.154   8.735   5.171  1.00  0.00     0.021 C 
ATOM      4  C   UNL     1       1.088   7.811   5.177  1.00  0.00     0.009 C 
ATOM      5  C   UNL     1       0.772   6.529   4.370  1.00  0.00     0.035 C 
ATOM      6  C   UNL     1      -0.650   6.636   3.746  1.00  0.00     0.066 C 
ATOM      7  O   UNL     1      -1.614   6.746   4.794  1.00  0.00    -0.369 OA
ATOM      8  C   UNL     1      -0.716   7.909   2.854  1.00  0.00     0.035 C 
ATOM      9  C   UNL     1      -0.365   9.159   3.697  1.00  0.00     0.009 C 
ATOM     10  C   UNL     1      -0.962   5.386   2.916  1.00  0.00     0.042 C 
ATOM     11  C   UNL     1      -1.225   7.399   7.084  1.00  0.00     0.042 C 
ENDROOT
TORSDOF 0
ENDMDL
MODEL 5
REMARK VINA RESULT:    -3.935      1.338      3.006
REMARK INTER + INTRA:          -3.935
REMARK INTER:                  -3.935
REMARK INTRA:                   0.000
REMARK UNBOUND:                 0.000
REMARK SMILES CC1(C)O[C@]2(C)CC[C@H]1CC2
REMARK SMILES IDX 1 1 2 2 9 3 10 4 11 5 5 6 4 7 7 8 8 9 6 10 3 11
REMARK H PARENT
REMARK Flexibility Score: inf
ROOT
ATOM      1  C   UNL     1      -3.100   7.332   5.108  1.00  0.00     0.042 C 
ATOM      2  C   UNL     1      -1.854   8.226   4.934  1.00  0.00     0.066 C 
ATOM      3  C   UNL     1      -1.413   8.281   3.420  1.00  0.00     0.021 C 
ATOM      4  C   UNL     1      -0.134   9.146   3.313  1.00  0.00     0.009 C 
ATOM      5  C   UNL     1       0.915   8.630   4.327  1.00  0.00     0.035 C 
ATOM      6  C   UNL     1       0.372   7.363   5.049  1.00  0.00     0.066 C 
ATOM      7  O   UNL     1      -0.810   7.706   5.773  1.00  0.00    -0.369 OA
ATOM      8  C   UNL     1       0.022   6.285   3.982  1.00  0.00     0.035 C 
ATOM      9  C   UNL     1      -1.005   6.856   2.976  1.00  0.00     0.009 C 
ATOM     10  C   UNL     1       1.414   6.821   6.033  1.00  0.00     0.042 C 
ATOM     11  C   UNL     1      -2.223   9.635   5.447  1.00  0.00     0.042 C 
ENDROOT
TORSDOF 0
ENDMDL
MODEL 6
REMARK VINA RESULT:    -3.914      1.429      3.113
REMARK INTER + INTRA:          -3.914
REMARK INTER:                  -3.914
REMARK INTRA:                   0.000
REMARK UNBOUND:                 0.000
REMARK SMILES CC1(C)O[C@]2(C)CC[C@H]1CC2
REMARK SMILES IDX 1 1 2 2 9 3 10 4 11 5 5 6 4 7 7 8 8 9 6 10 3 11
REMARK H PARENT
REMARK Flexibility Score: inf
ROOT
ATOM      1  C   UNL     1       0.292   9.223   3.190  1.00  0.00     0.042 C 
ATOM      2  C   UNL     1       0.332   8.650   4.623  1.00  0.00     0.066 C 
ATOM      3  C   UNL     1       0.785   7.139   4.607  1.00  0.00     0.021 C 
ATOM      4  C   UNL     1       0.757   6.604   6.059  1.00  0.00     0.009 C 
ATOM      5  C   UNL     1      -0.621   6.915   6.690  1.00  0.00     0.035 C 
ATOM      6  C   UNL     1      -1.549   7.576   5.630  1.00  0.00     0.066 C 
ATOM      7  O   UNL     1      -0.970   8.810   5.205  1.00  0.00    -0.369 OA
ATOM      8  C   UNL     1      -1.676   6.623   4.406  1.00  0.00     0.035 C 
ATOM      9  C   UNL     1      -0.273   6.319   3.829  1.00  0.00     0.009 C 
ATOM     10  C   UNL     1      -2.929   7.858   6.233  1.00  0.00     0.042 C 
ATOM     11  C   UNL     1       1.328   9.509   5.432  1.00  0.00     0.042 C 
ENDROOT
TORSDOF 0
ENDMDL
MODEL 7
REMARK VINA RESULT:    -3.879      1.409      3.339
REMARK INTER + INTRA:          -3.879
REMARK INTER:                  -3.879
REMARK INTRA:                   0.000
REMARK UNBOUND:                 0.000
REMARK SMILES CC1(C)O[C@]2(C)CC[C@H]1CC2
REMARK SMILES IDX 1 1 2 2 9 3 10 4 11 5 5 6 4 7 7 8 8 9 6 10 3 11
REMARK H PARENT
REMARK Flexibility Score: inf
ROOT
ATOM      1  C   UNL     1      -2.191   7.827   3.454  1.00  0.00     0.042 C 
ATOM      2  C   UNL     1      -0.851   7.244   3.949  1.00  0.00     0.066 C 
ATOM      3  C   UNL     1      -0.911   6.942   5.497  1.00  0.00     0.021 C 
ATOM      4  C   UNL     1       0.471   6.410   5.946  1.00  0.00     0.009 C 
ATOM      5  C   UNL     1       1.573   7.385   5.467  1.00  0.00     0.035 C 
ATOM      6  C   UNL     1       0.921   8.618   4.776  1.00  0.00     0.066 C 
ATOM      7  O   UNL     1       0.190   8.180   3.630  1.00  0.00    -0.369 OA
ATOM      8  C   UNL     1      -0.057   9.299   5.776  1.00  0.00     0.035 C 
ATOM      9  C   UNL     1      -1.120   8.279   6.249  1.00  0.00     0.009 C 
ATOM     10  C   UNL     1       1.999   9.608   4.325  1.00  0.00     0.042 C 
ATOM     11  C   UNL     1      -0.591   5.947   3.151  1.00  0.00     0.042 C 
ENDROOT
TORSDOF 0
ENDMDL
MODEL 8
REMARK VINA RESULT:    -3.803      1.312      2.581
REMARK INTER + INTRA:          -3.803
REMARK INTER:                  -3.803
REMARK INTRA:                   0.000
REMARK UNBOUND:                 0.000
REMARK SMILES CC1(C)O[C@]2(C)CC[C@H]1CC2
REMARK SMILES IDX 1 1 2 2 9 3 10 4 11 5 5 6 4 7 7 8 8 9 6 10 3 11
REMARK H PARENT
REMARK Flexibility Score: inf
ROOT
ATOM      1  C   UNL     1       0.723   8.779   6.669  1.00  0.00     0.042 C 
ATOM      2  C   UNL     1       0.129   7.527   5.988  1.00  0.00     0.066 C 
ATOM      3  C   UNL     1       0.513   7.488   4.458  1.00  0.00     0.021 C 
ATOM      4  C   UNL     1      -0.150   6.245   3.817  1.00  0.00     0.009 C 
ATOM      5  C   UNL     1      -1.659   6.240   4.159  1.00  0.00     0.035 C 
ATOM      6  C   UNL     1      -2.024   7.528   4.951  1.00  0.00     0.066 C 
ATOM      7  O   UNL     1      -1.294   7.547   6.179  1.00  0.00    -0.369 OA
ATOM      8  C   UNL     1      -1.629   8.772   4.103  1.00  0.00     0.035 C 
ATOM      9  C   UNL     1      -0.120   8.717   3.763  1.00  0.00     0.009 C 
ATOM     10  C   UNL     1      -3.523   7.553   5.268  1.00  0.00     0.042 C 
ATOM     11  C   UNL     1       0.694   6.292   6.723  1.00  0.00     0.042 C 
ENDROOT
TORSDOF 0
ENDMDL
MODEL 9
REMARK VINA RESULT:    -3.690     16.085     17.353
REMARK INTER + INTRA:          -3.690
REMARK INTER:                  -3.690
REMARK INTRA:                   0.000
REMARK UNBOUND:                 0.000
REMARK SMILES CC1(C)O[C@]2(C)CC[C@H]1CC2
REMARK SMILES IDX 1 1 2 2 9 3 10 4 11 5 5 6 4 7 7 8 8 9 6 10 3 11
REMARK H PARENT
REMARK Flexibility Score: inf
ROOT
ATOM      1  C   UNL     1       8.017  -2.304  -8.765  1.00  0.00     0.042 C 
ATOM      2  C   UNL     1       8.818  -1.095  -8.236  1.00  0.00     0.066 C 
ATOM      3  C   UNL     1       7.963  -0.270  -7.197  1.00  0.00     0.021 C 
ATOM      4  C   UNL     1       8.793   0.955  -6.742  1.00  0.00     0.009 C 
ATOM      5  C   UNL     1       9.301   1.717  -7.989  1.00  0.00     0.035 C 
ATOM      6  C   UNL     1       8.736   1.054  -9.278  1.00  0.00     0.066 C 
ATOM      7  O   UNL     1       9.208  -0.291  -9.361  1.00  0.00    -0.369 OA
ATOM      8  C   UNL     1       7.181   1.046  -9.202  1.00  0.00     0.035 C 
ATOM      9  C   UNL     1       6.722   0.300  -7.926  1.00  0.00     0.009 C 
ATOM     10  C   UNL     1       9.205   1.819 -10.520  1.00  0.00     0.042 C 
ATOM     11  C   UNL     1      10.099  -1.645  -7.573  1.00  0.00     0.042 C 
ENDROOT
TORSDOF 0
ENDMDL
