MODEL 1
REMARK VINA RESULT:    -4.424      0.000      0.000
REMARK INTER + INTRA:          -6.565
REMARK INTER:                  -6.234
REMARK INTRA:                  -0.330
REMARK UNBOUND:                -0.330
REMARK SMILES CCCCCCCCC(=O)[O-]
REMARK SMILES IDX 6 1 7 2 8 3 9 4 10 5 11 6 5 7 4 8 3 9 2 10 1 11
REMARK H PARENT
REMARK Flexibility Score: inf
ROOT
ATOM      1  C   UNL     1     -22.937  -0.575  24.959  1.00  0.00     0.000 C 
ENDROOT
BRANCH   1   2
ATOM      2  C   UNL     1     -22.177   0.586  24.290  1.00  0.00     0.006 C 
BRANCH   2   3
ATOM      3  C   UNL     1     -23.079   1.696  23.726  1.00  0.00     0.053 C 
BRANCH   3   4
ATOM      4  C   UNL     1     -22.666   2.109  22.346  1.00  0.00     0.041 C 
ATOM      5  O   UNL     1     -21.527   1.800  21.907  1.00  0.00    -0.550 OA
ATOM      6  O   UNL     1     -23.526   2.864  21.558  1.00  0.00    -0.550 OA
ENDBRANCH   3   4
ENDBRANCH   2   3
ENDBRANCH   1   2
BRANCH   1   7
ATOM      7  C   UNL     1     -24.429  -0.600  24.589  1.00  0.00     0.000 C 
BRANCH   7   8
ATOM      8  C   UNL     1     -25.247  -1.570  25.461  1.00  0.00    -0.000 C 
BRANCH   8   9
ATOM      9  C   UNL     1     -24.416  -2.475  26.390  1.00  0.00    -0.000 C 
BRANCH   9  10
ATOM     10  C   UNL     1     -24.797  -2.328  27.869  1.00  0.00    -0.003 C 
ATOM     11  C   UNL     1     -23.746  -2.964  28.774  1.00  0.00     0.004 C 
ENDBRANCH   9  10
ENDBRANCH   8   9
ENDBRANCH   7   8
ENDBRANCH   1   7
TORSDOF 7
ENDMDL
MODEL 2
REMARK VINA RESULT:    -4.424     10.688     12.913
REMARK INTER + INTRA:          -6.565
REMARK INTER:                  -6.302
REMARK INTRA:                  -0.263
REMARK UNBOUND:                -0.330
REMARK SMILES CCCCCCCCC(=O)[O-]
REMARK SMILES IDX 6 1 7 2 8 3 9 4 10 5 11 6 5 7 4 8 3 9 2 10 1 11
REMARK H PARENT
REMARK Flexibility Score: inf
ROOT
ATOM      1  C   UNL     1     -17.030  -1.605  36.457  1.00  0.00     0.000 C 
ENDROOT
BRANCH   1   2
ATOM      2  C   UNL     1     -17.557  -0.717  37.599  1.00  0.00     0.006 C 
BRANCH   2   3
ATOM      3  C   UNL     1     -18.674   0.256  37.185  1.00  0.00     0.053 C 
BRANCH   3   4
ATOM      4  C   UNL     1     -18.203   1.678  37.163  1.00  0.00     0.041 C 
ATOM      5  O   UNL     1     -17.929   2.238  36.069  1.00  0.00    -0.550 OA
ATOM      6  O   UNL     1     -18.034   2.373  38.354  1.00  0.00    -0.550 OA
ENDBRANCH   3   4
ENDBRANCH   2   3
ENDBRANCH   1   2
BRANCH   1   7
ATOM      7  C   UNL     1     -17.547  -1.167  35.076  1.00  0.00     0.000 C 
BRANCH   7   8
ATOM      8  C   UNL     1     -16.894  -1.943  33.917  1.00  0.00    -0.000 C 
BRANCH   8   9
ATOM      9  C   UNL     1     -16.740  -1.151  32.604  1.00  0.00    -0.000 C 
BRANCH   9  10
ATOM     10  C   UNL     1     -17.504  -1.781  31.432  1.00  0.00    -0.003 C 
ATOM     11  C   UNL     1     -18.976  -1.983  31.779  1.00  0.00     0.004 C 
ENDBRANCH   9  10
ENDBRANCH   8   9
ENDBRANCH   7   8
ENDBRANCH   1   7
TORSDOF 7
ENDMDL
MODEL 3
REMARK VINA RESULT:    -4.301     11.396     13.169
REMARK INTER + INTRA:          -6.392
REMARK INTER:                  -6.036
REMARK INTRA:                  -0.355
REMARK UNBOUND:                -0.330
REMARK SMILES CCCCCCCCC(=O)[O-]
REMARK SMILES IDX 6 1 7 2 8 3 9 4 10 5 11 6 5 7 4 8 3 9 2 10 1 11
REMARK H PARENT
REMARK Flexibility Score: inf
ROOT
ATOM      1  C   UNL     1     -17.503  -0.783  36.442  1.00  0.00     0.000 C 
ENDROOT
BRANCH   1   2
ATOM      2  C   UNL     1     -18.348   0.395  35.921  1.00  0.00     0.006 C 
BRANCH   2   3
ATOM      3  C   UNL     1     -17.830   1.782  36.337  1.00  0.00     0.053 C 
BRANCH   3   4
ATOM      4  C   UNL     1     -17.961   2.012  37.812  1.00  0.00     0.041 C 
ATOM      5  O   UNL     1     -16.944   2.279  38.504  1.00  0.00    -0.550 OA
ATOM      6  O   UNL     1     -19.202   1.898  38.426  1.00  0.00    -0.550 OA
ENDBRANCH   3   4
ENDBRANCH   2   3
ENDBRANCH   1   2
BRANCH   1   7
ATOM      7  C   UNL     1     -16.911  -1.637  35.309  1.00  0.00     0.000 C 
BRANCH   7   8
ATOM      8  C   UNL     1     -17.706  -1.526  33.995  1.00  0.00    -0.000 C 
BRANCH   8   9
ATOM      9  C   UNL     1     -16.868  -1.173  32.751  1.00  0.00    -0.000 C 
BRANCH   9  10
ATOM     10  C   UNL     1     -17.008  -2.203  31.622  1.00  0.00    -0.003 C 
ATOM     11  C   UNL     1     -15.757  -3.069  31.509  1.00  0.00     0.004 C 
ENDBRANCH   9  10
ENDBRANCH   8   9
ENDBRANCH   7   8
ENDBRANCH   1   7
TORSDOF 7
ENDMDL
MODEL 4
REMARK VINA RESULT:    -4.184     10.298     12.462
REMARK INTER + INTRA:          -6.227
REMARK INTER:                  -5.597
REMARK INTRA:                  -0.629
REMARK UNBOUND:                -0.330
REMARK SMILES CCCCCCCCC(=O)[O-]
REMARK SMILES IDX 6 1 7 2 8 3 9 4 10 5 11 6 5 7 4 8 3 9 2 10 1 11
REMARK H PARENT
REMARK Flexibility Score: inf
ROOT
ATOM      1  C   UNL     1     -16.554  -2.868  34.697  1.00  0.00     0.000 C 
ENDROOT
BRANCH   1   2
ATOM      2  C   UNL     1     -16.724  -1.720  35.711  1.00  0.00     0.006 C 
BRANCH   2   3
ATOM      3  C   UNL     1     -17.722  -0.633  35.279  1.00  0.00     0.053 C 
BRANCH   3   4
ATOM      4  C   UNL     1     -17.848   0.453  36.304  1.00  0.00     0.041 C 
ATOM      5  O   UNL     1     -18.362   0.208  37.426  1.00  0.00    -0.550 OA
ATOM      6  O   UNL     1     -17.426   1.743  36.005  1.00  0.00    -0.550 OA
ENDBRANCH   3   4
ENDBRANCH   2   3
ENDBRANCH   1   2
BRANCH   1   7
ATOM      7  C   UNL     1     -15.222  -2.794  33.932  1.00  0.00     0.000 C 
BRANCH   7   8
ATOM      8  C   UNL     1     -15.369  -2.170  32.532  1.00  0.00    -0.000 C 
BRANCH   8   9
ATOM      9  C   UNL     1     -16.539  -2.715  31.692  1.00  0.00    -0.000 C 
BRANCH   9  10
ATOM     10  C   UNL     1     -17.571  -1.638  31.330  1.00  0.00    -0.003 C 
ATOM     11  C   UNL     1     -18.957  -2.007  31.851  1.00  0.00     0.004 C 
ENDBRANCH   9  10
ENDBRANCH   8   9
ENDBRANCH   7   8
ENDBRANCH   1   7
TORSDOF 7
ENDMDL
MODEL 5
REMARK VINA RESULT:    -4.176     10.181     12.348
REMARK INTER + INTRA:          -6.216
REMARK INTER:                  -5.903
REMARK INTRA:                  -0.313
REMARK UNBOUND:                -0.330
REMARK SMILES CCCCCCCCC(=O)[O-]
REMARK SMILES IDX 6 1 7 2 8 3 9 4 10 5 11 6 5 7 4 8 3 9 2 10 1 11
REMARK H PARENT
REMARK Flexibility Score: inf
ROOT
ATOM      1  C   UNL     1     -17.746  -0.750  35.135  1.00  0.00     0.000 C 
ENDROOT
BRANCH   1   2
ATOM      2  C   UNL     1     -17.563  -1.751  33.979  1.00  0.00     0.006 C 
BRANCH   2   3
ATOM      3  C   UNL     1     -16.774  -1.200  32.780  1.00  0.00     0.053 C 
BRANCH   3   4
ATOM      4  C   UNL     1     -16.999  -2.010  31.539  1.00  0.00     0.041 C 
ATOM      5  O   UNL     1     -18.021  -1.812  30.830  1.00  0.00    -0.550 OA
ATOM      6  O   UNL     1     -16.097  -3.005  31.184  1.00  0.00    -0.550 OA
ENDBRANCH   3   4
ENDBRANCH   2   3
ENDBRANCH   1   2
BRANCH   1   7
ATOM      7  C   UNL     1     -17.205  -1.280  36.473  1.00  0.00     0.000 C 
BRANCH   7   8
ATOM      8  C   UNL     1     -17.711  -0.478  37.686  1.00  0.00    -0.000 C 
BRANCH   8   9
ATOM      9  C   UNL     1     -18.946   0.404  37.418  1.00  0.00    -0.000 C 
BRANCH   9  10
ATOM     10  C   UNL     1     -18.870   1.770  38.113  1.00  0.00    -0.003 C 
ATOM     11  C   UNL     1     -17.422   2.225  38.275  1.00  0.00     0.004 C 
ENDBRANCH   9  10
ENDBRANCH   8   9
ENDBRANCH   7   8
ENDBRANCH   1   7
TORSDOF 7
ENDMDL
MODEL 6
REMARK VINA RESULT:    -4.166     10.882     12.218
REMARK INTER + INTRA:          -6.201
REMARK INTER:                  -5.742
REMARK INTRA:                  -0.459
REMARK UNBOUND:                -0.330
REMARK SMILES CCCCCCCCC(=O)[O-]
REMARK SMILES IDX 6 1 7 2 8 3 9 4 10 5 11 6 5 7 4 8 3 9 2 10 1 11
REMARK H PARENT
REMARK Flexibility Score: inf
ROOT
ATOM      1  C   UNL     1     -19.686   9.816  32.421  1.00  0.00     0.000 C 
ENDROOT
BRANCH   1   2
ATOM      2  C   UNL     1     -20.218  10.118  31.008  1.00  0.00     0.006 C 
BRANCH   2   3
ATOM      3  C   UNL     1     -21.674   9.684  30.771  1.00  0.00     0.053 C 
BRANCH   3   4
ATOM      4  C   UNL     1     -21.938   9.363  29.331  1.00  0.00     0.041 C 
ATOM      5  O   UNL     1     -21.041   9.546  28.467  1.00  0.00    -0.550 OA
ATOM      6  O   UNL     1     -23.186   8.892  28.941  1.00  0.00    -0.550 OA
ENDBRANCH   3   4
ENDBRANCH   2   3
ENDBRANCH   1   2
BRANCH   1   7
ATOM      7  C   UNL     1     -18.154   9.677  32.462  1.00  0.00     0.000 C 
BRANCH   7   8
ATOM      8  C   UNL     1     -17.519   9.624  31.061  1.00  0.00    -0.000 C 
BRANCH   8   9
ATOM      9  C   UNL     1     -17.060   8.226  30.603  1.00  0.00    -0.000 C 
BRANCH   9  10
ATOM     10  C   UNL     1     -17.946   7.638  29.496  1.00  0.00    -0.003 C 
ATOM     11  C   UNL     1     -17.291   7.791  28.127  1.00  0.00     0.004 C 
ENDBRANCH   9  10
ENDBRANCH   8   9
ENDBRANCH   7   8
ENDBRANCH   1   7
TORSDOF 7
ENDMDL
MODEL 7
REMARK VINA RESULT:    -4.040      3.478      6.086
REMARK INTER + INTRA:          -6.024
REMARK INTER:                  -5.612
REMARK INTRA:                  -0.412
REMARK UNBOUND:                -0.330
REMARK SMILES CCCCCCCCC(=O)[O-]
REMARK SMILES IDX 6 1 7 2 8 3 9 4 10 5 11 6 5 7 4 8 3 9 2 10 1 11
REMARK H PARENT
REMARK Flexibility Score: inf
ROOT
ATOM      1  C   UNL     1     -24.200  -0.876  23.874  1.00  0.00     0.000 C 
ENDROOT
BRANCH   1   2
ATOM      2  C   UNL     1     -24.792  -2.211  24.363  1.00  0.00     0.006 C 
BRANCH   2   3
ATOM      3  C   UNL     1     -26.014  -2.065  25.285  1.00  0.00     0.053 C 
BRANCH   3   4
ATOM      4  C   UNL     1     -25.640  -2.158  26.733  1.00  0.00     0.041 C 
ATOM      5  O   UNL     1     -26.432  -1.745  27.620  1.00  0.00    -0.550 OA
ATOM      6  O   UNL     1     -24.402  -2.671  27.100  1.00  0.00    -0.550 OA
ENDBRANCH   3   4
ENDBRANCH   2   3
ENDBRANCH   1   2
BRANCH   1   7
ATOM      7  C   UNL     1     -23.016  -0.400  24.732  1.00  0.00     0.000 C 
BRANCH   7   8
ATOM      8  C   UNL     1     -22.398   0.916  24.225  1.00  0.00    -0.000 C 
BRANCH   8   9
ATOM      9  C   UNL     1     -21.480   0.777  22.996  1.00  0.00    -0.000 C 
BRANCH   9  10
ATOM     10  C   UNL     1     -21.660   1.914  21.981  1.00  0.00    -0.003 C 
ATOM     11  C   UNL     1     -23.117   2.360  21.907  1.00  0.00     0.004 C 
ENDBRANCH   9  10
ENDBRANCH   8   9
ENDBRANCH   7   8
ENDBRANCH   1   7
TORSDOF 7
ENDMDL
MODEL 8
REMARK VINA RESULT:    -4.039     10.430     11.724
REMARK INTER + INTRA:          -6.023
REMARK INTER:                  -5.702
REMARK INTRA:                  -0.321
REMARK UNBOUND:                -0.330
REMARK SMILES CCCCCCCCC(=O)[O-]
REMARK SMILES IDX 6 1 7 2 8 3 9 4 10 5 11 6 5 7 4 8 3 9 2 10 1 11
REMARK H PARENT
REMARK Flexibility Score: inf
ROOT
ATOM      1  C   UNL     1     -21.028   9.782  28.919  1.00  0.00     0.000 C 
ENDROOT
BRANCH   1   2
ATOM      2  C   UNL     1     -22.183   9.374  29.853  1.00  0.00     0.006 C 
BRANCH   2   3
ATOM      3  C   UNL     1     -23.418   8.811  29.130  1.00  0.00     0.053 C 
BRANCH   3   4
ATOM      4  C   UNL     1     -24.622   8.773  30.019  1.00  0.00     0.041 C 
ATOM      5  O   UNL     1     -25.436   7.815  29.944  1.00  0.00    -0.550 OA
ATOM      6  O   UNL     1     -24.864   9.813  30.909  1.00  0.00    -0.550 OA
ENDBRANCH   3   4
ENDBRANCH   2   3
ENDBRANCH   1   2
BRANCH   1   7
ATOM      7  C   UNL     1     -19.694   9.955  29.664  1.00  0.00     0.000 C 
BRANCH   7   8
ATOM      8  C   UNL     1     -19.058   8.614  30.075  1.00  0.00    -0.000 C 
BRANCH   8   9
ATOM      9  C   UNL     1     -17.559   8.473  29.748  1.00  0.00    -0.000 C 
BRANCH   9  10
ATOM     10  C   UNL     1     -17.226   8.833  28.293  1.00  0.00    -0.003 C 
ATOM     11  C   UNL     1     -17.575   7.686  27.350  1.00  0.00     0.004 C 
ENDBRANCH   9  10
ENDBRANCH   8   9
ENDBRANCH   7   8
ENDBRANCH   1   7
TORSDOF 7
ENDMDL
MODEL 9
REMARK VINA RESULT:    -3.906     10.834     12.679
REMARK INTER + INTRA:          -5.834
REMARK INTER:                  -5.185
REMARK INTRA:                  -0.649
REMARK UNBOUND:                -0.330
REMARK SMILES CCCCCCCCC(=O)[O-]
REMARK SMILES IDX 6 1 7 2 8 3 9 4 10 5 11 6 5 7 4 8 3 9 2 10 1 11
REMARK H PARENT
REMARK Flexibility Score: inf
ROOT
ATOM      1  C   UNL     1     -16.757  -1.143  32.836  1.00  0.00     0.000 C 
ENDROOT
BRANCH   1   2
ATOM      2  C   UNL     1     -17.735  -1.500  33.971  1.00  0.00     0.006 C 
BRANCH   2   3
ATOM      3  C   UNL     1     -17.076  -1.665  35.351  1.00  0.00     0.053 C 
BRANCH   3   4
ATOM      4  C   UNL     1     -17.500  -0.592  36.308  1.00  0.00     0.041 C 
ATOM      5  O   UNL     1     -17.791  -0.884  37.498  1.00  0.00    -0.550 OA
ATOM      6  O   UNL     1     -17.604   0.724  35.876  1.00  0.00    -0.550 OA
ENDBRANCH   3   4
ENDBRANCH   2   3
ENDBRANCH   1   2
BRANCH   1   7
ATOM      7  C   UNL     1     -16.997  -1.971  31.562  1.00  0.00     0.000 C 
BRANCH   7   8
ATOM      8  C   UNL     1     -15.965  -3.098  31.375  1.00  0.00    -0.000 C 
BRANCH   8   9
ATOM      9  C   UNL     1     -14.603  -2.856  32.052  1.00  0.00    -0.000 C 
BRANCH   9  10
ATOM     10  C   UNL     1     -14.305  -3.860  33.175  1.00  0.00    -0.003 C 
ATOM     11  C   UNL     1     -13.767  -3.153  34.416  1.00  0.00     0.004 C 
ENDBRANCH   9  10
ENDBRANCH   8   9
ENDBRANCH   7   8
ENDBRANCH   1   7
TORSDOF 7
ENDMDL
