MODEL 1
REMARK VINA RESULT:    -4.457      0.000      0.000
REMARK INTER + INTRA:          -5.785
REMARK INTER:                  -5.500
REMARK INTRA:                  -0.285
REMARK UNBOUND:                -0.285
REMARK SMILES C=CCc1ccc(OC)c(OC)c1
REMARK SMILES IDX 7 1 10 2 13 3 4 4 5 5 6 6 8 7 9 8 11 9 12 10 3 11 2 12 1 13
REMARK H PARENT
REMARK Flexibility Score: inf
ROOT
ATOM      1  C   UNL     1      -0.173 -30.723 -13.930  1.00  0.00     0.160 A 
ATOM      2  C   UNL     1      -0.633 -31.007 -15.225  1.00  0.00     0.160 A 
ATOM      3  C   UNL     1      -0.765 -32.347 -15.640  1.00  0.00     0.054 A 
ATOM      4  C   UNL     1      -0.450 -33.400 -14.766  1.00  0.00    -0.040 A 
ATOM      5  C   UNL     1       0.017 -33.107 -13.478  1.00  0.00     0.008 A 
ATOM      6  C   UNL     1       0.152 -31.783 -13.060  1.00  0.00     0.051 A 
ENDROOT
BRANCH   1   7
ATOM      7  O   UNL     1      -0.052 -29.379 -13.544  1.00  0.00    -0.493 OA
ATOM      8  C   UNL     1       0.032 -28.932 -12.195  1.00  0.00     0.278 C 
ENDBRANCH   1   7
BRANCH   2   9
ATOM      9  O   UNL     1      -0.943 -29.932 -16.072  1.00  0.00    -0.493 OA
ATOM     10  C   UNL     1      -0.185 -29.562 -17.219  1.00  0.00     0.278 C 
ENDBRANCH   2   9
BRANCH   4  11
ATOM     11  C   UNL     1      -0.568 -34.828 -15.228  1.00  0.00     0.062 C 
BRANCH  11  12
ATOM     12  C   UNL     1      -0.128 -35.775 -14.146  1.00  0.00    -0.030 C 
ATOM     13  C   UNL     1       0.681 -36.808 -14.402  1.00  0.00     0.004 C 
ENDBRANCH  11  12
ENDBRANCH   4  11
TORSDOF 4
ENDMDL
MODEL 2
REMARK VINA RESULT:    -4.331      1.176      2.987
REMARK INTER + INTRA:          -5.629
REMARK INTER:                  -5.294
REMARK INTRA:                  -0.336
REMARK UNBOUND:                -0.285
REMARK SMILES C=CCc1ccc(OC)c(OC)c1
REMARK SMILES IDX 7 1 10 2 13 3 4 4 5 5 6 6 8 7 9 8 11 9 12 10 3 11 2 12 1 13
REMARK H PARENT
REMARK Flexibility Score: inf
ROOT
ATOM      1  C   UNL     1      -0.624 -31.536 -15.347  1.00  0.00     0.160 A 
ATOM      2  C   UNL     1      -0.132 -31.373 -14.043  1.00  0.00     0.160 A 
ATOM      3  C   UNL     1       0.150 -32.508 -13.258  1.00  0.00     0.054 A 
ATOM      4  C   UNL     1      -0.048 -33.799 -13.770  1.00  0.00    -0.040 A 
ATOM      5  C   UNL     1      -0.548 -33.953 -15.070  1.00  0.00     0.008 A 
ATOM      6  C   UNL     1      -0.831 -32.834 -15.855  1.00  0.00     0.051 A 
ENDROOT
BRANCH   1   7
ATOM      7  O   UNL     1      -0.895 -30.387 -16.107  1.00  0.00    -0.493 OA
ATOM      8  C   UNL     1      -0.030 -29.860 -17.108  1.00  0.00     0.278 C 
ENDBRANCH   1   7
BRANCH   2   9
ATOM      9  O   UNL     1       0.059 -30.068 -13.562  1.00  0.00    -0.493 OA
ATOM     10  C   UNL     1      -0.224 -29.649 -12.231  1.00  0.00     0.278 C 
ENDBRANCH   2   9
BRANCH   4  11
ATOM     11  C   UNL     1       0.230 -35.006 -12.913  1.00  0.00     0.062 C 
BRANCH  11  12
ATOM     12  C   UNL     1      -1.026 -35.803 -12.693  1.00  0.00    -0.030 C 
ATOM     13  C   UNL     1      -1.923 -35.459 -11.765  1.00  0.00     0.004 C 
ENDBRANCH  11  12
ENDBRANCH   4  11
TORSDOF 4
ENDMDL
MODEL 3
REMARK VINA RESULT:    -4.051      2.816      4.526
REMARK INTER + INTRA:          -5.283
REMARK INTER:                  -5.137
REMARK INTRA:                  -0.146
REMARK UNBOUND:                -0.285
REMARK SMILES C=CCc1ccc(OC)c(OC)c1
REMARK SMILES IDX 7 1 10 2 13 3 4 4 5 5 6 6 8 7 9 8 11 9 12 10 3 11 2 12 1 13
REMARK H PARENT
REMARK Flexibility Score: inf
ROOT
ATOM      1  C   UNL     1       0.381 -29.808 -11.808  1.00  0.00     0.160 A 
ATOM      2  C   UNL     1       0.357 -31.187 -12.065  1.00  0.00     0.160 A 
ATOM      3  C   UNL     1       0.044 -31.650 -13.358  1.00  0.00     0.054 A 
ATOM      4  C   UNL     1      -0.238 -30.744 -14.392  1.00  0.00    -0.040 A 
ATOM      5  C   UNL     1      -0.221 -29.368 -14.125  1.00  0.00     0.008 A 
ATOM      6  C   UNL     1       0.088 -28.902 -12.846  1.00  0.00     0.051 A 
ENDROOT
BRANCH   1   7
ATOM      7  O   UNL     1       0.698 -29.376 -10.510  1.00  0.00    -0.493 OA
ATOM      8  C   UNL     1      -0.258 -28.947  -9.547  1.00  0.00     0.278 C 
ENDBRANCH   1   7
BRANCH   2   9
ATOM      9  O   UNL     1       0.647 -32.067 -11.010  1.00  0.00    -0.493 OA
ATOM     10  C   UNL     1       1.029 -33.428 -11.175  1.00  0.00     0.278 C 
ENDBRANCH   2   9
BRANCH   4  11
ATOM     11  C   UNL     1      -0.600 -31.249 -15.764  1.00  0.00     0.062 C 
BRANCH  11  12
ATOM     12  C   UNL     1       0.243 -30.583 -16.816  1.00  0.00    -0.030 C 
ATOM     13  C   UNL     1      -0.203 -29.534 -17.513  1.00  0.00     0.004 C 
ENDBRANCH  11  12
ENDBRANCH   4  11
TORSDOF 4
ENDMDL
MODEL 4
REMARK VINA RESULT:    -4.046     16.461     18.667
REMARK INTER + INTRA:          -5.277
REMARK INTER:                  -5.012
REMARK INTRA:                  -0.265
REMARK UNBOUND:                -0.285
REMARK SMILES C=CCc1ccc(OC)c(OC)c1
REMARK SMILES IDX 7 1 10 2 13 3 4 4 5 5 6 6 8 7 9 8 11 9 12 10 3 11 2 12 1 13
REMARK H PARENT
REMARK Flexibility Score: inf
ROOT
ATOM      1  C   UNL     1       6.956 -47.614 -22.283  1.00  0.00     0.160 A 
ATOM      2  C   UNL     1       8.312 -47.296 -22.114  1.00  0.00     0.160 A 
ATOM      3  C   UNL     1       8.793 -46.949 -20.837  1.00  0.00     0.054 A 
ATOM      4  C   UNL     1       7.929 -46.925 -19.730  1.00  0.00    -0.040 A 
ATOM      5  C   UNL     1       6.575 -47.236 -19.909  1.00  0.00     0.008 A 
ATOM      6  C   UNL     1       6.090 -47.580 -21.171  1.00  0.00     0.051 A 
ENDROOT
BRANCH   1   7
ATOM      7  O   UNL     1       6.505 -47.958 -23.567  1.00  0.00    -0.493 OA
ATOM      8  C   UNL     1       5.181 -47.740 -24.042  1.00  0.00     0.278 C 
ENDBRANCH   1   7
BRANCH   2   9
ATOM      9  O   UNL     1       9.150 -47.333 -23.241  1.00  0.00    -0.493 OA
ATOM     10  C   UNL     1      10.150 -48.320 -23.471  1.00  0.00     0.278 C 
ENDBRANCH   2   9
BRANCH   4  11
ATOM     11  C   UNL     1       8.447 -46.525 -18.374  1.00  0.00     0.062 C 
BRANCH  11  12
ATOM     12  C   UNL     1       7.338 -45.970 -17.524  1.00  0.00    -0.030 C 
ATOM     13  C   UNL     1       7.577 -45.409 -16.335  1.00  0.00     0.004 C 
ENDBRANCH  11  12
ENDBRANCH   4  11
TORSDOF 4
ENDMDL
MODEL 5
REMARK VINA RESULT:    -3.969     14.270     17.188
REMARK INTER + INTRA:          -5.183
REMARK INTER:                  -4.925
REMARK INTRA:                  -0.257
REMARK UNBOUND:                -0.285
REMARK SMILES C=CCc1ccc(OC)c(OC)c1
REMARK SMILES IDX 7 1 10 2 13 3 4 4 5 5 6 6 8 7 9 8 11 9 12 10 3 11 2 12 1 13
REMARK H PARENT
REMARK Flexibility Score: inf
ROOT
ATOM      1  C   UNL     1       8.027 -45.197 -18.658  1.00  0.00     0.160 A 
ATOM      2  C   UNL     1       8.094 -44.418 -19.823  1.00  0.00     0.160 A 
ATOM      3  C   UNL     1       8.453 -45.021 -21.045  1.00  0.00     0.054 A 
ATOM      4  C   UNL     1       8.736 -46.394 -21.108  1.00  0.00    -0.040 A 
ATOM      5  C   UNL     1       8.676 -47.163 -19.939  1.00  0.00     0.008 A 
ATOM      6  C   UNL     1       8.322 -46.574 -18.724  1.00  0.00     0.051 A 
ENDROOT
BRANCH   1   7
ATOM      7  O   UNL     1       7.665 -44.570 -17.455  1.00  0.00    -0.493 OA
ATOM      8  C   UNL     1       7.259 -45.259 -16.277  1.00  0.00     0.278 C 
ENDBRANCH   1   7
BRANCH   2   9
ATOM      9  O   UNL     1       7.800 -43.049 -19.726  1.00  0.00    -0.493 OA
ATOM     10  C   UNL     1       6.831 -42.372 -20.520  1.00  0.00     0.278 C 
ENDBRANCH   2   9
BRANCH   4  11
ATOM     11  C   UNL     1       9.147 -47.023 -22.414  1.00  0.00     0.062 C 
BRANCH  11  12
ATOM     12  C   UNL     1      10.234 -48.038 -22.196  1.00  0.00    -0.030 C 
ATOM     13  C   UNL     1      11.024 -48.447 -23.194  1.00  0.00     0.004 C 
ENDBRANCH  11  12
ENDBRANCH   4  11
TORSDOF 4
ENDMDL
MODEL 6
REMARK VINA RESULT:    -3.960     11.053     11.878
REMARK INTER + INTRA:          -5.171
REMARK INTER:                  -4.814
REMARK INTRA:                  -0.358
REMARK UNBOUND:                -0.285
REMARK SMILES C=CCc1ccc(OC)c(OC)c1
REMARK SMILES IDX 7 1 10 2 13 3 4 4 5 5 6 6 8 7 9 8 11 9 12 10 3 11 2 12 1 13
REMARK H PARENT
REMARK Flexibility Score: inf
ROOT
ATOM      1  C   UNL     1      10.293 -30.652 -13.787  1.00  0.00     0.160 A 
ATOM      2  C   UNL     1      11.509 -30.270 -14.373  1.00  0.00     0.160 A 
ATOM      3  C   UNL     1      11.538 -29.880 -15.726  1.00  0.00     0.054 A 
ATOM      4  C   UNL     1      10.361 -29.862 -16.490  1.00  0.00    -0.040 A 
ATOM      5  C   UNL     1       9.152 -30.254 -15.899  1.00  0.00     0.008 A 
ATOM      6  C   UNL     1       9.115 -30.642 -14.559  1.00  0.00     0.051 A 
ENDROOT
BRANCH   1   7
ATOM      7  O   UNL     1      10.294 -31.034 -12.436  1.00  0.00    -0.493 OA
ATOM      8  C   UNL     1      10.261 -32.383 -11.980  1.00  0.00     0.278 C 
ENDBRANCH   1   7
BRANCH   2   9
ATOM      9  O   UNL     1      12.668 -30.295 -13.580  1.00  0.00    -0.493 OA
ATOM     10  C   UNL     1      13.616 -31.358 -13.570  1.00  0.00     0.278 C 
ENDBRANCH   2   9
BRANCH   4  11
ATOM     11  C   UNL     1      10.407 -29.471 -17.944  1.00  0.00     0.062 C 
BRANCH  11  12
ATOM     12  C   UNL     1      10.285 -30.683 -18.825  1.00  0.00    -0.030 C 
ATOM     13  C   UNL     1      11.350 -31.411 -19.170  1.00  0.00     0.004 C 
ENDBRANCH  11  12
ENDBRANCH   4  11
TORSDOF 4
ENDMDL
MODEL 7
REMARK VINA RESULT:    -3.960     15.571     18.494
REMARK INTER + INTRA:          -5.171
REMARK INTER:                  -4.952
REMARK INTRA:                  -0.219
REMARK UNBOUND:                -0.285
REMARK SMILES C=CCc1ccc(OC)c(OC)c1
REMARK SMILES IDX 7 1 10 2 13 3 4 4 5 5 6 6 8 7 9 8 11 9 12 10 3 11 2 12 1 13
REMARK H PARENT
REMARK Flexibility Score: inf
ROOT
ATOM      1  C   UNL     1       8.910 -47.418 -21.963  1.00  0.00     0.160 A 
ATOM      2  C   UNL     1       7.616 -47.012 -21.604  1.00  0.00     0.160 A 
ATOM      3  C   UNL     1       7.319 -46.747 -20.253  1.00  0.00     0.054 A 
ATOM      4  C   UNL     1       8.306 -46.878 -19.265  1.00  0.00    -0.040 A 
ATOM      5  C   UNL     1       9.594 -47.293 -19.631  1.00  0.00     0.008 A 
ATOM      6  C   UNL     1       9.897 -47.558 -20.967  1.00  0.00     0.051 A 
ENDROOT
BRANCH   1   7
ATOM      7  O   UNL     1       9.178 -47.673 -23.318  1.00  0.00    -0.493 OA
ATOM      8  C   UNL     1      10.402 -48.208 -23.810  1.00  0.00     0.278 C 
ENDBRANCH   1   7
BRANCH   2   9
ATOM      9  O   UNL     1       6.652 -46.886 -22.617  1.00  0.00    -0.493 OA
ATOM     10  C   UNL     1       5.325 -46.412 -22.415  1.00  0.00     0.278 C 
ENDBRANCH   2   9
BRANCH   4  11
ATOM     11  C   UNL     1       7.971 -46.620 -17.820  1.00  0.00     0.062 C 
BRANCH  11  12
ATOM     12  C   UNL     1       7.664 -45.166 -17.596  1.00  0.00    -0.030 C 
ATOM     13  C   UNL     1       7.028 -44.742 -16.500  1.00  0.00     0.004 C 
ENDBRANCH  11  12
ENDBRANCH   4  11
TORSDOF 4
ENDMDL
MODEL 8
REMARK VINA RESULT:    -3.930     12.020     12.864
REMARK INTER + INTRA:          -5.134
REMARK INTER:                  -4.831
REMARK INTRA:                  -0.303
REMARK UNBOUND:                -0.285
REMARK SMILES C=CCc1ccc(OC)c(OC)c1
REMARK SMILES IDX 7 1 10 2 13 3 4 4 5 5 6 6 8 7 9 8 11 9 12 10 3 11 2 12 1 13
REMARK H PARENT
REMARK Flexibility Score: inf
ROOT
ATOM      1  C   UNL     1      12.283 -29.721 -18.191  1.00  0.00     0.160 A 
ATOM      2  C   UNL     1      12.519 -30.279 -16.925  1.00  0.00     0.160 A 
ATOM      3  C   UNL     1      11.442 -30.480 -16.040  1.00  0.00     0.054 A 
ATOM      4  C   UNL     1      10.134 -30.135 -16.416  1.00  0.00    -0.040 A 
ATOM      5  C   UNL     1       9.909 -29.570 -17.679  1.00  0.00     0.008 A 
ATOM      6  C   UNL     1      10.971 -29.367 -18.561  1.00  0.00     0.051 A 
ENDROOT
BRANCH   1   7
ATOM      7  O   UNL     1      13.376 -29.534 -19.052  1.00  0.00    -0.493 OA
ATOM      8  C   UNL     1      13.686 -30.377 -20.157  1.00  0.00     0.278 C 
ENDBRANCH   1   7
BRANCH   2   9
ATOM      9  O   UNL     1      13.838 -30.616 -16.581  1.00  0.00    -0.493 OA
ATOM     10  C   UNL     1      14.350 -31.944 -16.554  1.00  0.00     0.278 C 
ENDBRANCH   2   9
BRANCH   4  11
ATOM     11  C   UNL     1       8.993 -30.327 -15.453  1.00  0.00     0.062 C 
BRANCH  11  12
ATOM     12  C   UNL     1       9.453 -30.123 -14.036  1.00  0.00    -0.030 C 
ATOM     13  C   UNL     1       9.081 -30.945 -13.051  1.00  0.00     0.004 C 
ENDBRANCH  11  12
ENDBRANCH   4  11
TORSDOF 4
ENDMDL
MODEL 9
REMARK VINA RESULT:    -3.868     12.155     13.038
REMARK INTER + INTRA:          -5.058
REMARK INTER:                  -4.737
REMARK INTRA:                  -0.321
REMARK UNBOUND:                -0.285
REMARK SMILES C=CCc1ccc(OC)c(OC)c1
REMARK SMILES IDX 7 1 10 2 13 3 4 4 5 5 6 6 8 7 9 8 11 9 12 10 3 11 2 12 1 13
REMARK H PARENT
REMARK Flexibility Score: inf
ROOT
ATOM      1  C   UNL     1      13.088 -31.117 -14.143  1.00  0.00     0.160 A 
ATOM      2  C   UNL     1      11.738 -30.742 -14.074  1.00  0.00     0.160 A 
ATOM      3  C   UNL     1      11.161 -30.018 -15.136  1.00  0.00     0.054 A 
ATOM      4  C   UNL     1      11.923 -29.675 -16.263  1.00  0.00    -0.040 A 
ATOM      5  C   UNL     1      13.273 -30.045 -16.320  1.00  0.00     0.008 A 
ATOM      6  C   UNL     1      13.852 -30.762 -15.272  1.00  0.00     0.051 A 
ENDROOT
BRANCH   1   7
ATOM      7  O   UNL     1      13.635 -31.840 -13.071  1.00  0.00    -0.493 OA
ATOM      8  C   UNL     1      13.970 -33.223 -13.119  1.00  0.00     0.278 C 
ENDBRANCH   1   7
BRANCH   2   9
ATOM      9  O   UNL     1      11.003 -31.105 -12.934  1.00  0.00    -0.493 OA
ATOM     10  C   UNL     1       9.581 -31.124 -12.863  1.00  0.00     0.278 C 
ENDBRANCH   2   9
BRANCH   4  11
ATOM     11  C   UNL     1      11.305 -28.875 -17.380  1.00  0.00     0.062 C 
BRANCH  11  12
ATOM     12  C   UNL     1      10.278 -29.692 -18.115  1.00  0.00    -0.030 C 
ATOM     13  C   UNL     1      10.622 -30.744 -18.863  1.00  0.00     0.004 C 
ENDBRANCH  11  12
ENDBRANCH   4  11
TORSDOF 4
ENDMDL
