MODEL 1
REMARK VINA RESULT:    -3.131      0.000      0.000
REMARK INTER + INTRA:         -10.773
REMARK INTER:                  -7.158
REMARK INTRA:                  -3.616
REMARK UNBOUND:                -3.616
REMARK SMILES CCCCCCCCCCCCCCCCCCCCCCCC(=O)[O-]
REMARK SMILES IDX 13 1 14 2 15 3 16 4 17 5 18 6 19 7 20 8 21 9 22 10 23 11
REMARK SMILES IDX 24 12 25 13 26 14 12 15 11 16 10 17 9 18 8 19 7 20 6 21 5 22
REMARK SMILES IDX 4 23 3 24 2 25 1 26
REMARK H PARENT
REMARK Flexibility Score: inf
ROOT
ATOM      1  C   UNL     1    -114.634  40.899  -8.124  1.00  0.00     0.000 C 
ENDROOT
BRANCH   1   2
ATOM      2  C   UNL     1    -114.468  42.102  -9.068  1.00  0.00     0.000 C 
BRANCH   2   3
ATOM      3  C   UNL     1    -113.005  42.332  -9.484  1.00  0.00     0.000 C 
BRANCH   3   4
ATOM      4  C   UNL     1    -112.679  41.741 -10.867  1.00  0.00     0.000 C 
BRANCH   4   5
ATOM      5  C   UNL     1    -113.891  41.767 -11.813  1.00  0.00     0.000 C 
BRANCH   5   6
ATOM      6  C   UNL     1    -114.181  40.392 -12.440  1.00  0.00     0.000 C 
BRANCH   6   7
ATOM      7  C   UNL     1    -112.983  39.430 -12.346  1.00  0.00     0.000 C 
BRANCH   7   8
ATOM      8  C   UNL     1    -112.596  38.744 -13.669  1.00  0.00     0.000 C 
BRANCH   8   9
ATOM      9  C   UNL     1    -111.085  38.778 -13.942  1.00  0.00     0.000 C 
BRANCH   9  10
ATOM     10  C   UNL     1    -110.413  39.932 -13.183  1.00  0.00     0.006 C 
BRANCH  10  11
ATOM     11  C   UNL     1    -109.978  41.068 -14.118  1.00  0.00     0.053 C 
BRANCH  11  12
ATOM     12  C   UNL     1    -111.016  42.147 -14.203  1.00  0.00     0.041 C 
ATOM     13  O   UNL     1    -110.906  43.190 -13.504  1.00  0.00    -0.550 OA
ATOM     14  O   UNL     1    -112.124  41.982 -15.025  1.00  0.00    -0.550 OA
ENDBRANCH  11  12
ENDBRANCH  10  11
ENDBRANCH   9  10
ENDBRANCH   8   9
ENDBRANCH   7   8
ENDBRANCH   6   7
ENDBRANCH   5   6
ENDBRANCH   4   5
ENDBRANCH   3   4
ENDBRANCH   2   3
ENDBRANCH   1   2
BRANCH   1  15
ATOM     15  C   UNL     1    -115.599  39.832  -8.674  1.00  0.00     0.000 C 
BRANCH  15  16
ATOM     16  C   UNL     1    -114.929  38.662  -9.420  1.00  0.00     0.000 C 
BRANCH  16  17
ATOM     17  C   UNL     1    -114.874  37.371  -8.585  1.00  0.00     0.000 C 
BRANCH  17  18
ATOM     18  C   UNL     1    -116.272  36.853  -8.210  1.00  0.00    -0.000 C 
BRANCH  18  19
ATOM     19  C   UNL     1    -116.216  35.623  -7.288  1.00  0.00    -0.000 C 
BRANCH  19  20
ATOM     20  C   UNL     1    -114.982  34.736  -7.542  1.00  0.00    -0.000 C 
BRANCH  20  21
ATOM     21  C   UNL     1    -115.063  33.842  -8.794  1.00  0.00    -0.000 C 
BRANCH  21  22
ATOM     22  C   UNL     1    -116.500  33.426  -9.147  1.00  0.00    -0.000 C 
BRANCH  22  23
ATOM     23  C   UNL     1    -116.925  33.879 -10.555  1.00  0.00    -0.000 C 
BRANCH  23  24
ATOM     24  C   UNL     1    -115.796  34.564 -11.354  1.00  0.00    -0.000 C 
BRANCH  24  25
ATOM     25  C   UNL     1    -116.188  35.977 -11.815  1.00  0.00    -0.003 C 
ATOM     26  C   UNL     1    -115.257  36.478 -12.914  1.00  0.00     0.004 C 
ENDBRANCH  24  25
ENDBRANCH  23  24
ENDBRANCH  22  23
ENDBRANCH  21  22
ENDBRANCH  20  21
ENDBRANCH  19  20
ENDBRANCH  18  19
ENDBRANCH  17  18
ENDBRANCH  16  17
ENDBRANCH  15  16
ENDBRANCH   1  15
TORSDOF 22
ENDMDL
MODEL 2
REMARK VINA RESULT:    -3.118      1.751      6.149
REMARK INTER + INTRA:         -10.744
REMARK INTER:                  -7.183
REMARK INTRA:                  -3.561
REMARK UNBOUND:                -3.616
REMARK SMILES CCCCCCCCCCCCCCCCCCCCCCCC(=O)[O-]
REMARK SMILES IDX 13 1 14 2 15 3 16 4 17 5 18 6 19 7 20 8 21 9 22 10 23 11
REMARK SMILES IDX 24 12 25 13 26 14 12 15 11 16 10 17 9 18 8 19 7 20 6 21 5 22
REMARK SMILES IDX 4 23 3 24 2 25 1 26
REMARK H PARENT
REMARK Flexibility Score: inf
ROOT
ATOM      1  C   UNL     1    -114.874  33.853  -8.663  1.00  0.00     0.000 C 
ENDROOT
BRANCH   1   2
ATOM      2  C   UNL     1    -115.162  34.763  -7.457  1.00  0.00     0.000 C 
BRANCH   2   3
ATOM      3  C   UNL     1    -116.599  35.311  -7.458  1.00  0.00     0.000 C 
BRANCH   3   4
ATOM      4  C   UNL     1    -116.654  36.838  -7.277  1.00  0.00     0.000 C 
BRANCH   4   5
ATOM      5  C   UNL     1    -116.576  37.588  -8.618  1.00  0.00     0.000 C 
BRANCH   5   6
ATOM      6  C   UNL     1    -115.149  38.059  -8.949  1.00  0.00     0.000 C 
BRANCH   6   7
ATOM      7  C   UNL     1    -115.126  39.371  -9.755  1.00  0.00     0.000 C 
BRANCH   7   8
ATOM      8  C   UNL     1    -114.040  39.445 -10.843  1.00  0.00     0.000 C 
BRANCH   8   9
ATOM      9  C   UNL     1    -114.385  40.432 -11.968  1.00  0.00     0.000 C 
BRANCH   9  10
ATOM     10  C   UNL     1    -114.019  41.870 -11.571  1.00  0.00     0.006 C 
BRANCH  10  11
ATOM     11  C   UNL     1    -112.676  41.946 -10.832  1.00  0.00     0.053 C 
BRANCH  11  12
ATOM     12  C   UNL     1    -112.799  42.682  -9.532  1.00  0.00     0.041 C 
ATOM     13  O   UNL     1    -113.686  42.356  -8.699  1.00  0.00    -0.550 OA
ATOM     14  O   UNL     1    -111.957  43.753  -9.258  1.00  0.00    -0.550 OA
ENDBRANCH  11  12
ENDBRANCH  10  11
ENDBRANCH   9  10
ENDBRANCH   8   9
ENDBRANCH   7   8
ENDBRANCH   6   7
ENDBRANCH   5   6
ENDBRANCH   4   5
ENDBRANCH   3   4
ENDBRANCH   2   3
ENDBRANCH   1   2
BRANCH   1  15
ATOM     15  C   UNL     1    -116.008  33.861  -9.707  1.00  0.00     0.000 C 
BRANCH  15  16
ATOM     16  C   UNL     1    -115.620  34.406 -11.094  1.00  0.00     0.000 C 
BRANCH  16  17
ATOM     17  C   UNL     1    -116.586  35.489 -11.605  1.00  0.00     0.000 C 
BRANCH  17  18
ATOM     18  C   UNL     1    -115.853  36.661 -12.277  1.00  0.00    -0.000 C 
BRANCH  18  19
ATOM     19  C   UNL     1    -114.970  36.205 -13.452  1.00  0.00    -0.000 C 
BRANCH  19  20
ATOM     20  C   UNL     1    -114.236  37.371 -14.141  1.00  0.00    -0.000 C 
BRANCH  20  21
ATOM     21  C   UNL     1    -112.909  36.998 -14.829  1.00  0.00    -0.000 C 
BRANCH  21  22
ATOM     22  C   UNL     1    -111.864  38.124 -14.775  1.00  0.00    -0.000 C 
BRANCH  22  23
ATOM     23  C   UNL     1    -111.494  38.527 -13.337  1.00  0.00    -0.000 C 
BRANCH  23  24
ATOM     24  C   UNL     1    -110.789  39.897 -13.236  1.00  0.00    -0.000 C 
BRANCH  24  25
ATOM     25  C   UNL     1    -111.354  40.913 -14.241  1.00  0.00    -0.003 C 
ATOM     26  C   UNL     1    -110.749  42.297 -14.026  1.00  0.00     0.004 C 
ENDBRANCH  24  25
ENDBRANCH  23  24
ENDBRANCH  22  23
ENDBRANCH  21  22
ENDBRANCH  20  21
ENDBRANCH  19  20
ENDBRANCH  18  19
ENDBRANCH  17  18
ENDBRANCH  16  17
ENDBRANCH  15  16
ENDBRANCH   1  15
TORSDOF 22
ENDMDL
MODEL 3
REMARK VINA RESULT:    -3.107      2.531      7.742
REMARK INTER + INTRA:         -10.720
REMARK INTER:                  -6.959
REMARK INTRA:                  -3.760
REMARK UNBOUND:                -3.616
REMARK SMILES CCCCCCCCCCCCCCCCCCCCCCCC(=O)[O-]
REMARK SMILES IDX 13 1 14 2 15 3 16 4 17 5 18 6 19 7 20 8 21 9 22 10 23 11
REMARK SMILES IDX 24 12 25 13 26 14 12 15 11 16 10 17 9 18 8 19 7 20 6 21 5 22
REMARK SMILES IDX 4 23 3 24 2 25 1 26
REMARK H PARENT
REMARK Flexibility Score: inf
ROOT
ATOM      1  C   UNL     1    -115.256  38.202 -10.961  1.00  0.00     0.000 C 
ENDROOT
BRANCH   1   2
ATOM      2  C   UNL     1    -116.269  37.708  -9.915  1.00  0.00     0.000 C 
BRANCH   2   3
ATOM      3  C   UNL     1    -115.616  37.398  -8.557  1.00  0.00     0.000 C 
BRANCH   3   4
ATOM      4  C   UNL     1    -116.619  36.856  -7.524  1.00  0.00     0.000 C 
BRANCH   4   5
ATOM      5  C   UNL     1    -116.350  35.384  -7.168  1.00  0.00     0.000 C 
BRANCH   5   6
ATOM      6  C   UNL     1    -114.994  34.887  -7.696  1.00  0.00     0.000 C 
BRANCH   6   7
ATOM      7  C   UNL     1    -115.137  33.860  -8.834  1.00  0.00     0.000 C 
BRANCH   7   8
ATOM      8  C   UNL     1    -116.580  33.618  -9.312  1.00  0.00     0.000 C 
BRANCH   8   9
ATOM      9  C   UNL     1    -116.812  34.055 -10.766  1.00  0.00     0.000 C 
BRANCH   9  10
ATOM     10  C   UNL     1    -115.480  34.367 -11.466  1.00  0.00     0.006 C 
BRANCH  10  11
ATOM     11  C   UNL     1    -115.685  35.012 -12.844  1.00  0.00     0.053 C 
BRANCH  11  12
ATOM     12  C   UNL     1    -114.774  34.418 -13.876  1.00  0.00     0.041 C 
ATOM     13  O   UNL     1    -114.733  33.170 -14.043  1.00  0.00    -0.550 OA
ATOM     14  O   UNL     1    -113.943  35.241 -14.626  1.00  0.00    -0.550 OA
ENDBRANCH  11  12
ENDBRANCH  10  11
ENDBRANCH   9  10
ENDBRANCH   8   9
ENDBRANCH   7   8
ENDBRANCH   6   7
ENDBRANCH   5   6
ENDBRANCH   4   5
ENDBRANCH   3   4
ENDBRANCH   2   3
ENDBRANCH   1   2
BRANCH   1  15
ATOM     15  C   UNL     1    -115.924  38.696 -12.259  1.00  0.00     0.000 C 
BRANCH  15  16
ATOM     16  C   UNL     1    -114.978  38.863 -13.463  1.00  0.00     0.000 C 
BRANCH  16  17
ATOM     17  C   UNL     1    -113.525  38.467 -13.145  1.00  0.00     0.000 C 
BRANCH  17  18
ATOM     18  C   UNL     1    -112.529  39.005 -14.184  1.00  0.00    -0.000 C 
BRANCH  18  19
ATOM     19  C   UNL     1    -111.065  38.814 -13.749  1.00  0.00    -0.000 C 
BRANCH  19  20
ATOM     20  C   UNL     1    -110.402  40.121 -13.275  1.00  0.00    -0.000 C 
BRANCH  20  21
ATOM     21  C   UNL     1    -110.141  41.163 -14.379  1.00  0.00    -0.000 C 
BRANCH  21  22
ATOM     22  C   UNL     1    -110.875  42.492 -14.139  1.00  0.00    -0.000 C 
BRANCH  22  23
ATOM     23  C   UNL     1    -111.690  42.497 -12.834  1.00  0.00    -0.000 C 
BRANCH  23  24
ATOM     24  C   UNL     1    -113.217  42.422 -13.054  1.00  0.00    -0.000 C 
BRANCH  24  25
ATOM     25  C   UNL     1    -113.983  42.233 -11.736  1.00  0.00    -0.003 C 
ATOM     26  C   UNL     1    -113.224  41.313 -10.784  1.00  0.00     0.004 C 
ENDBRANCH  24  25
ENDBRANCH  23  24
ENDBRANCH  22  23
ENDBRANCH  21  22
ENDBRANCH  20  21
ENDBRANCH  19  20
ENDBRANCH  18  19
ENDBRANCH  17  18
ENDBRANCH  16  17
ENDBRANCH  15  16
ENDBRANCH   1  15
TORSDOF 22
ENDMDL
MODEL 4
REMARK VINA RESULT:    -3.096      1.700      2.923
REMARK INTER + INTRA:         -10.694
REMARK INTER:                  -7.465
REMARK INTRA:                  -3.229
REMARK UNBOUND:                -3.616
REMARK SMILES CCCCCCCCCCCCCCCCCCCCCCCC(=O)[O-]
REMARK SMILES IDX 13 1 14 2 15 3 16 4 17 5 18 6 19 7 20 8 21 9 22 10 23 11
REMARK SMILES IDX 24 12 25 13 26 14 12 15 11 16 10 17 9 18 8 19 7 20 6 21 5 22
REMARK SMILES IDX 4 23 3 24 2 25 1 26
REMARK H PARENT
REMARK Flexibility Score: inf
ROOT
ATOM      1  C   UNL     1    -114.171  39.344 -10.524  1.00  0.00     0.000 C 
ENDROOT
BRANCH   1   2
ATOM      2  C   UNL     1    -115.180  39.770 -11.604  1.00  0.00     0.000 C 
BRANCH   2   3
ATOM      3  C   UNL     1    -114.741  39.361 -13.020  1.00  0.00     0.000 C 
BRANCH   3   4
ATOM      4  C   UNL     1    -114.311  37.887 -13.109  1.00  0.00     0.000 C 
BRANCH   4   5
ATOM      5  C   UNL     1    -113.272  37.648 -14.217  1.00  0.00     0.000 C 
BRANCH   5   6
ATOM      6  C   UNL     1    -112.277  38.814 -14.355  1.00  0.00     0.000 C 
BRANCH   6   7
ATOM      7  C   UNL     1    -111.245  38.855 -13.212  1.00  0.00     0.000 C 
BRANCH   7   8
ATOM      8  C   UNL     1    -110.367  40.119 -13.177  1.00  0.00     0.000 C 
BRANCH   8   9
ATOM      9  C   UNL     1    -110.982  41.298 -13.946  1.00  0.00     0.000 C 
BRANCH   9  10
ATOM     10  C   UNL     1    -111.270  42.479 -13.006  1.00  0.00     0.006 C 
BRANCH  10  11
ATOM     11  C   UNL     1    -112.426  42.185 -12.040  1.00  0.00     0.053 C 
BRANCH  11  12
ATOM     12  C   UNL     1    -112.310  42.984 -10.777  1.00  0.00     0.041 C 
ATOM     13  O   UNL     1    -112.089  44.223 -10.828  1.00  0.00    -0.550 OA
ATOM     14  O   UNL     1    -112.409  42.352  -9.543  1.00  0.00    -0.550 OA
ENDBRANCH  11  12
ENDBRANCH  10  11
ENDBRANCH   9  10
ENDBRANCH   8   9
ENDBRANCH   7   8
ENDBRANCH   6   7
ENDBRANCH   5   6
ENDBRANCH   4   5
ENDBRANCH   3   4
ENDBRANCH   2   3
ENDBRANCH   1   2
BRANCH   1  15
ATOM     15  C   UNL     1    -114.794  38.447  -9.438  1.00  0.00     0.000 C 
BRANCH  15  16
ATOM     16  C   UNL     1    -115.949  37.546  -9.914  1.00  0.00     0.000 C 
BRANCH  16  17
ATOM     17  C   UNL     1    -117.008  37.301  -8.824  1.00  0.00     0.000 C 
BRANCH  17  18
ATOM     18  C   UNL     1    -116.381  36.957  -7.463  1.00  0.00    -0.000 C 
BRANCH  18  19
ATOM     19  C   UNL     1    -116.363  35.443  -7.191  1.00  0.00    -0.000 C 
BRANCH  19  20
ATOM     20  C   UNL     1    -115.029  34.777  -7.580  1.00  0.00    -0.000 C 
BRANCH  20  21
ATOM     21  C   UNL     1    -115.079  33.890  -8.838  1.00  0.00    -0.000 C 
BRANCH  21  22
ATOM     22  C   UNL     1    -116.512  33.602  -9.316  1.00  0.00    -0.000 C 
BRANCH  22  23
ATOM     23  C   UNL     1    -116.651  33.646 -10.847  1.00  0.00    -0.000 C 
BRANCH  23  24
ATOM     24  C   UNL     1    -115.550  34.471 -11.548  1.00  0.00    -0.000 C 
BRANCH  24  25
ATOM     25  C   UNL     1    -115.418  34.113 -13.037  1.00  0.00    -0.003 C 
ATOM     26  C   UNL     1    -114.760  32.749 -13.220  1.00  0.00     0.004 C 
ENDBRANCH  24  25
ENDBRANCH  23  24
ENDBRANCH  22  23
ENDBRANCH  21  22
ENDBRANCH  20  21
ENDBRANCH  19  20
ENDBRANCH  18  19
ENDBRANCH  17  18
ENDBRANCH  16  17
ENDBRANCH  15  16
ENDBRANCH   1  15
TORSDOF 22
ENDMDL
MODEL 5
REMARK VINA RESULT:    -3.089      1.477      5.668
REMARK INTER + INTRA:         -10.678
REMARK INTER:                  -6.889
REMARK INTRA:                  -3.789
REMARK UNBOUND:                -3.616
REMARK SMILES CCCCCCCCCCCCCCCCCCCCCCCC(=O)[O-]
REMARK SMILES IDX 13 1 14 2 15 3 16 4 17 5 18 6 19 7 20 8 21 9 22 10 23 11
REMARK SMILES IDX 24 12 25 13 26 14 12 15 11 16 10 17 9 18 8 19 7 20 6 21 5 22
REMARK SMILES IDX 4 23 3 24 2 25 1 26
REMARK H PARENT
REMARK Flexibility Score: inf
ROOT
ATOM      1  C   UNL     1    -115.181  33.861  -8.701  1.00  0.00     0.000 C 
ENDROOT
BRANCH   1   2
ATOM      2  C   UNL     1    -116.611  33.744  -9.255  1.00  0.00     0.000 C 
BRANCH   2   3
ATOM      3  C   UNL     1    -116.666  33.874 -10.787  1.00  0.00     0.000 C 
BRANCH   3   4
ATOM      4  C   UNL     1    -115.270  33.877 -11.435  1.00  0.00     0.000 C 
BRANCH   4   5
ATOM      5  C   UNL     1    -115.342  33.883 -12.972  1.00  0.00     0.000 C 
BRANCH   5   6
ATOM      6  C   UNL     1    -116.166  35.060 -13.520  1.00  0.00     0.000 C 
BRANCH   6   7
ATOM      7  C   UNL     1    -115.364  35.950 -14.488  1.00  0.00     0.000 C 
BRANCH   7   8
ATOM      8  C   UNL     1    -113.868  35.602 -14.600  1.00  0.00     0.000 C 
BRANCH   8   9
ATOM      9  C   UNL     1    -113.043  36.715 -15.265  1.00  0.00     0.000 C 
BRANCH   9  10
ATOM     10  C   UNL     1    -112.956  37.953 -14.360  1.00  0.00     0.006 C 
BRANCH  10  11
ATOM     11  C   UNL     1    -111.536  38.184 -13.825  1.00  0.00     0.053 C 
BRANCH  11  12
ATOM     12  C   UNL     1    -111.193  39.642 -13.772  1.00  0.00     0.041 C 
ATOM     13  O   UNL     1    -111.847  40.473 -14.458  1.00  0.00    -0.550 OA
ATOM     14  O   UNL     1    -110.128  40.078 -12.993  1.00  0.00    -0.550 OA
ENDBRANCH  11  12
ENDBRANCH  10  11
ENDBRANCH   9  10
ENDBRANCH   8   9
ENDBRANCH   7   8
ENDBRANCH   6   7
ENDBRANCH   5   6
ENDBRANCH   4   5
ENDBRANCH   3   4
ENDBRANCH   2   3
ENDBRANCH   1   2
BRANCH   1  15
ATOM     15  C   UNL     1    -115.045  34.943  -7.613  1.00  0.00     0.000 C 
BRANCH  15  16
ATOM     16  C   UNL     1    -116.373  35.530  -7.100  1.00  0.00     0.000 C 
BRANCH  16  17
ATOM     17  C   UNL     1    -116.586  36.994  -7.524  1.00  0.00     0.000 C 
BRANCH  17  18
ATOM     18  C   UNL     1    -115.639  37.421  -8.656  1.00  0.00    -0.000 C 
BRANCH  18  19
ATOM     19  C   UNL     1    -116.358  37.535 -10.012  1.00  0.00    -0.000 C 
BRANCH  19  20
ATOM     20  C   UNL     1    -115.392  37.783 -11.186  1.00  0.00    -0.000 C 
BRANCH  20  21
ATOM     21  C   UNL     1    -115.869  38.821 -12.221  1.00  0.00    -0.000 C 
BRANCH  21  22
ATOM     22  C   UNL     1    -114.970  40.066 -12.283  1.00  0.00    -0.000 C 
BRANCH  22  23
ATOM     23  C   UNL     1    -113.807  40.015 -11.277  1.00  0.00    -0.000 C 
BRANCH  23  24
ATOM     24  C   UNL     1    -113.157  41.389 -11.007  1.00  0.00    -0.000 C 
BRANCH  24  25
ATOM     25  C   UNL     1    -113.502  41.928  -9.610  1.00  0.00    -0.003 C 
ATOM     26  C   UNL     1    -114.358  40.935  -8.831  1.00  0.00     0.004 C 
ENDBRANCH  24  25
ENDBRANCH  23  24
ENDBRANCH  22  23
ENDBRANCH  21  22
ENDBRANCH  20  21
ENDBRANCH  19  20
ENDBRANCH  18  19
ENDBRANCH  17  18
ENDBRANCH  16  17
ENDBRANCH  15  16
ENDBRANCH   1  15
TORSDOF 22
ENDMDL
MODEL 6
REMARK VINA RESULT:    -3.074      2.114      8.041
REMARK INTER + INTRA:         -10.643
REMARK INTER:                  -7.303
REMARK INTRA:                  -3.341
REMARK UNBOUND:                -3.616
REMARK SMILES CCCCCCCCCCCCCCCCCCCCCCCC(=O)[O-]
REMARK SMILES IDX 13 1 14 2 15 3 16 4 17 5 18 6 19 7 20 8 21 9 22 10 23 11
REMARK SMILES IDX 24 12 25 13 26 14 12 15 11 16 10 17 9 18 8 19 7 20 6 21 5 22
REMARK SMILES IDX 4 23 3 24 2 25 1 26
REMARK H PARENT
REMARK Flexibility Score: inf
ROOT
ATOM      1  C   UNL     1    -114.877  36.663 -13.529  1.00  0.00     0.000 C 
ENDROOT
BRANCH   1   2
ATOM      2  C   UNL     1    -115.505  35.303 -13.181  1.00  0.00     0.000 C 
BRANCH   2   3
ATOM      3  C   UNL     1    -115.983  35.228 -11.721  1.00  0.00     0.000 C 
BRANCH   3   4
ATOM      4  C   UNL     1    -115.694  33.865 -11.068  1.00  0.00     0.000 C 
BRANCH   4   5
ATOM      5  C   UNL     1    -116.143  33.815  -9.598  1.00  0.00     0.000 C 
BRANCH   5   6
ATOM      6  C   UNL     1    -114.958  33.855  -8.617  1.00  0.00     0.000 C 
BRANCH   6   7
ATOM      7  C   UNL     1    -115.140  34.903  -7.504  1.00  0.00     0.000 C 
BRANCH   7   8
ATOM      8  C   UNL     1    -116.550  35.516  -7.415  1.00  0.00     0.000 C 
BRANCH   8   9
ATOM      9  C   UNL     1    -116.542  37.049  -7.510  1.00  0.00     0.000 C 
BRANCH   9  10
ATOM     10  C   UNL     1    -116.110  37.512  -8.910  1.00  0.00     0.006 C 
BRANCH  10  11
ATOM     11  C   UNL     1    -114.787  38.291  -8.882  1.00  0.00     0.053 C 
BRANCH  11  12
ATOM     12  C   UNL     1    -115.015  39.771  -8.824  1.00  0.00     0.041 C 
ATOM     13  O   UNL     1    -115.783  40.328  -9.654  1.00  0.00    -0.550 OA
ATOM     14  O   UNL     1    -114.350  40.540  -7.877  1.00  0.00    -0.550 OA
ENDBRANCH  11  12
ENDBRANCH  10  11
ENDBRANCH   9  10
ENDBRANCH   8   9
ENDBRANCH   7   8
ENDBRANCH   6   7
ENDBRANCH   5   6
ENDBRANCH   4   5
ENDBRANCH   3   4
ENDBRANCH   2   3
ENDBRANCH   1   2
BRANCH   1  15
ATOM     15  C   UNL     1    -115.187  37.754 -12.486  1.00  0.00     0.000 C 
BRANCH  15  16
ATOM     16  C   UNL     1    -114.418  39.076 -12.669  1.00  0.00     0.000 C 
BRANCH  16  17
ATOM     17  C   UNL     1    -113.278  38.970 -13.696  1.00  0.00     0.000 C 
BRANCH  17  18
ATOM     18  C   UNL     1    -111.909  38.748 -13.033  1.00  0.00    -0.000 C 
BRANCH  18  19
ATOM     19  C   UNL     1    -110.740  39.140 -13.953  1.00  0.00    -0.000 C 
BRANCH  19  20
ATOM     20  C   UNL     1    -110.027  40.429 -13.503  1.00  0.00    -0.000 C 
BRANCH  20  21
ATOM     21  C   UNL     1    -109.773  41.463 -14.617  1.00  0.00    -0.000 C 
BRANCH  21  22
ATOM     22  C   UNL     1    -110.994  42.350 -14.905  1.00  0.00    -0.000 C 
BRANCH  22  23
ATOM     23  C   UNL     1    -111.530  43.057 -13.648  1.00  0.00    -0.000 C 
BRANCH  23  24
ATOM     24  C   UNL     1    -112.975  42.657 -13.278  1.00  0.00    -0.000 C 
BRANCH  24  25
ATOM     25  C   UNL     1    -113.273  42.879 -11.787  1.00  0.00    -0.003 C 
ATOM     26  C   UNL     1    -112.642  41.786 -10.929  1.00  0.00     0.004 C 
ENDBRANCH  24  25
ENDBRANCH  23  24
ENDBRANCH  22  23
ENDBRANCH  21  22
ENDBRANCH  20  21
ENDBRANCH  19  20
ENDBRANCH  18  19
ENDBRANCH  17  18
ENDBRANCH  16  17
ENDBRANCH  15  16
ENDBRANCH   1  15
TORSDOF 22
ENDMDL
MODEL 7
REMARK VINA RESULT:    -3.054      1.814      4.567
REMARK INTER + INTRA:         -10.598
REMARK INTER:                  -7.705
REMARK INTRA:                  -2.893
REMARK UNBOUND:                -3.616
REMARK SMILES CCCCCCCCCCCCCCCCCCCCCCCC(=O)[O-]
REMARK SMILES IDX 13 1 14 2 15 3 16 4 17 5 18 6 19 7 20 8 21 9 22 10 23 11
REMARK SMILES IDX 24 12 25 13 26 14 12 15 11 16 10 17 9 18 8 19 7 20 6 21 5 22
REMARK SMILES IDX 4 23 3 24 2 25 1 26
REMARK H PARENT
REMARK Flexibility Score: inf
ROOT
ATOM      1  C   UNL     1    -116.391  35.706  -7.326  1.00  0.00     0.000 C 
ENDROOT
BRANCH   1   2
ATOM      2  C   UNL     1    -116.370  37.145  -7.871  1.00  0.00     0.000 C 
BRANCH   2   3
ATOM      3  C   UNL     1    -116.754  37.221  -9.358  1.00  0.00     0.000 C 
BRANCH   3   4
ATOM      4  C   UNL     1    -115.573  37.622 -10.260  1.00  0.00     0.000 C 
BRANCH   4   5
ATOM      5  C   UNL     1    -114.611  38.597  -9.560  1.00  0.00     0.000 C 
BRANCH   5   6
ATOM      6  C   UNL     1    -114.323  39.850 -10.406  1.00  0.00     0.000 C 
BRANCH   6   7
ATOM      7  C   UNL     1    -113.669  39.518 -11.760  1.00  0.00     0.000 C 
BRANCH   7   8
ATOM      8  C   UNL     1    -112.540  40.474 -12.186  1.00  0.00     0.000 C 
BRANCH   8   9
ATOM      9  C   UNL     1    -112.468  40.676 -13.707  1.00  0.00     0.000 C 
BRANCH   9  10
ATOM     10  C   UNL     1    -111.072  41.155 -14.134  1.00  0.00     0.006 C 
BRANCH  10  11
ATOM     11  C   UNL     1    -109.970  40.162 -13.739  1.00  0.00     0.053 C 
BRANCH  11  12
ATOM     12  C   UNL     1    -108.879  40.105 -14.765  1.00  0.00     0.041 C 
ATOM     13  O   UNL     1    -107.672  40.195 -14.414  1.00  0.00    -0.550 OA
ATOM     14  O   UNL     1    -109.198  39.992 -16.113  1.00  0.00    -0.550 OA
ENDBRANCH  11  12
ENDBRANCH  10  11
ENDBRANCH   9  10
ENDBRANCH   8   9
ENDBRANCH   7   8
ENDBRANCH   6   7
ENDBRANCH   5   6
ENDBRANCH   4   5
ENDBRANCH   3   4
ENDBRANCH   2   3
ENDBRANCH   1   2
BRANCH   1  15
ATOM     15  C   UNL     1    -115.059  34.963  -7.538  1.00  0.00     0.000 C 
BRANCH  15  16
ATOM     16  C   UNL     1    -115.082  33.868  -8.621  1.00  0.00     0.000 C 
BRANCH  16  17
ATOM     17  C   UNL     1    -116.503  33.526  -9.099  1.00  0.00     0.000 C 
BRANCH  17  18
ATOM     18  C   UNL     1    -116.660  33.660 -10.622  1.00  0.00    -0.000 C 
BRANCH  18  19
ATOM     19  C   UNL     1    -115.369  34.146 -11.305  1.00  0.00    -0.000 C 
BRANCH  19  20
ATOM     20  C   UNL     1    -115.539  34.377 -12.818  1.00  0.00    -0.000 C 
BRANCH  20  21
ATOM     21  C   UNL     1    -115.342  35.830 -13.288  1.00  0.00    -0.000 C 
BRANCH  21  22
ATOM     22  C   UNL     1    -114.411  35.949 -14.506  1.00  0.00    -0.000 C 
BRANCH  22  23
ATOM     23  C   UNL     1    -113.500  37.188 -14.443  1.00  0.00    -0.000 C 
BRANCH  23  24
ATOM     24  C   UNL     1    -112.439  37.236 -15.563  1.00  0.00    -0.000 C 
BRANCH  24  25
ATOM     25  C   UNL     1    -111.034  36.893 -15.044  1.00  0.00    -0.003 C 
ATOM     26  C   UNL     1    -110.439  35.710 -15.801  1.00  0.00     0.004 C 
ENDBRANCH  24  25
ENDBRANCH  23  24
ENDBRANCH  22  23
ENDBRANCH  21  22
ENDBRANCH  20  21
ENDBRANCH  19  20
ENDBRANCH  18  19
ENDBRANCH  17  18
ENDBRANCH  16  17
ENDBRANCH  15  16
ENDBRANCH   1  15
TORSDOF 22
ENDMDL
MODEL 8
REMARK VINA RESULT:    -3.042      1.816      4.242
REMARK INTER + INTRA:         -10.570
REMARK INTER:                  -7.406
REMARK INTRA:                  -3.164
REMARK UNBOUND:                -3.616
REMARK SMILES CCCCCCCCCCCCCCCCCCCCCCCC(=O)[O-]
REMARK SMILES IDX 13 1 14 2 15 3 16 4 17 5 18 6 19 7 20 8 21 9 22 10 23 11
REMARK SMILES IDX 24 12 25 13 26 14 12 15 11 16 10 17 9 18 8 19 7 20 6 21 5 22
REMARK SMILES IDX 4 23 3 24 2 25 1 26
REMARK H PARENT
REMARK Flexibility Score: inf
ROOT
ATOM      1  C   UNL     1    -116.228  35.756  -7.157  1.00  0.00     0.000 C 
ENDROOT
BRANCH   1   2
ATOM      2  C   UNL     1    -116.568  37.044  -7.925  1.00  0.00     0.000 C 
BRANCH   2   3
ATOM      3  C   UNL     1    -115.352  37.637  -8.657  1.00  0.00     0.000 C 
BRANCH   3   4
ATOM      4  C   UNL     1    -115.694  38.140 -10.070  1.00  0.00     0.000 C 
BRANCH   4   5
ATOM      5  C   UNL     1    -114.463  38.700 -10.804  1.00  0.00     0.000 C 
BRANCH   5   6
ATOM      6  C   UNL     1    -114.484  38.394 -12.311  1.00  0.00     0.000 C 
BRANCH   6   7
ATOM      7  C   UNL     1    -113.445  39.212 -13.100  1.00  0.00     0.000 C 
BRANCH   7   8
ATOM      8  C   UNL     1    -112.017  38.638 -13.081  1.00  0.00     0.000 C 
BRANCH   8   9
ATOM      9  C   UNL     1    -110.934  39.726 -13.096  1.00  0.00     0.000 C 
BRANCH   9  10
ATOM     10  C   UNL     1    -110.915  40.468 -14.441  1.00  0.00     0.006 C 
BRANCH  10  11
ATOM     11  C   UNL     1    -110.421  41.914 -14.301  1.00  0.00     0.053 C 
BRANCH  11  12
ATOM     12  C   UNL     1    -111.398  42.765 -13.547  1.00  0.00     0.041 C 
ATOM     13  O   UNL     1    -110.989  43.583 -12.680  1.00  0.00    -0.550 OA
ATOM     14  O   UNL     1    -112.761  42.627 -13.776  1.00  0.00    -0.550 OA
ENDBRANCH  11  12
ENDBRANCH  10  11
ENDBRANCH   9  10
ENDBRANCH   8   9
ENDBRANCH   7   8
ENDBRANCH   6   7
ENDBRANCH   5   6
ENDBRANCH   4   5
ENDBRANCH   3   4
ENDBRANCH   2   3
ENDBRANCH   1   2
BRANCH   1  15
ATOM     15  C   UNL     1    -114.998  35.024  -7.726  1.00  0.00     0.000 C 
BRANCH  15  16
ATOM     16  C   UNL     1    -115.309  33.791  -8.595  1.00  0.00     0.000 C 
BRANCH  16  17
ATOM     17  C   UNL     1    -115.297  34.100 -10.102  1.00  0.00     0.000 C 
BRANCH  17  18
ATOM     18  C   UNL     1    -116.697  34.433 -10.645  1.00  0.00    -0.000 C 
BRANCH  18  19
ATOM     19  C   UNL     1    -116.646  35.115 -12.023  1.00  0.00    -0.000 C 
BRANCH  19  20
ATOM     20  C   UNL     1    -115.309  34.893 -12.755  1.00  0.00    -0.000 C 
BRANCH  20  21
ATOM     21  C   UNL     1    -115.407  34.120 -14.084  1.00  0.00    -0.000 C 
BRANCH  21  22
ATOM     22  C   UNL     1    -114.261  34.444 -15.056  1.00  0.00    -0.000 C 
BRANCH  22  23
ATOM     23  C   UNL     1    -113.804  35.911 -14.972  1.00  0.00    -0.000 C 
BRANCH  23  24
ATOM     24  C   UNL     1    -112.602  36.241 -15.884  1.00  0.00    -0.000 C 
BRANCH  24  25
ATOM     25  C   UNL     1    -111.277  35.723 -15.304  1.00  0.00    -0.003 C 
ATOM     26  C   UNL     1    -110.126  36.674 -15.622  1.00  0.00     0.004 C 
ENDBRANCH  24  25
ENDBRANCH  23  24
ENDBRANCH  22  23
ENDBRANCH  21  22
ENDBRANCH  20  21
ENDBRANCH  19  20
ENDBRANCH  18  19
ENDBRANCH  17  18
ENDBRANCH  16  17
ENDBRANCH  15  16
ENDBRANCH   1  15
TORSDOF 22
ENDMDL
MODEL 9
REMARK VINA RESULT:    -2.986      1.620      5.387
REMARK INTER + INTRA:         -10.442
REMARK INTER:                  -7.258
REMARK INTRA:                  -3.184
REMARK UNBOUND:                -3.616
REMARK SMILES CCCCCCCCCCCCCCCCCCCCCCCC(=O)[O-]
REMARK SMILES IDX 13 1 14 2 15 3 16 4 17 5 18 6 19 7 20 8 21 9 22 10 23 11
REMARK SMILES IDX 24 12 25 13 26 14 12 15 11 16 10 17 9 18 8 19 7 20 6 21 5 22
REMARK SMILES IDX 4 23 3 24 2 25 1 26
REMARK H PARENT
REMARK Flexibility Score: inf
ROOT
ATOM      1  C   UNL     1    -116.634  33.497  -9.412  1.00  0.00     0.000 C 
ENDROOT
BRANCH   1   2
ATOM      2  C   UNL     1    -116.886  33.852 -10.888  1.00  0.00     0.000 C 
BRANCH   2   3
ATOM      3  C   UNL     1    -115.613  34.323 -11.610  1.00  0.00     0.000 C 
BRANCH   3   4
ATOM      4  C   UNL     1    -115.673  35.805 -12.019  1.00  0.00     0.000 C 
BRANCH   4   5
ATOM      5  C   UNL     1    -115.515  35.998 -13.537  1.00  0.00     0.000 C 
BRANCH   5   6
ATOM      6  C   UNL     1    -114.478  35.041 -14.149  1.00  0.00     0.000 C 
BRANCH   6   7
ATOM      7  C   UNL     1    -113.415  35.771 -14.990  1.00  0.00     0.000 C 
BRANCH   7   8
ATOM      8  C   UNL     1    -113.297  37.282 -14.716  1.00  0.00     0.000 C 
BRANCH   8   9
ATOM      9  C   UNL     1    -111.887  37.702 -14.278  1.00  0.00     0.000 C 
BRANCH   9  10
ATOM     10  C   UNL     1    -111.408  38.932 -15.065  1.00  0.00     0.006 C 
BRANCH  10  11
ATOM     11  C   UNL     1    -109.936  38.819 -15.482  1.00  0.00     0.053 C 
BRANCH  11  12
ATOM     12  C   UNL     1    -109.114  39.944 -14.930  1.00  0.00     0.041 C 
ATOM     13  O   UNL     1    -109.675  40.989 -14.502  1.00  0.00    -0.550 OA
ATOM     14  O   UNL     1    -107.728  39.855 -14.923  1.00  0.00    -0.550 OA
ENDBRANCH  11  12
ENDBRANCH  10  11
ENDBRANCH   9  10
ENDBRANCH   8   9
ENDBRANCH   7   8
ENDBRANCH   6   7
ENDBRANCH   5   6
ENDBRANCH   4   5
ENDBRANCH   3   4
ENDBRANCH   2   3
ENDBRANCH   1   2
BRANCH   1  15
ATOM     15  C   UNL     1    -115.165  33.686  -8.991  1.00  0.00     0.000 C 
BRANCH  15  16
ATOM     16  C   UNL     1    -114.929  34.717  -7.871  1.00  0.00     0.000 C 
BRANCH  16  17
ATOM     17  C   UNL     1    -116.235  35.321  -7.327  1.00  0.00     0.000 C 
BRANCH  17  18
ATOM     18  C   UNL     1    -116.493  36.740  -7.859  1.00  0.00    -0.000 C 
BRANCH  18  19
ATOM     19  C   UNL     1    -115.277  37.317  -8.606  1.00  0.00    -0.000 C 
BRANCH  19  20
ATOM     20  C   UNL     1    -115.651  38.452  -9.577  1.00  0.00    -0.000 C 
BRANCH  20  21
ATOM     21  C   UNL     1    -114.480  39.349 -10.022  1.00  0.00    -0.000 C 
BRANCH  21  22
ATOM     22  C   UNL     1    -113.997  39.046 -11.449  1.00  0.00    -0.000 C 
BRANCH  22  23
ATOM     23  C   UNL     1    -114.689  39.916 -12.512  1.00  0.00    -0.000 C 
BRANCH  23  24
ATOM     24  C   UNL     1    -113.784  41.024 -13.094  1.00  0.00    -0.000 C 
BRANCH  24  25
ATOM     25  C   UNL     1    -112.468  41.166 -12.313  1.00  0.00    -0.003 C 
ATOM     26  C   UNL     1    -112.155  42.630 -12.020  1.00  0.00     0.004 C 
ENDBRANCH  24  25
ENDBRANCH  23  24
ENDBRANCH  22  23
ENDBRANCH  21  22
ENDBRANCH  20  21
ENDBRANCH  19  20
ENDBRANCH  18  19
ENDBRANCH  17  18
ENDBRANCH  16  17
ENDBRANCH  15  16
ENDBRANCH   1  15
TORSDOF 22
ENDMDL
