MODEL 1
REMARK VINA RESULT:    -5.418      0.000      0.000
REMARK INTER + INTRA:          -5.894
REMARK INTER:                  -5.894
REMARK INTRA:                   0.000
REMARK UNBOUND:                 0.000
REMARK SMILES Oc1cccc(O)c1O
REMARK SMILES IDX 4 1 5 2 6 3 8 4 2 5 3 6 7 7 1 9 9 11
REMARK H PARENT 7 8 1 10 9 12
REMARK Flexibility Score: inf
ROOT
ATOM      1  C   UNL     1     126.891 134.100 109.245  1.00  0.00     0.008 A 
ATOM      2  C   UNL     1     127.973 133.600 108.522  1.00  0.00     0.050 A 
ATOM      3  C   UNL     1     128.460 134.296 107.411  1.00  0.00     0.161 A 
ATOM      4  C   UNL     1     127.858 135.507 107.014  1.00  0.00     0.200 A 
ATOM      5  C   UNL     1     126.758 136.010 107.752  1.00  0.00     0.161 A 
ATOM      6  C   UNL     1     126.287 135.297 108.863  1.00  0.00     0.050 A 
ENDROOT
BRANCH   3   7
ATOM      7  O   UNL     1     129.545 133.767 106.710  1.00  0.00    -0.504 OA
ATOM      8  H   UNL     1     129.878 134.172 105.844  1.00  0.00     0.293 HD
ENDBRANCH   3   7
BRANCH   5   9
ATOM      9  O   UNL     1     126.107 137.202 107.424  1.00  0.00    -0.504 OA
ATOM     10  H   UNL     1     126.574 138.017 107.052  1.00  0.00     0.293 HD
ENDBRANCH   5   9
BRANCH   4  11
ATOM     11  O   UNL     1     128.373 136.172 105.898  1.00  0.00    -0.502 OA
ATOM     12  H   UNL     1     128.733 135.706 105.078  1.00  0.00     0.293 HD
ENDBRANCH   4  11
TORSDOF 3
ENDMDL
MODEL 2
REMARK VINA RESULT:    -5.410      1.130      2.750
REMARK INTER + INTRA:          -5.884
REMARK INTER:                  -5.884
REMARK INTRA:                   0.000
REMARK UNBOUND:                 0.000
REMARK SMILES Oc1cccc(O)c1O
REMARK SMILES IDX 4 1 5 2 6 3 8 4 2 5 3 6 7 7 1 9 9 11
REMARK H PARENT 7 8 1 10 9 12
REMARK Flexibility Score: inf
ROOT
ATOM      1  C   UNL     1     128.354 133.406 107.935  1.00  0.00     0.008 A 
ATOM      2  C   UNL     1     127.259 133.638 108.767  1.00  0.00     0.050 A 
ATOM      3  C   UNL     1     126.524 134.822 108.651  1.00  0.00     0.161 A 
ATOM      4  C   UNL     1     126.886 135.789 107.692  1.00  0.00     0.200 A 
ATOM      5  C   UNL     1     128.000 135.549 106.849  1.00  0.00     0.161 A 
ATOM      6  C   UNL     1     128.722 134.356 106.982  1.00  0.00     0.050 A 
ENDROOT
BRANCH   3   7
ATOM      7  O   UNL     1     125.434 135.022 109.500  1.00  0.00    -0.504 OA
ATOM      8  H   UNL     1     125.465 134.784 110.483  1.00  0.00     0.293 HD
ENDBRANCH   3   7
BRANCH   5   9
ATOM      9  O   UNL     1     128.422 136.457 105.875  1.00  0.00    -0.504 OA
ATOM     10  H   UNL     1     127.872 137.242 105.558  1.00  0.00     0.293 HD
ENDBRANCH   5   9
BRANCH   4  11
ATOM     11  O   UNL     1     126.126 136.959 107.608  1.00  0.00    -0.502 OA
ATOM     12  H   UNL     1     126.339 137.730 106.991  1.00  0.00     0.293 HD
ENDBRANCH   4  11
TORSDOF 3
ENDMDL
MODEL 3
REMARK VINA RESULT:    -5.407      2.270      3.432
REMARK INTER + INTRA:          -5.882
REMARK INTER:                  -5.882
REMARK INTRA:                   0.000
REMARK UNBOUND:                 0.000
REMARK SMILES Oc1cccc(O)c1O
REMARK SMILES IDX 4 1 5 2 6 3 8 4 2 5 3 6 7 7 1 9 9 11
REMARK H PARENT 7 8 1 10 9 12
REMARK Flexibility Score: inf
ROOT
ATOM      1  C   UNL     1     127.299 134.121 109.191  1.00  0.00     0.008 A 
ATOM      2  C   UNL     1     127.353 134.511 110.528  1.00  0.00     0.050 A 
ATOM      3  C   UNL     1     126.977 135.806 110.901  1.00  0.00     0.161 A 
ATOM      4  C   UNL     1     126.542 136.725 109.925  1.00  0.00     0.200 A 
ATOM      5  C   UNL     1     126.490 136.324 108.567  1.00  0.00     0.161 A 
ATOM      6  C   UNL     1     126.871 135.022 108.217  1.00  0.00     0.050 A 
ENDROOT
BRANCH   3   7
ATOM      7  O   UNL     1     127.044 136.163 112.248  1.00  0.00    -0.504 OA
ATOM      8  H   UNL     1     127.828 136.672 112.635  1.00  0.00     0.293 HD
ENDBRANCH   3   7
BRANCH   5   9
ATOM      9  O   UNL     1     126.071 137.175 107.542  1.00  0.00    -0.504 OA
ATOM     10  H   UNL     1     125.480 136.888 106.774  1.00  0.00     0.293 HD
ENDBRANCH   5   9
BRANCH   4  11
ATOM     11  O   UNL     1     126.176 138.009 110.338  1.00  0.00    -0.502 OA
ATOM     12  H   UNL     1     125.799 138.715 109.723  1.00  0.00     0.293 HD
ENDBRANCH   4  11
TORSDOF 3
ENDMDL
MODEL 4
REMARK VINA RESULT:    -5.369      0.075      2.826
REMARK INTER + INTRA:          -5.840
REMARK INTER:                  -5.840
REMARK INTRA:                   0.000
REMARK UNBOUND:                 0.000
REMARK SMILES Oc1cccc(O)c1O
REMARK SMILES IDX 4 1 5 2 6 3 8 4 2 5 3 6 7 7 1 9 9 11
REMARK H PARENT 7 8 1 10 9 12
REMARK Flexibility Score: inf
ROOT
ATOM      1  C   UNL     1     126.886 134.128 109.223  1.00  0.00     0.008 A 
ATOM      2  C   UNL     1     126.286 135.334 108.862  1.00  0.00     0.050 A 
ATOM      3  C   UNL     1     126.748 136.047 107.751  1.00  0.00     0.161 A 
ATOM      4  C   UNL     1     127.824 135.549 106.989  1.00  0.00     0.200 A 
ATOM      5  C   UNL     1     128.431 134.323 107.359  1.00  0.00     0.161 A 
ATOM      6  C   UNL     1     127.951 133.626 108.476  1.00  0.00     0.050 A 
ENDROOT
BRANCH   3   7
ATOM      7  O   UNL     1     126.125 137.250 107.419  1.00  0.00    -0.504 OA
ATOM      8  H   UNL     1     126.040 138.014 108.078  1.00  0.00     0.293 HD
ENDBRANCH   3   7
BRANCH   5   9
ATOM      9  O   UNL     1     129.500 133.764 106.656  1.00  0.00    -0.504 OA
ATOM     10  H   UNL     1     130.373 133.485 107.081  1.00  0.00     0.293 HD
ENDBRANCH   5   9
BRANCH   4  11
ATOM     11  O   UNL     1     128.256 136.292 105.886  1.00  0.00    -0.502 OA
ATOM     12  H   UNL     1     127.867 137.183 105.616  1.00  0.00     0.293 HD
ENDBRANCH   4  11
TORSDOF 3
ENDMDL
MODEL 5
REMARK VINA RESULT:    -5.238      2.239      3.008
REMARK INTER + INTRA:          -5.697
REMARK INTER:                  -5.697
REMARK INTRA:                   0.000
REMARK UNBOUND:                 0.000
REMARK SMILES Oc1cccc(O)c1O
REMARK SMILES IDX 4 1 5 2 6 3 8 4 2 5 3 6 7 7 1 9 9 11
REMARK H PARENT 7 8 1 10 9 12
REMARK Flexibility Score: inf
ROOT
ATOM      1  C   UNL     1     128.750 132.800 108.461  1.00  0.00     0.008 A 
ATOM      2  C   UNL     1     129.088 133.427 109.660  1.00  0.00     0.050 A 
ATOM      3  C   UNL     1     129.440 134.780 109.674  1.00  0.00     0.161 A 
ATOM      4  C   UNL     1     129.454 135.520 108.474  1.00  0.00     0.200 A 
ATOM      5  C   UNL     1     129.110 134.879 107.258  1.00  0.00     0.161 A 
ATOM      6  C   UNL     1     128.760 133.522 107.268  1.00  0.00     0.050 A 
ENDROOT
BRANCH   3   7
ATOM      7  O   UNL     1     129.773 135.375 110.891  1.00  0.00    -0.504 OA
ATOM      8  H   UNL     1     130.173 134.849 111.658  1.00  0.00     0.293 HD
ENDBRANCH   3   7
BRANCH   5   9
ATOM      9  O   UNL     1     129.100 135.542 106.029  1.00  0.00    -0.504 OA
ATOM     10  H   UNL     1     129.750 136.272 105.775  1.00  0.00     0.293 HD
ENDBRANCH   5   9
BRANCH   4  11
ATOM     11  O   UNL     1     129.812 136.870 108.530  1.00  0.00    -0.502 OA
ATOM     12  H   UNL     1     129.849 137.411 109.381  1.00  0.00     0.293 HD
ENDBRANCH   4  11
TORSDOF 3
ENDMDL
MODEL 6
REMARK VINA RESULT:    -5.230      2.228      3.003
REMARK INTER + INTRA:          -5.689
REMARK INTER:                  -5.689
REMARK INTRA:                   0.000
REMARK UNBOUND:                 0.000
REMARK SMILES Oc1cccc(O)c1O
REMARK SMILES IDX 4 1 5 2 6 3 8 4 2 5 3 6 7 7 1 9 9 11
REMARK H PARENT 7 8 1 10 9 12
REMARK Flexibility Score: inf
ROOT
ATOM      1  C   UNL     1     128.721 132.797 108.462  1.00  0.00     0.008 A 
ATOM      2  C   UNL     1     128.736 133.549 107.288  1.00  0.00     0.050 A 
ATOM      3  C   UNL     1     129.094 134.901 107.321  1.00  0.00     0.161 A 
ATOM      4  C   UNL     1     129.442 135.511 108.543  1.00  0.00     0.200 A 
ATOM      5  C   UNL     1     129.425 134.742 109.733  1.00  0.00     0.161 A 
ATOM      6  C   UNL     1     129.063 133.390 109.677  1.00  0.00     0.050 A 
ENDROOT
BRANCH   3   7
ATOM      7  O   UNL     1     129.099 135.623 106.127  1.00  0.00    -0.504 OA
ATOM      8  H   UNL     1     128.257 136.027 105.737  1.00  0.00     0.293 HD
ENDBRANCH   3   7
BRANCH   5   9
ATOM      9  O   UNL     1     129.756 135.273 110.982  1.00  0.00    -0.504 OA
ATOM     10  H   UNL     1     130.697 135.503 111.267  1.00  0.00     0.293 HD
ENDBRANCH   5   9
BRANCH   4  11
ATOM     11  O   UNL     1     129.794 136.863 108.534  1.00  0.00    -0.502 OA
ATOM     12  H   UNL     1     130.380 137.292 107.832  1.00  0.00     0.293 HD
ENDBRANCH   4  11
TORSDOF 3
ENDMDL
MODEL 7
REMARK VINA RESULT:    -5.223     11.824     12.728
REMARK INTER + INTRA:          -5.681
REMARK INTER:                  -5.681
REMARK INTRA:                   0.000
REMARK UNBOUND:                 0.000
REMARK SMILES Oc1cccc(O)c1O
REMARK SMILES IDX 4 1 5 2 6 3 8 4 2 5 3 6 7 7 1 9 9 11
REMARK H PARENT 7 8 1 10 9 12
REMARK Flexibility Score: inf
ROOT
ATOM      1  C   UNL     1     136.751 134.810 115.572  1.00  0.00     0.008 A 
ATOM      2  C   UNL     1     138.057 134.696 116.047  1.00  0.00     0.050 A 
ATOM      3  C   UNL     1     139.119 134.521 115.155  1.00  0.00     0.161 A 
ATOM      4  C   UNL     1     138.875 134.457 113.768  1.00  0.00     0.200 A 
ATOM      5  C   UNL     1     137.546 134.572 113.290  1.00  0.00     0.161 A 
ATOM      6  C   UNL     1     136.497 134.748 114.202  1.00  0.00     0.050 A 
ENDROOT
BRANCH   3   7
ATOM      7  O   UNL     1     140.413 134.410 115.665  1.00  0.00    -0.504 OA
ATOM      8  H   UNL     1     141.177 134.984 115.330  1.00  0.00     0.293 HD
ENDBRANCH   3   7
BRANCH   5   9
ATOM      9  O   UNL     1     137.222 134.519 111.932  1.00  0.00    -0.504 OA
ATOM     10  H   UNL     1     136.351 134.157 111.572  1.00  0.00     0.293 HD
ENDBRANCH   5   9
BRANCH   4  11
ATOM     11  O   UNL     1     139.964 134.280 112.909  1.00  0.00    -0.502 OA
ATOM     12  H   UNL     1     140.893 134.628 113.093  1.00  0.00     0.293 HD
ENDBRANCH   4  11
TORSDOF 3
ENDMDL
MODEL 8
REMARK VINA RESULT:    -5.152     11.671     12.463
REMARK INTER + INTRA:          -5.604
REMARK INTER:                  -5.604
REMARK INTRA:                   0.000
REMARK UNBOUND:                 0.000
REMARK SMILES Oc1cccc(O)c1O
REMARK SMILES IDX 4 1 5 2 6 3 8 4 2 5 3 6 7 7 1 9 9 11
REMARK H PARENT 7 8 1 10 9 12
REMARK Flexibility Score: inf
ROOT
ATOM      1  C   UNL     1     138.762 134.623 116.184  1.00  0.00     0.008 A 
ATOM      2  C   UNL     1     139.602 134.450 115.086  1.00  0.00     0.050 A 
ATOM      3  C   UNL     1     139.078 134.448 113.789  1.00  0.00     0.161 A 
ATOM      4  C   UNL     1     137.694 134.621 113.586  1.00  0.00     0.200 A 
ATOM      5  C   UNL     1     136.843 134.796 114.706  1.00  0.00     0.161 A 
ATOM      6  C   UNL     1     137.391 134.795 115.996  1.00  0.00     0.050 A 
ENDROOT
BRANCH   3   7
ATOM      7  O   UNL     1     139.948 134.273 112.713  1.00  0.00    -0.504 OA
ATOM      8  H   UNL     1     140.774 134.844 112.587  1.00  0.00     0.293 HD
ENDBRANCH   3   7
BRANCH   5   9
ATOM      9  O   UNL     1     135.463 134.974 114.588  1.00  0.00    -0.504 OA
ATOM     10  H   UNL     1     134.946 134.839 113.731  1.00  0.00     0.293 HD
ENDBRANCH   5   9
BRANCH   4  11
ATOM     11  O   UNL     1     137.208 134.613 112.275  1.00  0.00    -0.502 OA
ATOM     12  H   UNL     1     137.719 134.248 111.485  1.00  0.00     0.293 HD
ENDBRANCH   4  11
TORSDOF 3
ENDMDL
