MODEL 1
REMARK VINA RESULT:    -2.373      0.000      0.000
REMARK INTER + INTRA:          -8.241
REMARK INTER:                  -5.980
REMARK INTRA:                  -2.260
REMARK UNBOUND:                -2.260
REMARK SMILES CCCCCCCCCCCCCCCCCCCCCCCCCCCC(=O)[O-]
REMARK SMILES IDX 15 1 16 2 17 3 18 4 19 5 20 6 21 7 22 8 23 9 24 10 25 11
REMARK SMILES IDX 26 12 27 13 28 14 29 15 30 16 14 17 13 18 12 19 11 20 10 21
REMARK SMILES IDX 9 22 8 23 7 24 6 25 5 26 4 27 3 28 2 29 1 30
REMARK H PARENT
REMARK Flexibility Score: inf
ROOT
ATOM      1  C   UNL     1       0.228  22.621   5.473  1.00  0.00     0.000 C 
ENDROOT
BRANCH   1   2
ATOM      2  C   UNL     1       0.994  21.605   6.346  1.00  0.00     0.000 C 
BRANCH   2   3
ATOM      3  C   UNL     1       2.473  21.965   6.566  1.00  0.00     0.000 C 
BRANCH   3   4
ATOM      4  C   UNL     1       3.436  20.999   5.859  1.00  0.00     0.000 C 
BRANCH   4   5
ATOM      5  C   UNL     1       4.844  21.009   6.473  1.00  0.00     0.000 C 
BRANCH   5   6
ATOM      6  C   UNL     1       4.887  21.695   7.847  1.00  0.00     0.000 C 
BRANCH   6   7
ATOM      7  C   UNL     1       6.336  21.917   8.299  1.00  0.00     0.000 C 
BRANCH   7   8
ATOM      8  C   UNL     1       7.066  22.888   7.358  1.00  0.00     0.000 C 
BRANCH   8   9
ATOM      9  C   UNL     1       6.392  24.268   7.297  1.00  0.00     0.000 C 
BRANCH   9  10
ATOM     10  C   UNL     1       6.488  24.911   5.904  1.00  0.00     0.000 C 
BRANCH  10  11
ATOM     11  C   UNL     1       7.059  23.955   4.841  1.00  0.00     0.000 C 
BRANCH  11  12
ATOM     12  C   UNL     1       6.040  23.460   3.794  1.00  0.00     0.006 C 
BRANCH  12  13
ATOM     13  C   UNL     1       4.641  24.085   3.920  1.00  0.00     0.053 C 
BRANCH  13  14
ATOM     14  C   UNL     1       4.326  25.000   2.776  1.00  0.00     0.041 C 
ATOM     15  O   UNL     1       5.225  25.321   1.957  1.00  0.00    -0.550 OA
ATOM     16  O   UNL     1       3.048  25.526   2.637  1.00  0.00    -0.550 OA
ENDBRANCH  13  14
ENDBRANCH  12  13
ENDBRANCH  11  12
ENDBRANCH  10  11
ENDBRANCH   9  10
ENDBRANCH   8   9
ENDBRANCH   7   8
ENDBRANCH   6   7
ENDBRANCH   5   6
ENDBRANCH   4   5
ENDBRANCH   3   4
ENDBRANCH   2   3
ENDBRANCH   1   2
BRANCH   1  17
ATOM     17  C   UNL     1       0.976  22.956   4.172  1.00  0.00     0.000 C 
BRANCH  17  18
ATOM     18  C   UNL     1       1.040  21.732   3.246  1.00  0.00     0.000 C 
BRANCH  18  19
ATOM     19  C   UNL     1      -0.351  21.233   2.814  1.00  0.00     0.000 C 
BRANCH  19  20
ATOM     20  C   UNL     1      -1.511  22.202   3.107  1.00  0.00     0.000 C 
BRANCH  20  21
ATOM     21  C   UNL     1      -2.758  21.494   3.660  1.00  0.00     0.000 C 
BRANCH  21  22
ATOM     22  C   UNL     1      -3.942  21.640   2.691  1.00  0.00    -0.000 C 
BRANCH  22  23
ATOM     23  C   UNL     1      -5.193  20.876   3.155  1.00  0.00    -0.000 C 
BRANCH  23  24
ATOM     24  C   UNL     1      -6.090  21.635   4.154  1.00  0.00    -0.000 C 
BRANCH  24  25
ATOM     25  C   UNL     1      -7.601  21.449   3.899  1.00  0.00    -0.000 C 
BRANCH  25  26
ATOM     26  C   UNL     1      -7.989  21.771   2.448  1.00  0.00    -0.000 C 
BRANCH  26  27
ATOM     27  C   UNL     1      -9.511  21.762   2.265  1.00  0.00    -0.000 C 
BRANCH  27  28
ATOM     28  C   UNL     1     -10.130  23.171   2.334  1.00  0.00    -0.000 C 
BRANCH  28  29
ATOM     29  C   UNL     1     -10.647  23.588   3.723  1.00  0.00    -0.003 C 
ATOM     30  C   UNL     1     -12.076  23.123   3.999  1.00  0.00     0.004 C 
ENDBRANCH  28  29
ENDBRANCH  27  28
ENDBRANCH  26  27
ENDBRANCH  25  26
ENDBRANCH  24  25
ENDBRANCH  23  24
ENDBRANCH  22  23
ENDBRANCH  21  22
ENDBRANCH  20  21
ENDBRANCH  19  20
ENDBRANCH  18  19
ENDBRANCH  17  18
ENDBRANCH   1  17
TORSDOF 26
ENDMDL
MODEL 2
REMARK VINA RESULT:    -2.198      4.157     12.376
REMARK INTER + INTRA:          -7.799
REMARK INTER:                  -5.347
REMARK INTRA:                  -2.452
REMARK UNBOUND:                -2.260
REMARK SMILES CCCCCCCCCCCCCCCCCCCCCCCCCCCC(=O)[O-]
REMARK SMILES IDX 15 1 16 2 17 3 18 4 19 5 20 6 21 7 22 8 23 9 24 10 25 11
REMARK SMILES IDX 26 12 27 13 28 14 29 15 30 16 14 17 13 18 12 19 11 20 10 21
REMARK SMILES IDX 9 22 8 23 7 24 6 25 5 26 4 27 3 28 2 29 1 30
REMARK H PARENT
REMARK Flexibility Score: inf
ROOT
ATOM      1  C   UNL     1      -0.748  24.564   3.449  1.00  0.00     0.000 C 
ENDROOT
BRANCH   1   2
ATOM      2  C   UNL     1      -1.306  23.127   3.353  1.00  0.00     0.000 C 
BRANCH   2   3
ATOM      3  C   UNL     1      -2.119  22.862   2.075  1.00  0.00     0.000 C 
BRANCH   3   4
ATOM      4  C   UNL     1      -3.089  21.678   2.217  1.00  0.00     0.000 C 
BRANCH   4   5
ATOM      5  C   UNL     1      -4.046  21.833   3.408  1.00  0.00     0.000 C 
BRANCH   5   6
ATOM      6  C   UNL     1      -5.253  20.886   3.325  1.00  0.00     0.000 C 
BRANCH   6   7
ATOM      7  C   UNL     1      -5.949  21.010   1.965  1.00  0.00     0.000 C 
BRANCH   7   8
ATOM      8  C   UNL     1      -6.945  22.180   1.957  1.00  0.00     0.000 C 
BRANCH   8   9
ATOM      9  C   UNL     1      -8.406  21.708   1.875  1.00  0.00     0.000 C 
BRANCH   9  10
ATOM     10  C   UNL     1      -8.829  20.882   3.102  1.00  0.00     0.000 C 
BRANCH  10  11
ATOM     11  C   UNL     1      -9.233  21.757   4.302  1.00  0.00     0.000 C 
BRANCH  11  12
ATOM     12  C   UNL     1     -10.739  22.078   4.396  1.00  0.00     0.006 C 
BRANCH  12  13
ATOM     13  C   UNL     1     -11.095  23.551   4.140  1.00  0.00     0.053 C 
BRANCH  13  14
ATOM     14  C   UNL     1     -11.279  23.842   2.682  1.00  0.00     0.041 C 
ATOM     15  O   UNL     1     -11.800  22.982   1.925  1.00  0.00    -0.550 OA
ATOM     16  O   UNL     1     -10.841  25.050   2.153  1.00  0.00    -0.550 OA
ENDBRANCH  13  14
ENDBRANCH  12  13
ENDBRANCH  11  12
ENDBRANCH  10  11
ENDBRANCH   9  10
ENDBRANCH   8   9
ENDBRANCH   7   8
ENDBRANCH   6   7
ENDBRANCH   5   6
ENDBRANCH   4   5
ENDBRANCH   3   4
ENDBRANCH   2   3
ENDBRANCH   1   2
BRANCH   1  17
ATOM     17  C   UNL     1       0.342  24.840   2.402  1.00  0.00     0.000 C 
BRANCH  17  18
ATOM     18  C   UNL     1       1.579  23.964   2.653  1.00  0.00     0.000 C 
BRANCH  18  19
ATOM     19  C   UNL     1       2.819  24.440   1.875  1.00  0.00     0.000 C 
BRANCH  19  20
ATOM     20  C   UNL     1       3.282  25.872   2.199  1.00  0.00     0.000 C 
BRANCH  20  21
ATOM     21  C   UNL     1       4.785  26.085   1.962  1.00  0.00     0.000 C 
BRANCH  21  22
ATOM     22  C   UNL     1       5.596  24.901   2.510  1.00  0.00    -0.000 C 
BRANCH  22  23
ATOM     23  C   UNL     1       5.692  24.898   4.045  1.00  0.00    -0.000 C 
BRANCH  23  24
ATOM     24  C   UNL     1       6.512  23.739   4.647  1.00  0.00    -0.000 C 
BRANCH  24  25
ATOM     25  C   UNL     1       6.091  23.357   6.081  1.00  0.00    -0.000 C 
BRANCH  25  26
ATOM     26  C   UNL     1       4.602  23.631   6.340  1.00  0.00    -0.000 C 
BRANCH  26  27
ATOM     27  C   UNL     1       3.935  22.448   7.054  1.00  0.00    -0.000 C 
BRANCH  27  28
ATOM     28  C   UNL     1       3.599  21.287   6.100  1.00  0.00    -0.000 C 
BRANCH  28  29
ATOM     29  C   UNL     1       3.051  21.710   4.725  1.00  0.00    -0.003 C 
ATOM     30  C   UNL     1       4.028  21.447   3.580  1.00  0.00     0.004 C 
ENDBRANCH  28  29
ENDBRANCH  27  28
ENDBRANCH  26  27
ENDBRANCH  25  26
ENDBRANCH  24  25
ENDBRANCH  23  24
ENDBRANCH  22  23
ENDBRANCH  21  22
ENDBRANCH  20  21
ENDBRANCH  19  20
ENDBRANCH  18  19
ENDBRANCH  17  18
ENDBRANCH   1  17
TORSDOF 26
ENDMDL
MODEL 3
REMARK VINA RESULT:    -2.148      4.693     11.994
REMARK INTER + INTRA:          -7.674
REMARK INTER:                  -5.488
REMARK INTRA:                  -2.186
REMARK UNBOUND:                -2.260
REMARK SMILES CCCCCCCCCCCCCCCCCCCCCCCCCCCC(=O)[O-]
REMARK SMILES IDX 15 1 16 2 17 3 18 4 19 5 20 6 21 7 22 8 23 9 24 10 25 11
REMARK SMILES IDX 26 12 27 13 28 14 29 15 30 16 14 17 13 18 12 19 11 20 10 21
REMARK SMILES IDX 9 22 8 23 7 24 6 25 5 26 4 27 3 28 2 29 1 30
REMARK H PARENT
REMARK Flexibility Score: inf
ROOT
ATOM      1  C   UNL     1      -0.715  24.339   3.460  1.00  0.00     0.000 C 
ENDROOT
BRANCH   1   2
ATOM      2  C   UNL     1      -1.250  22.909   3.230  1.00  0.00     0.000 C 
BRANCH   2   3
ATOM      3  C   UNL     1      -2.151  22.776   1.990  1.00  0.00     0.000 C 
BRANCH   3   4
ATOM      4  C   UNL     1      -3.121  21.587   2.080  1.00  0.00     0.000 C 
BRANCH   4   5
ATOM      5  C   UNL     1      -4.046  21.666   3.303  1.00  0.00     0.000 C 
BRANCH   5   6
ATOM      6  C   UNL     1      -5.350  20.876   3.113  1.00  0.00     0.000 C 
BRANCH   6   7
ATOM      7  C   UNL     1      -6.109  21.370   1.875  1.00  0.00     0.000 C 
BRANCH   7   8
ATOM      8  C   UNL     1      -7.191  22.390   2.260  1.00  0.00     0.000 C 
BRANCH   8   9
ATOM      9  C   UNL     1      -8.610  21.886   1.952  1.00  0.00     0.000 C 
BRANCH   9  10
ATOM     10  C   UNL     1      -9.294  21.260   3.179  1.00  0.00     0.000 C 
BRANCH  10  11
ATOM     11  C   UNL     1      -9.833  22.312   4.166  1.00  0.00     0.000 C 
BRANCH  11  12
ATOM     12  C   UNL     1     -10.778  21.760   5.253  1.00  0.00     0.006 C 
BRANCH  12  13
ATOM     13  C   UNL     1     -12.274  21.954   4.958  1.00  0.00     0.053 C 
BRANCH  13  14
ATOM     14  C   UNL     1     -12.524  22.320   3.527  1.00  0.00     0.041 C 
ATOM     15  O   UNL     1     -12.375  23.508   3.141  1.00  0.00    -0.550 OA
ATOM     16  O   UNL     1     -12.957  21.353   2.627  1.00  0.00    -0.550 OA
ENDBRANCH  13  14
ENDBRANCH  12  13
ENDBRANCH  11  12
ENDBRANCH  10  11
ENDBRANCH   9  10
ENDBRANCH   8   9
ENDBRANCH   7   8
ENDBRANCH   6   7
ENDBRANCH   5   6
ENDBRANCH   4   5
ENDBRANCH   3   4
ENDBRANCH   2   3
ENDBRANCH   1   2
BRANCH   1  17
ATOM     17  C   UNL     1       0.245  24.791   2.348  1.00  0.00     0.000 C 
BRANCH  17  18
ATOM     18  C   UNL     1       1.503  23.910   2.317  1.00  0.00     0.000 C 
BRANCH  18  19
ATOM     19  C   UNL     1       2.763  24.678   1.877  1.00  0.00     0.000 C 
BRANCH  19  20
ATOM     20  C   UNL     1       3.526  25.382   3.013  1.00  0.00     0.000 C 
BRANCH  20  21
ATOM     21  C   UNL     1       4.971  24.881   3.165  1.00  0.00     0.000 C 
BRANCH  21  22
ATOM     22  C   UNL     1       5.071  23.389   2.814  1.00  0.00    -0.000 C 
BRANCH  22  23
ATOM     23  C   UNL     1       4.947  22.474   4.045  1.00  0.00    -0.000 C 
BRANCH  23  24
ATOM     24  C   UNL     1       3.897  21.351   3.921  1.00  0.00    -0.000 C 
BRANCH  24  25
ATOM     25  C   UNL     1       3.179  21.022   5.247  1.00  0.00    -0.000 C 
BRANCH  25  26
ATOM     26  C   UNL     1       3.489  22.050   6.345  1.00  0.00    -0.000 C 
BRANCH  26  27
ATOM     27  C   UNL     1       2.387  23.114   6.437  1.00  0.00    -0.000 C 
BRANCH  27  28
ATOM     28  C   UNL     1       0.976  22.534   6.225  1.00  0.00    -0.000 C 
BRANCH  28  29
ATOM     29  C   UNL     1       0.407  21.750   7.422  1.00  0.00    -0.003 C 
ATOM     30  C   UNL     1      -1.116  21.624   7.389  1.00  0.00     0.004 C 
ENDBRANCH  28  29
ENDBRANCH  27  28
ENDBRANCH  26  27
ENDBRANCH  25  26
ENDBRANCH  24  25
ENDBRANCH  23  24
ENDBRANCH  22  23
ENDBRANCH  21  22
ENDBRANCH  20  21
ENDBRANCH  19  20
ENDBRANCH  18  19
ENDBRANCH  17  18
ENDBRANCH   1  17
TORSDOF 26
ENDMDL
MODEL 4
REMARK VINA RESULT:    -1.908      4.051     11.952
REMARK INTER + INTRA:          -7.068
REMARK INTER:                  -4.837
REMARK INTRA:                  -2.232
REMARK UNBOUND:                -2.260
REMARK SMILES CCCCCCCCCCCCCCCCCCCCCCCCCCCC(=O)[O-]
REMARK SMILES IDX 15 1 16 2 17 3 18 4 19 5 20 6 21 7 22 8 23 9 24 10 25 11
REMARK SMILES IDX 26 12 27 13 28 14 29 15 30 16 14 17 13 18 12 19 11 20 10 21
REMARK SMILES IDX 9 22 8 23 7 24 6 25 5 26 4 27 3 28 2 29 1 30
REMARK H PARENT
REMARK Flexibility Score: inf
ROOT
ATOM      1  C   UNL     1      -1.262  23.473   4.863  1.00  0.00     0.000 C 
ENDROOT
BRANCH   1   2
ATOM      2  C   UNL     1      -0.401  23.883   3.650  1.00  0.00     0.000 C 
BRANCH   2   3
ATOM      3  C   UNL     1      -0.995  23.460   2.296  1.00  0.00     0.000 C 
BRANCH   3   4
ATOM      4  C   UNL     1      -0.673  22.002   1.929  1.00  0.00     0.000 C 
BRANCH   4   5
ATOM      5  C   UNL     1      -1.901  21.083   2.015  1.00  0.00     0.000 C 
BRANCH   5   6
ATOM      6  C   UNL     1      -3.227  21.855   1.937  1.00  0.00     0.000 C 
BRANCH   6   7
ATOM      7  C   UNL     1      -4.419  20.907   2.112  1.00  0.00     0.000 C 
BRANCH   7   8
ATOM      8  C   UNL     1      -5.642  21.652   2.669  1.00  0.00     0.000 C 
BRANCH   8   9
ATOM      9  C   UNL     1      -5.980  21.232   4.109  1.00  0.00     0.000 C 
BRANCH   9  10
ATOM     10  C   UNL     1      -7.487  21.004   4.318  1.00  0.00     0.000 C 
BRANCH  10  11
ATOM     11  C   UNL     1      -8.264  20.877   2.995  1.00  0.00     0.000 C 
BRANCH  11  12
ATOM     12  C   UNL     1      -9.536  21.745   2.902  1.00  0.00     0.006 C 
BRANCH  12  13
ATOM     13  C   UNL     1     -10.099  22.202   4.257  1.00  0.00     0.053 C 
BRANCH  13  14
ATOM     14  C   UNL     1     -11.134  23.274   4.105  1.00  0.00     0.041 C 
ATOM     15  O   UNL     1     -10.786  24.464   3.888  1.00  0.00    -0.550 OA
ATOM     16  O   UNL     1     -12.482  22.965   4.240  1.00  0.00    -0.550 OA
ENDBRANCH  13  14
ENDBRANCH  12  13
ENDBRANCH  11  12
ENDBRANCH  10  11
ENDBRANCH   9  10
ENDBRANCH   8   9
ENDBRANCH   7   8
ENDBRANCH   6   7
ENDBRANCH   5   6
ENDBRANCH   4   5
ENDBRANCH   3   4
ENDBRANCH   2   3
ENDBRANCH   1   2
BRANCH   1  17
ATOM     17  C   UNL     1      -0.867  22.098   5.424  1.00  0.00     0.000 C 
BRANCH  17  18
ATOM     18  C   UNL     1       0.572  21.736   5.027  1.00  0.00     0.000 C 
BRANCH  18  19
ATOM     19  C   UNL     1       1.630  22.443   5.894  1.00  0.00     0.000 C 
BRANCH  19  20
ATOM     20  C   UNL     1       2.568  21.504   6.673  1.00  0.00     0.000 C 
BRANCH  20  21
ATOM     21  C   UNL     1       4.055  21.811   6.436  1.00  0.00     0.000 C 
BRANCH  21  22
ATOM     22  C   UNL     1       4.749  22.194   7.752  1.00  0.00    -0.000 C 
BRANCH  22  23
ATOM     23  C   UNL     1       6.158  22.774   7.540  1.00  0.00    -0.000 C 
BRANCH  23  24
ATOM     24  C   UNL     1       6.507  23.123   6.079  1.00  0.00    -0.000 C 
BRANCH  24  25
ATOM     25  C   UNL     1       6.064  24.539   5.655  1.00  0.00    -0.000 C 
BRANCH  25  26
ATOM     26  C   UNL     1       6.166  24.748   4.137  1.00  0.00    -0.000 C 
BRANCH  26  27
ATOM     27  C   UNL     1       4.841  25.255   3.555  1.00  0.00    -0.000 C 
BRANCH  27  28
ATOM     28  C   UNL     1       4.381  24.452   2.323  1.00  0.00    -0.000 C 
BRANCH  28  29
ATOM     29  C   UNL     1       4.565  22.928   2.434  1.00  0.00    -0.003 C 
ATOM     30  C   UNL     1       3.247  22.174   2.612  1.00  0.00     0.004 C 
ENDBRANCH  28  29
ENDBRANCH  27  28
ENDBRANCH  26  27
ENDBRANCH  25  26
ENDBRANCH  24  25
ENDBRANCH  23  24
ENDBRANCH  22  23
ENDBRANCH  21  22
ENDBRANCH  20  21
ENDBRANCH  19  20
ENDBRANCH  18  19
ENDBRANCH  17  18
ENDBRANCH   1  17
TORSDOF 26
ENDMDL
MODEL 5
REMARK VINA RESULT:    -1.741      1.420      2.761
REMARK INTER + INTRA:          -6.647
REMARK INTER:                  -5.009
REMARK INTRA:                  -1.638
REMARK UNBOUND:                -2.260
REMARK SMILES CCCCCCCCCCCCCCCCCCCCCCCCCCCC(=O)[O-]
REMARK SMILES IDX 15 1 16 2 17 3 18 4 19 5 20 6 21 7 22 8 23 9 24 10 25 11
REMARK SMILES IDX 26 12 27 13 28 14 29 15 30 16 14 17 13 18 12 19 11 20 10 21
REMARK SMILES IDX 9 22 8 23 7 24 6 25 5 26 4 27 3 28 2 29 1 30
REMARK H PARENT
REMARK Flexibility Score: inf
ROOT
ATOM      1  C   UNL     1       0.535  23.026   1.892  1.00  0.00     0.000 C 
ENDROOT
BRANCH   1   2
ATOM      2  C   UNL     1       2.036  23.162   2.223  1.00  0.00     0.000 C 
BRANCH   2   3
ATOM      3  C   UNL     1       2.768  21.816   2.354  1.00  0.00     0.000 C 
BRANCH   3   4
ATOM      4  C   UNL     1       2.147  20.897   3.419  1.00  0.00     0.000 C 
BRANCH   4   5
ATOM      5  C   UNL     1       1.783  21.646   4.709  1.00  0.00     0.000 C 
BRANCH   5   6
ATOM      6  C   UNL     1       2.915  21.623   5.748  1.00  0.00     0.000 C 
BRANCH   6   7
ATOM      7  C   UNL     1       4.250  21.260   5.087  1.00  0.00     0.000 C 
BRANCH   7   8
ATOM      8  C   UNL     1       5.310  20.903   6.140  1.00  0.00     0.000 C 
BRANCH   8   9
ATOM      9  C   UNL     1       4.984  21.487   7.524  1.00  0.00     0.000 C 
BRANCH   9  10
ATOM     10  C   UNL     1       6.084  22.430   8.041  1.00  0.00     0.000 C 
BRANCH  10  11
ATOM     11  C   UNL     1       6.013  23.834   7.412  1.00  0.00     0.000 C 
BRANCH  11  12
ATOM     12  C   UNL     1       7.108  24.135   6.369  1.00  0.00     0.006 C 
BRANCH  12  13
ATOM     13  C   UNL     1       6.655  25.035   5.208  1.00  0.00     0.053 C 
BRANCH  13  14
ATOM     14  C   UNL     1       5.958  24.260   4.132  1.00  0.00     0.041 C 
ATOM     15  O   UNL     1       6.523  23.272   3.596  1.00  0.00    -0.550 OA
ATOM     16  O   UNL     1       4.698  24.653   3.697  1.00  0.00    -0.550 OA
ENDBRANCH  13  14
ENDBRANCH  12  13
ENDBRANCH  11  12
ENDBRANCH  10  11
ENDBRANCH   9  10
ENDBRANCH   8   9
ENDBRANCH   7   8
ENDBRANCH   6   7
ENDBRANCH   5   6
ENDBRANCH   4   5
ENDBRANCH   3   4
ENDBRANCH   2   3
ENDBRANCH   1   2
BRANCH   1  17
ATOM     17  C   UNL     1      -0.326  24.056   2.639  1.00  0.00     0.000 C 
BRANCH  17  18
ATOM     18  C   UNL     1      -1.807  23.648   2.625  1.00  0.00     0.000 C 
BRANCH  18  19
ATOM     19  C   UNL     1      -2.109  22.454   3.549  1.00  0.00     0.000 C 
BRANCH  19  20
ATOM     20  C   UNL     1      -2.219  21.092   2.839  1.00  0.00     0.000 C 
BRANCH  20  21
ATOM     21  C   UNL     1      -3.452  20.989   1.927  1.00  0.00     0.000 C 
BRANCH  21  22
ATOM     22  C   UNL     1      -4.668  21.668   2.575  1.00  0.00    -0.000 C 
BRANCH  22  23
ATOM     23  C   UNL     1      -6.001  21.257   1.926  1.00  0.00    -0.000 C 
BRANCH  23  24
ATOM     24  C   UNL     1      -7.263  21.802   2.625  1.00  0.00    -0.000 C 
BRANCH  24  25
ATOM     25  C   UNL     1      -8.491  20.876   2.501  1.00  0.00    -0.000 C 
BRANCH  25  26
ATOM     26  C   UNL     1      -9.777  21.548   3.004  1.00  0.00    -0.000 C 
BRANCH  26  27
ATOM     27  C   UNL     1      -9.735  21.763   4.522  1.00  0.00    -0.000 C 
BRANCH  27  28
ATOM     28  C   UNL     1     -11.135  21.773   5.164  1.00  0.00    -0.000 C 
BRANCH  28  29
ATOM     29  C   UNL     1     -12.301  21.980   4.180  1.00  0.00    -0.003 C 
ATOM     30  C   UNL     1     -12.579  23.452   3.877  1.00  0.00     0.004 C 
ENDBRANCH  28  29
ENDBRANCH  27  28
ENDBRANCH  26  27
ENDBRANCH  25  26
ENDBRANCH  24  25
ENDBRANCH  23  24
ENDBRANCH  22  23
ENDBRANCH  21  22
ENDBRANCH  20  21
ENDBRANCH  19  20
ENDBRANCH  18  19
ENDBRANCH  17  18
ENDBRANCH   1  17
TORSDOF 26
ENDMDL
MODEL 6
REMARK VINA RESULT:    -1.534      4.094     11.225
REMARK INTER + INTRA:          -6.127
REMARK INTER:                  -3.099
REMARK INTRA:                  -3.028
REMARK UNBOUND:                -2.260
REMARK SMILES CCCCCCCCCCCCCCCCCCCCCCCCCCCC(=O)[O-]
REMARK SMILES IDX 15 1 16 2 17 3 18 4 19 5 20 6 21 7 22 8 23 9 24 10 25 11
REMARK SMILES IDX 26 12 27 13 28 14 29 15 30 16 14 17 13 18 12 19 11 20 10 21
REMARK SMILES IDX 9 22 8 23 7 24 6 25 5 26 4 27 3 28 2 29 1 30
REMARK H PARENT
REMARK Flexibility Score: inf
ROOT
ATOM      1  C   UNL     1       1.608  21.669   7.401  1.00  0.00     0.000 C 
ENDROOT
BRANCH   1   2
ATOM      2  C   UNL     1       0.440  22.338   6.645  1.00  0.00     0.000 C 
BRANCH   2   3
ATOM      3  C   UNL     1      -0.747  21.397   6.379  1.00  0.00     0.000 C 
BRANCH   3   4
ATOM      4  C   UNL     1      -1.185  21.385   4.906  1.00  0.00     0.000 C 
BRANCH   4   5
ATOM      5  C   UNL     1      -1.338  22.797   4.321  1.00  0.00     0.000 C 
BRANCH   5   6
ATOM      6  C   UNL     1      -2.001  22.795   2.935  1.00  0.00     0.000 C 
BRANCH   6   7
ATOM      7  C   UNL     1      -1.887  21.414   2.279  1.00  0.00     0.000 C 
BRANCH   7   8
ATOM      8  C   UNL     1      -3.269  20.875   1.878  1.00  0.00     0.000 C 
BRANCH   8   9
ATOM      9  C   UNL     1      -4.372  21.294   2.862  1.00  0.00     0.000 C 
BRANCH   9  10
ATOM     10  C   UNL     1      -5.784  21.101   2.284  1.00  0.00     0.000 C 
BRANCH  10  11
ATOM     11  C   UNL     1      -6.807  22.099   2.856  1.00  0.00     0.000 C 
BRANCH  11  12
ATOM     12  C   UNL     1      -8.284  21.750   2.574  1.00  0.00     0.006 C 
BRANCH  12  13
ATOM     13  C   UNL     1      -9.007  21.046   3.733  1.00  0.00     0.053 C 
BRANCH  13  14
ATOM     14  C   UNL     1      -9.900  21.979   4.491  1.00  0.00     0.041 C 
ATOM     15  O   UNL     1      -9.789  22.089   5.740  1.00  0.00    -0.550 OA
ATOM     16  O   UNL     1     -10.881  22.702   3.822  1.00  0.00    -0.550 OA
ENDBRANCH  13  14
ENDBRANCH  12  13
ENDBRANCH  11  12
ENDBRANCH  10  11
ENDBRANCH   9  10
ENDBRANCH   8   9
ENDBRANCH   7   8
ENDBRANCH   6   7
ENDBRANCH   5   6
ENDBRANCH   4   5
ENDBRANCH   3   4
ENDBRANCH   2   3
ENDBRANCH   1   2
BRANCH   1  17
ATOM     17  C   UNL     1       2.749  22.653   7.705  1.00  0.00     0.000 C 
BRANCH  17  18
ATOM     18  C   UNL     1       3.464  23.080   6.414  1.00  0.00     0.000 C 
BRANCH  18  19
ATOM     19  C   UNL     1       4.757  23.873   6.678  1.00  0.00     0.000 C 
BRANCH  19  20
ATOM     20  C   UNL     1       5.766  23.181   7.612  1.00  0.00     0.000 C 
BRANCH  20  21
ATOM     21  C   UNL     1       6.751  22.272   6.862  1.00  0.00     0.000 C 
BRANCH  21  22
ATOM     22  C   UNL     1       6.000  21.218   6.035  1.00  0.00    -0.000 C 
BRANCH  22  23
ATOM     23  C   UNL     1       6.487  21.139   4.578  1.00  0.00    -0.000 C 
BRANCH  23  24
ATOM     24  C   UNL     1       7.055  22.454   4.008  1.00  0.00    -0.000 C 
BRANCH  24  25
ATOM     25  C   UNL     1       6.017  23.300   3.240  1.00  0.00    -0.000 C 
BRANCH  25  26
ATOM     26  C   UNL     1       5.638  22.669   1.892  1.00  0.00    -0.000 C 
BRANCH  26  27
ATOM     27  C   UNL     1       4.190  22.165   1.901  1.00  0.00    -0.000 C 
BRANCH  27  28
ATOM     28  C   UNL     1       3.231  23.114   2.643  1.00  0.00    -0.000 C 
BRANCH  28  29
ATOM     29  C   UNL     1       1.862  22.507   3.003  1.00  0.00    -0.003 C 
ATOM     30  C   UNL     1       1.872  20.979   3.036  1.00  0.00     0.004 C 
ENDBRANCH  28  29
ENDBRANCH  27  28
ENDBRANCH  26  27
ENDBRANCH  25  26
ENDBRANCH  24  25
ENDBRANCH  23  24
ENDBRANCH  22  23
ENDBRANCH  21  22
ENDBRANCH  20  21
ENDBRANCH  19  20
ENDBRANCH  18  19
ENDBRANCH  17  18
ENDBRANCH   1  17
TORSDOF 26
ENDMDL
MODEL 7
REMARK VINA RESULT:    -1.265      4.272     12.630
REMARK INTER + INTRA:          -5.449
REMARK INTER:                  -3.648
REMARK INTRA:                  -1.801
REMARK UNBOUND:                -2.260
REMARK SMILES CCCCCCCCCCCCCCCCCCCCCCCCCCCC(=O)[O-]
REMARK SMILES IDX 15 1 16 2 17 3 18 4 19 5 20 6 21 7 22 8 23 9 24 10 25 11
REMARK SMILES IDX 26 12 27 13 28 14 29 15 30 16 14 17 13 18 12 19 11 20 10 21
REMARK SMILES IDX 9 22 8 23 7 24 6 25 5 26 4 27 3 28 2 29 1 30
REMARK H PARENT
REMARK Flexibility Score: inf
ROOT
ATOM      1  C   UNL     1      -1.647  24.200   2.793  1.00  0.00     0.000 C 
ENDROOT
BRANCH   1   2
ATOM      2  C   UNL     1      -1.953  22.739   3.186  1.00  0.00     0.000 C 
BRANCH   2   3
ATOM      3  C   UNL     1      -2.480  21.881   2.024  1.00  0.00     0.000 C 
BRANCH   3   4
ATOM      4  C   UNL     1      -3.732  21.071   2.396  1.00  0.00     0.000 C 
BRANCH   4   5
ATOM      5  C   UNL     1      -4.677  21.835   3.335  1.00  0.00     0.000 C 
BRANCH   5   6
ATOM      6  C   UNL     1      -5.974  21.064   3.627  1.00  0.00     0.000 C 
BRANCH   6   7
ATOM      7  C   UNL     1      -6.938  21.153   2.439  1.00  0.00     0.000 C 
BRANCH   7   8
ATOM      8  C   UNL     1      -7.048  22.596   1.922  1.00  0.00     0.000 C 
BRANCH   8   9
ATOM      9  C   UNL     1      -8.140  23.399   2.646  1.00  0.00     0.000 C 
BRANCH   9  10
ATOM     10  C   UNL     1      -9.534  23.183   2.034  1.00  0.00     0.000 C 
BRANCH  10  11
ATOM     11  C   UNL     1     -10.102  21.780   2.316  1.00  0.00     0.000 C 
BRANCH  11  12
ATOM     12  C   UNL     1     -11.642  21.698   2.360  1.00  0.00     0.006 C 
BRANCH  12  13
ATOM     13  C   UNL     1     -12.284  22.383   3.576  1.00  0.00     0.053 C 
BRANCH  13  14
ATOM     14  C   UNL     1     -11.878  21.739   4.866  1.00  0.00     0.041 C 
ATOM     15  O   UNL     1     -12.735  21.156   5.581  1.00  0.00    -0.550 OA
ATOM     16  O   UNL     1     -10.560  21.814   5.297  1.00  0.00    -0.550 OA
ENDBRANCH  13  14
ENDBRANCH  12  13
ENDBRANCH  11  12
ENDBRANCH  10  11
ENDBRANCH   9  10
ENDBRANCH   8   9
ENDBRANCH   7   8
ENDBRANCH   6   7
ENDBRANCH   5   6
ENDBRANCH   4   5
ENDBRANCH   3   4
ENDBRANCH   2   3
ENDBRANCH   1   2
BRANCH   1  17
ATOM     17  C   UNL     1      -0.171  24.410   2.421  1.00  0.00     0.000 C 
BRANCH  17  18
ATOM     18  C   UNL     1       0.752  23.946   3.558  1.00  0.00     0.000 C 
BRANCH  18  19
ATOM     19  C   UNL     1       2.042  23.277   3.049  1.00  0.00     0.000 C 
BRANCH  19  20
ATOM     20  C   UNL     1       2.729  23.997   1.875  1.00  0.00     0.000 C 
BRANCH  20  21
ATOM     21  C   UNL     1       3.773  25.028   2.332  1.00  0.00     0.000 C 
BRANCH  21  22
ATOM     22  C   UNL     1       4.222  24.747   3.774  1.00  0.00    -0.000 C 
BRANCH  22  23
ATOM     23  C   UNL     1       5.687  24.285   3.867  1.00  0.00    -0.000 C 
BRANCH  23  24
ATOM     24  C   UNL     1       5.888  22.757   3.920  1.00  0.00    -0.000 C 
BRANCH  24  25
ATOM     25  C   UNL     1       6.636  22.272   5.179  1.00  0.00    -0.000 C 
BRANCH  25  26
ATOM     26  C   UNL     1       6.080  20.941   5.707  1.00  0.00    -0.000 C 
BRANCH  26  27
ATOM     27  C   UNL     1       4.556  20.876   5.554  1.00  0.00    -0.000 C 
BRANCH  27  28
ATOM     28  C   UNL     1       3.812  21.032   6.894  1.00  0.00    -0.000 C 
BRANCH  28  29
ATOM     29  C   UNL     1       2.514  21.857   6.826  1.00  0.00    -0.003 C 
ATOM     30  C   UNL     1       2.750  23.321   6.454  1.00  0.00     0.004 C 
ENDBRANCH  28  29
ENDBRANCH  27  28
ENDBRANCH  26  27
ENDBRANCH  25  26
ENDBRANCH  24  25
ENDBRANCH  23  24
ENDBRANCH  22  23
ENDBRANCH  21  22
ENDBRANCH  20  21
ENDBRANCH  19  20
ENDBRANCH  18  19
ENDBRANCH  17  18
ENDBRANCH   1  17
TORSDOF 26
ENDMDL
MODEL 8
REMARK VINA RESULT:    -1.216      4.165     12.021
REMARK INTER + INTRA:          -5.325
REMARK INTER:                  -4.379
REMARK INTRA:                  -0.946
REMARK UNBOUND:                -2.260
REMARK SMILES CCCCCCCCCCCCCCCCCCCCCCCCCCCC(=O)[O-]
REMARK SMILES IDX 15 1 16 2 17 3 18 4 19 5 20 6 21 7 22 8 23 9 24 10 25 11
REMARK SMILES IDX 26 12 27 13 28 14 29 15 30 16 14 17 13 18 12 19 11 20 10 21
REMARK SMILES IDX 9 22 8 23 7 24 6 25 5 26 4 27 3 28 2 29 1 30
REMARK H PARENT
REMARK Flexibility Score: inf
ROOT
ATOM      1  C   UNL     1       0.064  24.592   3.753  1.00  0.00     0.000 C 
ENDROOT
BRANCH   1   2
ATOM      2  C   UNL     1      -1.132  23.710   4.168  1.00  0.00     0.000 C 
BRANCH   2   3
ATOM      3  C   UNL     1      -0.859  22.833   5.402  1.00  0.00     0.000 C 
BRANCH   3   4
ATOM      4  C   UNL     1      -0.894  21.329   5.088  1.00  0.00     0.000 C 
BRANCH   4   5
ATOM      5  C   UNL     1      -2.121  20.923   4.259  1.00  0.00     0.000 C 
BRANCH   5   6
ATOM      6  C   UNL     1      -2.162  21.609   2.885  1.00  0.00     0.000 C 
BRANCH   6   7
ATOM      7  C   UNL     1      -3.122  20.875   1.940  1.00  0.00     0.000 C 
BRANCH   7   8
ATOM      8  C   UNL     1      -4.484  21.583   1.875  1.00  0.00     0.000 C 
BRANCH   8   9
ATOM      9  C   UNL     1      -5.550  20.885   2.734  1.00  0.00     0.000 C 
BRANCH   9  10
ATOM     10  C   UNL     1      -6.941  20.904   2.079  1.00  0.00     0.000 C 
BRANCH  10  11
ATOM     11  C   UNL     1      -7.864  21.989   2.663  1.00  0.00     0.000 C 
BRANCH  11  12
ATOM     12  C   UNL     1      -9.203  21.469   3.227  1.00  0.00     0.006 C 
BRANCH  12  13
ATOM     13  C   UNL     1     -10.441  21.878   2.414  1.00  0.00     0.053 C 
BRANCH  13  14
ATOM     14  C   UNL     1     -11.187  23.011   3.051  1.00  0.00     0.041 C 
ATOM     15  O   UNL     1     -11.159  24.158   2.535  1.00  0.00    -0.550 OA
ATOM     16  O   UNL     1     -11.883  22.806   4.236  1.00  0.00    -0.550 OA
ENDBRANCH  13  14
ENDBRANCH  12  13
ENDBRANCH  11  12
ENDBRANCH  10  11
ENDBRANCH   9  10
ENDBRANCH   8   9
ENDBRANCH   7   8
ENDBRANCH   6   7
ENDBRANCH   5   6
ENDBRANCH   4   5
ENDBRANCH   3   4
ENDBRANCH   2   3
ENDBRANCH   1   2
BRANCH   1  17
ATOM     17  C   UNL     1       0.340  24.535   2.243  1.00  0.00     0.000 C 
BRANCH  17  18
ATOM     18  C   UNL     1       1.564  23.658   1.942  1.00  0.00     0.000 C 
BRANCH  18  19
ATOM     19  C   UNL     1       1.473  22.260   2.580  1.00  0.00     0.000 C 
BRANCH  19  20
ATOM     20  C   UNL     1       2.639  21.893   3.515  1.00  0.00     0.000 C 
BRANCH  20  21
ATOM     21  C   UNL     1       2.771  22.848   4.711  1.00  0.00     0.000 C 
BRANCH  21  22
ATOM     22  C   UNL     1       2.918  22.063   6.023  1.00  0.00    -0.000 C 
BRANCH  22  23
ATOM     23  C   UNL     1       4.379  21.942   6.490  1.00  0.00    -0.000 C 
BRANCH  23  24
ATOM     24  C   UNL     1       4.868  23.083   7.406  1.00  0.00    -0.000 C 
BRANCH  24  25
ATOM     25  C   UNL     1       6.396  23.297   7.371  1.00  0.00    -0.000 C 
BRANCH  25  26
ATOM     26  C   UNL     1       7.056  22.574   6.187  1.00  0.00    -0.000 C 
BRANCH  26  27
ATOM     27  C   UNL     1       6.465  23.042   4.851  1.00  0.00    -0.000 C 
BRANCH  27  28
ATOM     28  C   UNL     1       6.909  24.466   4.467  1.00  0.00    -0.000 C 
BRANCH  28  29
ATOM     29  C   UNL     1       6.055  25.144   3.380  1.00  0.00    -0.003 C 
ATOM     30  C   UNL     1       6.811  25.362   2.069  1.00  0.00     0.004 C 
ENDBRANCH  28  29
ENDBRANCH  27  28
ENDBRANCH  26  27
ENDBRANCH  25  26
ENDBRANCH  24  25
ENDBRANCH  23  24
ENDBRANCH  22  23
ENDBRANCH  21  22
ENDBRANCH  20  21
ENDBRANCH  19  20
ENDBRANCH  18  19
ENDBRANCH  17  18
ENDBRANCH   1  17
TORSDOF 26
ENDMDL
