MODEL 1
REMARK VINA RESULT:    -4.526      0.000      0.000
REMARK INTER + INTRA:          -7.764
REMARK INTER:                  -6.907
REMARK INTRA:                  -0.857
REMARK UNBOUND:                -0.857
REMARK SMILES O=C([O-])CCCCCCCCC(=O)[O-]
REMARK SMILES IDX 7 1 6 2 5 3 4 4 2 5 1 6 3 7 8 8 9 9 10 10 11 11 12 12 13 13
REMARK SMILES IDX 14 14
REMARK H PARENT
REMARK Flexibility Score: inf
ROOT
ATOM      1  C   UNL     1     -49.062 -47.769  19.083  1.00  0.00     0.000 C 
ENDROOT
BRANCH   1   2
ATOM      2  C   UNL     1     -49.473 -48.950  19.971  1.00  0.00     0.000 C 
BRANCH   2   3
ATOM      3  C   UNL     1     -49.356 -50.279  19.212  1.00  0.00     0.006 C 
BRANCH   3   4
ATOM      4  C   UNL     1     -50.556 -50.530  18.289  1.00  0.00     0.053 C 
BRANCH   4   5
ATOM      5  C   UNL     1     -51.841 -50.602  19.056  1.00  0.00     0.041 C 
ATOM      6  O   UNL     1     -51.988 -51.457  19.968  1.00  0.00    -0.550 OA
ATOM      7  O   UNL     1     -52.865 -49.703  18.785  1.00  0.00    -0.550 OA
ENDBRANCH   4   5
ENDBRANCH   3   4
ENDBRANCH   2   3
ENDBRANCH   1   2
BRANCH   1   8
ATOM      8  C   UNL     1     -47.809 -48.110  18.262  1.00  0.00     0.000 C 
BRANCH   8   9
ATOM      9  C   UNL     1     -47.760 -47.365  16.918  1.00  0.00     0.000 C 
BRANCH   9  10
ATOM     10  C   UNL     1     -47.364 -48.281  15.748  1.00  0.00     0.006 C 
BRANCH  10  11
ATOM     11  C   UNL     1     -47.580 -49.765  16.075  1.00  0.00     0.053 C 
BRANCH  11  12
ATOM     12  C   UNL     1     -48.614 -50.385  15.188  1.00  0.00     0.041 C 
ATOM     13  O   UNL     1     -48.886 -51.611  15.290  1.00  0.00    -0.550 OA
ATOM     14  O   UNL     1     -49.299 -49.603  14.266  1.00  0.00    -0.550 OA
ENDBRANCH  11  12
ENDBRANCH  10  11
ENDBRANCH   9  10
ENDBRANCH   8   9
ENDBRANCH   1   8
TORSDOF 9
ENDMDL
MODEL 2
REMARK VINA RESULT:    -4.478      1.082      4.229
REMARK INTER + INTRA:          -7.692
REMARK INTER:                  -6.984
REMARK INTRA:                  -0.708
REMARK UNBOUND:                -0.857
REMARK SMILES O=C([O-])CCCCCCCCC(=O)[O-]
REMARK SMILES IDX 7 1 6 2 5 3 4 4 2 5 1 6 3 7 8 8 9 9 10 10 11 11 12 12 13 13
REMARK SMILES IDX 14 14
REMARK H PARENT
REMARK Flexibility Score: inf
ROOT
ATOM      1  C   UNL     1     -47.886 -46.951  16.992  1.00  0.00     0.000 C 
ENDROOT
BRANCH   1   2
ATOM      2  C   UNL     1     -47.410 -47.784  15.795  1.00  0.00     0.000 C 
BRANCH   2   3
ATOM      3  C   UNL     1     -47.386 -49.280  16.139  1.00  0.00     0.006 C 
BRANCH   3   4
ATOM      4  C   UNL     1     -48.412 -50.080  15.323  1.00  0.00     0.053 C 
BRANCH   4   5
ATOM      5  C   UNL     1     -49.121 -51.096  16.165  1.00  0.00     0.041 C 
ATOM      6  O   UNL     1     -48.464 -51.899  16.877  1.00  0.00    -0.550 OA
ATOM      7  O   UNL     1     -50.509 -51.133  16.188  1.00  0.00    -0.550 OA
ENDBRANCH   4   5
ENDBRANCH   3   4
ENDBRANCH   2   3
ENDBRANCH   1   2
BRANCH   1   8
ATOM      8  C   UNL     1     -47.841 -47.774  18.287  1.00  0.00     0.000 C 
BRANCH   8   9
ATOM      9  C   UNL     1     -49.214 -47.880  18.971  1.00  0.00     0.000 C 
BRANCH   9  10
ATOM     10  C   UNL     1     -49.576 -49.326  19.351  1.00  0.00     0.006 C 
BRANCH  10  11
ATOM     11  C   UNL     1     -50.911 -49.409  20.103  1.00  0.00     0.053 C 
BRANCH  11  12
ATOM     12  C   UNL     1     -51.867 -50.350  19.438  1.00  0.00     0.041 C 
ATOM     13  O   UNL     1     -51.978 -51.537  19.848  1.00  0.00    -0.550 OA
ATOM     14  O   UNL     1     -52.656 -49.910  18.383  1.00  0.00    -0.550 OA
ENDBRANCH  11  12
ENDBRANCH  10  11
ENDBRANCH   9  10
ENDBRANCH   8   9
ENDBRANCH   1   8
TORSDOF 9
ENDMDL
MODEL 3
REMARK VINA RESULT:    -4.431      1.343      4.589
REMARK INTER + INTRA:          -7.620
REMARK INTER:                  -6.884
REMARK INTRA:                  -0.736
REMARK UNBOUND:                -0.857
REMARK SMILES O=C([O-])CCCCCCCCC(=O)[O-]
REMARK SMILES IDX 7 1 6 2 5 3 4 4 2 5 1 6 3 7 8 8 9 9 10 10 11 11 12 12 13 13
REMARK SMILES IDX 14 14
REMARK H PARENT
REMARK Flexibility Score: inf
ROOT
ATOM      1  C   UNL     1     -48.490 -49.536  18.663  1.00  0.00     0.000 C 
ENDROOT
BRANCH   1   2
ATOM      2  C   UNL     1     -47.277 -49.213  17.782  1.00  0.00     0.000 C 
BRANCH   2   3
ATOM      3  C   UNL     1     -47.555 -49.558  16.312  1.00  0.00     0.006 C 
BRANCH   3   4
ATOM      4  C   UNL     1     -48.520 -50.743  16.166  1.00  0.00     0.053 C 
BRANCH   4   5
ATOM      5  C   UNL     1     -49.417 -50.586  14.977  1.00  0.00     0.041 C 
ATOM      6  O   UNL     1     -50.280 -51.464  14.714  1.00  0.00    -0.550 OA
ATOM      7  O   UNL     1     -49.321 -49.455  14.177  1.00  0.00    -0.550 OA
ENDBRANCH   4   5
ENDBRANCH   3   4
ENDBRANCH   2   3
ENDBRANCH   1   2
BRANCH   1   8
ATOM      8  C   UNL     1     -49.223 -48.252  19.081  1.00  0.00     0.000 C 
BRANCH   8   9
ATOM      9  C   UNL     1     -50.299 -48.504  20.150  1.00  0.00     0.000 C 
BRANCH   9  10
ATOM     10  C   UNL     1     -50.565 -50.001  20.381  1.00  0.00     0.006 C 
BRANCH  10  11
ATOM     11  C   UNL     1     -52.032 -50.374  20.127  1.00  0.00     0.053 C 
BRANCH  11  12
ATOM     12  C   UNL     1     -52.440 -50.093  18.714  1.00  0.00     0.041 C 
ATOM     13  O   UNL     1     -53.404 -49.318  18.473  1.00  0.00    -0.550 OA
ATOM     14  O   UNL     1     -51.738 -50.666  17.661  1.00  0.00    -0.550 OA
ENDBRANCH  11  12
ENDBRANCH  10  11
ENDBRANCH   9  10
ENDBRANCH   8   9
ENDBRANCH   1   8
TORSDOF 9
ENDMDL
MODEL 4
REMARK VINA RESULT:    -4.343      1.661      4.668
REMARK INTER + INTRA:          -7.485
REMARK INTER:                  -6.677
REMARK INTRA:                  -0.808
REMARK UNBOUND:                -0.857
REMARK SMILES O=C([O-])CCCCCCCCC(=O)[O-]
REMARK SMILES IDX 7 1 6 2 5 3 4 4 2 5 1 6 3 7 8 8 9 9 10 10 11 11 12 12 13 13
REMARK SMILES IDX 14 14
REMARK H PARENT
REMARK Flexibility Score: inf
ROOT
ATOM      1  C   UNL     1     -47.264 -49.311  18.206  1.00  0.00     0.000 C 
ENDROOT
BRANCH   1   2
ATOM      2  C   UNL     1     -47.510 -48.993  16.726  1.00  0.00     0.000 C 
BRANCH   2   3
ATOM      3  C   UNL     1     -47.652 -50.280  15.901  1.00  0.00     0.006 C 
BRANCH   3   4
ATOM      4  C   UNL     1     -48.656 -51.260  16.521  1.00  0.00     0.053 C 
BRANCH   4   5
ATOM      5  C   UNL     1     -50.038 -51.056  15.981  1.00  0.00     0.041 C 
ATOM      6  O   UNL     1     -50.997 -50.825  16.763  1.00  0.00    -0.550 OA
ATOM      7  O   UNL     1     -50.262 -51.090  14.611  1.00  0.00    -0.550 OA
ENDBRANCH   4   5
ENDBRANCH   3   4
ENDBRANCH   2   3
ENDBRANCH   1   2
BRANCH   1   8
ATOM      8  C   UNL     1     -48.024 -48.332  19.113  1.00  0.00     0.000 C 
BRANCH   8   9
ATOM      9  C   UNL     1     -49.518 -48.673  19.233  1.00  0.00     0.000 C 
BRANCH   9  10
ATOM     10  C   UNL     1     -49.764 -50.027  19.919  1.00  0.00     0.006 C 
BRANCH  10  11
ATOM     11  C   UNL     1     -50.813 -49.929  21.035  1.00  0.00     0.053 C 
BRANCH  11  12
ATOM     12  C   UNL     1     -52.041 -49.203  20.581  1.00  0.00     0.041 C 
ATOM     13  O   UNL     1     -52.757 -49.680  19.660  1.00  0.00    -0.550 OA
ATOM     14  O   UNL     1     -52.411 -48.012  21.193  1.00  0.00    -0.550 OA
ENDBRANCH  11  12
ENDBRANCH  10  11
ENDBRANCH   9  10
ENDBRANCH   8   9
ENDBRANCH   1   8
TORSDOF 9
ENDMDL
MODEL 5
REMARK VINA RESULT:    -4.235     13.645     15.033
REMARK INTER + INTRA:          -7.320
REMARK INTER:                  -6.434
REMARK INTRA:                  -0.886
REMARK UNBOUND:                -0.857
REMARK SMILES O=C([O-])CCCCCCCCC(=O)[O-]
REMARK SMILES IDX 7 1 6 2 5 3 4 4 2 5 1 6 3 7 8 8 9 9 10 10 11 11 12 12 13 13
REMARK SMILES IDX 14 14
REMARK H PARENT
REMARK Flexibility Score: inf
ROOT
ATOM      1  C   UNL     1     -45.967 -48.104  31.802  1.00  0.00     0.000 C 
ENDROOT
BRANCH   1   2
ATOM      2  C   UNL     1     -46.766 -49.360  32.171  1.00  0.00     0.000 C 
BRANCH   2   3
ATOM      3  C   UNL     1     -46.411 -49.845  33.584  1.00  0.00     0.006 C 
BRANCH   3   4
ATOM      4  C   UNL     1     -46.511 -51.370  33.718  1.00  0.00     0.053 C 
BRANCH   4   5
ATOM      5  C   UNL     1     -45.450 -52.068  32.922  1.00  0.00     0.041 C 
ATOM      6  O   UNL     1     -45.746 -52.653  31.847  1.00  0.00    -0.550 OA
ATOM      7  O   UNL     1     -44.130 -52.045  33.351  1.00  0.00    -0.550 OA
ENDBRANCH   4   5
ENDBRANCH   3   4
ENDBRANCH   2   3
ENDBRANCH   1   2
BRANCH   1   8
ATOM      8  C   UNL     1     -44.915 -48.418  30.729  1.00  0.00     0.000 C 
BRANCH   8   9
ATOM      9  C   UNL     1     -45.227 -49.707  29.951  1.00  0.00     0.000 C 
BRANCH   9  10
ATOM     10  C   UNL     1     -43.961 -50.502  29.589  1.00  0.00     0.006 C 
BRANCH  10  11
ATOM     11  C   UNL     1     -42.869 -50.370  30.660  1.00  0.00     0.053 C 
BRANCH  11  12
ATOM     12  C   UNL     1     -41.547 -49.998  30.064  1.00  0.00     0.041 C 
ATOM     13  O   UNL     1     -41.340 -50.158  28.831  1.00  0.00    -0.550 OA
ATOM     14  O   UNL     1     -40.552 -49.451  30.863  1.00  0.00    -0.550 OA
ENDBRANCH  11  12
ENDBRANCH  10  11
ENDBRANCH   9  10
ENDBRANCH   8   9
ENDBRANCH   1   8
TORSDOF 9
ENDMDL
MODEL 6
REMARK VINA RESULT:    -4.227      1.774      5.434
REMARK INTER + INTRA:          -7.309
REMARK INTER:                  -6.536
REMARK INTRA:                  -0.773
REMARK UNBOUND:                -0.857
REMARK SMILES O=C([O-])CCCCCCCCC(=O)[O-]
REMARK SMILES IDX 7 1 6 2 5 3 4 4 2 5 1 6 3 7 8 8 9 9 10 10 11 11 12 12 13 13
REMARK SMILES IDX 14 14
REMARK H PARENT
REMARK Flexibility Score: inf
ROOT
ATOM      1  C   UNL     1     -49.044 -48.828  18.951  1.00  0.00     0.000 C 
ENDROOT
BRANCH   1   2
ATOM      2  C   UNL     1     -47.573 -48.923  18.526  1.00  0.00     0.000 C 
BRANCH   2   3
ATOM      3  C   UNL     1     -47.383 -49.977  17.426  1.00  0.00     0.006 C 
BRANCH   3   4
ATOM      4  C   UNL     1     -47.759 -49.442  16.038  1.00  0.00     0.053 C 
BRANCH   4   5
ATOM      5  C   UNL     1     -48.744 -50.333  15.346  1.00  0.00     0.041 C 
ATOM      6  O   UNL     1     -48.946 -51.502  15.767  1.00  0.00    -0.550 OA
ATOM      7  O   UNL     1     -49.464 -49.862  14.255  1.00  0.00    -0.550 OA
ENDBRANCH   4   5
ENDBRANCH   3   4
ENDBRANCH   2   3
ENDBRANCH   1   2
BRANCH   1   8
ATOM      8  C   UNL     1     -49.626 -50.221  19.230  1.00  0.00     0.000 C 
BRANCH   8   9
ATOM      9  C   UNL     1     -50.964 -50.460  18.511  1.00  0.00     0.000 C 
BRANCH   9  10
ATOM     10  C   UNL     1     -52.127 -49.683  19.150  1.00  0.00     0.006 C 
BRANCH  10  11
ATOM     11  C   UNL     1     -52.318 -50.042  20.630  1.00  0.00     0.053 C 
BRANCH  11  12
ATOM     12  C   UNL     1     -52.410 -48.820  21.491  1.00  0.00     0.041 C 
ATOM     13  O   UNL     1     -53.243 -48.770  22.435  1.00  0.00    -0.550 OA
ATOM     14  O   UNL     1     -51.557 -47.747  21.269  1.00  0.00    -0.550 OA
ENDBRANCH  11  12
ENDBRANCH  10  11
ENDBRANCH   9  10
ENDBRANCH   8   9
ENDBRANCH   1   8
TORSDOF 9
ENDMDL
MODEL 7
REMARK VINA RESULT:    -4.223      2.003      2.701
REMARK INTER + INTRA:          -7.302
REMARK INTER:                  -6.813
REMARK INTRA:                  -0.489
REMARK UNBOUND:                -0.857
REMARK SMILES O=C([O-])CCCCCCCCC(=O)[O-]
REMARK SMILES IDX 7 1 6 2 5 3 4 4 2 5 1 6 3 7 8 8 9 9 10 10 11 11 12 12 13 13
REMARK SMILES IDX 14 14
REMARK H PARENT
REMARK Flexibility Score: inf
ROOT
ATOM      1  C   UNL     1     -49.930 -49.684  19.086  1.00  0.00     0.000 C 
ENDROOT
BRANCH   1   2
ATOM      2  C   UNL     1     -51.326 -50.244  18.787  1.00  0.00     0.000 C 
BRANCH   2   3
ATOM      3  C   UNL     1     -52.207 -50.231  20.045  1.00  0.00     0.006 C 
BRANCH   3   4
ATOM      4  C   UNL     1     -52.198 -48.865  20.746  1.00  0.00     0.053 C 
BRANCH   4   5
ATOM      5  C   UNL     1     -53.500 -48.585  21.433  1.00  0.00     0.041 C 
ATOM      6  O   UNL     1     -54.134 -49.517  21.993  1.00  0.00    -0.550 OA
ATOM      7  O   UNL     1     -53.996 -47.289  21.484  1.00  0.00    -0.550 OA
ENDBRANCH   4   5
ENDBRANCH   3   4
ENDBRANCH   2   3
ENDBRANCH   1   2
BRANCH   1   8
ATOM      8  C   UNL     1     -48.837 -50.674  18.657  1.00  0.00     0.000 C 
BRANCH   8   9
ATOM      9  C   UNL     1     -47.575 -49.972  18.130  1.00  0.00     0.000 C 
BRANCH   9  10
ATOM     10  C   UNL     1     -47.699 -49.558  16.655  1.00  0.00     0.006 C 
BRANCH  10  11
ATOM     11  C   UNL     1     -48.130 -50.728  15.759  1.00  0.00     0.053 C 
BRANCH  11  12
ATOM     12  C   UNL     1     -49.389 -50.420  15.010  1.00  0.00     0.041 C 
ATOM     13  O   UNL     1     -49.403 -49.510  14.139  1.00  0.00    -0.550 OA
ATOM     14  O   UNL     1     -50.541 -51.157  15.254  1.00  0.00    -0.550 OA
ENDBRANCH  11  12
ENDBRANCH  10  11
ENDBRANCH   9  10
ENDBRANCH   8   9
ENDBRANCH   1   8
TORSDOF 9
ENDMDL
MODEL 8
REMARK VINA RESULT:    -4.193      2.047      5.488
REMARK INTER + INTRA:          -7.256
REMARK INTER:                  -6.662
REMARK INTRA:                  -0.594
REMARK UNBOUND:                -0.857
REMARK SMILES O=C([O-])CCCCCCCCC(=O)[O-]
REMARK SMILES IDX 7 1 6 2 5 3 4 4 2 5 1 6 3 7 8 8 9 9 10 10 11 11 12 12 13 13
REMARK SMILES IDX 14 14
REMARK H PARENT
REMARK Flexibility Score: inf
ROOT
ATOM      1  C   UNL     1     -47.436 -49.585  18.336  1.00  0.00     0.000 C 
ENDROOT
BRANCH   1   2
ATOM      2  C   UNL     1     -47.482 -48.372  17.398  1.00  0.00     0.000 C 
BRANCH   2   3
ATOM      3  C   UNL     1     -47.361 -48.805  15.930  1.00  0.00     0.006 C 
BRANCH   3   4
ATOM      4  C   UNL     1     -47.718 -50.284  15.729  1.00  0.00     0.053 C 
BRANCH   4   5
ATOM      5  C   UNL     1     -49.085 -50.451  15.139  1.00  0.00     0.041 C 
ATOM      6  O   UNL     1     -49.430 -49.772  14.136  1.00  0.00    -0.550 OA
ATOM      7  O   UNL     1     -49.967 -51.379  15.677  1.00  0.00    -0.550 OA
ENDBRANCH   4   5
ENDBRANCH   3   4
ENDBRANCH   2   3
ENDBRANCH   1   2
BRANCH   1   8
ATOM      8  C   UNL     1     -48.759 -49.739  19.100  1.00  0.00     0.000 C 
BRANCH   8   9
ATOM      9  C   UNL     1     -49.605 -48.455  19.088  1.00  0.00     0.000 C 
BRANCH   9  10
ATOM     10  C   UNL     1     -50.030 -48.012  20.498  1.00  0.00     0.006 C 
BRANCH  10  11
ATOM     11  C   UNL     1     -49.291 -48.790  21.595  1.00  0.00     0.053 C 
BRANCH  11  12
ATOM     12  C   UNL     1     -50.226 -49.272  22.661  1.00  0.00     0.041 C 
ATOM     13  O   UNL     1     -49.961 -50.318  23.311  1.00  0.00    -0.550 OA
ATOM     14  O   UNL     1     -51.376 -48.552  22.955  1.00  0.00    -0.550 OA
ENDBRANCH  11  12
ENDBRANCH  10  11
ENDBRANCH   9  10
ENDBRANCH   8   9
ENDBRANCH   1   8
TORSDOF 9
ENDMDL
MODEL 9
REMARK VINA RESULT:    -4.169     14.138     15.313
REMARK INTER + INTRA:          -7.220
REMARK INTER:                  -6.836
REMARK INTRA:                  -0.384
REMARK UNBOUND:                -0.857
REMARK SMILES O=C([O-])CCCCCCCCC(=O)[O-]
REMARK SMILES IDX 7 1 6 2 5 3 4 4 2 5 1 6 3 7 8 8 9 9 10 10 11 11 12 12 13 13
REMARK SMILES IDX 14 14
REMARK H PARENT
REMARK Flexibility Score: inf
ROOT
ATOM      1  C   UNL     1     -41.372 -49.759  30.669  1.00  0.00     0.000 C 
ENDROOT
BRANCH   1   2
ATOM      2  C   UNL     1     -42.157 -50.749  31.539  1.00  0.00     0.000 C 
BRANCH   2   3
ATOM      3  C   UNL     1     -43.495 -51.119  30.884  1.00  0.00     0.006 C 
BRANCH   3   4
ATOM      4  C   UNL     1     -44.696 -50.735  31.758  1.00  0.00     0.053 C 
BRANCH   4   5
ATOM      5  C   UNL     1     -45.142 -51.876  32.621  1.00  0.00     0.041 C 
ATOM      6  O   UNL     1     -46.130 -52.579  32.282  1.00  0.00    -0.550 OA
ATOM      7  O   UNL     1     -44.448 -52.182  33.784  1.00  0.00    -0.550 OA
ENDBRANCH   4   5
ENDBRANCH   3   4
ENDBRANCH   2   3
ENDBRANCH   1   2
BRANCH   1   8
ATOM      8  C   UNL     1     -41.668 -49.982  29.179  1.00  0.00     0.000 C 
BRANCH   8   9
ATOM      9  C   UNL     1     -41.456 -48.715  28.335  1.00  0.00     0.000 C 
BRANCH   9  10
ATOM     10  C   UNL     1     -39.976 -48.473  27.992  1.00  0.00     0.006 C 
BRANCH  10  11
ATOM     11  C   UNL     1     -39.462 -47.140  28.555  1.00  0.00     0.053 C 
BRANCH  11  12
ATOM     12  C   UNL     1     -38.004 -47.203  28.888  1.00  0.00     0.041 C 
ATOM     13  O   UNL     1     -37.428 -46.210  29.408  1.00  0.00    -0.550 OA
ATOM     14  O   UNL     1     -37.286 -48.368  28.651  1.00  0.00    -0.550 OA
ENDBRANCH  11  12
ENDBRANCH  10  11
ENDBRANCH   9  10
ENDBRANCH   8   9
ENDBRANCH   1   8
TORSDOF 9
ENDMDL
