MODEL 1
REMARK VINA RESULT:    -5.250      0.000      0.000
REMARK INTER + INTRA:          -5.404
REMARK INTER:                  -5.404
REMARK INTRA:                   0.000
REMARK UNBOUND:                 0.000
REMARK SMILES O=c1ccc2ccc(O)cc2o1
REMARK SMILES IDX 6 1 7 2 8 3 10 4 11 5 5 6 4 7 3 8 2 9 1 10 12 11 9 12
REMARK H PARENT 9 13
REMARK Flexibility Score: inf
ROOT
ATOM      1  C   UNL     1       4.528   8.963   3.370  1.00  0.00     0.016 A 
ATOM      2  C   UNL     1       5.571   9.472   2.588  1.00  0.00     0.047 A 
ATOM      3  C   UNL     1       6.045  10.773   2.800  1.00  0.00     0.119 A 
ATOM      4  C   UNL     1       5.472  11.572   3.801  1.00  0.00     0.094 A 
ATOM      5  C   UNL     1       4.428  11.072   4.587  1.00  0.00     0.142 A 
ATOM      6  C   UNL     1       3.953   9.759   4.370  1.00  0.00     0.018 A 
ATOM      7  C   UNL     1       2.909   9.287   5.172  1.00  0.00     0.019 A 
ATOM      8  C   UNL     1       2.371  10.118   6.154  1.00  0.00     0.094 A 
ATOM      9  C   UNL     1       2.892  11.408   6.312  1.00  0.00     0.336 A 
ATOM     10  O   UNL     1       2.419  12.173   7.193  1.00  0.00    -0.246 OA
ATOM     11  O   UNL     1       3.885  11.832   5.535  1.00  0.00    -0.423 OA
ENDROOT
BRANCH   3  12
ATOM     12  O   UNL     1       7.084  11.262   2.012  1.00  0.00    -0.508 OA
ATOM     13  H   UNL     1       8.054  11.090   2.248  1.00  0.00     0.293 HD
ENDBRANCH   3  12
TORSDOF 1
ENDMDL
MODEL 2
REMARK VINA RESULT:    -4.895      2.210      4.082
REMARK INTER + INTRA:          -5.038
REMARK INTER:                  -5.038
REMARK INTRA:                   0.000
REMARK UNBOUND:                 0.000
REMARK SMILES O=c1ccc2ccc(O)cc2o1
REMARK SMILES IDX 6 1 7 2 8 3 10 4 11 5 5 6 4 7 3 8 2 9 1 10 12 11 9 12
REMARK H PARENT 9 13
REMARK Flexibility Score: inf
ROOT
ATOM      1  C   UNL     1       3.856  10.416   4.640  1.00  0.00     0.016 A 
ATOM      2  C   UNL     1       4.404  11.699   4.524  1.00  0.00     0.047 A 
ATOM      3  C   UNL     1       5.409  11.956   3.584  1.00  0.00     0.119 A 
ATOM      4  C   UNL     1       5.871  10.925   2.753  1.00  0.00     0.094 A 
ATOM      5  C   UNL     1       5.331   9.639   2.863  1.00  0.00     0.142 A 
ATOM      6  C   UNL     1       4.316   9.383   3.813  1.00  0.00     0.018 A 
ATOM      7  C   UNL     1       3.795   8.088   3.898  1.00  0.00     0.019 A 
ATOM      8  C   UNL     1       4.286   7.095   3.052  1.00  0.00     0.094 A 
ATOM      9  C   UNL     1       5.292   7.421   2.135  1.00  0.00     0.336 A 
ATOM     10  O   UNL     1       5.749   6.538   1.363  1.00  0.00    -0.246 OA
ATOM     11  O   UNL     1       5.771   8.661   2.074  1.00  0.00    -0.423 OA
ENDROOT
BRANCH   3  12
ATOM     12  O   UNL     1       5.941  13.239   3.483  1.00  0.00    -0.508 OA
ATOM     13  H   UNL     1       5.983  13.727   2.596  1.00  0.00     0.293 HD
ENDBRANCH   3  12
TORSDOF 1
ENDMDL
MODEL 3
REMARK VINA RESULT:    -4.788      1.882      2.845
REMARK INTER + INTRA:          -4.928
REMARK INTER:                  -4.928
REMARK INTRA:                   0.000
REMARK UNBOUND:                 0.000
REMARK SMILES O=c1ccc2ccc(O)cc2o1
REMARK SMILES IDX 6 1 7 2 8 3 10 4 11 5 5 6 4 7 3 8 2 9 1 10 12 11 9 12
REMARK H PARENT 9 13
REMARK Flexibility Score: inf
ROOT
ATOM      1  C   UNL     1       4.995   7.325   1.960  1.00  0.00     0.016 A 
ATOM      2  C   UNL     1       5.999   7.263   0.987  1.00  0.00     0.047 A 
ATOM      3  C   UNL     1       6.896   8.326   0.828  1.00  0.00     0.119 A 
ATOM      4  C   UNL     1       6.790   9.460   1.647  1.00  0.00     0.094 A 
ATOM      5  C   UNL     1       5.788   9.531   2.622  1.00  0.00     0.142 A 
ATOM      6  C   UNL     1       4.885   8.456   2.779  1.00  0.00     0.018 A 
ATOM      7  C   UNL     1       3.895   8.556   3.762  1.00  0.00     0.019 A 
ATOM      8  C   UNL     1       3.828   9.704   4.552  1.00  0.00     0.094 A 
ATOM      9  C   UNL     1       4.757  10.729   4.339  1.00  0.00     0.336 A 
ATOM     10  O   UNL     1       4.713  11.772   5.042  1.00  0.00    -0.246 OA
ATOM     11  O   UNL     1       5.689  10.609   3.397  1.00  0.00    -0.423 OA
ENDROOT
BRANCH   3  12
ATOM     12  O   UNL     1       7.890   8.245  -0.145  1.00  0.00    -0.508 OA
ATOM     13  H   UNL     1       8.257   7.354  -0.455  1.00  0.00     0.293 HD
ENDBRANCH   3  12
TORSDOF 1
ENDMDL
MODEL 4
REMARK VINA RESULT:    -4.739      1.642      4.736
REMARK INTER + INTRA:          -4.877
REMARK INTER:                  -4.877
REMARK INTRA:                   0.000
REMARK UNBOUND:                 0.000
REMARK SMILES O=c1ccc2ccc(O)cc2o1
REMARK SMILES IDX 6 1 7 2 8 3 10 4 11 5 5 6 4 7 3 8 2 9 1 10 12 11 9 12
REMARK H PARENT 9 13
REMARK Flexibility Score: inf
ROOT
ATOM      1  C   UNL     1       4.021  12.287   5.589  1.00  0.00     0.016 A 
ATOM      2  C   UNL     1       2.900  12.142   6.414  1.00  0.00     0.047 A 
ATOM      3  C   UNL     1       2.125  10.977   6.356  1.00  0.00     0.119 A 
ATOM      4  C   UNL     1       2.471   9.950   5.466  1.00  0.00     0.094 A 
ATOM      5  C   UNL     1       3.590  10.087   4.636  1.00  0.00     0.142 A 
ATOM      6  C   UNL     1       4.370  11.263   4.699  1.00  0.00     0.018 A 
ATOM      7  C   UNL     1       5.482  11.370   3.857  1.00  0.00     0.019 A 
ATOM      8  C   UNL     1       5.787  10.323   2.989  1.00  0.00     0.094 A 
ATOM      9  C   UNL     1       4.969   9.187   2.982  1.00  0.00     0.336 A 
ATOM     10  O   UNL     1       5.228   8.231   2.205  1.00  0.00    -0.246 OA
ATOM     11  O   UNL     1       3.917   9.110   3.792  1.00  0.00    -0.423 OA
ENDROOT
BRANCH   3  12
ATOM     12  O   UNL     1       1.013  10.851   7.185  1.00  0.00    -0.508 OA
ATOM     13  H   UNL     1       0.476   9.993   7.224  1.00  0.00     0.293 HD
ENDBRANCH   3  12
TORSDOF 1
ENDMDL
MODEL 5
REMARK VINA RESULT:    -4.715      2.374      5.299
REMARK INTER + INTRA:          -4.853
REMARK INTER:                  -4.853
REMARK INTRA:                   0.000
REMARK UNBOUND:                 0.000
REMARK SMILES O=c1ccc2ccc(O)cc2o1
REMARK SMILES IDX 6 1 7 2 8 3 10 4 11 5 5 6 4 7 3 8 2 9 1 10 12 11 9 12
REMARK H PARENT 9 13
REMARK Flexibility Score: inf
ROOT
ATOM      1  C   UNL     1       4.992  10.722   3.786  1.00  0.00     0.016 A 
ATOM      2  C   UNL     1       3.881  10.521   4.613  1.00  0.00     0.047 A 
ATOM      3  C   UNL     1       3.247   9.273   4.656  1.00  0.00     0.119 A 
ATOM      4  C   UNL     1       3.727   8.217   3.868  1.00  0.00     0.094 A 
ATOM      5  C   UNL     1       4.837   8.409   3.037  1.00  0.00     0.142 A 
ATOM      6  C   UNL     1       5.474   9.669   2.997  1.00  0.00     0.018 A 
ATOM      7  C   UNL     1       6.581   9.830   2.157  1.00  0.00     0.019 A 
ATOM      8  C   UNL     1       7.021   8.751   1.391  1.00  0.00     0.094 A 
ATOM      9  C   UNL     1       6.341   7.531   1.482  1.00  0.00     0.336 A 
ATOM     10  O   UNL     1       6.723   6.546   0.799  1.00  0.00    -0.246 OA
ATOM     11  O   UNL     1       5.290   7.405   2.289  1.00  0.00    -0.423 OA
ENDROOT
BRANCH   3  12
ATOM     12  O   UNL     1       2.143   9.093   5.486  1.00  0.00    -0.508 OA
ATOM     13  H   UNL     1       1.357   8.520   5.204  1.00  0.00     0.293 HD
ENDBRANCH   3  12
TORSDOF 1
ENDMDL
MODEL 6
REMARK VINA RESULT:    -4.706      5.784      6.968
REMARK INTER + INTRA:          -4.844
REMARK INTER:                  -4.844
REMARK INTRA:                   0.000
REMARK UNBOUND:                 0.000
REMARK SMILES O=c1ccc2ccc(O)cc2o1
REMARK SMILES IDX 6 1 7 2 8 3 10 4 11 5 5 6 4 7 3 8 2 9 1 10 12 11 9 12
REMARK H PARENT 9 13
REMARK Flexibility Score: inf
ROOT
ATOM      1  C   UNL     1       4.026   6.504  -0.377  1.00  0.00     0.016 A 
ATOM      2  C   UNL     1       3.097   5.466  -0.240  1.00  0.00     0.047 A 
ATOM      3  C   UNL     1       3.241   4.518   0.780  1.00  0.00     0.119 A 
ATOM      4  C   UNL     1       4.322   4.606   1.670  1.00  0.00     0.094 A 
ATOM      5  C   UNL     1       5.257   5.639   1.539  1.00  0.00     0.142 A 
ATOM      6  C   UNL     1       5.107   6.595   0.509  1.00  0.00     0.018 A 
ATOM      7  C   UNL     1       6.057   7.616   0.405  1.00  0.00     0.019 A 
ATOM      8  C   UNL     1       7.115   7.663   1.312  1.00  0.00     0.094 A 
ATOM      9  C   UNL     1       7.199   6.682   2.307  1.00  0.00     0.336 A 
ATOM     10  O   UNL     1       8.146   6.707   3.135  1.00  0.00    -0.246 OA
ATOM     11  O   UNL     1       6.282   5.721   2.385  1.00  0.00    -0.423 OA
ENDROOT
BRANCH   3  12
ATOM     12  O   UNL     1       2.306   3.493   0.901  1.00  0.00    -0.508 OA
ATOM     13  H   UNL     1       1.324   3.645   0.704  1.00  0.00     0.293 HD
ENDBRANCH   3  12
TORSDOF 1
ENDMDL
MODEL 7
REMARK VINA RESULT:    -4.703      8.286     10.227
REMARK INTER + INTRA:          -4.840
REMARK INTER:                  -4.840
REMARK INTRA:                   0.000
REMARK UNBOUND:                 0.000
REMARK SMILES O=c1ccc2ccc(O)cc2o1
REMARK SMILES IDX 6 1 7 2 8 3 10 4 11 5 5 6 4 7 3 8 2 9 1 10 12 11 9 12
REMARK H PARENT 9 13
REMARK Flexibility Score: inf
ROOT
ATOM      1  C   UNL     1       2.803   4.209  -1.545  1.00  0.00     0.016 A 
ATOM      2  C   UNL     1       2.752   5.060  -0.436  1.00  0.00     0.047 A 
ATOM      3  C   UNL     1       3.437   4.730   0.740  1.00  0.00     0.119 A 
ATOM      4  C   UNL     1       4.179   3.542   0.809  1.00  0.00     0.094 A 
ATOM      5  C   UNL     1       4.234   2.684  -0.296  1.00  0.00     0.142 A 
ATOM      6  C   UNL     1       3.542   3.021  -1.481  1.00  0.00     0.018 A 
ATOM      7  C   UNL     1       3.618   2.143  -2.568  1.00  0.00     0.019 A 
ATOM      8  C   UNL     1       4.367   0.973  -2.453  1.00  0.00     0.094 A 
ATOM      9  C   UNL     1       5.027   0.706  -1.248  1.00  0.00     0.336 A 
ATOM     10  O   UNL     1       5.708  -0.346  -1.125  1.00  0.00    -0.246 OA
ATOM     11  O   UNL     1       4.939   1.556  -0.228  1.00  0.00    -0.423 OA
ENDROOT
BRANCH   3  12
ATOM     12  O   UNL     1       3.375   5.590   1.835  1.00  0.00    -0.508 OA
ATOM     13  H   UNL     1       2.498   5.793   2.299  1.00  0.00     0.293 HD
ENDBRANCH   3  12
TORSDOF 1
ENDMDL
MODEL 8
REMARK VINA RESULT:    -4.658      5.479      7.004
REMARK INTER + INTRA:          -4.794
REMARK INTER:                  -4.794
REMARK INTRA:                   0.000
REMARK UNBOUND:                 0.000
REMARK SMILES O=c1ccc2ccc(O)cc2o1
REMARK SMILES IDX 6 1 7 2 8 3 10 4 11 5 5 6 4 7 3 8 2 9 1 10 12 11 9 12
REMARK H PARENT 9 13
REMARK Flexibility Score: inf
ROOT
ATOM      1  C   UNL     1       4.124   4.207   1.492  1.00  0.00     0.016 A 
ATOM      2  C   UNL     1       3.079   3.963   0.594  1.00  0.00     0.047 A 
ATOM      3  C   UNL     1       2.813   4.864  -0.444  1.00  0.00     0.119 A 
ATOM      4  C   UNL     1       3.597   6.019  -0.586  1.00  0.00     0.094 A 
ATOM      5  C   UNL     1       4.643   6.272   0.307  1.00  0.00     0.142 A 
ATOM      6  C   UNL     1       4.909   5.359   1.353  1.00  0.00     0.018 A 
ATOM      7  C   UNL     1       5.962   5.640   2.230  1.00  0.00     0.019 A 
ATOM      8  C   UNL     1       6.714   6.800   2.049  1.00  0.00     0.094 A 
ATOM      9  C   UNL     1       6.393   7.658   0.991  1.00  0.00     0.336 A 
ATOM     10  O   UNL     1       7.059   8.711   0.811  1.00  0.00    -0.246 OA
ATOM     11  O   UNL     1       5.385   7.369   0.171  1.00  0.00    -0.423 OA
ENDROOT
BRANCH   3  12
ATOM     12  O   UNL     1       1.769   4.604  -1.328  1.00  0.00    -0.508 OA
ATOM     13  H   UNL     1       0.947   4.087  -1.040  1.00  0.00     0.293 HD
ENDBRANCH   3  12
TORSDOF 1
ENDMDL
MODEL 9
REMARK VINA RESULT:    -4.585      6.407      7.855
REMARK INTER + INTRA:          -4.719
REMARK INTER:                  -4.719
REMARK INTRA:                   0.000
REMARK UNBOUND:                 0.000
REMARK SMILES O=c1ccc2ccc(O)cc2o1
REMARK SMILES IDX 6 1 7 2 8 3 10 4 11 5 5 6 4 7 3 8 2 9 1 10 12 11 9 12
REMARK H PARENT 9 13
REMARK Flexibility Score: inf
ROOT
ATOM      1  C   UNL     1       4.015   6.508  -0.317  1.00  0.00     0.016 A 
ATOM      2  C   UNL     1       5.122   6.882   0.453  1.00  0.00     0.047 A 
ATOM      3  C   UNL     1       5.645   6.006   1.413  1.00  0.00     0.119 A 
ATOM      4  C   UNL     1       5.057   4.747   1.605  1.00  0.00     0.094 A 
ATOM      5  C   UNL     1       3.949   4.364   0.840  1.00  0.00     0.142 A 
ATOM      6  C   UNL     1       3.425   5.251  -0.127  1.00  0.00     0.018 A 
ATOM      7  C   UNL     1       2.317   4.840  -0.876  1.00  0.00     0.019 A 
ATOM      8  C   UNL     1       1.767   3.579  -0.649  1.00  0.00     0.094 A 
ATOM      9  C   UNL     1       2.339   2.755   0.326  1.00  0.00     0.336 A 
ATOM     10  O   UNL     1       1.856   1.613   0.545  1.00  0.00    -0.246 OA
ATOM     11  O   UNL     1       3.393   3.169   1.025  1.00  0.00    -0.423 OA
ENDROOT
BRANCH   3  12
ATOM     12  O   UNL     1       6.748   6.395   2.169  1.00  0.00    -0.508 OA
ATOM     13  H   UNL     1       6.707   7.191   2.794  1.00  0.00     0.293 HD
ENDBRANCH   3  12
TORSDOF 1
ENDMDL
