MODEL 1
REMARK VINA RESULT:    -6.538      0.000      0.000
REMARK INTER + INTRA:         -10.097
REMARK INTER:                  -8.831
REMARK INTRA:                  -1.266
REMARK UNBOUND:                -1.266
REMARK SMILES O=c1c(-c2ccc(O)cc2)coc2c([C@H]3O[C@H](CO)[C@@H](O)[C@H](O)[C@H]3O)c(O)ccc12
REMARK SMILES IDX 3 1 11 2 12 3 13 4 30 5 2 6 1 7 29 8 28 9 26 10 14 11 4 12
REMARK SMILES IDX 5 13 6 14 7 15 10 16 9 17 8 18 15 20 24 21 16 22 22 23 17 24
REMARK SMILES IDX 20 25 25 26 23 28 18 30 19 31 21 33 27 35
REMARK H PARENT 8 19 25 27 23 29 19 32 21 34 27 36
REMARK Flexibility Score: inf
ROOT
ATOM      1  C   UNL     1      67.035  38.866  41.172  1.00  0.00     0.065 A 
ATOM      2  C   UNL     1      66.868  39.732  42.261  1.00  0.00     0.208 A 
ATOM      3  O   UNL     1      66.089  39.398  43.282  1.00  0.00    -0.463 OA
ATOM      4  C   UNL     1      65.422  38.247  43.350  1.00  0.00     0.147 A 
ATOM      5  C   UNL     1      65.534  37.317  42.291  1.00  0.00     0.066 A 
ATOM      6  C   UNL     1      66.358  37.634  41.195  1.00  0.00     0.200 A 
ATOM      7  O   UNL     1      66.505  36.810  40.250  1.00  0.00    -0.288 OA
ATOM      8  C   UNL     1      64.833  36.107  42.358  1.00  0.00     0.020 A 
ATOM      9  C   UNL     1      64.031  35.823  43.458  1.00  0.00     0.047 A 
ATOM     10  C   UNL     1      63.912  36.732  44.519  1.00  0.00     0.125 A 
ATOM     11  C   UNL     1      64.615  37.968  44.482  1.00  0.00     0.069 A 
ENDROOT
BRANCH   1  12
ATOM     12  C   UNL     1      67.919  39.257  40.044  1.00  0.00    -0.011 A 
ATOM     13  C   UNL     1      67.389  39.467  38.758  1.00  0.00     0.013 A 
ATOM     14  C   UNL     1      68.226  39.843  37.702  1.00  0.00     0.047 A 
ATOM     15  C   UNL     1      69.599  40.018  37.920  1.00  0.00     0.115 A 
ATOM     16  C   UNL     1      69.296  39.442  40.255  1.00  0.00     0.013 A 
ATOM     17  C   UNL     1      70.130  39.817  39.197  1.00  0.00     0.047 A 
BRANCH  15  18
ATOM     18  O   UNL     1      70.442  40.393  36.875  1.00  0.00    -0.508 OA
ATOM     19  H   UNL     1      70.895  41.299  36.859  1.00  0.00     0.293 HD
ENDBRANCH  15  18
ENDBRANCH   1  12
BRANCH  11  20
ATOM     20  C   UNL     1      64.560  39.050  45.572  1.00  0.00     0.188 C 
ATOM     21  C   UNL     1      65.476  38.886  46.809  1.00  0.00     0.179 C 
ATOM     22  O   UNL     1      63.205  39.231  45.962  1.00  0.00    -0.362 OA
ATOM     23  C   UNL     1      65.511  40.222  47.595  1.00  0.00     0.177 C 
ATOM     24  C   UNL     1      63.011  40.137  47.051  1.00  0.00     0.176 C 
ATOM     25  C   UNL     1      64.225  41.057  47.373  1.00  0.00     0.177 C 
BRANCH  21  26
ATOM     26  O   UNL     1      64.962  37.876  47.643  1.00  0.00    -0.387 OA
ATOM     27  H   UNL     1      64.465  38.333  48.372  1.00  0.00     0.211 HD
ENDBRANCH  21  26
BRANCH  23  28
ATOM     28  O   UNL     1      66.621  40.986  47.196  1.00  0.00    -0.387 OA
ATOM     29  H   UNL     1      67.328  40.347  46.920  1.00  0.00     0.211 HD
ENDBRANCH  23  28
BRANCH  24  30
ATOM     30  C   UNL     1      61.743  40.961  46.777  1.00  0.00     0.191 C 
BRANCH  30  31
ATOM     31  O   UNL     1      62.042  42.328  46.670  1.00  0.00    -0.394 OA
ATOM     32  H   UNL     1      61.176  42.804  46.581  1.00  0.00     0.210 HD
ENDBRANCH  30  31
ENDBRANCH  24  30
BRANCH  25  33
ATOM     33  O   UNL     1      63.951  41.821  48.520  1.00  0.00    -0.388 OA
ATOM     34  H   UNL     1      64.822  41.997  48.962  1.00  0.00     0.211 HD
ENDBRANCH  25  33
ENDBRANCH  11  20
BRANCH  10  35
ATOM     35  O   UNL     1      63.097  36.379  45.592  1.00  0.00    -0.507 OA
ATOM     36  H   UNL     1      62.427  37.023  45.994  1.00  0.00     0.293 HD
ENDBRANCH  10  35
TORSDOF 9
ENDMDL
MODEL 2
REMARK VINA RESULT:    -5.802      1.090      1.097
REMARK INTER + INTRA:          -9.103
REMARK INTER:                  -7.680
REMARK INTRA:                  -1.423
REMARK UNBOUND:                -1.266
REMARK SMILES O=c1c(-c2ccc(O)cc2)coc2c([C@H]3O[C@H](CO)[C@@H](O)[C@H](O)[C@H]3O)c(O)ccc12
REMARK SMILES IDX 3 1 11 2 12 3 13 4 30 5 2 6 1 7 29 8 28 9 26 10 14 11 4 12
REMARK SMILES IDX 5 13 6 14 7 15 10 16 9 17 8 18 15 20 24 21 16 22 22 23 17 24
REMARK SMILES IDX 20 25 25 26 23 28 18 30 19 31 21 33 27 35
REMARK H PARENT 8 19 25 27 23 29 19 32 21 34 27 36
REMARK Flexibility Score: inf
ROOT
ATOM      1  C   UNL     1      66.937  38.524  41.838  1.00  0.00     0.065 A 
ATOM      2  C   UNL     1      66.480  39.509  42.724  1.00  0.00     0.208 A 
ATOM      3  O   UNL     1      65.858  39.176  43.849  1.00  0.00    -0.463 OA
ATOM      4  C   UNL     1      65.625  37.916  44.212  1.00  0.00     0.147 A 
ATOM      5  C   UNL     1      66.052  36.861  43.373  1.00  0.00     0.066 A 
ATOM      6  C   UNL     1      66.723  37.176  42.176  1.00  0.00     0.200 A 
ATOM      7  O   UNL     1      67.147  36.257  41.422  1.00  0.00    -0.288 OA
ATOM      8  C   UNL     1      65.808  35.535  43.751  1.00  0.00     0.020 A 
ATOM      9  C   UNL     1      65.147  35.259  44.943  1.00  0.00     0.047 A 
ATOM     10  C   UNL     1      64.720  36.292  45.789  1.00  0.00     0.125 A 
ATOM     11  C   UNL     1      64.957  37.649  45.434  1.00  0.00     0.069 A 
ENDROOT
BRANCH   1  12
ATOM     12  C   UNL     1      67.638  38.920  40.590  1.00  0.00    -0.011 A 
ATOM     13  C   UNL     1      66.963  38.916  39.355  1.00  0.00     0.013 A 
ATOM     14  C   UNL     1      67.626  39.298  38.185  1.00  0.00     0.047 A 
ATOM     15  C   UNL     1      68.970  39.693  38.235  1.00  0.00     0.115 A 
ATOM     16  C   UNL     1      68.984  39.325  40.631  1.00  0.00     0.013 A 
ATOM     17  C   UNL     1      69.644  39.706  39.459  1.00  0.00     0.047 A 
BRANCH  15  18
ATOM     18  O   UNL     1      69.641  40.075  37.075  1.00  0.00    -0.508 OA
ATOM     19  H   UNL     1      69.499  40.987  36.657  1.00  0.00     0.293 HD
ENDBRANCH  15  18
ENDBRANCH   1  12
BRANCH  11  20
ATOM     20  C   UNL     1      64.531  38.868  46.266  1.00  0.00     0.188 C 
ATOM     21  C   UNL     1      65.452  39.316  47.427  1.00  0.00     0.179 C 
ATOM     22  O   UNL     1      63.201  38.662  46.723  1.00  0.00    -0.362 OA
ATOM     23  C   UNL     1      65.020  40.729  47.901  1.00  0.00     0.177 C 
ATOM     24  C   UNL     1      62.707  39.673  47.605  1.00  0.00     0.176 C 
ATOM     25  C   UNL     1      63.521  41.000  47.616  1.00  0.00     0.177 C 
BRANCH  21  26
ATOM     26  O   UNL     1      65.330  38.414  48.500  1.00  0.00    -0.387 OA
ATOM     27  H   UNL     1      65.760  37.567  48.211  1.00  0.00     0.211 HD
ENDBRANCH  21  26
BRANCH  23  28
ATOM     28  O   UNL     1      65.788  41.710  47.253  1.00  0.00    -0.387 OA
ATOM     29  H   UNL     1      66.601  41.853  47.806  1.00  0.00     0.211 HD
ENDBRANCH  23  28
BRANCH  24  30
ATOM     30  C   UNL     1      61.228  39.929  47.269  1.00  0.00     0.191 C 
BRANCH  30  31
ATOM     31  O   UNL     1      61.069  41.139  46.576  1.00  0.00    -0.394 OA
ATOM     32  H   UNL     1      61.400  41.858  47.175  1.00  0.00     0.210 HD
ENDBRANCH  30  31
ENDBRANCH  24  30
BRANCH  25  33
ATOM     33  O   UNL     1      63.002  41.868  48.591  1.00  0.00    -0.388 OA
ATOM     34  H   UNL     1      62.919  42.760  48.164  1.00  0.00     0.211 HD
ENDBRANCH  25  33
ENDBRANCH  11  20
BRANCH  10  35
ATOM     35  O   UNL     1      64.071  35.941  46.970  1.00  0.00    -0.507 OA
ATOM     36  H   UNL     1      64.208  36.454  47.833  1.00  0.00     0.293 HD
ENDBRANCH  10  35
TORSDOF 9
ENDMDL
MODEL 3
REMARK VINA RESULT:    -5.633     12.604     14.189
REMARK INTER + INTRA:          -8.875
REMARK INTER:                  -7.948
REMARK INTRA:                  -0.926
REMARK UNBOUND:                -1.266
REMARK SMILES O=c1c(-c2ccc(O)cc2)coc2c([C@H]3O[C@H](CO)[C@@H](O)[C@H](O)[C@H]3O)c(O)ccc12
REMARK SMILES IDX 3 1 11 2 12 3 13 4 30 5 2 6 1 7 29 8 28 9 26 10 14 11 4 12
REMARK SMILES IDX 5 13 6 14 7 15 10 16 9 17 8 18 15 20 24 21 16 22 22 23 17 24
REMARK SMILES IDX 20 25 25 26 23 28 18 30 19 31 21 33 27 35
REMARK H PARENT 8 19 25 27 23 29 19 32 21 34 27 36
REMARK Flexibility Score: inf
ROOT
ATOM      1  C   UNL     1      68.863  52.707  46.551  1.00  0.00     0.065 A 
ATOM      2  C   UNL     1      68.539  51.985  47.708  1.00  0.00     0.208 A 
ATOM      3  O   UNL     1      67.279  51.872  48.109  1.00  0.00    -0.463 OA
ATOM      4  C   UNL     1      66.252  52.422  47.463  1.00  0.00     0.147 A 
ATOM      5  C   UNL     1      66.491  53.169  46.286  1.00  0.00     0.066 A 
ATOM      6  C   UNL     1      67.815  53.302  45.827  1.00  0.00     0.200 A 
ATOM      7  O   UNL     1      68.059  53.935  44.762  1.00  0.00    -0.288 OA
ATOM      8  C   UNL     1      65.415  53.749  45.605  1.00  0.00     0.020 A 
ATOM      9  C   UNL     1      64.119  53.592  46.084  1.00  0.00     0.047 A 
ATOM     10  C   UNL     1      63.862  52.852  47.247  1.00  0.00     0.125 A 
ATOM     11  C   UNL     1      64.935  52.246  47.959  1.00  0.00     0.069 A 
ENDROOT
BRANCH   1  12
ATOM     12  C   UNL     1      70.279  52.813  46.118  1.00  0.00    -0.011 A 
ATOM     13  C   UNL     1      71.142  53.754  46.708  1.00  0.00     0.013 A 
ATOM     14  C   UNL     1      72.477  53.843  46.300  1.00  0.00     0.047 A 
ATOM     15  C   UNL     1      72.966  52.990  45.302  1.00  0.00     0.115 A 
ATOM     16  C   UNL     1      70.781  51.956  45.122  1.00  0.00     0.013 A 
ATOM     17  C   UNL     1      72.116  52.049  44.716  1.00  0.00     0.047 A 
BRANCH  15  18
ATOM     18  O   UNL     1      74.294  53.071  44.888  1.00  0.00    -0.508 OA
ATOM     19  H   UNL     1      74.939  53.734  45.302  1.00  0.00     0.293 HD
ENDBRANCH  15  18
ENDBRANCH   1  12
BRANCH  11  20
ATOM     20  C   UNL     1      64.788  51.422  49.247  1.00  0.00     0.188 C 
ATOM     21  C   UNL     1      64.996  49.891  49.159  1.00  0.00     0.179 C 
ATOM     22  O   UNL     1      63.535  51.732  49.842  1.00  0.00    -0.362 OA
ATOM     23  C   UNL     1      65.136  49.315  50.593  1.00  0.00     0.177 C 
ATOM     24  C   UNL     1      63.213  50.956  50.999  1.00  0.00     0.176 C 
ATOM     25  C   UNL     1      64.409  50.194  51.641  1.00  0.00     0.177 C 
BRANCH  21  26
ATOM     26  O   UNL     1      63.882  49.300  48.533  1.00  0.00    -0.387 OA
ATOM     27  H   UNL     1      64.228  48.546  47.987  1.00  0.00     0.211 HD
ENDBRANCH  21  26
BRANCH  23  28
ATOM     28  O   UNL     1      66.493  49.221  50.943  1.00  0.00    -0.387 OA
ATOM     29  H   UNL     1      66.528  48.863  51.869  1.00  0.00     0.211 HD
ENDBRANCH  23  28
BRANCH  24  30
ATOM     30  C   UNL     1      62.521  51.872  52.021  1.00  0.00     0.191 C 
BRANCH  30  31
ATOM     31  O   UNL     1      61.892  51.122  53.027  1.00  0.00    -0.394 OA
ATOM     32  H   UNL     1      60.961  51.459  53.096  1.00  0.00     0.210 HD
ENDBRANCH  30  31
ENDBRANCH  24  30
BRANCH  25  33
ATOM     33  O   UNL     1      63.949  49.391  52.699  1.00  0.00    -0.388 OA
ATOM     34  H   UNL     1      64.552  48.604  52.743  1.00  0.00     0.211 HD
ENDBRANCH  25  33
ENDBRANCH  11  20
BRANCH  10  35
ATOM     35  O   UNL     1      62.539  52.731  47.663  1.00  0.00    -0.507 OA
ATOM     36  H   UNL     1      61.869  52.152  47.170  1.00  0.00     0.293 HD
ENDBRANCH  10  35
TORSDOF 9
ENDMDL
MODEL 4
REMARK VINA RESULT:    -5.428      3.376      4.773
REMARK INTER + INTRA:          -8.598
REMARK INTER:                  -7.183
REMARK INTRA:                  -1.416
REMARK UNBOUND:                -1.266
REMARK SMILES O=c1c(-c2ccc(O)cc2)coc2c([C@H]3O[C@H](CO)[C@@H](O)[C@H](O)[C@H]3O)c(O)ccc12
REMARK SMILES IDX 3 1 11 2 12 3 13 4 30 5 2 6 1 7 29 8 28 9 26 10 14 11 4 12
REMARK SMILES IDX 5 13 6 14 7 15 10 16 9 17 8 18 15 20 24 21 16 22 22 23 17 24
REMARK SMILES IDX 20 25 25 26 23 28 18 30 19 31 21 33 27 35
REMARK H PARENT 8 19 25 27 23 29 19 32 21 34 27 36
REMARK Flexibility Score: inf
ROOT
ATOM      1  C   UNL     1      66.184  37.577  43.601  1.00  0.00     0.065 A 
ATOM      2  C   UNL     1      67.197  37.675  44.564  1.00  0.00     0.208 A 
ATOM      3  O   UNL     1      66.983  37.295  45.818  1.00  0.00    -0.463 OA
ATOM      4  C   UNL     1      65.821  36.806  46.248  1.00  0.00     0.147 A 
ATOM      5  C   UNL     1      64.745  36.675  45.341  1.00  0.00     0.066 A 
ATOM      6  C   UNL     1      64.938  37.061  44.000  1.00  0.00     0.200 A 
ATOM      7  O   UNL     1      64.007  36.925  43.158  1.00  0.00    -0.288 OA
ATOM      8  C   UNL     1      63.521  36.163  45.789  1.00  0.00     0.020 A 
ATOM      9  C   UNL     1      63.366  35.787  47.118  1.00  0.00     0.047 A 
ATOM     10  C   UNL     1      64.424  35.906  48.031  1.00  0.00     0.125 A 
ATOM     11  C   UNL     1      65.680  36.419  47.605  1.00  0.00     0.069 A 
ENDROOT
BRANCH   1  12
ATOM     12  C   UNL     1      66.449  38.001  42.203  1.00  0.00    -0.011 A 
ATOM     13  C   UNL     1      66.356  39.355  41.834  1.00  0.00     0.013 A 
ATOM     14  C   UNL     1      66.615  39.748  40.517  1.00  0.00     0.047 A 
ATOM     15  C   UNL     1      66.973  38.794  39.555  1.00  0.00     0.115 A 
ATOM     16  C   UNL     1      66.816  37.051  41.233  1.00  0.00     0.013 A 
ATOM     17  C   UNL     1      67.073  37.448  39.917  1.00  0.00     0.047 A 
BRANCH  15  18
ATOM     18  O   UNL     1      67.232  39.174  38.240  1.00  0.00    -0.508 OA
ATOM     19  H   UNL     1      67.076  40.124  37.922  1.00  0.00     0.293 HD
ENDBRANCH  15  18
ENDBRANCH   1  12
BRANCH  11  20
ATOM     20  C   UNL     1      66.910  36.609  48.506  1.00  0.00     0.188 C 
ATOM     21  C   UNL     1      67.787  35.370  48.813  1.00  0.00     0.179 C 
ATOM     22  O   UNL     1      66.498  37.250  49.706  1.00  0.00    -0.362 OA
ATOM     23  C   UNL     1      69.126  35.839  49.440  1.00  0.00     0.177 C 
ATOM     24  C   UNL     1      67.524  37.396  50.690  1.00  0.00     0.176 C 
ATOM     25  C   UNL     1      68.978  37.198  50.168  1.00  0.00     0.177 C 
BRANCH  21  26
ATOM     26  O   UNL     1      67.118  34.536  49.728  1.00  0.00    -0.387 OA
ATOM     27  H   UNL     1      66.508  35.119  50.252  1.00  0.00     0.211 HD
ENDBRANCH  21  26
BRANCH  23  28
ATOM     28  O   UNL     1      70.106  35.966  48.441  1.00  0.00    -0.387 OA
ATOM     29  H   UNL     1      70.923  35.514  48.779  1.00  0.00     0.211 HD
ENDBRANCH  23  28
BRANCH  24  30
ATOM     30  C   UNL     1      67.356  38.765  51.368  1.00  0.00     0.191 C 
BRANCH  30  31
ATOM     31  O   UNL     1      67.947  38.776  52.640  1.00  0.00    -0.394 OA
ATOM     32  H   UNL     1      67.393  38.190  53.218  1.00  0.00     0.210 HD
ENDBRANCH  30  31
ENDBRANCH  24  30
BRANCH  25  33
ATOM     33  O   UNL     1      69.881  37.262  51.243  1.00  0.00    -0.388 OA
ATOM     34  H   UNL     1      70.693  37.722  50.906  1.00  0.00     0.211 HD
ENDBRANCH  25  33
ENDBRANCH  11  20
BRANCH  10  35
ATOM     35  O   UNL     1      64.199  35.503  49.345  1.00  0.00    -0.507 OA
ATOM     36  H   UNL     1      63.821  36.133  50.044  1.00  0.00     0.293 HD
ENDBRANCH  10  35
TORSDOF 9
ENDMDL
MODEL 5
REMARK VINA RESULT:    -5.394      2.332      8.840
REMARK INTER + INTRA:          -8.552
REMARK INTER:                  -7.318
REMARK INTRA:                  -1.234
REMARK UNBOUND:                -1.266
REMARK SMILES O=c1c(-c2ccc(O)cc2)coc2c([C@H]3O[C@H](CO)[C@@H](O)[C@H](O)[C@H]3O)c(O)ccc12
REMARK SMILES IDX 3 1 11 2 12 3 13 4 30 5 2 6 1 7 29 8 28 9 26 10 14 11 4 12
REMARK SMILES IDX 5 13 6 14 7 15 10 16 9 17 8 18 15 20 24 21 16 22 22 23 17 24
REMARK SMILES IDX 20 25 25 26 23 28 18 30 19 31 21 33 27 35
REMARK H PARENT 8 19 25 27 23 29 19 32 21 34 27 36
REMARK Flexibility Score: inf
ROOT
ATOM      1  C   UNL     1      67.107  38.704  42.846  1.00  0.00     0.065 A 
ATOM      2  C   UNL     1      67.175  39.784  41.955  1.00  0.00     0.208 A 
ATOM      3  O   UNL     1      68.155  39.870  41.063  1.00  0.00    -0.463 OA
ATOM      4  C   UNL     1      69.124  38.964  40.949  1.00  0.00     0.147 A 
ATOM      5  C   UNL     1      69.131  37.843  41.811  1.00  0.00     0.066 A 
ATOM      6  C   UNL     1      68.103  37.714  42.764  1.00  0.00     0.200 A 
ATOM      7  O   UNL     1      68.062  36.708  43.525  1.00  0.00    -0.288 OA
ATOM      8  C   UNL     1      70.149  36.889  41.695  1.00  0.00     0.020 A 
ATOM      9  C   UNL     1      71.147  37.044  40.739  1.00  0.00     0.047 A 
ATOM     10  C   UNL     1      71.153  38.147  39.873  1.00  0.00     0.125 A 
ATOM     11  C   UNL     1      70.130  39.131  39.964  1.00  0.00     0.069 A 
ENDROOT
BRANCH   1  12
ATOM     12  C   UNL     1      65.998  38.625  43.829  1.00  0.00    -0.011 A 
ATOM     13  C   UNL     1      65.961  39.486  44.941  1.00  0.00     0.013 A 
ATOM     14  C   UNL     1      64.909  39.411  45.859  1.00  0.00     0.047 A 
ATOM     15  C   UNL     1      63.879  38.478  45.675  1.00  0.00     0.115 A 
ATOM     16  C   UNL     1      64.956  37.698  43.648  1.00  0.00     0.013 A 
ATOM     17  C   UNL     1      63.906  37.625  44.569  1.00  0.00     0.047 A 
BRANCH  15  18
ATOM     18  O   UNL     1      62.826  38.395  46.583  1.00  0.00    -0.508 OA
ATOM     19  H   UNL     1      62.545  39.192  47.143  1.00  0.00     0.293 HD
ENDBRANCH  15  18
ENDBRANCH   1  12
BRANCH  11  20
ATOM     20  C   UNL     1      70.030  40.387  39.085  1.00  0.00     0.188 C 
ATOM     21  C   UNL     1      69.739  40.199  37.576  1.00  0.00     0.179 C 
ATOM     22  O   UNL     1      71.199  41.173  39.284  1.00  0.00    -0.362 OA
ATOM     23  C   UNL     1      69.352  41.569  36.960  1.00  0.00     0.177 C 
ATOM     24  C   UNL     1      71.294  42.327  38.445  1.00  0.00     0.176 C 
ATOM     25  C   UNL     1      69.969  42.752  37.747  1.00  0.00     0.177 C 
BRANCH  21  26
ATOM     26  O   UNL     1      70.893  39.716  36.931  1.00  0.00    -0.387 OA
ATOM     27  H   UNL     1      70.968  40.209  36.072  1.00  0.00     0.211 HD
ENDBRANCH  21  26
BRANCH  23  28
ATOM     28  O   UNL     1      67.954  41.714  36.949  1.00  0.00    -0.387 OA
ATOM     29  H   UNL     1      67.599  41.143  37.679  1.00  0.00     0.211 HD
ENDBRANCH  23  28
BRANCH  24  30
ATOM     30  C   UNL     1      71.885  43.480  39.272  1.00  0.00     0.191 C 
BRANCH  30  31
ATOM     31  O   UNL     1      70.957  44.522  39.420  1.00  0.00    -0.394 OA
ATOM     32  H   UNL     1      71.449  45.369  39.259  1.00  0.00     0.210 HD
ENDBRANCH  30  31
ENDBRANCH  24  30
BRANCH  25  33
ATOM     33  O   UNL     1      70.215  43.827  36.875  1.00  0.00    -0.388 OA
ATOM     34  H   UNL     1      69.401  44.394  36.884  1.00  0.00     0.211 HD
ENDBRANCH  25  33
ENDBRANCH  11  20
BRANCH  10  35
ATOM     35  O   UNL     1      72.180  38.234  38.936  1.00  0.00    -0.507 OA
ATOM     36  H   UNL     1      72.713  37.423  38.646  1.00  0.00     0.293 HD
ENDBRANCH  10  35
TORSDOF 9
ENDMDL
MODEL 6
REMARK VINA RESULT:    -5.198     12.842     15.977
REMARK INTER + INTRA:          -8.287
REMARK INTER:                  -6.871
REMARK INTRA:                  -1.416
REMARK UNBOUND:                -1.266
REMARK SMILES O=c1c(-c2ccc(O)cc2)coc2c([C@H]3O[C@H](CO)[C@@H](O)[C@H](O)[C@H]3O)c(O)ccc12
REMARK SMILES IDX 3 1 11 2 12 3 13 4 30 5 2 6 1 7 29 8 28 9 26 10 14 11 4 12
REMARK SMILES IDX 5 13 6 14 7 15 10 16 9 17 8 18 15 20 24 21 16 22 22 23 17 24
REMARK SMILES IDX 20 25 25 26 23 28 18 30 19 31 21 33 27 35
REMARK H PARENT 8 19 25 27 23 29 19 32 21 34 27 36
REMARK Flexibility Score: inf
ROOT
ATOM      1  C   UNL     1      62.567  47.750  53.536  1.00  0.00     0.065 A 
ATOM      2  C   UNL     1      63.556  48.197  52.650  1.00  0.00     0.208 A 
ATOM      3  O   UNL     1      63.588  49.463  52.249  1.00  0.00    -0.463 OA
ATOM      4  C   UNL     1      62.706  50.379  52.644  1.00  0.00     0.147 A 
ATOM      5  C   UNL     1      61.674  50.011  53.538  1.00  0.00     0.066 A 
ATOM      6  C   UNL     1      61.615  48.679  53.991  1.00  0.00     0.200 A 
ATOM      7  O   UNL     1      60.726  48.326  54.815  1.00  0.00    -0.288 OA
ATOM      8  C   UNL     1      60.746  50.971  53.955  1.00  0.00     0.020 A 
ATOM      9  C   UNL     1      60.837  52.279  53.491  1.00  0.00     0.047 A 
ATOM     10  C   UNL     1      61.856  52.664  52.608  1.00  0.00     0.125 A 
ATOM     11  C   UNL     1      62.817  51.711  52.170  1.00  0.00     0.069 A 
ENDROOT
BRANCH   1  12
ATOM     12  C   UNL     1      62.557  46.332  53.978  1.00  0.00    -0.011 A 
ATOM     13  C   UNL     1      61.631  45.420  53.440  1.00  0.00     0.013 A 
ATOM     14  C   UNL     1      61.632  44.084  53.854  1.00  0.00     0.047 A 
ATOM     15  C   UNL     1      62.560  43.643  54.808  1.00  0.00     0.115 A 
ATOM     16  C   UNL     1      63.489  45.879  54.928  1.00  0.00     0.013 A 
ATOM     17  C   UNL     1      63.487  44.543  55.341  1.00  0.00     0.047 A 
BRANCH  15  18
ATOM     18  O   UNL     1      62.570  42.315  55.228  1.00  0.00    -0.508 OA
ATOM     19  H   UNL     1      62.068  41.595  54.721  1.00  0.00     0.293 HD
ENDBRANCH  15  18
ENDBRANCH   1  12
BRANCH  11  20
ATOM     20  C   UNL     1      63.971  52.002  51.198  1.00  0.00     0.188 C 
ATOM     21  C   UNL     1      65.203  52.768  51.739  1.00  0.00     0.179 C 
ATOM     22  O   UNL     1      63.441  52.641  50.044  1.00  0.00    -0.362 OA
ATOM     23  C   UNL     1      66.360  52.657  50.712  1.00  0.00     0.177 C 
ATOM     24  C   UNL     1      64.420  53.070  49.095  1.00  0.00     0.176 C 
ATOM     25  C   UNL     1      65.834  52.445  49.270  1.00  0.00     0.177 C 
BRANCH  21  26
ATOM     26  O   UNL     1      64.873  54.125  51.914  1.00  0.00    -0.387 OA
ATOM     27  H   UNL     1      64.249  54.364  51.180  1.00  0.00     0.211 HD
ENDBRANCH  21  26
BRANCH  23  28
ATOM     28  O   UNL     1      67.201  51.583  51.049  1.00  0.00    -0.387 OA
ATOM     29  H   UNL     1      67.431  51.118  50.203  1.00  0.00     0.211 HD
ENDBRANCH  23  28
BRANCH  24  30
ATOM     30  C   UNL     1      63.869  52.818  47.682  1.00  0.00     0.191 C 
BRANCH  30  31
ATOM     31  O   UNL     1      64.246  51.551  47.212  1.00  0.00    -0.394 OA
ATOM     32  H   UNL     1      65.018  51.259  47.763  1.00  0.00     0.210 HD
ENDBRANCH  30  31
ENDBRANCH  24  30
BRANCH  25  33
ATOM     33  O   UNL     1      66.727  53.020  48.350  1.00  0.00    -0.388 OA
ATOM     34  H   UNL     1      67.634  52.703  48.594  1.00  0.00     0.211 HD
ENDBRANCH  25  33
ENDBRANCH  11  20
BRANCH  10  35
ATOM     35  O   UNL     1      61.889  53.992  52.191  1.00  0.00    -0.507 OA
ATOM     36  H   UNL     1      61.202  54.670  52.499  1.00  0.00     0.293 HD
ENDBRANCH  10  35
TORSDOF 9
ENDMDL
MODEL 7
REMARK VINA RESULT:    -5.191      4.006      8.972
REMARK INTER + INTRA:          -8.277
REMARK INTER:                  -7.106
REMARK INTRA:                  -1.171
REMARK UNBOUND:                -1.266
REMARK SMILES O=c1c(-c2ccc(O)cc2)coc2c([C@H]3O[C@H](CO)[C@@H](O)[C@H](O)[C@H]3O)c(O)ccc12
REMARK SMILES IDX 3 1 11 2 12 3 13 4 30 5 2 6 1 7 29 8 28 9 26 10 14 11 4 12
REMARK SMILES IDX 5 13 6 14 7 15 10 16 9 17 8 18 15 20 24 21 16 22 22 23 17 24
REMARK SMILES IDX 20 25 25 26 23 28 18 30 19 31 21 33 27 35
REMARK H PARENT 8 19 25 27 23 29 19 32 21 34 27 36
REMARK Flexibility Score: inf
ROOT
ATOM      1  C   UNL     1      67.041  37.173  49.420  1.00  0.00     0.065 A 
ATOM      2  C   UNL     1      66.066  37.375  48.434  1.00  0.00     0.208 A 
ATOM      3  O   UNL     1      66.233  36.900  47.205  1.00  0.00    -0.463 OA
ATOM      4  C   UNL     1      67.311  36.217  46.824  1.00  0.00     0.147 A 
ATOM      5  C   UNL     1      68.344  35.971  47.757  1.00  0.00     0.066 A 
ATOM      6  C   UNL     1      68.197  36.451  49.072  1.00  0.00     0.200 A 
ATOM      7  O   UNL     1      69.086  36.219  49.938  1.00  0.00    -0.288 OA
ATOM      8  C   UNL     1      69.479  35.254  47.359  1.00  0.00     0.020 A 
ATOM      9  C   UNL     1      69.589  34.790  46.053  1.00  0.00     0.047 A 
ATOM     10  C   UNL     1      68.573  35.021  45.115  1.00  0.00     0.125 A 
ATOM     11  C   UNL     1      67.406  35.742  45.490  1.00  0.00     0.069 A 
ENDROOT
BRANCH   1  12
ATOM     12  C   UNL     1      66.829  37.705  50.790  1.00  0.00    -0.011 A 
ATOM     13  C   UNL     1      65.684  37.351  51.528  1.00  0.00     0.013 A 
ATOM     14  C   UNL     1      65.494  37.850  52.821  1.00  0.00     0.047 A 
ATOM     15  C   UNL     1      66.447  38.704  53.393  1.00  0.00     0.115 A 
ATOM     16  C   UNL     1      67.783  38.556  51.375  1.00  0.00     0.013 A 
ATOM     17  C   UNL     1      67.589  39.054  52.668  1.00  0.00     0.047 A 
BRANCH  15  18
ATOM     18  O   UNL     1      66.267  39.206  54.680  1.00  0.00    -0.508 OA
ATOM     19  H   UNL     1      65.439  38.991  55.222  1.00  0.00     0.293 HD
ENDBRANCH  15  18
ENDBRANCH   1  12
BRANCH  11  20
ATOM     20  C   UNL     1      66.230  36.071  44.558  1.00  0.00     0.188 C 
ATOM     21  C   UNL     1      65.167  34.973  44.311  1.00  0.00     0.179 C 
ATOM     22  O   UNL     1      66.751  36.560  43.328  1.00  0.00    -0.362 OA
ATOM     23  C   UNL     1      63.927  35.611  43.632  1.00  0.00     0.177 C 
ATOM     24  C   UNL     1      65.769  36.807  42.318  1.00  0.00     0.176 C 
ATOM     25  C   UNL     1      64.299  36.880  42.825  1.00  0.00     0.177 C 
BRANCH  21  26
ATOM     26  O   UNL     1      65.699  33.986  43.461  1.00  0.00    -0.387 OA
ATOM     27  H   UNL     1      66.067  33.273  44.046  1.00  0.00     0.211 HD
ENDBRANCH  21  26
BRANCH  23  28
ATOM     28  O   UNL     1      62.972  35.957  44.603  1.00  0.00    -0.387 OA
ATOM     29  H   UNL     1      63.230  36.847  44.959  1.00  0.00     0.211 HD
ENDBRANCH  23  28
BRANCH  24  30
ATOM     30  C   UNL     1      66.163  38.086  41.561  1.00  0.00     0.191 C 
BRANCH  30  31
ATOM     31  O   UNL     1      65.735  38.035  40.226  1.00  0.00    -0.394 OA
ATOM     32  H   UNL     1      65.810  38.956  39.866  1.00  0.00     0.210 HD
ENDBRANCH  30  31
ENDBRANCH  24  30
BRANCH  25  33
ATOM     33  O   UNL     1      63.426  37.021  41.732  1.00  0.00    -0.388 OA
ATOM     34  H   UNL     1      63.839  36.535  40.972  1.00  0.00     0.211 HD
ENDBRANCH  25  33
ENDBRANCH  11  20
BRANCH  10  35
ATOM     35  O   UNL     1      68.748  34.520  43.828  1.00  0.00    -0.507 OA
ATOM     36  H   UNL     1      69.006  35.115  43.049  1.00  0.00     0.293 HD
ENDBRANCH  10  35
TORSDOF 9
ENDMDL
MODEL 8
REMARK VINA RESULT:    -5.129      3.790      5.799
REMARK INTER + INTRA:          -8.194
REMARK INTER:                  -6.817
REMARK INTRA:                  -1.376
REMARK UNBOUND:                -1.266
REMARK SMILES O=c1c(-c2ccc(O)cc2)coc2c([C@H]3O[C@H](CO)[C@@H](O)[C@H](O)[C@H]3O)c(O)ccc12
REMARK SMILES IDX 3 1 11 2 12 3 13 4 30 5 2 6 1 7 29 8 28 9 26 10 14 11 4 12
REMARK SMILES IDX 5 13 6 14 7 15 10 16 9 17 8 18 15 20 24 21 16 22 22 23 17 24
REMARK SMILES IDX 20 25 25 26 23 28 18 30 19 31 21 33 27 35
REMARK H PARENT 8 19 25 27 23 29 19 32 21 34 27 36
REMARK Flexibility Score: inf
ROOT
ATOM      1  C   UNL     1      71.064  37.464  42.550  1.00  0.00     0.065 A 
ATOM      2  C   UNL     1      70.018  36.877  43.276  1.00  0.00     0.208 A 
ATOM      3  O   UNL     1      68.754  37.192  43.022  1.00  0.00    -0.463 OA
ATOM      4  C   UNL     1      68.390  38.067  42.086  1.00  0.00     0.147 A 
ATOM      5  C   UNL     1      69.383  38.707  41.309  1.00  0.00     0.066 A 
ATOM      6  C   UNL     1      70.735  38.390  41.545  1.00  0.00     0.200 A 
ATOM      7  O   UNL     1      71.644  38.919  40.846  1.00  0.00    -0.288 OA
ATOM      8  C   UNL     1      69.005  39.628  40.326  1.00  0.00     0.020 A 
ATOM      9  C   UNL     1      67.660  39.913  40.116  1.00  0.00     0.047 A 
ATOM     10  C   UNL     1      66.661  39.286  40.874  1.00  0.00     0.125 A 
ATOM     11  C   UNL     1      67.014  38.342  41.878  1.00  0.00     0.069 A 
ENDROOT
BRANCH   1  12
ATOM     12  C   UNL     1      72.470  37.089  42.846  1.00  0.00    -0.011 A 
ATOM     13  C   UNL     1      73.081  36.011  42.180  1.00  0.00     0.013 A 
ATOM     14  C   UNL     1      74.408  35.669  42.458  1.00  0.00     0.047 A 
ATOM     15  C   UNL     1      75.142  36.402  43.400  1.00  0.00     0.115 A 
ATOM     16  C   UNL     1      73.216  37.824  43.784  1.00  0.00     0.013 A 
ATOM     17  C   UNL     1      74.543  37.479  44.060  1.00  0.00     0.047 A 
BRANCH  15  18
ATOM     18  O   UNL     1      76.464  36.070  43.684  1.00  0.00    -0.508 OA
ATOM     19  H   UNL     1      77.238  36.594  43.294  1.00  0.00     0.293 HD
ENDBRANCH  15  18
ENDBRANCH   1  12
BRANCH  11  20
ATOM     20  C   UNL     1      66.019  37.597  42.781  1.00  0.00     0.188 C 
ATOM     21  C   UNL     1      65.110  36.524  42.133  1.00  0.00     0.179 C 
ATOM     22  O   UNL     1      65.248  38.556  43.492  1.00  0.00    -0.362 OA
ATOM     23  C   UNL     1      64.444  35.681  43.252  1.00  0.00     0.177 C 
ATOM     24  C   UNL     1      64.201  38.005  44.296  1.00  0.00     0.176 C 
ATOM     25  C   UNL     1      64.311  36.478  44.574  1.00  0.00     0.177 C 
BRANCH  21  26
ATOM     26  O   UNL     1      64.106  37.155  41.374  1.00  0.00    -0.387 OA
ATOM     27  H   UNL     1      64.079  38.103  41.669  1.00  0.00     0.211 HD
ENDBRANCH  21  26
BRANCH  23  28
ATOM     28  O   UNL     1      65.201  34.523  43.496  1.00  0.00    -0.387 OA
ATOM     29  H   UNL     1      65.684  34.310  42.655  1.00  0.00     0.211 HD
ENDBRANCH  23  28
BRANCH  24  30
ATOM     30  C   UNL     1      64.123  38.807  45.605  1.00  0.00     0.191 C 
BRANCH  30  31
ATOM     31  O   UNL     1      62.834  38.750  46.156  1.00  0.00    -0.394 OA
ATOM     32  H   UNL     1      62.715  37.832  46.513  1.00  0.00     0.210 HD
ENDBRANCH  30  31
ENDBRANCH  24  30
BRANCH  25  33
ATOM     33  O   UNL     1      63.178  36.040  45.280  1.00  0.00    -0.388 OA
ATOM     34  H   UNL     1      63.447  35.960  46.232  1.00  0.00     0.211 HD
ENDBRANCH  25  33
ENDBRANCH  11  20
BRANCH  10  35
ATOM     35  O   UNL     1      65.335  39.615  40.604  1.00  0.00    -0.507 OA
ATOM     36  H   UNL     1      65.020  40.576  40.547  1.00  0.00     0.293 HD
ENDBRANCH  10  35
TORSDOF 9
ENDMDL
MODEL 9
REMARK VINA RESULT:    -5.073      2.203      8.488
REMARK INTER + INTRA:          -8.118
REMARK INTER:                  -6.700
REMARK INTRA:                  -1.418
REMARK UNBOUND:                -1.266
REMARK SMILES O=c1c(-c2ccc(O)cc2)coc2c([C@H]3O[C@H](CO)[C@@H](O)[C@H](O)[C@H]3O)c(O)ccc12
REMARK SMILES IDX 3 1 11 2 12 3 13 4 30 5 2 6 1 7 29 8 28 9 26 10 14 11 4 12
REMARK SMILES IDX 5 13 6 14 7 15 10 16 9 17 8 18 15 20 24 21 16 22 22 23 17 24
REMARK SMILES IDX 20 25 25 26 23 28 18 30 19 31 21 33 27 35
REMARK H PARENT 8 19 25 27 23 29 19 32 21 34 27 36
REMARK Flexibility Score: inf
ROOT
ATOM      1  C   UNL     1      63.619  39.205  46.897  1.00  0.00     0.065 A 
ATOM      2  C   UNL     1      63.624  39.127  45.498  1.00  0.00     0.208 A 
ATOM      3  O   UNL     1      64.692  38.683  44.845  1.00  0.00    -0.463 OA
ATOM      4  C   UNL     1      65.811  38.291  45.452  1.00  0.00     0.147 A 
ATOM      5  C   UNL     1      65.890  38.340  46.862  1.00  0.00     0.066 A 
ATOM      6  C   UNL     1      64.774  38.797  47.588  1.00  0.00     0.200 A 
ATOM      7  O   UNL     1      64.801  38.821  48.850  1.00  0.00    -0.288 OA
ATOM      8  C   UNL     1      67.065  37.930  47.503  1.00  0.00     0.020 A 
ATOM      9  C   UNL     1      68.148  37.479  46.756  1.00  0.00     0.047 A 
ATOM     10  C   UNL     1      68.086  37.420  45.357  1.00  0.00     0.125 A 
ATOM     11  C   UNL     1      66.904  37.826  44.677  1.00  0.00     0.069 A 
ENDROOT
BRANCH   1  12
ATOM     12  C   UNL     1      62.410  39.697  47.606  1.00  0.00    -0.011 A 
ATOM     13  C   UNL     1      62.159  41.076  47.724  1.00  0.00     0.013 A 
ATOM     14  C   UNL     1      61.014  41.531  48.386  1.00  0.00     0.047 A 
ATOM     15  C   UNL     1      60.106  40.615  48.933  1.00  0.00     0.115 A 
ATOM     16  C   UNL     1      61.489  38.785  48.151  1.00  0.00     0.013 A 
ATOM     17  C   UNL     1      60.346  39.244  48.813  1.00  0.00     0.047 A 
BRANCH  15  18
ATOM     18  O   UNL     1      58.963  41.058  49.595  1.00  0.00    -0.508 OA
ATOM     19  H   UNL     1      58.817  42.040  49.802  1.00  0.00     0.293 HD
ENDBRANCH  15  18
ENDBRANCH   1  12
BRANCH  11  20
ATOM     20  C   UNL     1      66.713  37.819  43.152  1.00  0.00     0.188 C 
ATOM     21  C   UNL     1      66.335  36.482  42.471  1.00  0.00     0.179 C 
ATOM     22  O   UNL     1      67.869  38.387  42.550  1.00  0.00    -0.362 OA
ATOM     23  C   UNL     1      65.870  36.766  41.019  1.00  0.00     0.177 C 
ATOM     24  C   UNL     1      67.879  38.349  41.121  1.00  0.00     0.176 C 
ATOM     25  C   UNL     1      66.502  38.063  40.454  1.00  0.00     0.177 C 
BRANCH  21  26
ATOM     26  O   UNL     1      67.459  35.636  42.437  1.00  0.00    -0.387 OA
ATOM     27  H   UNL     1      68.160  36.114  41.920  1.00  0.00     0.211 HD
ENDBRANCH  21  26
BRANCH  23  28
ATOM     28  O   UNL     1      64.471  36.888  40.976  1.00  0.00    -0.387 OA
ATOM     29  H   UNL     1      64.270  37.768  40.562  1.00  0.00     0.211 HD
ENDBRANCH  23  28
BRANCH  24  30
ATOM     30  C   UNL     1      68.487  39.663  40.604  1.00  0.00     0.191 C 
BRANCH  30  31
ATOM     31  O   UNL     1      67.528  40.432  39.928  1.00  0.00    -0.394 OA
ATOM     32  H   UNL     1      66.781  40.583  40.564  1.00  0.00     0.210 HD
ENDBRANCH  30  31
ENDBRANCH  24  30
BRANCH  25  33
ATOM     33  O   UNL     1      66.661  37.948  39.063  1.00  0.00    -0.388 OA
ATOM     34  H   UNL     1      67.353  37.253  38.911  1.00  0.00     0.211 HD
ENDBRANCH  25  33
ENDBRANCH  11  20
BRANCH  10  35
ATOM     35  O   UNL     1      69.205  36.951  44.674  1.00  0.00    -0.507 OA
ATOM     36  H   UNL     1      70.126  37.352  44.810  1.00  0.00     0.293 HD
ENDBRANCH  10  35
TORSDOF 9
ENDMDL
