MODEL 1
REMARK VINA RESULT:     8.531      0.000      0.000
REMARK INTER + INTRA:           8.780
REMARK INTER:                   8.780
REMARK INTRA:                   0.000
REMARK UNBOUND:                 0.000
REMARK SMILES Oc1ccc2[nH]ccc2c1
REMARK SMILES IDX 3 1 4 2 5 3 9 4 8 5 7 6 6 7 10 8 2 9 1 11
REMARK H PARENT 6 10 1 12
REMARK Flexibility Score: inf
ROOT
ATOM      1  C   UNL     1     -29.535  14.254  -1.508  1.00  0.00     0.048 A 
ATOM      2  C   UNL     1     -30.367  14.527  -0.406  1.00  0.00     0.030 A 
ATOM      3  C   UNL     1     -29.854  15.326   0.613  1.00  0.00     0.046 A 
ATOM      4  C   UNL     1     -28.584  15.835   0.559  1.00  0.00     0.003 A 
ATOM      5  C   UNL     1     -28.387  16.572   1.706  1.00  0.00     0.028 A 
ATOM      6  C   UNL     1     -29.580  16.469   2.415  1.00  0.00     0.083 A 
ATOM      7  N   UNL     1     -30.473  15.707   1.743  1.00  0.00    -0.361 N 
ATOM      8  C   UNL     1     -27.735  15.584  -0.516  1.00  0.00     0.056 A 
ATOM      9  C   UNL     1     -28.220  14.780  -1.565  1.00  0.00     0.116 A 
ATOM     10  H   UNL     1     -31.444  15.465   2.044  1.00  0.00     0.166 HD
ENDROOT
BRANCH   9  11
ATOM     11  O   UNL     1     -27.398  14.509  -2.656  1.00  0.00    -0.508 OA
ATOM     12  H   UNL     1     -27.211  15.208  -3.364  1.00  0.00     0.293 HD
ENDBRANCH   9  11
TORSDOF 1
ENDMDL
MODEL 2
REMARK VINA RESULT:     8.742      2.613      4.082
REMARK INTER + INTRA:           8.998
REMARK INTER:                   8.998
REMARK INTRA:                   0.000
REMARK UNBOUND:                 0.000
REMARK SMILES Oc1ccc2[nH]ccc2c1
REMARK SMILES IDX 3 1 4 2 5 3 9 4 8 5 7 6 6 7 10 8 2 9 1 11
REMARK H PARENT 6 10 1 12
REMARK Flexibility Score: inf
ROOT
ATOM      1  C   UNL     1     -28.523  16.479   1.887  1.00  0.00     0.048 A 
ATOM      2  C   UNL     1     -27.682  16.130   0.813  1.00  0.00     0.030 A 
ATOM      3  C   UNL     1     -28.232  15.388  -0.229  1.00  0.00     0.046 A 
ATOM      4  C   UNL     1     -29.546  15.003  -0.224  1.00  0.00     0.003 A 
ATOM      5  C   UNL     1     -29.772  14.292  -1.382  1.00  0.00     0.028 A 
ATOM      6  C   UNL     1     -28.550  14.284  -2.048  1.00  0.00     0.083 A 
ATOM      7  N   UNL     1     -27.612  14.955  -1.340  1.00  0.00    -0.361 N 
ATOM      8  C   UNL     1     -30.405  15.330   0.823  1.00  0.00     0.056 A 
ATOM      9  C   UNL     1     -29.883  16.080   1.894  1.00  0.00     0.116 A 
ATOM     10  H   UNL     1     -26.613  15.103  -1.604  1.00  0.00     0.166 HD
ENDROOT
BRANCH   9  11
ATOM     11  O   UNL     1     -30.714  16.425   2.957  1.00  0.00    -0.508 OA
ATOM     12  H   UNL     1     -31.712  16.545   2.830  1.00  0.00     0.293 HD
ENDBRANCH   9  11
TORSDOF 1
ENDMDL
MODEL 3
REMARK VINA RESULT:     9.053      0.818      2.138
REMARK INTER + INTRA:           9.318
REMARK INTER:                   9.318
REMARK INTRA:                   0.000
REMARK UNBOUND:                 0.000
REMARK SMILES Oc1ccc2[nH]ccc2c1
REMARK SMILES IDX 3 1 4 2 5 3 9 4 8 5 7 6 6 7 10 8 2 9 1 11
REMARK H PARENT 6 10 1 12
REMARK Flexibility Score: inf
ROOT
ATOM      1  C   UNL     1     -27.497  15.718  -0.371  1.00  0.00     0.048 A 
ATOM      2  C   UNL     1     -28.233  16.128   0.756  1.00  0.00     0.030 A 
ATOM      3  C   UNL     1     -29.533  15.646   0.894  1.00  0.00     0.046 A 
ATOM      4  C   UNL     1     -30.090  14.802  -0.028  1.00  0.00     0.003 A 
ATOM      5  C   UNL     1     -31.369  14.515   0.396  1.00  0.00     0.028 A 
ATOM      6  C   UNL     1     -31.525  15.219   1.586  1.00  0.00     0.083 A 
ATOM      7  N   UNL     1     -30.400  15.909   1.886  1.00  0.00    -0.361 N 
ATOM      8  C   UNL     1     -29.390  14.377  -1.155  1.00  0.00     0.056 A 
ATOM      9  C   UNL     1     -28.073  14.844  -1.327  1.00  0.00     0.116 A 
ATOM     10  H   UNL     1     -30.242  16.520   2.719  1.00  0.00     0.166 HD
ENDROOT
BRANCH   9  11
ATOM     11  O   UNL     1     -27.344  14.439  -2.443  1.00  0.00    -0.508 OA
ATOM     12  H   UNL     1     -26.813  13.576  -2.443  1.00  0.00     0.293 HD
ENDBRANCH   9  11
TORSDOF 1
ENDMDL
MODEL 4
REMARK VINA RESULT:     9.225      2.595      3.618
REMARK INTER + INTRA:           9.494
REMARK INTER:                   9.494
REMARK INTRA:                   0.000
REMARK UNBOUND:                 0.000
REMARK SMILES Oc1ccc2[nH]ccc2c1
REMARK SMILES IDX 3 1 4 2 5 3 9 4 8 5 7 6 6 7 10 8 2 9 1 11
REMARK H PARENT 6 10 1 12
REMARK Flexibility Score: inf
ROOT
ATOM      1  C   UNL     1     -31.155  15.184   1.342  1.00  0.00     0.048 A 
ATOM      2  C   UNL     1     -30.967  14.527   0.112  1.00  0.00     0.030 A 
ATOM      3  C   UNL     1     -29.745  14.697  -0.536  1.00  0.00     0.046 A 
ATOM      4  C   UNL     1     -28.751  15.475  -0.006  1.00  0.00     0.003 A 
ATOM      5  C   UNL     1     -27.687  15.436  -0.880  1.00  0.00     0.028 A 
ATOM      6  C   UNL     1     -28.103  14.614  -1.923  1.00  0.00     0.083 A 
ATOM      7  N   UNL     1     -29.361  14.165  -1.709  1.00  0.00    -0.361 N 
ATOM      8  C   UNL     1     -28.904  16.139   1.209  1.00  0.00     0.056 A 
ATOM      9  C   UNL     1     -30.126  15.989   1.892  1.00  0.00     0.116 A 
ATOM     10  H   UNL     1     -29.917  13.535  -2.329  1.00  0.00     0.166 HD
ENDROOT
BRANCH   9  11
ATOM     11  O   UNL     1     -30.313  16.639   3.110  1.00  0.00    -0.508 OA
ATOM     12  H   UNL     1     -30.994  17.382   3.214  1.00  0.00     0.293 HD
ENDBRANCH   9  11
TORSDOF 1
ENDMDL
MODEL 5
REMARK VINA RESULT:     9.536      2.245      2.834
REMARK INTER + INTRA:           9.815
REMARK INTER:                   9.815
REMARK INTRA:                   0.000
REMARK UNBOUND:                 0.000
REMARK SMILES Oc1ccc2[nH]ccc2c1
REMARK SMILES IDX 3 1 4 2 5 3 9 4 8 5 7 6 6 7 10 8 2 9 1 11
REMARK H PARENT 6 10 1 12
REMARK Flexibility Score: inf
ROOT
ATOM      1  C   UNL     1     -29.942  14.068  -1.075  1.00  0.00     0.048 A 
ATOM      2  C   UNL     1     -28.600  14.484  -1.158  1.00  0.00     0.030 A 
ATOM      3  C   UNL     1     -28.135  15.374  -0.193  1.00  0.00     0.046 A 
ATOM      4  C   UNL     1     -28.944  15.838   0.809  1.00  0.00     0.003 A 
ATOM      5  C   UNL     1     -28.190  16.690   1.586  1.00  0.00     0.028 A 
ATOM      6  C   UNL     1     -26.928  16.698   0.999  1.00  0.00     0.083 A 
ATOM      7  N   UNL     1     -26.899  15.892  -0.088  1.00  0.00    -0.361 N 
ATOM      8  C   UNL     1     -30.276  15.447   0.921  1.00  0.00     0.056 A 
ATOM      9  C   UNL     1     -30.781  14.548  -0.038  1.00  0.00     0.116 A 
ATOM     10  H   UNL     1     -26.083  15.712  -0.715  1.00  0.00     0.166 HD
ENDROOT
BRANCH   9  11
ATOM     11  O   UNL     1     -32.109  14.136   0.044  1.00  0.00    -0.508 OA
ATOM     12  H   UNL     1     -32.761  14.299  -0.715  1.00  0.00     0.293 HD
ENDBRANCH   9  11
TORSDOF 1
ENDMDL
MODEL 6
REMARK VINA RESULT:    10.579      1.760      2.533
REMARK INTER + INTRA:          10.888
REMARK INTER:                  10.888
REMARK INTRA:                   0.000
REMARK UNBOUND:                 0.000
REMARK SMILES Oc1ccc2[nH]ccc2c1
REMARK SMILES IDX 3 1 4 2 5 3 9 4 8 5 7 6 6 7 10 8 2 9 1 11
REMARK H PARENT 6 10 1 12
REMARK Flexibility Score: inf
ROOT
ATOM      1  C   UNL     1     -27.525  15.194  -0.924  1.00  0.00     0.048 A 
ATOM      2  C   UNL     1     -28.715  14.508  -1.233  1.00  0.00     0.030 A 
ATOM      3  C   UNL     1     -29.800  14.670  -0.375  1.00  0.00     0.046 A 
ATOM      4  C   UNL     1     -29.728  15.467   0.736  1.00  0.00     0.003 A 
ATOM      5  C   UNL     1     -30.954  15.412   1.362  1.00  0.00     0.028 A 
ATOM      6  C   UNL     1     -31.727  14.563   0.576  1.00  0.00     0.083 A 
ATOM      7  N   UNL     1     -31.018  14.111  -0.484  1.00  0.00    -0.361 N 
ATOM      8  C   UNL     1     -28.567  16.159   1.071  1.00  0.00     0.056 A 
ATOM      9  C   UNL     1     -27.450  16.019   0.226  1.00  0.00     0.116 A 
ATOM     10  H   UNL     1     -31.351  13.462  -1.231  1.00  0.00     0.166 HD
ENDROOT
BRANCH   9  11
ATOM     11  O   UNL     1     -26.272  16.698   0.532  1.00  0.00    -0.508 OA
ATOM     12  H   UNL     1     -25.448  16.617  -0.052  1.00  0.00     0.293 HD
ENDBRANCH   9  11
TORSDOF 1
ENDMDL
