MODEL 1
REMARK VINA RESULT:    23.019      0.000      0.000
REMARK INTER + INTRA:          53.046
REMARK INTER:                  52.623
REMARK INTRA:                   0.423
REMARK UNBOUND:                 0.423
REMARK SMILES CCCCCCCCCCCCCCCCCCCCCCCC(=O)[O-]
REMARK SMILES IDX 13 1 14 2 15 3 16 4 17 5 18 6 19 7 20 8 21 9 22 10 23 11
REMARK SMILES IDX 24 12 25 13 26 14 12 15 11 16 10 17 9 18 8 19 7 20 6 21 5 22
REMARK SMILES IDX 4 23 3 24 2 25 1 26
REMARK H PARENT
REMARK Flexibility Score: inf
ROOT
ATOM      1  C   UNL     1      -9.135  13.400 -20.710  1.00  0.00     0.000 C 
ENDROOT
BRANCH   1   2
ATOM      2  C   UNL     1      -7.882  13.510 -21.597  1.00  0.00     0.000 C 
BRANCH   2   3
ATOM      3  C   UNL     1      -7.610  12.245 -22.435  1.00  0.00     0.000 C 
BRANCH   3   4
ATOM      4  C   UNL     1      -6.481  12.455 -23.460  1.00  0.00     0.000 C 
BRANCH   4   5
ATOM      5  C   UNL     1      -6.936  12.174 -24.901  1.00  0.00     0.000 C 
BRANCH   5   6
ATOM      6  C   UNL     1      -6.179  13.017 -25.936  1.00  0.00     0.000 C 
BRANCH   6   7
ATOM      7  C   UNL     1      -5.396  14.145 -25.252  1.00  0.00     0.000 C 
BRANCH   7   8
ATOM      8  C   UNL     1      -4.658  15.014 -26.282  1.00  0.00     0.000 C 
BRANCH   8   9
ATOM      9  C   UNL     1      -5.537  16.146 -26.835  1.00  0.00     0.000 C 
BRANCH   9  10
ATOM     10  C   UNL     1      -5.171  17.524 -26.255  1.00  0.00     0.006 C 
BRANCH  10  11
ATOM     11  C   UNL     1      -4.631  17.423 -24.821  1.00  0.00     0.053 C 
BRANCH  11  12
ATOM     12  C   UNL     1      -5.512  18.139 -23.843  1.00  0.00     0.041 C 
ATOM     13  O   UNL     1      -5.648  17.699 -22.670  1.00  0.00    -0.550 OA
ATOM     14  O   UNL     1      -6.155  19.313 -24.215  1.00  0.00    -0.550 OA
ENDBRANCH  11  12
ENDBRANCH  10  11
ENDBRANCH   9  10
ENDBRANCH   8   9
ENDBRANCH   7   8
ENDBRANCH   6   7
ENDBRANCH   5   6
ENDBRANCH   4   5
ENDBRANCH   3   4
ENDBRANCH   2   3
ENDBRANCH   1   2
BRANCH   1  15
ATOM     15  C   UNL     1      -9.180  14.462 -19.598  1.00  0.00     0.000 C 
BRANCH  15  16
ATOM     16  C   UNL     1      -8.342  14.056 -18.368  1.00  0.00     0.000 C 
BRANCH  16  17
ATOM     17  C   UNL     1      -8.957  14.495 -17.027  1.00  0.00     0.000 C 
BRANCH  17  18
ATOM     18  C   UNL     1      -9.927  15.675 -17.174  1.00  0.00    -0.000 C 
BRANCH  18  19
ATOM     19  C   UNL     1      -9.682  16.437 -18.481  1.00  0.00    -0.000 C 
BRANCH  19  20
ATOM     20  C   UNL     1     -10.083  17.910 -18.331  1.00  0.00    -0.000 C 
BRANCH  20  21
ATOM     21  C   UNL     1      -9.769  18.430 -16.920  1.00  0.00    -0.000 C 
BRANCH  21  22
ATOM     22  C   UNL     1      -8.315  18.919 -16.799  1.00  0.00    -0.000 C 
BRANCH  22  23
ATOM     23  C   UNL     1      -7.973  19.460 -15.390  1.00  0.00    -0.000 C 
BRANCH  23  24
ATOM     24  C   UNL     1      -6.589  20.130 -15.311  1.00  0.00    -0.000 C 
BRANCH  24  25
ATOM     25  C   UNL     1      -5.890  19.984 -13.949  1.00  0.00    -0.003 C 
ATOM     26  C   UNL     1      -6.526  18.908 -13.070  1.00  0.00     0.004 C 
ENDBRANCH  24  25
ENDBRANCH  23  24
ENDBRANCH  22  23
ENDBRANCH  21  22
ENDBRANCH  20  21
ENDBRANCH  19  20
ENDBRANCH  18  19
ENDBRANCH  17  18
ENDBRANCH  16  17
ENDBRANCH  15  16
ENDBRANCH   1  15
TORSDOF 22
ENDMDL
MODEL 2
REMARK VINA RESULT:    23.339      4.393     10.156
REMARK INTER + INTRA:          53.778
REMARK INTER:                  54.819
REMARK INTRA:                  -1.042
REMARK UNBOUND:                 0.423
REMARK SMILES CCCCCCCCCCCCCCCCCCCCCCCC(=O)[O-]
REMARK SMILES IDX 13 1 14 2 15 3 16 4 17 5 18 6 19 7 20 8 21 9 22 10 23 11
REMARK SMILES IDX 24 12 25 13 26 14 12 15 11 16 10 17 9 18 8 19 7 20 6 21 5 22
REMARK SMILES IDX 4 23 3 24 2 25 1 26
REMARK H PARENT
REMARK Flexibility Score: inf
ROOT
ATOM      1  C   UNL     1      -6.886  12.319 -22.627  1.00  0.00     0.000 C 
ENDROOT
BRANCH   1   2
ATOM      2  C   UNL     1      -7.665  13.465 -21.957  1.00  0.00     0.000 C 
BRANCH   2   3
ATOM      3  C   UNL     1      -8.868  12.983 -21.121  1.00  0.00     0.000 C 
BRANCH   3   4
ATOM      4  C   UNL     1      -9.340  14.043 -20.111  1.00  0.00     0.000 C 
BRANCH   4   5
ATOM      5  C   UNL     1      -8.560  13.981 -18.788  1.00  0.00     0.000 C 
BRANCH   5   6
ATOM      6  C   UNL     1      -9.384  14.477 -17.591  1.00  0.00     0.000 C 
BRANCH   6   7
ATOM      7  C   UNL     1      -9.065  15.945 -17.282  1.00  0.00     0.000 C 
BRANCH   7   8
ATOM      8  C   UNL     1     -10.025  16.890 -18.020  1.00  0.00     0.000 C 
BRANCH   8   9
ATOM      9  C   UNL     1      -9.694  18.372 -17.777  1.00  0.00     0.000 C 
BRANCH   9  10
ATOM     10  C   UNL     1      -9.042  18.620 -16.406  1.00  0.00     0.006 C 
BRANCH  10  11
ATOM     11  C   UNL     1      -7.566  19.022 -16.530  1.00  0.00     0.053 C 
BRANCH  11  12
ATOM     12  C   UNL     1      -7.063  19.689 -15.286  1.00  0.00     0.041 C 
ATOM     13  O   UNL     1      -7.069  19.073 -14.187  1.00  0.00    -0.550 OA
ATOM     14  O   UNL     1      -6.553  20.981 -15.348  1.00  0.00    -0.550 OA
ENDBRANCH  11  12
ENDBRANCH  10  11
ENDBRANCH   9  10
ENDBRANCH   8   9
ENDBRANCH   7   8
ENDBRANCH   6   7
ENDBRANCH   5   6
ENDBRANCH   4   5
ENDBRANCH   3   4
ENDBRANCH   2   3
ENDBRANCH   1   2
BRANCH   1  15
ATOM     15  C   UNL     1      -6.489  12.631 -24.080  1.00  0.00     0.000 C 
BRANCH  15  16
ATOM     16  C   UNL     1      -6.369  11.355 -24.940  1.00  0.00     0.000 C 
BRANCH  16  17
ATOM     17  C   UNL     1      -5.697  10.178 -24.210  1.00  0.00     0.000 C 
BRANCH  17  18
ATOM     18  C   UNL     1      -4.895   9.272 -25.151  1.00  0.00    -0.000 C 
BRANCH  18  19
ATOM     19  C   UNL     1      -3.735   8.592 -24.414  1.00  0.00    -0.000 C 
BRANCH  19  20
ATOM     20  C   UNL     1      -2.451   9.421 -24.547  1.00  0.00    -0.000 C 
BRANCH  20  21
ATOM     21  C   UNL     1      -1.233   8.648 -24.020  1.00  0.00    -0.000 C 
BRANCH  21  22
ATOM     22  C   UNL     1      -1.091   8.772 -22.493  1.00  0.00    -0.000 C 
BRANCH  22  23
ATOM     23  C   UNL     1      -1.286   7.427 -21.755  1.00  0.00    -0.000 C 
BRANCH  23  24
ATOM     24  C   UNL     1      -2.666   7.288 -21.087  1.00  0.00    -0.000 C 
BRANCH  24  25
ATOM     25  C   UNL     1      -2.672   7.573 -19.576  1.00  0.00    -0.003 C 
ATOM     26  C   UNL     1      -4.071   7.869 -19.035  1.00  0.00     0.004 C 
ENDBRANCH  24  25
ENDBRANCH  23  24
ENDBRANCH  22  23
ENDBRANCH  21  22
ENDBRANCH  20  21
ENDBRANCH  19  20
ENDBRANCH  18  19
ENDBRANCH  17  18
ENDBRANCH  16  17
ENDBRANCH  15  16
ENDBRANCH   1  15
TORSDOF 22
ENDMDL
MODEL 3
REMARK VINA RESULT:    23.446      4.458      5.966
REMARK INTER + INTRA:          54.022
REMARK INTER:                  54.934
REMARK INTRA:                  -0.912
REMARK UNBOUND:                 0.423
REMARK SMILES CCCCCCCCCCCCCCCCCCCCCCCC(=O)[O-]
REMARK SMILES IDX 13 1 14 2 15 3 16 4 17 5 18 6 19 7 20 8 21 9 22 10 23 11
REMARK SMILES IDX 24 12 25 13 26 14 12 15 11 16 10 17 9 18 8 19 7 20 6 21 5 22
REMARK SMILES IDX 4 23 3 24 2 25 1 26
REMARK H PARENT
REMARK Flexibility Score: inf
ROOT
ATOM      1  C   UNL     1      -7.511  13.286 -22.232  1.00  0.00     0.000 C 
ENDROOT
BRANCH   1   2
ATOM      2  C   UNL     1      -7.394  12.119 -23.229  1.00  0.00     0.000 C 
BRANCH   2   3
ATOM      3  C   UNL     1      -5.979  11.956 -23.820  1.00  0.00     0.000 C 
BRANCH   3   4
ATOM      4  C   UNL     1      -5.925  10.877 -24.916  1.00  0.00     0.000 C 
BRANCH   4   5
ATOM      5  C   UNL     1      -5.557   9.493 -24.360  1.00  0.00     0.000 C 
BRANCH   5   6
ATOM      6  C   UNL     1      -4.391   8.841 -25.117  1.00  0.00     0.000 C 
BRANCH   6   7
ATOM      7  C   UNL     1      -3.046   9.274 -24.522  1.00  0.00     0.000 C 
BRANCH   7   8
ATOM      8  C   UNL     1      -2.295   8.078 -23.915  1.00  0.00     0.000 C 
BRANCH   8   9
ATOM      9  C   UNL     1      -1.409   8.482 -22.726  1.00  0.00     0.000 C 
BRANCH   9  10
ATOM     10  C   UNL     1      -1.496   7.490 -21.553  1.00  0.00     0.006 C 
BRANCH  10  11
ATOM     11  C   UNL     1      -2.946   7.223 -21.127  1.00  0.00     0.053 C 
BRANCH  11  12
ATOM     12  C   UNL     1      -3.216   7.709 -19.735  1.00  0.00     0.041 C 
ATOM     13  O   UNL     1      -4.396   7.758 -19.296  1.00  0.00    -0.550 OA
ATOM     14  O   UNL     1      -2.160   8.073 -18.908  1.00  0.00    -0.550 OA
ENDBRANCH  11  12
ENDBRANCH  10  11
ENDBRANCH   9  10
ENDBRANCH   8   9
ENDBRANCH   7   8
ENDBRANCH   6   7
ENDBRANCH   5   6
ENDBRANCH   4   5
ENDBRANCH   3   4
ENDBRANCH   2   3
ENDBRANCH   1   2
BRANCH   1  15
ATOM     15  C   UNL     1      -8.564  13.038 -21.137  1.00  0.00     0.000 C 
BRANCH  15  16
ATOM     16  C   UNL     1      -8.521  14.113 -20.031  1.00  0.00     0.000 C 
BRANCH  16  17
ATOM     17  C   UNL     1      -8.949  13.594 -18.647  1.00  0.00     0.000 C 
BRANCH  17  18
ATOM     18  C   UNL     1      -8.664  14.595 -17.520  1.00  0.00    -0.000 C 
BRANCH  18  19
ATOM     19  C   UNL     1      -9.898  15.451 -17.210  1.00  0.00    -0.000 C 
BRANCH  19  20
ATOM     20  C   UNL     1      -9.998  16.628 -18.189  1.00  0.00    -0.000 C 
BRANCH  20  21
ATOM     21  C   UNL     1     -10.094  17.966 -17.440  1.00  0.00    -0.000 C 
BRANCH  21  22
ATOM     22  C   UNL     1      -8.744  18.704 -17.410  1.00  0.00    -0.000 C 
BRANCH  22  23
ATOM     23  C   UNL     1      -8.539  19.539 -16.123  1.00  0.00    -0.000 C 
BRANCH  23  24
ATOM     24  C   UNL     1      -7.082  19.556 -15.629  1.00  0.00    -0.000 C 
BRANCH  24  25
ATOM     25  C   UNL     1      -6.844  20.421 -14.379  1.00  0.00    -0.003 C 
ATOM     26  C   UNL     1      -5.871  19.779 -13.392  1.00  0.00     0.004 C 
ENDBRANCH  24  25
ENDBRANCH  23  24
ENDBRANCH  22  23
ENDBRANCH  21  22
ENDBRANCH  20  21
ENDBRANCH  19  20
ENDBRANCH  18  19
ENDBRANCH  17  18
ENDBRANCH  16  17
ENDBRANCH  15  16
ENDBRANCH   1  15
TORSDOF 22
ENDMDL
MODEL 4
REMARK VINA RESULT:    23.447      0.924      1.488
REMARK INTER + INTRA:          54.024
REMARK INTER:                  54.686
REMARK INTRA:                  -0.662
REMARK UNBOUND:                 0.423
REMARK SMILES CCCCCCCCCCCCCCCCCCCCCCCC(=O)[O-]
REMARK SMILES IDX 13 1 14 2 15 3 16 4 17 5 18 6 19 7 20 8 21 9 22 10 23 11
REMARK SMILES IDX 24 12 25 13 26 14 12 15 11 16 10 17 9 18 8 19 7 20 6 21 5 22
REMARK SMILES IDX 4 23 3 24 2 25 1 26
REMARK H PARENT
REMARK Flexibility Score: inf
ROOT
ATOM      1  C   UNL     1      -7.742  13.203 -21.969  1.00  0.00     0.000 C 
ENDROOT
BRANCH   1   2
ATOM      2  C   UNL     1      -7.168  11.814 -22.301  1.00  0.00     0.000 C 
BRANCH   2   3
ATOM      3  C   UNL     1      -6.539  11.729 -23.706  1.00  0.00     0.000 C 
BRANCH   3   4
ATOM      4  C   UNL     1      -6.098  13.107 -24.232  1.00  0.00     0.000 C 
BRANCH   4   5
ATOM      5  C   UNL     1      -6.430  13.302 -25.720  1.00  0.00     0.000 C 
BRANCH   5   6
ATOM      6  C   UNL     1      -5.248  13.861 -26.523  1.00  0.00     0.000 C 
BRANCH   6   7
ATOM      7  C   UNL     1      -4.752  15.179 -25.916  1.00  0.00     0.000 C 
BRANCH   7   8
ATOM      8  C   UNL     1      -5.192  16.383 -26.764  1.00  0.00     0.000 C 
BRANCH   8   9
ATOM      9  C   UNL     1      -4.874  17.726 -26.088  1.00  0.00     0.000 C 
BRANCH   9  10
ATOM     10  C   UNL     1      -6.128  18.586 -25.850  1.00  0.00     0.006 C 
BRANCH  10  11
ATOM     11  C   UNL     1      -6.146  19.209 -24.448  1.00  0.00     0.053 C 
BRANCH  11  12
ATOM     12  C   UNL     1      -5.751  18.220 -23.393  1.00  0.00     0.041 C 
ATOM     13  O   UNL     1      -4.602  17.703 -23.404  1.00  0.00    -0.550 OA
ATOM     14  O   UNL     1      -6.641  17.898 -22.375  1.00  0.00    -0.550 OA
ENDBRANCH  11  12
ENDBRANCH  10  11
ENDBRANCH   9  10
ENDBRANCH   8   9
ENDBRANCH   7   8
ENDBRANCH   6   7
ENDBRANCH   5   6
ENDBRANCH   4   5
ENDBRANCH   3   4
ENDBRANCH   2   3
ENDBRANCH   1   2
BRANCH   1  15
ATOM     15  C   UNL     1      -8.910  13.148 -20.970  1.00  0.00     0.000 C 
BRANCH  15  16
ATOM     16  C   UNL     1      -8.770  14.198 -19.848  1.00  0.00     0.000 C 
BRANCH  16  17
ATOM     17  C   UNL     1      -9.137  13.665 -18.452  1.00  0.00     0.000 C 
BRANCH  17  18
ATOM     18  C   UNL     1      -9.105  14.752 -17.370  1.00  0.00    -0.000 C 
BRANCH  18  19
ATOM     19  C   UNL     1      -9.988  15.945 -17.755  1.00  0.00    -0.000 C 
BRANCH  19  20
ATOM     20  C   UNL     1      -9.149  17.225 -17.860  1.00  0.00    -0.000 C 
BRANCH  20  21
ATOM     21  C   UNL     1      -9.950  18.454 -17.401  1.00  0.00    -0.000 C 
BRANCH  21  22
ATOM     22  C   UNL     1      -9.227  19.223 -16.281  1.00  0.00    -0.000 C 
BRANCH  22  23
ATOM     23  C   UNL     1      -7.721  18.882 -16.186  1.00  0.00    -0.000 C 
BRANCH  23  24
ATOM     24  C   UNL     1      -6.816  20.124 -16.108  1.00  0.00    -0.000 C 
BRANCH  24  25
ATOM     25  C   UNL     1      -6.576  20.647 -14.681  1.00  0.00    -0.003 C 
ATOM     26  C   UNL     1      -6.023  19.575 -13.743  1.00  0.00     0.004 C 
ENDBRANCH  24  25
ENDBRANCH  23  24
ENDBRANCH  22  23
ENDBRANCH  21  22
ENDBRANCH  20  21
ENDBRANCH  19  20
ENDBRANCH  18  19
ENDBRANCH  17  18
ENDBRANCH  16  17
ENDBRANCH  15  16
ENDBRANCH   1  15
TORSDOF 22
ENDMDL
MODEL 5
REMARK VINA RESULT:    23.494      4.051     10.163
REMARK INTER + INTRA:          54.133
REMARK INTER:                  55.067
REMARK INTRA:                  -0.933
REMARK UNBOUND:                 0.423
REMARK SMILES CCCCCCCCCCCCCCCCCCCCCCCC(=O)[O-]
REMARK SMILES IDX 13 1 14 2 15 3 16 4 17 5 18 6 19 7 20 8 21 9 22 10 23 11
REMARK SMILES IDX 24 12 25 13 26 14 12 15 11 16 10 17 9 18 8 19 7 20 6 21 5 22
REMARK SMILES IDX 4 23 3 24 2 25 1 26
REMARK H PARENT
REMARK Flexibility Score: inf
ROOT
ATOM      1  C   UNL     1      -8.380  12.868 -21.215  1.00  0.00     0.000 C 
ENDROOT
BRANCH   1   2
ATOM      2  C   UNL     1      -8.820  13.983 -20.249  1.00  0.00     0.000 C 
BRANCH   2   3
ATOM      3  C   UNL     1      -8.334  13.768 -18.802  1.00  0.00     0.000 C 
BRANCH   3   4
ATOM      4  C   UNL     1      -9.489  13.429 -17.843  1.00  0.00     0.000 C 
BRANCH   4   5
ATOM      5  C   UNL     1     -10.062  14.676 -17.150  1.00  0.00     0.000 C 
BRANCH   5   6
ATOM      6  C   UNL     1      -9.200  15.926 -17.372  1.00  0.00     0.000 C 
BRANCH   6   7
ATOM      7  C   UNL     1      -9.932  16.942 -18.258  1.00  0.00     0.000 C 
BRANCH   7   8
ATOM      8  C   UNL     1     -10.412  18.150 -17.440  1.00  0.00     0.000 C 
BRANCH   8   9
ATOM      9  C   UNL     1      -9.299  19.186 -17.211  1.00  0.00     0.000 C 
BRANCH   9  10
ATOM     10  C   UNL     1      -8.470  18.900 -15.947  1.00  0.00     0.006 C 
BRANCH  10  11
ATOM     11  C   UNL     1      -6.989  19.255 -16.133  1.00  0.00     0.053 C 
BRANCH  11  12
ATOM     12  C   UNL     1      -6.481  20.126 -15.024  1.00  0.00     0.041 C 
ATOM     13  O   UNL     1      -6.475  21.379 -15.151  1.00  0.00    -0.550 OA
ATOM     14  O   UNL     1      -6.048  19.554 -13.833  1.00  0.00    -0.550 OA
ENDBRANCH  11  12
ENDBRANCH  10  11
ENDBRANCH   9  10
ENDBRANCH   8   9
ENDBRANCH   7   8
ENDBRANCH   6   7
ENDBRANCH   5   6
ENDBRANCH   4   5
ENDBRANCH   3   4
ENDBRANCH   2   3
ENDBRANCH   1   2
BRANCH   1  15
ATOM     15  C   UNL     1      -7.387  13.356 -22.284  1.00  0.00     0.000 C 
BRANCH  15  16
ATOM     16  C   UNL     1      -6.699  12.187 -23.019  1.00  0.00     0.000 C 
BRANCH  16  17
ATOM     17  C   UNL     1      -6.559  12.406 -24.536  1.00  0.00     0.000 C 
BRANCH  17  18
ATOM     18  C   UNL     1      -6.327  11.102 -25.309  1.00  0.00    -0.000 C 
BRANCH  18  19
ATOM     19  C   UNL     1      -5.559  10.081 -24.462  1.00  0.00    -0.000 C 
BRANCH  19  20
ATOM     20  C   UNL     1      -4.592   9.272 -25.335  1.00  0.00    -0.000 C 
BRANCH  20  21
ATOM     21  C   UNL     1      -3.748   8.309 -24.486  1.00  0.00    -0.000 C 
BRANCH  21  22
ATOM     22  C   UNL     1      -2.461   8.978 -23.972  1.00  0.00    -0.000 C 
BRANCH  22  23
ATOM     23  C   UNL     1      -1.671   8.090 -22.981  1.00  0.00    -0.000 C 
BRANCH  23  24
ATOM     24  C   UNL     1      -2.567   7.365 -21.961  1.00  0.00    -0.000 C 
BRANCH  24  25
ATOM     25  C   UNL     1      -2.149   7.562 -20.494  1.00  0.00    -0.003 C 
ATOM     26  C   UNL     1      -3.326   7.463 -19.524  1.00  0.00     0.004 C 
ENDBRANCH  24  25
ENDBRANCH  23  24
ENDBRANCH  22  23
ENDBRANCH  21  22
ENDBRANCH  20  21
ENDBRANCH  19  20
ENDBRANCH  18  19
ENDBRANCH  17  18
ENDBRANCH  16  17
ENDBRANCH  15  16
ENDBRANCH   1  15
TORSDOF 22
ENDMDL
MODEL 6
REMARK VINA RESULT:    23.507      5.645      9.639
REMARK INTER + INTRA:          54.162
REMARK INTER:                  55.496
REMARK INTRA:                  -1.335
REMARK UNBOUND:                 0.423
REMARK SMILES CCCCCCCCCCCCCCCCCCCCCCCC(=O)[O-]
REMARK SMILES IDX 13 1 14 2 15 3 16 4 17 5 18 6 19 7 20 8 21 9 22 10 23 11
REMARK SMILES IDX 24 12 25 13 26 14 12 15 11 16 10 17 9 18 8 19 7 20 6 21 5 22
REMARK SMILES IDX 4 23 3 24 2 25 1 26
REMARK H PARENT
REMARK Flexibility Score: inf
ROOT
ATOM      1  C   UNL     1      -5.042   8.699 -23.842  1.00  0.00     0.000 C 
ENDROOT
BRANCH   1   2
ATOM      2  C   UNL     1      -5.415   9.983 -24.604  1.00  0.00     0.000 C 
BRANCH   2   3
ATOM      3  C   UNL     1      -5.478  11.234 -23.705  1.00  0.00     0.000 C 
BRANCH   3   4
ATOM      4  C   UNL     1      -6.636  12.172 -24.090  1.00  0.00     0.000 C 
BRANCH   4   5
ATOM      5  C   UNL     1      -6.373  12.919 -25.408  1.00  0.00     0.000 C 
BRANCH   5   6
ATOM      6  C   UNL     1      -5.714  14.288 -25.192  1.00  0.00     0.000 C 
BRANCH   6   7
ATOM      7  C   UNL     1      -4.707  14.590 -26.308  1.00  0.00     0.000 C 
BRANCH   7   8
ATOM      8  C   UNL     1      -4.966  15.969 -26.934  1.00  0.00     0.000 C 
BRANCH   8   9
ATOM      9  C   UNL     1      -6.008  16.784 -26.151  1.00  0.00     0.000 C 
BRANCH   9  10
ATOM     10  C   UNL     1      -5.689  18.289 -26.123  1.00  0.00     0.006 C 
BRANCH  10  11
ATOM     11  C   UNL     1      -5.873  18.894 -24.725  1.00  0.00     0.053 C 
BRANCH  11  12
ATOM     12  C   UNL     1      -5.368  17.979 -23.651  1.00  0.00     0.041 C 
ATOM     13  O   UNL     1      -6.175  17.418 -22.862  1.00  0.00    -0.550 OA
ATOM     14  O   UNL     1      -4.008  17.715 -23.544  1.00  0.00    -0.550 OA
ENDBRANCH  11  12
ENDBRANCH  10  11
ENDBRANCH   9  10
ENDBRANCH   8   9
ENDBRANCH   7   8
ENDBRANCH   6   7
ENDBRANCH   5   6
ENDBRANCH   4   5
ENDBRANCH   3   4
ENDBRANCH   2   3
ENDBRANCH   1   2
BRANCH   1  15
ATOM     15  C   UNL     1      -3.584   8.265 -24.071  1.00  0.00     0.000 C 
BRANCH  15  16
ATOM     16  C   UNL     1      -3.185   7.067 -23.184  1.00  0.00     0.000 C 
BRANCH  16  17
ATOM     17  C   UNL     1      -3.830   7.089 -21.787  1.00  0.00     0.000 C 
BRANCH  17  18
ATOM     18  C   UNL     1      -2.797   7.124 -20.653  1.00  0.00    -0.000 C 
BRANCH  18  19
ATOM     19  C   UNL     1      -1.438   7.627 -21.154  1.00  0.00    -0.000 C 
BRANCH  19  20
ATOM     20  C   UNL     1      -1.421   9.159 -21.222  1.00  0.00    -0.000 C 
BRANCH  20  21
ATOM     21  C   UNL     1      -0.377   9.659 -22.233  1.00  0.00    -0.000 C 
BRANCH  21  22
ATOM     22  C   UNL     1      -1.027  10.441 -23.388  1.00  0.00    -0.000 C 
BRANCH  22  23
ATOM     23  C   UNL     1      -1.143   9.614 -24.690  1.00  0.00    -0.000 C 
BRANCH  23  24
ATOM     24  C   UNL     1      -0.029   8.563 -24.850  1.00  0.00    -0.000 C 
BRANCH  24  25
ATOM     25  C   UNL     1       0.312   8.216 -26.309  1.00  0.00    -0.003 C 
ATOM     26  C   UNL     1       1.048   6.884 -26.444  1.00  0.00     0.004 C 
ENDBRANCH  24  25
ENDBRANCH  23  24
ENDBRANCH  22  23
ENDBRANCH  21  22
ENDBRANCH  20  21
ENDBRANCH  19  20
ENDBRANCH  18  19
ENDBRANCH  17  18
ENDBRANCH  16  17
ENDBRANCH  15  16
ENDBRANCH   1  15
TORSDOF 22
ENDMDL
MODEL 7
REMARK VINA RESULT:    23.842      4.395     10.810
REMARK INTER + INTRA:          54.928
REMARK INTER:                  55.750
REMARK INTRA:                  -0.823
REMARK UNBOUND:                 0.423
REMARK SMILES CCCCCCCCCCCCCCCCCCCCCCCC(=O)[O-]
REMARK SMILES IDX 13 1 14 2 15 3 16 4 17 5 18 6 19 7 20 8 21 9 22 10 23 11
REMARK SMILES IDX 24 12 25 13 26 14 12 15 11 16 10 17 9 18 8 19 7 20 6 21 5 22
REMARK SMILES IDX 4 23 3 24 2 25 1 26
REMARK H PARENT
REMARK Flexibility Score: inf
ROOT
ATOM      1  C   UNL     1      -8.615  12.773 -21.752  1.00  0.00     0.000 C 
ENDROOT
BRANCH   1   2
ATOM      2  C   UNL     1      -8.733  13.986 -20.812  1.00  0.00     0.000 C 
BRANCH   2   3
ATOM      3  C   UNL     1      -8.285  13.688 -19.367  1.00  0.00     0.000 C 
BRANCH   3   4
ATOM      4  C   UNL     1      -9.464  13.293 -18.460  1.00  0.00     0.000 C 
BRANCH   4   5
ATOM      5  C   UNL     1      -9.605  14.220 -17.242  1.00  0.00     0.000 C 
BRANCH   5   6
ATOM      6  C   UNL     1      -9.050  15.627 -17.501  1.00  0.00     0.000 C 
BRANCH   6   7
ATOM      7  C   UNL     1     -10.187  16.616 -17.790  1.00  0.00     0.000 C 
BRANCH   7   8
ATOM      8  C   UNL     1      -9.638  17.999 -18.170  1.00  0.00     0.000 C 
BRANCH   8   9
ATOM      9  C   UNL     1      -9.421  18.903 -16.946  1.00  0.00     0.000 C 
BRANCH   9  10
ATOM     10  C   UNL     1      -8.170  18.521 -16.137  1.00  0.00     0.006 C 
BRANCH  10  11
ATOM     11  C   UNL     1      -7.080  19.600 -16.210  1.00  0.00     0.053 C 
BRANCH  11  12
ATOM     12  C   UNL     1      -6.654  20.056 -14.848  1.00  0.00     0.041 C 
ATOM     13  O   UNL     1      -5.975  21.108 -14.713  1.00  0.00    -0.550 OA
ATOM     14  O   UNL     1      -7.040  19.337 -13.722  1.00  0.00    -0.550 OA
ENDBRANCH  11  12
ENDBRANCH  10  11
ENDBRANCH   9  10
ENDBRANCH   8   9
ENDBRANCH   7   8
ENDBRANCH   6   7
ENDBRANCH   5   6
ENDBRANCH   4   5
ENDBRANCH   3   4
ENDBRANCH   2   3
ENDBRANCH   1   2
BRANCH   1  15
ATOM     15  C   UNL     1      -7.158  12.358 -22.018  1.00  0.00     0.000 C 
BRANCH  15  16
ATOM     16  C   UNL     1      -6.706  12.700 -23.454  1.00  0.00     0.000 C 
BRANCH  16  17
ATOM     17  C   UNL     1      -6.441  11.462 -24.330  1.00  0.00     0.000 C 
BRANCH  17  18
ATOM     18  C   UNL     1      -5.273  10.609 -23.821  1.00  0.00    -0.000 C 
BRANCH  18  19
ATOM     19  C   UNL     1      -4.839   9.578 -24.869  1.00  0.00    -0.000 C 
BRANCH  19  20
ATOM     20  C   UNL     1      -4.297   8.313 -24.191  1.00  0.00    -0.000 C 
BRANCH  20  21
ATOM     21  C   UNL     1      -2.763   8.342 -24.104  1.00  0.00    -0.000 C 
BRANCH  21  22
ATOM     22  C   UNL     1      -2.198   9.740 -24.411  1.00  0.00    -0.000 C 
BRANCH  22  23
ATOM     23  C   UNL     1      -0.761   9.701 -24.983  1.00  0.00    -0.000 C 
BRANCH  23  24
ATOM     24  C   UNL     1      -0.241   8.274 -25.234  1.00  0.00    -0.000 C 
BRANCH  24  25
ATOM     25  C   UNL     1       0.796   8.166 -26.366  1.00  0.00    -0.003 C 
ATOM     26  C   UNL     1       0.982   9.479 -27.125  1.00  0.00     0.004 C 
ENDBRANCH  24  25
ENDBRANCH  23  24
ENDBRANCH  22  23
ENDBRANCH  21  22
ENDBRANCH  20  21
ENDBRANCH  19  20
ENDBRANCH  18  19
ENDBRANCH  17  18
ENDBRANCH  16  17
ENDBRANCH  15  16
ENDBRANCH   1  15
TORSDOF 22
ENDMDL
MODEL 8
REMARK VINA RESULT:    23.902      4.532      5.578
REMARK INTER + INTRA:          55.067
REMARK INTER:                  55.960
REMARK INTRA:                  -0.894
REMARK UNBOUND:                 0.423
REMARK SMILES CCCCCCCCCCCCCCCCCCCCCCCC(=O)[O-]
REMARK SMILES IDX 13 1 14 2 15 3 16 4 17 5 18 6 19 7 20 8 21 9 22 10 23 11
REMARK SMILES IDX 24 12 25 13 26 14 12 15 11 16 10 17 9 18 8 19 7 20 6 21 5 22
REMARK SMILES IDX 4 23 3 24 2 25 1 26
REMARK H PARENT
REMARK Flexibility Score: inf
ROOT
ATOM      1  C   UNL     1      -8.939  13.258 -21.108  1.00  0.00     0.000 C 
ENDROOT
BRANCH   1   2
ATOM      2  C   UNL     1      -7.968  12.236 -21.728  1.00  0.00     0.000 C 
BRANCH   2   3
ATOM      3  C   UNL     1      -7.001  12.855 -22.757  1.00  0.00     0.000 C 
BRANCH   3   4
ATOM      4  C   UNL     1      -6.912  12.024 -24.049  1.00  0.00     0.000 C 
BRANCH   4   5
ATOM      5  C   UNL     1      -5.690  11.093 -24.066  1.00  0.00     0.000 C 
BRANCH   5   6
ATOM      6  C   UNL     1      -5.708  10.112 -25.246  1.00  0.00     0.000 C 
BRANCH   6   7
ATOM      7  C   UNL     1      -4.559   9.102 -25.133  1.00  0.00     0.000 C 
BRANCH   7   8
ATOM      8  C   UNL     1      -3.810   9.259 -23.800  1.00  0.00     0.000 C 
BRANCH   8   9
ATOM      9  C   UNL     1      -2.396   8.658 -23.846  1.00  0.00     0.000 C 
BRANCH   9  10
ATOM     10  C   UNL     1      -1.612   9.074 -25.103  1.00  0.00     0.006 C 
BRANCH  10  11
ATOM     11  C   UNL     1      -0.130   8.681 -25.017  1.00  0.00     0.053 C 
BRANCH  11  12
ATOM     12  C   UNL     1       0.506   8.609 -26.372  1.00  0.00     0.041 C 
ATOM     13  O   UNL     1       0.674   9.656 -27.053  1.00  0.00    -0.550 OA
ATOM     14  O   UNL     1       0.949   7.389 -26.868  1.00  0.00    -0.550 OA
ENDBRANCH  11  12
ENDBRANCH  10  11
ENDBRANCH   9  10
ENDBRANCH   8   9
ENDBRANCH   7   8
ENDBRANCH   6   7
ENDBRANCH   5   6
ENDBRANCH   4   5
ENDBRANCH   3   4
ENDBRANCH   2   3
ENDBRANCH   1   2
BRANCH   1  15
ATOM     15  C   UNL     1      -8.327  14.025 -19.923  1.00  0.00     0.000 C 
BRANCH  15  16
ATOM     16  C   UNL     1      -8.857  13.521 -18.564  1.00  0.00     0.000 C 
BRANCH  16  17
ATOM     17  C   UNL     1      -9.648  14.581 -17.778  1.00  0.00     0.000 C 
BRANCH  17  18
ATOM     18  C   UNL     1      -9.548  15.982 -18.395  1.00  0.00    -0.000 C 
BRANCH  18  19
ATOM     19  C   UNL     1     -10.279  17.021 -17.537  1.00  0.00    -0.000 C 
BRANCH  19  20
ATOM     20  C   UNL     1      -9.722  18.426 -17.800  1.00  0.00    -0.000 C 
BRANCH  20  21
ATOM     21  C   UNL     1      -9.648  19.246 -16.503  1.00  0.00    -0.000 C 
BRANCH  21  22
ATOM     22  C   UNL     1      -8.311  19.039 -15.770  1.00  0.00    -0.000 C 
BRANCH  22  23
ATOM     23  C   UNL     1      -7.090  19.519 -16.591  1.00  0.00    -0.000 C 
BRANCH  23  24
ATOM     24  C   UNL     1      -6.012  20.211 -15.738  1.00  0.00    -0.000 C 
BRANCH  24  25
ATOM     25  C   UNL     1      -6.478  20.611 -14.327  1.00  0.00    -0.003 C 
ATOM     26  C   UNL     1      -6.228  19.518 -13.289  1.00  0.00     0.004 C 
ENDBRANCH  24  25
ENDBRANCH  23  24
ENDBRANCH  22  23
ENDBRANCH  21  22
ENDBRANCH  20  21
ENDBRANCH  19  20
ENDBRANCH  18  19
ENDBRANCH  17  18
ENDBRANCH  16  17
ENDBRANCH  15  16
ENDBRANCH   1  15
TORSDOF 22
ENDMDL
MODEL 9
REMARK VINA RESULT:    24.001      2.838      8.967
REMARK INTER + INTRA:          55.293
REMARK INTER:                  55.826
REMARK INTRA:                  -0.533
REMARK UNBOUND:                 0.423
REMARK SMILES CCCCCCCCCCCCCCCCCCCCCCCC(=O)[O-]
REMARK SMILES IDX 13 1 14 2 15 3 16 4 17 5 18 6 19 7 20 8 21 9 22 10 23 11
REMARK SMILES IDX 24 12 25 13 26 14 12 15 11 16 10 17 9 18 8 19 7 20 6 21 5 22
REMARK SMILES IDX 4 23 3 24 2 25 1 26
REMARK H PARENT
REMARK Flexibility Score: inf
ROOT
ATOM      1  C   UNL     1      -8.772  13.740 -20.799  1.00  0.00     0.000 C 
ENDROOT
BRANCH   1   2
ATOM      2  C   UNL     1      -8.463  13.966 -19.308  1.00  0.00     0.000 C 
BRANCH   2   3
ATOM      3  C   UNL     1      -9.494  13.316 -18.363  1.00  0.00     0.000 C 
BRANCH   3   4
ATOM      4  C   UNL     1      -9.518  13.985 -16.977  1.00  0.00     0.000 C 
BRANCH   4   5
ATOM      5  C   UNL     1      -9.144  15.474 -17.037  1.00  0.00     0.000 C 
BRANCH   5   6
ATOM      6  C   UNL     1     -10.043  16.273 -17.991  1.00  0.00     0.000 C 
BRANCH   6   7
ATOM      7  C   UNL     1      -9.517  17.704 -18.164  1.00  0.00     0.000 C 
BRANCH   7   8
ATOM      8  C   UNL     1     -10.241  18.680 -17.224  1.00  0.00     0.000 C 
BRANCH   8   9
ATOM      9  C   UNL     1      -9.289  19.334 -16.209  1.00  0.00     0.000 C 
BRANCH   9  10
ATOM     10  C   UNL     1      -7.833  18.861 -16.366  1.00  0.00     0.006 C 
BRANCH  10  11
ATOM     11  C   UNL     1      -6.826  19.934 -15.931  1.00  0.00     0.053 C 
BRANCH  11  12
ATOM     12  C   UNL     1      -6.505  19.838 -14.470  1.00  0.00     0.041 C 
ATOM     13  O   UNL     1      -5.670  20.624 -13.949  1.00  0.00    -0.550 OA
ATOM     14  O   UNL     1      -7.158  18.903 -13.676  1.00  0.00    -0.550 OA
ENDBRANCH  11  12
ENDBRANCH  10  11
ENDBRANCH   9  10
ENDBRANCH   8   9
ENDBRANCH   7   8
ENDBRANCH   6   7
ENDBRANCH   5   6
ENDBRANCH   4   5
ENDBRANCH   3   4
ENDBRANCH   2   3
ENDBRANCH   1   2
BRANCH   1  15
ATOM     15  C   UNL     1      -7.991  12.560 -21.403  1.00  0.00     0.000 C 
BRANCH  15  16
ATOM     16  C   UNL     1      -7.770  12.721 -22.921  1.00  0.00     0.000 C 
BRANCH  16  17
ATOM     17  C   UNL     1      -6.396  12.220 -23.403  1.00  0.00     0.000 C 
BRANCH  17  18
ATOM     18  C   UNL     1      -6.429  11.672 -24.835  1.00  0.00    -0.000 C 
BRANCH  18  19
ATOM     19  C   UNL     1      -6.329  12.803 -25.865  1.00  0.00    -0.000 C 
BRANCH  19  20
ATOM     20  C   UNL     1      -5.745  14.068 -25.224  1.00  0.00    -0.000 C 
BRANCH  20  21
ATOM     21  C   UNL     1      -4.931  14.882 -26.240  1.00  0.00    -0.000 C 
BRANCH  21  22
ATOM     22  C   UNL     1      -4.443  16.216 -25.647  1.00  0.00    -0.000 C 
BRANCH  22  23
ATOM     23  C   UNL     1      -4.991  17.451 -26.402  1.00  0.00    -0.000 C 
BRANCH  23  24
ATOM     24  C   UNL     1      -6.165  18.138 -25.680  1.00  0.00    -0.000 C 
BRANCH  24  25
ATOM     25  C   UNL     1      -5.781  18.834 -24.363  1.00  0.00    -0.003 C 
ATOM     26  C   UNL     1      -5.585  17.850 -23.210  1.00  0.00     0.004 C 
ENDBRANCH  24  25
ENDBRANCH  23  24
ENDBRANCH  22  23
ENDBRANCH  21  22
ENDBRANCH  20  21
ENDBRANCH  19  20
ENDBRANCH  18  19
ENDBRANCH  17  18
ENDBRANCH  16  17
ENDBRANCH  15  16
ENDBRANCH   1  15
TORSDOF 22
ENDMDL
