MODEL 1
REMARK VINA RESULT:    -3.075      0.000      0.000
REMARK INTER + INTRA:         -13.808
REMARK INTER:                  -8.109
REMARK INTRA:                  -5.699
REMARK UNBOUND:                -5.699
REMARK SMILES CCCCCCCCCCCCCCCCCCCCCCCCCCCCCC(=O)[O-]
REMARK SMILES IDX 16 1 17 2 18 3 19 4 20 5 21 6 22 7 23 8 24 9 25 10 26 11
REMARK SMILES IDX 27 12 28 13 29 14 30 15 31 16 32 17 15 18 14 19 13 20 12 21
REMARK SMILES IDX 11 22 10 23 9 24 8 25 7 26 6 27 5 28 4 29 3 30 2 31 1 32
REMARK H PARENT
REMARK Flexibility Score: inf
ROOT
ATOM      1  C   UNL     1      49.002  47.330  14.532  1.00  0.00     0.000 C 
ENDROOT
BRANCH   1   2
ATOM      2  C   UNL     1      50.174  46.410  14.156  1.00  0.00     0.000 C 
BRANCH   2   3
ATOM      3  C   UNL     1      50.191  45.104  14.964  1.00  0.00     0.000 C 
BRANCH   3   4
ATOM      4  C   UNL     1      51.518  44.887  15.715  1.00  0.00     0.000 C 
BRANCH   4   5
ATOM      5  C   UNL     1      52.393  46.152  15.740  1.00  0.00     0.000 C 
BRANCH   5   6
ATOM      6  C   UNL     1      53.061  46.376  17.108  1.00  0.00     0.000 C 
BRANCH   6   7
ATOM      7  C   UNL     1      52.658  47.710  17.761  1.00  0.00     0.000 C 
BRANCH   7   8
ATOM      8  C   UNL     1      51.264  48.232  17.369  1.00  0.00     0.000 C 
BRANCH   8   9
ATOM      9  C   UNL     1      50.124  47.532  18.126  1.00  0.00     0.000 C 
BRANCH   9  10
ATOM     10  C   UNL     1      48.847  48.386  18.108  1.00  0.00     0.000 C 
BRANCH  10  11
ATOM     11  C   UNL     1      47.565  47.538  18.079  1.00  0.00     0.000 C 
BRANCH  11  12
ATOM     12  C   UNL     1      47.836  46.066  17.734  1.00  0.00     0.000 C 
BRANCH  12  13
ATOM     13  C   UNL     1      46.729  45.498  16.838  1.00  0.00     0.006 C 
BRANCH  13  14
ATOM     14  C   UNL     1      46.765  43.966  16.818  1.00  0.00     0.053 C 
BRANCH  14  15
ATOM     15  C   UNL     1      47.004  43.464  15.429  1.00  0.00     0.041 C 
ATOM     16  O   UNL     1      46.401  43.986  14.454  1.00  0.00    -0.550 OA
ATOM     17  O   UNL     1      47.861  42.390  15.216  1.00  0.00    -0.550 OA
ENDBRANCH  14  15
ENDBRANCH  13  14
ENDBRANCH  12  13
ENDBRANCH  11  12
ENDBRANCH  10  11
ENDBRANCH   9  10
ENDBRANCH   8   9
ENDBRANCH   7   8
ENDBRANCH   6   7
ENDBRANCH   5   6
ENDBRANCH   4   5
ENDBRANCH   3   4
ENDBRANCH   2   3
ENDBRANCH   1   2
BRANCH   1  18
ATOM     18  C   UNL     1      49.123  48.685  13.818  1.00  0.00     0.000 C 
BRANCH  18  19
ATOM     19  C   UNL     1      50.511  49.325  13.978  1.00  0.00     0.000 C 
BRANCH  19  20
ATOM     20  C   UNL     1      51.074  49.856  12.648  1.00  0.00     0.000 C 
BRANCH  20  21
ATOM     21  C   UNL     1      52.036  48.864  11.974  1.00  0.00     0.000 C 
BRANCH  21  22
ATOM     22  C   UNL     1      53.064  48.281  12.960  1.00  0.00     0.000 C 
BRANCH  22  23
ATOM     23  C   UNL     1      54.130  49.308  13.379  1.00  0.00     0.000 C 
BRANCH  23  24
ATOM     24  C   UNL     1      54.327  49.370  14.901  1.00  0.00    -0.000 C 
BRANCH  24  25
ATOM     25  C   UNL     1      55.651  48.715  15.312  1.00  0.00    -0.000 C 
BRANCH  25  26
ATOM     26  C   UNL     1      56.534  48.446  14.083  1.00  0.00    -0.000 C 
BRANCH  26  27
ATOM     27  C   UNL     1      56.742  46.946  13.821  1.00  0.00    -0.000 C 
BRANCH  27  28
ATOM     28  C   UNL     1      56.226  46.070  14.977  1.00  0.00    -0.000 C 
BRANCH  28  29
ATOM     29  C   UNL     1      57.255  45.025  15.443  1.00  0.00    -0.000 C 
BRANCH  29  30
ATOM     30  C   UNL     1      56.674  43.636  15.767  1.00  0.00    -0.000 C 
BRANCH  30  31
ATOM     31  C   UNL     1      55.141  43.596  15.689  1.00  0.00    -0.003 C 
ATOM     32  C   UNL     1      54.555  42.752  16.819  1.00  0.00     0.004 C 
ENDBRANCH  30  31
ENDBRANCH  29  30
ENDBRANCH  28  29
ENDBRANCH  27  28
ENDBRANCH  26  27
ENDBRANCH  25  26
ENDBRANCH  24  25
ENDBRANCH  23  24
ENDBRANCH  22  23
ENDBRANCH  21  22
ENDBRANCH  20  21
ENDBRANCH  19  20
ENDBRANCH  18  19
ENDBRANCH   1  18
TORSDOF 28
ENDMDL
MODEL 2
REMARK VINA RESULT:    -3.035      3.247      7.984
REMARK INTER + INTRA:         -13.702
REMARK INTER:                  -8.520
REMARK INTRA:                  -5.182
REMARK UNBOUND:                -5.699
REMARK SMILES CCCCCCCCCCCCCCCCCCCCCCCCCCCCCC(=O)[O-]
REMARK SMILES IDX 16 1 17 2 18 3 19 4 20 5 21 6 22 7 23 8 24 9 25 10 26 11
REMARK SMILES IDX 27 12 28 13 29 14 30 15 31 16 32 17 15 18 14 19 13 20 12 21
REMARK SMILES IDX 11 22 10 23 9 24 8 25 7 26 6 27 5 28 4 29 3 30 2 31 1 32
REMARK H PARENT
REMARK Flexibility Score: inf
ROOT
ATOM      1  C   UNL     1      47.900  47.864  17.828  1.00  0.00     0.000 C 
ENDROOT
BRANCH   1   2
ATOM      2  C   UNL     1      49.416  48.078  17.961  1.00  0.00     0.000 C 
BRANCH   2   3
ATOM      3  C   UNL     1      49.894  49.386  17.311  1.00  0.00     0.000 C 
BRANCH   3   4
ATOM      4  C   UNL     1      50.491  49.167  15.908  1.00  0.00     0.000 C 
BRANCH   4   5
ATOM      5  C   UNL     1      49.746  49.961  14.822  1.00  0.00     0.000 C 
BRANCH   5   6
ATOM      6  C   UNL     1      49.479  49.120  13.561  1.00  0.00     0.000 C 
BRANCH   6   7
ATOM      7  C   UNL     1      50.126  49.712  12.296  1.00  0.00     0.000 C 
BRANCH   7   8
ATOM      8  C   UNL     1      51.458  49.062  11.880  1.00  0.00     0.000 C 
BRANCH   8   9
ATOM      9  C   UNL     1      51.760  47.765  12.647  1.00  0.00     0.000 C 
BRANCH   9  10
ATOM     10  C   UNL     1      53.211  47.749  13.149  1.00  0.00     0.000 C 
BRANCH  10  11
ATOM     11  C   UNL     1      53.786  49.160  13.348  1.00  0.00     0.000 C 
BRANCH  11  12
ATOM     12  C   UNL     1      53.935  49.536  14.830  1.00  0.00     0.000 C 
BRANCH  12  13
ATOM     13  C   UNL     1      55.035  48.704  15.501  1.00  0.00     0.006 C 
BRANCH  13  14
ATOM     14  C   UNL     1      56.359  48.821  14.738  1.00  0.00     0.053 C 
BRANCH  14  15
ATOM     15  C   UNL     1      56.909  47.465  14.428  1.00  0.00     0.041 C 
ATOM     16  O   UNL     1      57.247  46.690  15.361  1.00  0.00    -0.550 OA
ATOM     17  O   UNL     1      57.090  47.073  13.106  1.00  0.00    -0.550 OA
ENDBRANCH  14  15
ENDBRANCH  13  14
ENDBRANCH  12  13
ENDBRANCH  11  12
ENDBRANCH  10  11
ENDBRANCH   9  10
ENDBRANCH   8   9
ENDBRANCH   7   8
ENDBRANCH   6   7
ENDBRANCH   5   6
ENDBRANCH   4   5
ENDBRANCH   3   4
ENDBRANCH   2   3
ENDBRANCH   1   2
BRANCH   1  18
ATOM     18  C   UNL     1      47.598  46.556  17.080  1.00  0.00     0.000 C 
BRANCH  18  19
ATOM     19  C   UNL     1      47.934  46.632  15.582  1.00  0.00     0.000 C 
BRANCH  19  20
ATOM     20  C   UNL     1      48.342  45.268  14.998  1.00  0.00     0.000 C 
BRANCH  20  21
ATOM     21  C   UNL     1      49.801  45.242  14.515  1.00  0.00     0.000 C 
BRANCH  21  22
ATOM     22  C   UNL     1      50.804  45.415  15.669  1.00  0.00     0.000 C 
BRANCH  22  23
ATOM     23  C   UNL     1      50.556  44.427  16.821  1.00  0.00     0.000 C 
BRANCH  23  24
ATOM     24  C   UNL     1      50.599  42.961  16.363  1.00  0.00    -0.000 C 
BRANCH  24  25
ATOM     25  C   UNL     1      49.302  42.231  16.731  1.00  0.00    -0.000 C 
BRANCH  25  26
ATOM     26  C   UNL     1      48.755  42.730  18.078  1.00  0.00    -0.000 C 
BRANCH  26  27
ATOM     27  C   UNL     1      47.286  42.337  18.301  1.00  0.00    -0.000 C 
BRANCH  27  28
ATOM     28  C   UNL     1      46.307  43.315  17.629  1.00  0.00    -0.000 C 
BRANCH  28  29
ATOM     29  C   UNL     1      45.360  42.624  16.631  1.00  0.00    -0.000 C 
BRANCH  29  30
ATOM     30  C   UNL     1      45.724  42.814  15.147  1.00  0.00    -0.000 C 
BRANCH  30  31
ATOM     31  C   UNL     1      46.405  41.581  14.535  1.00  0.00    -0.003 C 
ATOM     32  C   UNL     1      46.039  40.313  15.302  1.00  0.00     0.004 C 
ENDBRANCH  30  31
ENDBRANCH  29  30
ENDBRANCH  28  29
ENDBRANCH  27  28
ENDBRANCH  26  27
ENDBRANCH  25  26
ENDBRANCH  24  25
ENDBRANCH  23  24
ENDBRANCH  22  23
ENDBRANCH  21  22
ENDBRANCH  20  21
ENDBRANCH  19  20
ENDBRANCH  18  19
ENDBRANCH   1  18
TORSDOF 28
ENDMDL
MODEL 3
REMARK VINA RESULT:    -2.983      2.547      7.024
REMARK INTER + INTRA:         -13.564
REMARK INTER:                  -7.518
REMARK INTRA:                  -6.046
REMARK UNBOUND:                -5.699
REMARK SMILES CCCCCCCCCCCCCCCCCCCCCCCCCCCCCC(=O)[O-]
REMARK SMILES IDX 16 1 17 2 18 3 19 4 20 5 21 6 22 7 23 8 24 9 25 10 26 11
REMARK SMILES IDX 27 12 28 13 29 14 30 15 31 16 32 17 15 18 14 19 13 20 12 21
REMARK SMILES IDX 11 22 10 23 9 24 8 25 7 26 6 27 5 28 4 29 3 30 2 31 1 32
REMARK H PARENT
REMARK Flexibility Score: inf
ROOT
ATOM      1  C   UNL     1      48.344  45.660  15.184  1.00  0.00     0.000 C 
ENDROOT
BRANCH   1   2
ATOM      2  C   UNL     1      49.754  45.157  14.837  1.00  0.00     0.000 C 
BRANCH   2   3
ATOM      3  C   UNL     1      50.598  46.208  14.100  1.00  0.00     0.000 C 
BRANCH   3   4
ATOM      4  C   UNL     1      49.886  47.568  13.985  1.00  0.00     0.000 C 
BRANCH   4   5
ATOM      5  C   UNL     1      50.642  48.553  13.077  1.00  0.00     0.000 C 
BRANCH   5   6
ATOM      6  C   UNL     1      51.912  47.932  12.469  1.00  0.00     0.000 C 
BRANCH   6   7
ATOM      7  C   UNL     1      53.203  48.622  12.944  1.00  0.00     0.000 C 
BRANCH   7   8
ATOM      8  C   UNL     1      53.819  48.038  14.229  1.00  0.00     0.000 C 
BRANCH   8   9
ATOM      9  C   UNL     1      53.841  49.041  15.394  1.00  0.00     0.000 C 
BRANCH   9  10
ATOM     10  C   UNL     1      52.548  48.955  16.218  1.00  0.00     0.000 C 
BRANCH  10  11
ATOM     11  C   UNL     1      52.463  47.672  17.060  1.00  0.00     0.000 C 
BRANCH  11  12
ATOM     12  C   UNL     1      51.099  47.502  17.746  1.00  0.00     0.000 C 
BRANCH  12  13
ATOM     13  C   UNL     1      50.148  48.645  17.368  1.00  0.00     0.006 C 
BRANCH  13  14
ATOM     14  C   UNL     1      48.687  48.245  17.593  1.00  0.00     0.053 C 
BRANCH  14  15
ATOM     15  C   UNL     1      48.336  48.323  19.045  1.00  0.00     0.041 C 
ATOM     16  O   UNL     1      48.172  47.268  19.715  1.00  0.00    -0.550 OA
ATOM     17  O   UNL     1      48.148  49.560  19.650  1.00  0.00    -0.550 OA
ENDBRANCH  14  15
ENDBRANCH  13  14
ENDBRANCH  12  13
ENDBRANCH  11  12
ENDBRANCH  10  11
ENDBRANCH   9  10
ENDBRANCH   8   9
ENDBRANCH   7   8
ENDBRANCH   6   7
ENDBRANCH   5   6
ENDBRANCH   4   5
ENDBRANCH   3   4
ENDBRANCH   2   3
ENDBRANCH   1   2
BRANCH   1  18
ATOM     18  C   UNL     1      47.343  44.495  15.218  1.00  0.00     0.000 C 
BRANCH  18  19
ATOM     19  C   UNL     1      47.988  43.141  14.884  1.00  0.00     0.000 C 
BRANCH  19  20
ATOM     20  C   UNL     1      47.036  42.206  14.116  1.00  0.00     0.000 C 
BRANCH  20  21
ATOM     21  C   UNL     1      45.677  42.041  14.814  1.00  0.00     0.000 C 
BRANCH  21  22
ATOM     22  C   UNL     1      45.590  40.738  15.628  1.00  0.00     0.000 C 
BRANCH  22  23
ATOM     23  C   UNL     1      45.556  40.990  17.145  1.00  0.00     0.000 C 
BRANCH  23  24
ATOM     24  C   UNL     1      45.174  42.435  17.497  1.00  0.00    -0.000 C 
BRANCH  24  25
ATOM     25  C   UNL     1      46.161  43.035  18.505  1.00  0.00    -0.000 C 
BRANCH  25  26
ATOM     26  C   UNL     1      47.516  42.312  18.444  1.00  0.00    -0.000 C 
BRANCH  26  27
ATOM     27  C   UNL     1      48.610  43.036  19.245  1.00  0.00    -0.000 C 
BRANCH  27  28
ATOM     28  C   UNL     1      49.279  44.164  18.439  1.00  0.00    -0.000 C 
BRANCH  28  29
ATOM     29  C   UNL     1      50.780  43.918  18.197  1.00  0.00    -0.000 C 
BRANCH  29  30
ATOM     30  C   UNL     1      51.120  42.583  17.510  1.00  0.00    -0.000 C 
BRANCH  30  31
ATOM     31  C   UNL     1      52.139  42.737  16.372  1.00  0.00    -0.003 C 
ATOM     32  C   UNL     1      52.862  44.080  16.459  1.00  0.00     0.004 C 
ENDBRANCH  30  31
ENDBRANCH  29  30
ENDBRANCH  28  29
ENDBRANCH  27  28
ENDBRANCH  26  27
ENDBRANCH  25  26
ENDBRANCH  24  25
ENDBRANCH  23  24
ENDBRANCH  22  23
ENDBRANCH  21  22
ENDBRANCH  20  21
ENDBRANCH  19  20
ENDBRANCH  18  19
ENDBRANCH   1  18
TORSDOF 28
ENDMDL
MODEL 4
REMARK VINA RESULT:    -2.980      2.168      4.565
REMARK INTER + INTRA:         -13.555
REMARK INTER:                  -8.646
REMARK INTRA:                  -4.909
REMARK UNBOUND:                -5.699
REMARK SMILES CCCCCCCCCCCCCCCCCCCCCCCCCCCCCC(=O)[O-]
REMARK SMILES IDX 16 1 17 2 18 3 19 4 20 5 21 6 22 7 23 8 24 9 25 10 26 11
REMARK SMILES IDX 27 12 28 13 29 14 30 15 31 16 32 17 15 18 14 19 13 20 12 21
REMARK SMILES IDX 11 22 10 23 9 24 8 25 7 26 6 27 5 28 4 29 3 30 2 31 1 32
REMARK H PARENT
REMARK Flexibility Score: inf
ROOT
ATOM      1  C   UNL     1      50.370  44.521  16.813  1.00  0.00     0.000 C 
ENDROOT
BRANCH   1   2
ATOM      2  C   UNL     1      50.142  43.132  16.196  1.00  0.00     0.000 C 
BRANCH   2   3
ATOM      3  C   UNL     1      49.662  42.094  17.221  1.00  0.00     0.000 C 
BRANCH   3   4
ATOM      4  C   UNL     1      48.508  42.615  18.098  1.00  0.00     0.000 C 
BRANCH   4   5
ATOM      5  C   UNL     1      47.429  41.548  18.345  1.00  0.00     0.000 C 
BRANCH   5   6
ATOM      6  C   UNL     1      46.082  41.916  17.700  1.00  0.00     0.000 C 
BRANCH   6   7
ATOM      7  C   UNL     1      45.552  40.824  16.753  1.00  0.00     0.000 C 
BRANCH   7   8
ATOM      8  C   UNL     1      45.469  41.232  15.270  1.00  0.00     0.000 C 
BRANCH   8   9
ATOM      9  C   UNL     1      46.791  41.796  14.727  1.00  0.00     0.000 C 
BRANCH   9  10
ATOM     10  C   UNL     1      46.573  43.164  14.063  1.00  0.00     0.000 C 
BRANCH  10  11
ATOM     11  C   UNL     1      47.067  44.332  14.932  1.00  0.00     0.000 C 
BRANCH  11  12
ATOM     12  C   UNL     1      45.938  44.987  15.741  1.00  0.00     0.000 C 
BRANCH  12  13
ATOM     13  C   UNL     1      46.435  46.250  16.456  1.00  0.00     0.006 C 
BRANCH  13  14
ATOM     14  C   UNL     1      46.956  45.921  17.859  1.00  0.00     0.053 C 
BRANCH  14  15
ATOM     15  C   UNL     1      48.014  46.896  18.270  1.00  0.00     0.041 C 
ATOM     16  O   UNL     1      48.198  47.949  17.603  1.00  0.00    -0.550 OA
ATOM     17  O   UNL     1      48.828  46.620  19.363  1.00  0.00    -0.550 OA
ENDBRANCH  14  15
ENDBRANCH  13  14
ENDBRANCH  12  13
ENDBRANCH  11  12
ENDBRANCH  10  11
ENDBRANCH   9  10
ENDBRANCH   8   9
ENDBRANCH   7   8
ENDBRANCH   6   7
ENDBRANCH   5   6
ENDBRANCH   4   5
ENDBRANCH   3   4
ENDBRANCH   2   3
ENDBRANCH   1   2
BRANCH   1  18
ATOM     18  C   UNL     1      51.173  45.417  15.857  1.00  0.00     0.000 C 
BRANCH  18  19
ATOM     19  C   UNL     1      50.479  45.619  14.501  1.00  0.00     0.000 C 
BRANCH  19  20
ATOM     20  C   UNL     1      49.712  46.951  14.422  1.00  0.00     0.000 C 
BRANCH  20  21
ATOM     21  C   UNL     1      50.519  48.059  13.725  1.00  0.00     0.000 C 
BRANCH  21  22
ATOM     22  C   UNL     1      51.648  47.496  12.843  1.00  0.00     0.000 C 
BRANCH  22  23
ATOM     23  C   UNL     1      52.836  48.464  12.716  1.00  0.00     0.000 C 
BRANCH  23  24
ATOM     24  C   UNL     1      53.644  48.583  14.017  1.00  0.00    -0.000 C 
BRANCH  24  25
ATOM     25  C   UNL     1      54.365  47.269  14.340  1.00  0.00    -0.000 C 
BRANCH  25  26
ATOM     26  C   UNL     1      55.623  47.105  13.472  1.00  0.00    -0.000 C 
BRANCH  26  27
ATOM     27  C   UNL     1      56.913  47.053  14.306  1.00  0.00    -0.000 C 
BRANCH  27  28
ATOM     28  C   UNL     1      56.759  46.195  15.574  1.00  0.00    -0.000 C 
BRANCH  28  29
ATOM     29  C   UNL     1      57.075  44.707  15.333  1.00  0.00    -0.000 C 
BRANCH  29  30
ATOM     30  C   UNL     1      56.210  43.719  16.136  1.00  0.00    -0.000 C 
BRANCH  30  31
ATOM     31  C   UNL     1      54.714  44.060  16.093  1.00  0.00    -0.003 C 
ATOM     32  C   UNL     1      53.859  42.808  16.281  1.00  0.00     0.004 C 
ENDBRANCH  30  31
ENDBRANCH  29  30
ENDBRANCH  28  29
ENDBRANCH  27  28
ENDBRANCH  26  27
ENDBRANCH  25  26
ENDBRANCH  24  25
ENDBRANCH  23  24
ENDBRANCH  22  23
ENDBRANCH  21  22
ENDBRANCH  20  21
ENDBRANCH  19  20
ENDBRANCH  18  19
ENDBRANCH   1  18
TORSDOF 28
ENDMDL
MODEL 5
REMARK VINA RESULT:    -2.950      2.741      7.428
REMARK INTER + INTRA:         -13.479
REMARK INTER:                  -7.978
REMARK INTRA:                  -5.501
REMARK UNBOUND:                -5.699
REMARK SMILES CCCCCCCCCCCCCCCCCCCCCCCCCCCCCC(=O)[O-]
REMARK SMILES IDX 16 1 17 2 18 3 19 4 20 5 21 6 22 7 23 8 24 9 25 10 26 11
REMARK SMILES IDX 27 12 28 13 29 14 30 15 31 16 32 17 15 18 14 19 13 20 12 21
REMARK SMILES IDX 11 22 10 23 9 24 8 25 7 26 6 27 5 28 4 29 3 30 2 31 1 32
REMARK H PARENT
REMARK Flexibility Score: inf
ROOT
ATOM      1  C   UNL     1      49.496  49.075  15.431  1.00  0.00     0.000 C 
ENDROOT
BRANCH   1   2
ATOM      2  C   UNL     1      49.500  50.042  14.237  1.00  0.00     0.000 C 
BRANCH   2   3
ATOM      3  C   UNL     1      49.757  49.336  12.897  1.00  0.00     0.000 C 
BRANCH   3   4
ATOM      4  C   UNL     1      51.256  49.223  12.563  1.00  0.00     0.000 C 
BRANCH   4   5
ATOM      5  C   UNL     1      51.776  47.780  12.669  1.00  0.00     0.000 C 
BRANCH   5   6
ATOM      6  C   UNL     1      53.000  47.665  13.594  1.00  0.00     0.000 C 
BRANCH   6   7
ATOM      7  C   UNL     1      53.059  48.780  14.653  1.00  0.00     0.000 C 
BRANCH   7   8
ATOM      8  C   UNL     1      54.431  49.462  14.806  1.00  0.00     0.000 C 
BRANCH   8   9
ATOM      9  C   UNL     1      55.324  49.300  13.566  1.00  0.00     0.000 C 
BRANCH   9  10
ATOM     10  C   UNL     1      56.633  48.580  13.922  1.00  0.00     0.000 C 
BRANCH  10  11
ATOM     11  C   UNL     1      56.648  47.113  13.463  1.00  0.00     0.000 C 
BRANCH  11  12
ATOM     12  C   UNL     1      56.859  46.130  14.625  1.00  0.00     0.000 C 
BRANCH  12  13
ATOM     13  C   UNL     1      55.846  46.384  15.748  1.00  0.00     0.006 C 
BRANCH  13  14
ATOM     14  C   UNL     1      56.549  46.530  17.102  1.00  0.00     0.053 C 
BRANCH  14  15
ATOM     15  C   UNL     1      55.552  46.792  18.187  1.00  0.00     0.041 C 
ATOM     16  O   UNL     1      55.645  46.191  19.291  1.00  0.00    -0.550 OA
ATOM     17  O   UNL     1      54.495  47.666  17.965  1.00  0.00    -0.550 OA
ENDBRANCH  14  15
ENDBRANCH  13  14
ENDBRANCH  12  13
ENDBRANCH  11  12
ENDBRANCH  10  11
ENDBRANCH   9  10
ENDBRANCH   8   9
ENDBRANCH   7   8
ENDBRANCH   6   7
ENDBRANCH   5   6
ENDBRANCH   4   5
ENDBRANCH   3   4
ENDBRANCH   2   3
ENDBRANCH   1   2
BRANCH   1  18
ATOM     18  C   UNL     1      48.674  47.817  15.111  1.00  0.00     0.000 C 
BRANCH  18  19
ATOM     19  C   UNL     1      47.984  47.222  16.348  1.00  0.00     0.000 C 
BRANCH  19  20
ATOM     20  C   UNL     1      48.834  47.360  17.623  1.00  0.00     0.000 C 
BRANCH  20  21
ATOM     21  C   UNL     1      48.946  46.042  18.406  1.00  0.00     0.000 C 
BRANCH  21  22
ATOM     22  C   UNL     1      50.338  45.398  18.275  1.00  0.00     0.000 C 
BRANCH  22  23
ATOM     23  C   UNL     1      51.327  46.282  17.498  1.00  0.00     0.000 C 
BRANCH  23  24
ATOM     24  C   UNL     1      51.982  45.545  16.320  1.00  0.00    -0.000 C 
BRANCH  24  25
ATOM     25  C   UNL     1      51.071  44.429  15.795  1.00  0.00    -0.000 C 
BRANCH  25  26
ATOM     26  C   UNL     1      50.251  44.913  14.589  1.00  0.00    -0.000 C 
BRANCH  26  27
ATOM     27  C   UNL     1      48.917  44.162  14.442  1.00  0.00    -0.000 C 
BRANCH  27  28
ATOM     28  C   UNL     1      48.566  43.338  15.693  1.00  0.00    -0.000 C 
BRANCH  28  29
ATOM     29  C   UNL     1      47.148  43.625  16.221  1.00  0.00    -0.000 C 
BRANCH  29  30
ATOM     30  C   UNL     1      46.034  43.572  15.160  1.00  0.00    -0.000 C 
BRANCH  30  31
ATOM     31  C   UNL     1      45.092  42.373  15.338  1.00  0.00    -0.003 C 
ATOM     32  C   UNL     1      45.828  41.056  15.101  1.00  0.00     0.004 C 
ENDBRANCH  30  31
ENDBRANCH  29  30
ENDBRANCH  28  29
ENDBRANCH  27  28
ENDBRANCH  26  27
ENDBRANCH  25  26
ENDBRANCH  24  25
ENDBRANCH  23  24
ENDBRANCH  22  23
ENDBRANCH  21  22
ENDBRANCH  20  21
ENDBRANCH  19  20
ENDBRANCH  18  19
ENDBRANCH   1  18
TORSDOF 28
ENDMDL
MODEL 6
REMARK VINA RESULT:    -2.945      1.648      5.179
REMARK INTER + INTRA:         -13.464
REMARK INTER:                  -8.292
REMARK INTRA:                  -5.171
REMARK UNBOUND:                -5.699
REMARK SMILES CCCCCCCCCCCCCCCCCCCCCCCCCCCCCC(=O)[O-]
REMARK SMILES IDX 16 1 17 2 18 3 19 4 20 5 21 6 22 7 23 8 24 9 25 10 26 11
REMARK SMILES IDX 27 12 28 13 29 14 30 15 31 16 32 17 15 18 14 19 13 20 12 21
REMARK SMILES IDX 11 22 10 23 9 24 8 25 7 26 6 27 5 28 4 29 3 30 2 31 1 32
REMARK H PARENT
REMARK Flexibility Score: inf
ROOT
ATOM      1  C   UNL     1      53.419  48.127  14.412  1.00  0.00     0.000 C 
ENDROOT
BRANCH   1   2
ATOM      2  C   UNL     1      53.115  48.268  12.912  1.00  0.00     0.000 C 
BRANCH   2   3
ATOM      3  C   UNL     1      52.470  49.617  12.558  1.00  0.00     0.000 C 
BRANCH   3   4
ATOM      4  C   UNL     1      51.270  49.469  11.605  1.00  0.00     0.000 C 
BRANCH   4   5
ATOM      5  C   UNL     1      49.963  49.997  12.220  1.00  0.00     0.000 C 
BRANCH   5   6
ATOM      6  C   UNL     1      49.853  49.682  13.722  1.00  0.00     0.000 C 
BRANCH   6   7
ATOM      7  C   UNL     1      48.965  48.460  14.016  1.00  0.00     0.000 C 
BRANCH   7   8
ATOM      8  C   UNL     1      49.618  47.377  14.894  1.00  0.00     0.000 C 
BRANCH   8   9
ATOM      9  C   UNL     1      50.343  46.296  14.076  1.00  0.00     0.000 C 
BRANCH   9  10
ATOM     10  C   UNL     1      50.060  44.897  14.641  1.00  0.00     0.000 C 
BRANCH  10  11
ATOM     11  C   UNL     1      48.600  44.720  15.087  1.00  0.00     0.000 C 
BRANCH  11  12
ATOM     12  C   UNL     1      48.464  43.841  16.340  1.00  0.00     0.000 C 
BRANCH  12  13
ATOM     13  C   UNL     1      47.417  44.414  17.302  1.00  0.00     0.006 C 
BRANCH  13  14
ATOM     14  C   UNL     1      47.672  45.899  17.577  1.00  0.00     0.053 C 
BRANCH  14  15
ATOM     15  C   UNL     1      46.420  46.694  17.383  1.00  0.00     0.041 C 
ATOM     16  O   UNL     1      46.014  47.468  18.290  1.00  0.00    -0.550 OA
ATOM     17  O   UNL     1      45.677  46.548  16.217  1.00  0.00    -0.550 OA
ENDBRANCH  14  15
ENDBRANCH  13  14
ENDBRANCH  12  13
ENDBRANCH  11  12
ENDBRANCH  10  11
ENDBRANCH   9  10
ENDBRANCH   8   9
ENDBRANCH   7   8
ENDBRANCH   6   7
ENDBRANCH   5   6
ENDBRANCH   4   5
ENDBRANCH   3   4
ENDBRANCH   2   3
ENDBRANCH   1   2
BRANCH   1  18
ATOM     18  C   UNL     1      54.935  48.118  14.662  1.00  0.00     0.000 C 
BRANCH  18  19
ATOM     19  C   UNL     1      55.667  47.030  13.860  1.00  0.00     0.000 C 
BRANCH  19  20
ATOM     20  C   UNL     1      57.062  46.715  14.429  1.00  0.00     0.000 C 
BRANCH  20  21
ATOM     21  C   UNL     1      57.163  46.991  15.938  1.00  0.00     0.000 C 
BRANCH  21  22
ATOM     22  C   UNL     1      57.076  45.704  16.778  1.00  0.00     0.000 C 
BRANCH  22  23
ATOM     23  C   UNL     1      57.804  44.519  16.119  1.00  0.00     0.000 C 
BRANCH  23  24
ATOM     24  C   UNL     1      56.914  43.273  15.993  1.00  0.00    -0.000 C 
BRANCH  24  25
ATOM     25  C   UNL     1      55.495  43.653  15.553  1.00  0.00    -0.000 C 
BRANCH  25  26
ATOM     26  C   UNL     1      54.443  42.884  16.368  1.00  0.00    -0.000 C 
BRANCH  26  27
ATOM     27  C   UNL     1      53.089  43.609  16.419  1.00  0.00    -0.000 C 
BRANCH  27  28
ATOM     28  C   UNL     1      53.230  45.132  16.245  1.00  0.00    -0.000 C 
BRANCH  28  29
ATOM     29  C   UNL     1      52.966  45.910  17.547  1.00  0.00    -0.000 C 
BRANCH  29  30
ATOM     30  C   UNL     1      51.493  46.287  17.794  1.00  0.00    -0.000 C 
BRANCH  30  31
ATOM     31  C   UNL     1      50.944  45.724  19.113  1.00  0.00    -0.003 C 
ATOM     32  C   UNL     1      51.929  44.743  19.745  1.00  0.00     0.004 C 
ENDBRANCH  30  31
ENDBRANCH  29  30
ENDBRANCH  28  29
ENDBRANCH  27  28
ENDBRANCH  26  27
ENDBRANCH  25  26
ENDBRANCH  24  25
ENDBRANCH  23  24
ENDBRANCH  22  23
ENDBRANCH  21  22
ENDBRANCH  20  21
ENDBRANCH  19  20
ENDBRANCH  18  19
ENDBRANCH   1  18
TORSDOF 28
ENDMDL
MODEL 7
REMARK VINA RESULT:    -2.894      8.103     11.433
REMARK INTER + INTRA:         -13.329
REMARK INTER:                  -8.654
REMARK INTRA:                  -4.674
REMARK UNBOUND:                -5.699
REMARK SMILES CCCCCCCCCCCCCCCCCCCCCCCCCCCCCC(=O)[O-]
REMARK SMILES IDX 16 1 17 2 18 3 19 4 20 5 21 6 22 7 23 8 24 9 25 10 26 11
REMARK SMILES IDX 27 12 28 13 29 14 30 15 31 16 32 17 15 18 14 19 13 20 12 21
REMARK SMILES IDX 11 22 10 23 9 24 8 25 7 26 6 27 5 28 4 29 3 30 2 31 1 32
REMARK H PARENT
REMARK Flexibility Score: inf
ROOT
ATOM      1  C   UNL     1      62.851  45.674  16.750  1.00  0.00     0.000 C 
ENDROOT
BRANCH   1   2
ATOM      2  C   UNL     1      61.745  44.606  16.768  1.00  0.00     0.000 C 
BRANCH   2   3
ATOM      3  C   UNL     1      60.451  45.097  17.433  1.00  0.00     0.000 C 
BRANCH   3   4
ATOM      4  C   UNL     1      59.185  44.579  16.725  1.00  0.00     0.000 C 
BRANCH   4   5
ATOM      5  C   UNL     1      58.083  44.170  17.717  1.00  0.00     0.000 C 
BRANCH   5   6
ATOM      6  C   UNL     1      57.310  42.923  17.252  1.00  0.00     0.000 C 
BRANCH   6   7
ATOM      7  C   UNL     1      57.387  41.760  18.257  1.00  0.00     0.000 C 
BRANCH   7   8
ATOM      8  C   UNL     1      57.900  40.429  17.677  1.00  0.00     0.000 C 
BRANCH   8   9
ATOM      9  C   UNL     1      58.113  39.348  18.748  1.00  0.00     0.000 C 
BRANCH   9  10
ATOM     10  C   UNL     1      57.785  37.954  18.194  1.00  0.00     0.000 C 
BRANCH  10  11
ATOM     11  C   UNL     1      56.871  38.005  16.959  1.00  0.00     0.000 C 
BRANCH  11  12
ATOM     12  C   UNL     1      56.311  36.626  16.579  1.00  0.00     0.000 C 
BRANCH  12  13
ATOM     13  C   UNL     1      55.758  36.632  15.148  1.00  0.00     0.006 C 
BRANCH  13  14
ATOM     14  C   UNL     1      56.125  35.342  14.408  1.00  0.00     0.053 C 
BRANCH  14  15
ATOM     15  C   UNL     1      55.386  35.250  13.111  1.00  0.00     0.041 C 
ATOM     16  O   UNL     1      54.834  36.272  12.623  1.00  0.00    -0.550 OA
ATOM     17  O   UNL     1      55.267  34.026  12.463  1.00  0.00    -0.550 OA
ENDBRANCH  14  15
ENDBRANCH  13  14
ENDBRANCH  12  13
ENDBRANCH  11  12
ENDBRANCH  10  11
ENDBRANCH   9  10
ENDBRANCH   8   9
ENDBRANCH   7   8
ENDBRANCH   6   7
ENDBRANCH   5   6
ENDBRANCH   4   5
ENDBRANCH   3   4
ENDBRANCH   2   3
ENDBRANCH   1   2
BRANCH   1  18
ATOM     18  C   UNL     1      64.008  45.244  15.836  1.00  0.00     0.000 C 
BRANCH  18  19
ATOM     19  C   UNL     1      63.684  43.990  15.008  1.00  0.00     0.000 C 
BRANCH  19  20
ATOM     20  C   UNL     1      64.726  42.873  15.195  1.00  0.00     0.000 C 
BRANCH  20  21
ATOM     21  C   UNL     1      64.086  41.481  15.317  1.00  0.00     0.000 C 
BRANCH  21  22
ATOM     22  C   UNL     1      64.299  40.856  16.707  1.00  0.00     0.000 C 
BRANCH  22  23
ATOM     23  C   UNL     1      64.684  41.899  17.770  1.00  0.00     0.000 C 
BRANCH  23  24
ATOM     24  C   UNL     1      63.579  42.115  18.816  1.00  0.00    -0.000 C 
BRANCH  24  25
ATOM     25  C   UNL     1      62.394  41.174  18.566  1.00  0.00    -0.000 C 
BRANCH  25  26
ATOM     26  C   UNL     1      61.084  41.798  19.073  1.00  0.00    -0.000 C 
BRANCH  26  27
ATOM     27  C   UNL     1      60.876  41.592  20.582  1.00  0.00    -0.000 C 
BRANCH  27  28
ATOM     28  C   UNL     1      59.624  42.315  21.108  1.00  0.00    -0.000 C 
BRANCH  28  29
ATOM     29  C   UNL     1      59.676  43.838  20.890  1.00  0.00    -0.000 C 
BRANCH  29  30
ATOM     30  C   UNL     1      60.708  44.586  21.753  1.00  0.00    -0.000 C 
BRANCH  30  31
ATOM     31  C   UNL     1      61.428  45.707  20.990  1.00  0.00    -0.003 C 
ATOM     32  C   UNL     1      62.776  45.229  20.453  1.00  0.00     0.004 C 
ENDBRANCH  30  31
ENDBRANCH  29  30
ENDBRANCH  28  29
ENDBRANCH  27  28
ENDBRANCH  26  27
ENDBRANCH  25  26
ENDBRANCH  24  25
ENDBRANCH  23  24
ENDBRANCH  22  23
ENDBRANCH  21  22
ENDBRANCH  20  21
ENDBRANCH  19  20
ENDBRANCH  18  19
ENDBRANCH   1  18
TORSDOF 28
ENDMDL
MODEL 8
REMARK VINA RESULT:    -2.889      3.149      6.698
REMARK INTER + INTRA:         -13.316
REMARK INTER:                  -7.130
REMARK INTRA:                  -6.187
REMARK UNBOUND:                -5.699
REMARK SMILES CCCCCCCCCCCCCCCCCCCCCCCCCCCCCC(=O)[O-]
REMARK SMILES IDX 16 1 17 2 18 3 19 4 20 5 21 6 22 7 23 8 24 9 25 10 26 11
REMARK SMILES IDX 27 12 28 13 29 14 30 15 31 16 32 17 15 18 14 19 13 20 12 21
REMARK SMILES IDX 11 22 10 23 9 24 8 25 7 26 6 27 5 28 4 29 3 30 2 31 1 32
REMARK H PARENT
REMARK Flexibility Score: inf
ROOT
ATOM      1  C   UNL     1      48.097  45.175  15.236  1.00  0.00     0.000 C 
ENDROOT
BRANCH   1   2
ATOM      2  C   UNL     1      49.403  44.854  14.492  1.00  0.00     0.000 C 
BRANCH   2   3
ATOM      3  C   UNL     1      50.656  45.158  15.327  1.00  0.00     0.000 C 
BRANCH   3   4
ATOM      4  C   UNL     1      51.447  46.367  14.792  1.00  0.00     0.000 C 
BRANCH   4   5
ATOM      5  C   UNL     1      50.913  46.867  13.440  1.00  0.00     0.000 C 
BRANCH   5   6
ATOM      6  C   UNL     1      50.492  48.347  13.488  1.00  0.00     0.000 C 
BRANCH   6   7
ATOM      7  C   UNL     1      49.352  48.614  14.487  1.00  0.00     0.000 C 
BRANCH   7   8
ATOM      8  C   UNL     1      49.683  49.629  15.597  1.00  0.00     0.000 C 
BRANCH   8   9
ATOM      9  C   UNL     1      50.008  48.963  16.943  1.00  0.00     0.000 C 
BRANCH   9  10
ATOM     10  C   UNL     1      48.906  47.973  17.347  1.00  0.00     0.000 C 
BRANCH  10  11
ATOM     11  C   UNL     1      49.405  46.894  18.322  1.00  0.00     0.000 C 
BRANCH  11  12
ATOM     12  C   UNL     1      50.912  46.996  18.599  1.00  0.00     0.000 C 
BRANCH  12  13
ATOM     13  C   UNL     1      51.572  45.612  18.564  1.00  0.00     0.006 C 
BRANCH  13  14
ATOM     14  C   UNL     1      53.076  45.709  18.841  1.00  0.00     0.053 C 
BRANCH  14  15
ATOM     15  C   UNL     1      53.452  44.857  20.011  1.00  0.00     0.041 C 
ATOM     16  O   UNL     1      52.762  44.889  21.065  1.00  0.00    -0.550 OA
ATOM     17  O   UNL     1      54.590  44.061  19.955  1.00  0.00    -0.550 OA
ENDBRANCH  14  15
ENDBRANCH  13  14
ENDBRANCH  12  13
ENDBRANCH  11  12
ENDBRANCH  10  11
ENDBRANCH   9  10
ENDBRANCH   8   9
ENDBRANCH   7   8
ENDBRANCH   6   7
ENDBRANCH   5   6
ENDBRANCH   4   5
ENDBRANCH   3   4
ENDBRANCH   2   3
ENDBRANCH   1   2
BRANCH   1  18
ATOM     18  C   UNL     1      46.983  44.199  14.827  1.00  0.00     0.000 C 
BRANCH  18  19
ATOM     19  C   UNL     1      47.520  42.831  14.379  1.00  0.00     0.000 C 
BRANCH  19  20
ATOM     20  C   UNL     1      46.493  41.701  14.570  1.00  0.00     0.000 C 
BRANCH  20  21
ATOM     21  C   UNL     1      45.238  42.162  15.328  1.00  0.00     0.000 C 
BRANCH  21  22
ATOM     22  C   UNL     1      45.221  41.674  16.788  1.00  0.00     0.000 C 
BRANCH  22  23
ATOM     23  C   UNL     1      45.043  42.824  17.793  1.00  0.00     0.000 C 
BRANCH  23  24
ATOM     24  C   UNL     1      46.383  43.392  18.287  1.00  0.00    -0.000 C 
BRANCH  24  25
ATOM     25  C   UNL     1      47.474  42.315  18.275  1.00  0.00    -0.000 C 
BRANCH  25  26
ATOM     26  C   UNL     1      48.855  42.936  18.006  1.00  0.00    -0.000 C 
BRANCH  26  27
ATOM     27  C   UNL     1      49.755  42.028  17.152  1.00  0.00    -0.000 C 
BRANCH  27  28
ATOM     28  C   UNL     1      51.212  42.014  17.645  1.00  0.00    -0.000 C 
BRANCH  28  29
ATOM     29  C   UNL     1      52.234  42.107  16.497  1.00  0.00    -0.000 C 
BRANCH  29  30
ATOM     30  C   UNL     1      53.683  42.392  16.935  1.00  0.00    -0.000 C 
BRANCH  30  31
ATOM     31  C   UNL     1      54.346  43.511  16.119  1.00  0.00    -0.003 C 
ATOM     32  C   UNL     1      55.763  43.789  16.618  1.00  0.00     0.004 C 
ENDBRANCH  30  31
ENDBRANCH  29  30
ENDBRANCH  28  29
ENDBRANCH  27  28
ENDBRANCH  26  27
ENDBRANCH  25  26
ENDBRANCH  24  25
ENDBRANCH  23  24
ENDBRANCH  22  23
ENDBRANCH  21  22
ENDBRANCH  20  21
ENDBRANCH  19  20
ENDBRANCH  18  19
ENDBRANCH   1  18
TORSDOF 28
ENDMDL
MODEL 9
REMARK VINA RESULT:    -2.866      3.574      8.209
REMARK INTER + INTRA:         -13.256
REMARK INTER:                  -7.641
REMARK INTRA:                  -5.615
REMARK UNBOUND:                -5.699
REMARK SMILES CCCCCCCCCCCCCCCCCCCCCCCCCCCCCC(=O)[O-]
REMARK SMILES IDX 16 1 17 2 18 3 19 4 20 5 21 6 22 7 23 8 24 9 25 10 26 11
REMARK SMILES IDX 27 12 28 13 29 14 30 15 31 16 32 17 15 18 14 19 13 20 12 21
REMARK SMILES IDX 11 22 10 23 9 24 8 25 7 26 6 27 5 28 4 29 3 30 2 31 1 32
REMARK H PARENT
REMARK Flexibility Score: inf
ROOT
ATOM      1  C   UNL     1      49.322  48.280  14.558  1.00  0.00     0.000 C 
ENDROOT
BRANCH   1   2
ATOM      2  C   UNL     1      49.760  49.388  15.529  1.00  0.00     0.000 C 
BRANCH   2   3
ATOM      3  C   UNL     1      49.789  48.922  16.993  1.00  0.00     0.000 C 
BRANCH   3   4
ATOM      4  C   UNL     1      48.788  47.786  17.275  1.00  0.00     0.000 C 
BRANCH   4   5
ATOM      5  C   UNL     1      49.451  46.572  17.947  1.00  0.00     0.000 C 
BRANCH   5   6
ATOM      6  C   UNL     1      50.988  46.649  17.911  1.00  0.00     0.000 C 
BRANCH   6   7
ATOM      7  C   UNL     1      51.638  45.392  17.307  1.00  0.00     0.000 C 
BRANCH   7   8
ATOM      8  C   UNL     1      53.038  45.608  16.703  1.00  0.00     0.000 C 
BRANCH   8   9
ATOM      9  C   UNL     1      53.310  47.073  16.326  1.00  0.00     0.000 C 
BRANCH   9  10
ATOM     10  C   UNL     1      54.114  47.164  15.020  1.00  0.00     0.000 C 
BRANCH  10  11
ATOM     11  C   UNL     1      55.596  47.494  15.257  1.00  0.00     0.000 C 
BRANCH  11  12
ATOM     12  C   UNL     1      56.541  46.597  14.442  1.00  0.00     0.000 C 
BRANCH  12  13
ATOM     13  C   UNL     1      56.869  45.308  15.206  1.00  0.00     0.006 C 
BRANCH  13  14
ATOM     14  C   UNL     1      57.022  45.579  16.707  1.00  0.00     0.053 C 
BRANCH  14  15
ATOM     15  C   UNL     1      58.443  45.907  17.041  1.00  0.00     0.041 C 
ATOM     16  O   UNL     1      59.335  45.023  16.948  1.00  0.00    -0.550 OA
ATOM     17  O   UNL     1      58.775  47.177  17.497  1.00  0.00    -0.550 OA
ENDBRANCH  14  15
ENDBRANCH  13  14
ENDBRANCH  12  13
ENDBRANCH  11  12
ENDBRANCH  10  11
ENDBRANCH   9  10
ENDBRANCH   8   9
ENDBRANCH   7   8
ENDBRANCH   6   7
ENDBRANCH   5   6
ENDBRANCH   4   5
ENDBRANCH   3   4
ENDBRANCH   2   3
ENDBRANCH   1   2
BRANCH   1  18
ATOM     18  C   UNL     1      50.544  47.599  13.922  1.00  0.00     0.000 C 
BRANCH  18  19
ATOM     19  C   UNL     1      50.474  46.065  13.984  1.00  0.00     0.000 C 
BRANCH  19  20
ATOM     20  C   UNL     1      49.115  45.555  14.497  1.00  0.00     0.000 C 
BRANCH  20  21
ATOM     21  C   UNL     1      49.147  44.067  14.881  1.00  0.00     0.000 C 
BRANCH  21  22
ATOM     22  C   UNL     1      47.851  43.333  14.493  1.00  0.00     0.000 C 
BRANCH  22  23
ATOM     23  C   UNL     1      46.588  44.143  14.832  1.00  0.00     0.000 C 
BRANCH  23  24
ATOM     24  C   UNL     1      45.397  43.250  15.212  1.00  0.00    -0.000 C 
BRANCH  24  25
ATOM     25  C   UNL     1      45.748  41.766  15.052  1.00  0.00    -0.000 C 
BRANCH  25  26
ATOM     26  C   UNL     1      45.536  41.007  16.372  1.00  0.00    -0.000 C 
BRANCH  26  27
ATOM     27  C   UNL     1      45.345  41.950  17.571  1.00  0.00    -0.000 C 
BRANCH  27  28
ATOM     28  C   UNL     1      46.557  41.948  18.519  1.00  0.00    -0.000 C 
BRANCH  28  29
ATOM     29  C   UNL     1      47.472  43.171  18.325  1.00  0.00    -0.000 C 
BRANCH  29  30
ATOM     30  C   UNL     1      48.981  42.869  18.365  1.00  0.00    -0.000 C 
BRANCH  30  31
ATOM     31  C   UNL     1      49.374  41.663  17.499  1.00  0.00    -0.003 C 
ATOM     32  C   UNL     1      50.866  41.684  17.172  1.00  0.00     0.004 C 
ENDBRANCH  30  31
ENDBRANCH  29  30
ENDBRANCH  28  29
ENDBRANCH  27  28
ENDBRANCH  26  27
ENDBRANCH  25  26
ENDBRANCH  24  25
ENDBRANCH  23  24
ENDBRANCH  22  23
ENDBRANCH  21  22
ENDBRANCH  20  21
ENDBRANCH  19  20
ENDBRANCH  18  19
ENDBRANCH   1  18
TORSDOF 28
ENDMDL
