MODEL 1
REMARK VINA RESULT:    -4.602      0.000      0.000
REMARK INTER + INTRA:         -10.307
REMARK INTER:                  -8.369
REMARK INTRA:                  -1.938
REMARK UNBOUND:                -1.938
REMARK SMILES CCCCCCCCCCCCCC[C@H](C)C(=O)[O-]
REMARK SMILES IDX 9 1 10 2 11 3 12 4 13 5 14 6 15 7 16 8 17 9 18 10 19 11 8 12
REMARK SMILES IDX 7 13 6 14 5 15 4 16 3 17 2 18 1 19
REMARK H PARENT
REMARK Flexibility Score: inf
ROOT
ATOM      1  C   UNL     1     -18.958 -33.366  20.001  1.00  0.00     0.000 C 
ENDROOT
BRANCH   1   2
ATOM      2  C   UNL     1     -19.196 -31.941  20.530  1.00  0.00     0.000 C 
BRANCH   2   3
ATOM      3  C   UNL     1     -20.349 -31.165  19.859  1.00  0.00     0.000 C 
BRANCH   3   4
ATOM      4  C   UNL     1     -19.912 -30.004  18.944  1.00  0.00     0.000 C 
BRANCH   4   5
ATOM      5  C   UNL     1     -18.416 -29.637  19.071  1.00  0.00     0.001 C 
BRANCH   5   6
ATOM      6  C   UNL     1     -17.902 -28.750  17.921  1.00  0.00     0.009 C 
BRANCH   6   7
ATOM      7  C   UNL     1     -16.481 -29.115  17.439  1.00  0.00     0.032 C 
ATOM      8  C   UNL     1     -16.258 -30.628  17.528  1.00  0.00     0.014 C 
BRANCH   7   9
ATOM      9  C   UNL     1     -15.426 -28.403  18.242  1.00  0.00     0.044 C 
ATOM     10  O   UNL     1     -14.210 -28.687  18.082  1.00  0.00    -0.550 OA
ATOM     11  O   UNL     1     -15.787 -27.448  19.186  1.00  0.00    -0.550 OA
ENDBRANCH   7   9
ENDBRANCH   6   7
ENDBRANCH   5   6
ENDBRANCH   4   5
ENDBRANCH   3   4
ENDBRANCH   2   3
ENDBRANCH   1   2
BRANCH   1  12
ATOM     12  C   UNL     1     -18.301 -33.386  18.610  1.00  0.00     0.000 C 
BRANCH  12  13
ATOM     13  C   UNL     1     -19.301 -33.726  17.491  1.00  0.00    -0.000 C 
BRANCH  13  14
ATOM     14  C   UNL     1     -19.204 -32.757  16.301  1.00  0.00    -0.000 C 
BRANCH  14  15
ATOM     15  C   UNL     1     -18.027 -33.079  15.362  1.00  0.00    -0.000 C 
BRANCH  15  16
ATOM     16  C   UNL     1     -18.363 -33.045  13.859  1.00  0.00    -0.000 C 
BRANCH  16  17
ATOM     17  C   UNL     1     -17.279 -32.421  12.960  1.00  0.00    -0.000 C 
BRANCH  17  18
ATOM     18  C   UNL     1     -16.056 -31.888  13.737  1.00  0.00    -0.003 C 
ATOM     19  C   UNL     1     -15.752 -30.423  13.426  1.00  0.00     0.004 C 
ENDBRANCH  17  18
ENDBRANCH  16  17
ENDBRANCH  15  16
ENDBRANCH  14  15
ENDBRANCH  13  14
ENDBRANCH  12  13
ENDBRANCH   1  12
TORSDOF 14
ENDMDL
MODEL 2
REMARK VINA RESULT:    -4.577      2.026      4.592
REMARK INTER + INTRA:         -10.261
REMARK INTER:                  -7.389
REMARK INTRA:                  -2.872
REMARK UNBOUND:                -1.938
REMARK SMILES CCCCCCCCCCCCCC[C@H](C)C(=O)[O-]
REMARK SMILES IDX 9 1 10 2 11 3 12 4 13 5 14 6 15 7 16 8 17 9 18 10 19 11 8 12
REMARK SMILES IDX 7 13 6 14 5 15 4 16 3 17 2 18 1 19
REMARK H PARENT
REMARK Flexibility Score: inf
ROOT
ATOM      1  C   UNL     1     -17.701 -33.765  19.540  1.00  0.00     0.000 C 
ENDROOT
BRANCH   1   2
ATOM      2  C   UNL     1     -17.785 -33.643  18.008  1.00  0.00     0.000 C 
BRANCH   2   3
ATOM      3  C   UNL     1     -19.210 -33.659  17.416  1.00  0.00     0.000 C 
BRANCH   3   4
ATOM      4  C   UNL     1     -19.318 -33.172  15.957  1.00  0.00     0.000 C 
BRANCH   4   5
ATOM      5  C   UNL     1     -18.090 -33.526  15.087  1.00  0.00     0.001 C 
BRANCH   5   6
ATOM      6  C   UNL     1     -17.379 -32.292  14.499  1.00  0.00     0.009 C 
BRANCH   6   7
ATOM      7  C   UNL     1     -15.871 -32.504  14.245  1.00  0.00     0.032 C 
ATOM      8  C   UNL     1     -15.204 -33.130  15.474  1.00  0.00     0.014 C 
BRANCH   7   9
ATOM      9  C   UNL     1     -15.182 -31.210  13.903  1.00  0.00     0.044 C 
ATOM     10  O   UNL     1     -15.861 -30.182  13.643  1.00  0.00    -0.550 OA
ATOM     11  O   UNL     1     -13.794 -31.146  13.845  1.00  0.00    -0.550 OA
ENDBRANCH   7   9
ENDBRANCH   6   7
ENDBRANCH   5   6
ENDBRANCH   4   5
ENDBRANCH   3   4
ENDBRANCH   2   3
ENDBRANCH   1   2
BRANCH   1  12
ATOM     12  C   UNL     1     -18.994 -33.321  20.247  1.00  0.00     0.000 C 
BRANCH  12  13
ATOM     13  C   UNL     1     -19.007 -31.815  20.559  1.00  0.00    -0.000 C 
BRANCH  13  14
ATOM     14  C   UNL     1     -20.267 -31.114  20.024  1.00  0.00    -0.000 C 
BRANCH  14  15
ATOM     15  C   UNL     1     -19.960 -30.103  18.904  1.00  0.00    -0.000 C 
BRANCH  15  16
ATOM     16  C   UNL     1     -18.480 -29.694  18.782  1.00  0.00    -0.000 C 
BRANCH  16  17
ATOM     17  C   UNL     1     -17.826 -30.002  17.422  1.00  0.00    -0.000 C 
BRANCH  17  18
ATOM     18  C   UNL     1     -16.305 -30.250  17.504  1.00  0.00    -0.003 C 
ATOM     19  C   UNL     1     -15.841 -30.608  18.915  1.00  0.00     0.004 C 
ENDBRANCH  17  18
ENDBRANCH  16  17
ENDBRANCH  15  16
ENDBRANCH  14  15
ENDBRANCH  13  14
ENDBRANCH  12  13
ENDBRANCH   1  12
TORSDOF 14
ENDMDL
MODEL 3
REMARK VINA RESULT:    -4.552      2.143      3.466
REMARK INTER + INTRA:         -10.215
REMARK INTER:                  -7.767
REMARK INTRA:                  -2.448
REMARK UNBOUND:                -1.938
REMARK SMILES CCCCCCCCCCCCCC[C@H](C)C(=O)[O-]
REMARK SMILES IDX 9 1 10 2 11 3 12 4 13 5 14 6 15 7 16 8 17 9 18 10 19 11 8 12
REMARK SMILES IDX 7 13 6 14 5 15 4 16 3 17 2 18 1 19
REMARK H PARENT
REMARK Flexibility Score: inf
ROOT
ATOM      1  C   UNL     1     -16.051 -32.862  21.733  1.00  0.00     0.000 C 
ENDROOT
BRANCH   1   2
ATOM      2  C   UNL     1     -17.584 -32.857  21.867  1.00  0.00     0.000 C 
BRANCH   2   3
ATOM      3  C   UNL     1     -18.351 -33.615  20.764  1.00  0.00     0.000 C 
BRANCH   3   4
ATOM      4  C   UNL     1     -19.349 -32.763  19.955  1.00  0.00     0.000 C 
BRANCH   4   5
ATOM      5  C   UNL     1     -19.312 -31.257  20.306  1.00  0.00     0.001 C 
BRANCH   5   6
ATOM      6  C   UNL     1     -19.295 -30.340  19.067  1.00  0.00     0.009 C 
BRANCH   6   7
ATOM      7  C   UNL     1     -17.922 -29.688  18.794  1.00  0.00     0.032 C 
ATOM      8  C   UNL     1     -17.056 -29.714  20.058  1.00  0.00     0.014 C 
BRANCH   7   9
ATOM      9  C   UNL     1     -18.071 -28.268  18.317  1.00  0.00     0.044 C 
ATOM     10  O   UNL     1     -17.669 -27.942  17.169  1.00  0.00    -0.550 OA
ATOM     11  O   UNL     1     -18.628 -27.302  19.147  1.00  0.00    -0.550 OA
ENDBRANCH   7   9
ENDBRANCH   6   7
ENDBRANCH   5   6
ENDBRANCH   4   5
ENDBRANCH   3   4
ENDBRANCH   2   3
ENDBRANCH   1   2
BRANCH   1  12
ATOM     12  C   UNL     1     -15.527 -34.048  20.903  1.00  0.00     0.000 C 
BRANCH  12  13
ATOM     13  C   UNL     1     -14.732 -33.595  19.667  1.00  0.00    -0.000 C 
BRANCH  13  14
ATOM     14  C   UNL     1     -15.438 -33.958  18.349  1.00  0.00    -0.000 C 
BRANCH  14  15
ATOM     15  C   UNL     1     -16.271 -32.796  17.777  1.00  0.00    -0.000 C 
BRANCH  15  16
ATOM     16  C   UNL     1     -16.809 -33.019  16.351  1.00  0.00    -0.000 C 
BRANCH  16  17
ATOM     17  C   UNL     1     -18.201 -32.420  16.075  1.00  0.00    -0.000 C 
BRANCH  17  18
ATOM     18  C   UNL     1     -19.365 -33.393  16.360  1.00  0.00    -0.003 C 
ATOM     19  C   UNL     1     -19.912 -34.046  15.091  1.00  0.00     0.004 C 
ENDBRANCH  17  18
ENDBRANCH  16  17
ENDBRANCH  15  16
ENDBRANCH  14  15
ENDBRANCH  13  14
ENDBRANCH  12  13
ENDBRANCH   1  12
TORSDOF 14
ENDMDL
MODEL 4
REMARK VINA RESULT:    -4.468      1.661      3.007
REMARK INTER + INTRA:         -10.063
REMARK INTER:                  -7.664
REMARK INTRA:                  -2.399
REMARK UNBOUND:                -1.938
REMARK SMILES CCCCCCCCCCCCCC[C@H](C)C(=O)[O-]
REMARK SMILES IDX 9 1 10 2 11 3 12 4 13 5 14 6 15 7 16 8 17 9 18 10 19 11 8 12
REMARK SMILES IDX 7 13 6 14 5 15 4 16 3 17 2 18 1 19
REMARK H PARENT
REMARK Flexibility Score: inf
ROOT
ATOM      1  C   UNL     1     -16.783 -34.124  18.021  1.00  0.00     0.000 C 
ENDROOT
BRANCH   1   2
ATOM      2  C   UNL     1     -17.702 -33.769  19.203  1.00  0.00     0.000 C 
BRANCH   2   3
ATOM      3  C   UNL     1     -19.097 -33.230  18.822  1.00  0.00     0.000 C 
BRANCH   3   4
ATOM      4  C   UNL     1     -19.759 -32.322  19.877  1.00  0.00     0.000 C 
BRANCH   4   5
ATOM      5  C   UNL     1     -19.446 -30.819  19.693  1.00  0.00     0.001 C 
BRANCH   5   6
ATOM      6  C   UNL     1     -18.981 -30.460  18.268  1.00  0.00     0.009 C 
BRANCH   6   7
ATOM      7  C   UNL     1     -17.629 -29.714  18.223  1.00  0.00     0.032 C 
ATOM      8  C   UNL     1     -16.845 -29.950  19.518  1.00  0.00     0.014 C 
BRANCH   7   9
ATOM      9  C   UNL     1     -17.821 -28.237  18.014  1.00  0.00     0.044 C 
ATOM     10  O   UNL     1     -17.412 -27.689  16.956  1.00  0.00    -0.550 OA
ATOM     11  O   UNL     1     -18.426 -27.460  18.996  1.00  0.00    -0.550 OA
ENDBRANCH   7   9
ENDBRANCH   6   7
ENDBRANCH   5   6
ENDBRANCH   4   5
ENDBRANCH   3   4
ENDBRANCH   2   3
ENDBRANCH   1   2
BRANCH   1  12
ATOM     12  C   UNL     1     -15.980 -32.917  17.503  1.00  0.00     0.000 C 
BRANCH  12  13
ATOM     13  C   UNL     1     -15.030 -33.293  16.353  1.00  0.00    -0.000 C 
BRANCH  13  14
ATOM     14  C   UNL     1     -14.949 -32.197  15.276  1.00  0.00    -0.000 C 
BRANCH  14  15
ATOM     15  C   UNL     1     -16.327 -31.617  14.908  1.00  0.00    -0.000 C 
BRANCH  15  16
ATOM     16  C   UNL     1     -16.972 -32.217  13.644  1.00  0.00    -0.000 C 
BRANCH  16  17
ATOM     17  C   UNL     1     -18.033 -33.303  13.903  1.00  0.00    -0.000 C 
BRANCH  17  18
ATOM     18  C   UNL     1     -18.920 -33.025  15.135  1.00  0.00    -0.003 C 
ATOM     19  C   UNL     1     -20.071 -34.022  15.271  1.00  0.00     0.004 C 
ENDBRANCH  17  18
ENDBRANCH  16  17
ENDBRANCH  15  16
ENDBRANCH  14  15
ENDBRANCH  13  14
ENDBRANCH  12  13
ENDBRANCH   1  12
TORSDOF 14
ENDMDL
MODEL 5
REMARK VINA RESULT:    -4.459      2.173      4.453
REMARK INTER + INTRA:         -10.047
REMARK INTER:                  -7.276
REMARK INTRA:                  -2.771
REMARK UNBOUND:                -1.938
REMARK SMILES CCCCCCCCCCCCCC[C@H](C)C(=O)[O-]
REMARK SMILES IDX 9 1 10 2 11 3 12 4 13 5 14 6 15 7 16 8 17 9 18 10 19 11 8 12
REMARK SMILES IDX 7 13 6 14 5 15 4 16 3 17 2 18 1 19
REMARK H PARENT
REMARK Flexibility Score: inf
ROOT
ATOM      1  C   UNL     1     -18.372 -33.606  18.417  1.00  0.00     0.000 C 
ENDROOT
BRANCH   1   2
ATOM      2  C   UNL     1     -18.837 -33.453  16.958  1.00  0.00     0.000 C 
BRANCH   2   3
ATOM      3  C   UNL     1     -17.920 -32.604  16.053  1.00  0.00     0.000 C 
BRANCH   3   4
ATOM      4  C   UNL     1     -16.590 -32.163  16.697  1.00  0.00     0.000 C 
BRANCH   4   5
ATOM      5  C   UNL     1     -16.555 -30.671  17.100  1.00  0.00     0.001 C 
BRANCH   5   6
ATOM      6  C   UNL     1     -16.439 -30.449  18.621  1.00  0.00     0.009 C 
BRANCH   6   7
ATOM      7  C   UNL     1     -17.610 -29.643  19.224  1.00  0.00     0.032 C 
ATOM      8  C   UNL     1     -18.878 -29.832  18.385  1.00  0.00     0.014 C 
BRANCH   7   9
ATOM      9  C   UNL     1     -17.282 -28.177  19.316  1.00  0.00     0.044 C 
ATOM     10  O   UNL     1     -16.084 -27.803  19.415  1.00  0.00    -0.550 OA
ATOM     11  O   UNL     1     -18.298 -27.228  19.319  1.00  0.00    -0.550 OA
ENDBRANCH   7   9
ENDBRANCH   6   7
ENDBRANCH   5   6
ENDBRANCH   4   5
ENDBRANCH   3   4
ENDBRANCH   2   3
ENDBRANCH   1   2
BRANCH   1  12
ATOM     12  C   UNL     1     -19.486 -33.303  19.435  1.00  0.00     0.000 C 
BRANCH  12  13
ATOM     13  C   UNL     1     -18.933 -32.786  20.774  1.00  0.00    -0.000 C 
BRANCH  13  14
ATOM     14  C   UNL     1     -17.702 -33.577  21.247  1.00  0.00    -0.000 C 
BRANCH  14  15
ATOM     15  C   UNL     1     -16.502 -32.673  21.582  1.00  0.00    -0.000 C 
BRANCH  15  16
ATOM     16  C   UNL     1     -15.134 -33.202  21.112  1.00  0.00    -0.000 C 
BRANCH  16  17
ATOM     17  C   UNL     1     -15.131 -33.866  19.723  1.00  0.00    -0.000 C 
BRANCH  17  18
ATOM     18  C   UNL     1     -13.750 -33.865  19.034  1.00  0.00    -0.003 C 
ATOM     19  C   UNL     1     -13.338 -32.478  18.541  1.00  0.00     0.004 C 
ENDBRANCH  17  18
ENDBRANCH  16  17
ENDBRANCH  15  16
ENDBRANCH  14  15
ENDBRANCH  13  14
ENDBRANCH  12  13
ENDBRANCH   1  12
TORSDOF 14
ENDMDL
MODEL 6
REMARK VINA RESULT:    -4.327      1.548      2.436
REMARK INTER + INTRA:          -9.807
REMARK INTER:                  -7.783
REMARK INTRA:                  -2.024
REMARK UNBOUND:                -1.938
REMARK SMILES CCCCCCCCCCCCCC[C@H](C)C(=O)[O-]
REMARK SMILES IDX 9 1 10 2 11 3 12 4 13 5 14 6 15 7 16 8 17 9 18 10 19 11 8 12
REMARK SMILES IDX 7 13 6 14 5 15 4 16 3 17 2 18 1 19
REMARK H PARENT
REMARK Flexibility Score: inf
ROOT
ATOM      1  C   UNL     1     -19.583 -33.303  19.335  1.00  0.00     0.000 C 
ENDROOT
BRANCH   1   2
ATOM      2  C   UNL     1     -18.500 -33.653  20.371  1.00  0.00     0.000 C 
BRANCH   2   3
ATOM      3  C   UNL     1     -17.114 -34.007  19.792  1.00  0.00     0.000 C 
BRANCH   3   4
ATOM      4  C   UNL     1     -16.032 -32.925  19.974  1.00  0.00     0.000 C 
BRANCH   4   5
ATOM      5  C   UNL     1     -16.578 -31.576  20.497  1.00  0.00     0.001 C 
BRANCH   5   6
ATOM      6  C   UNL     1     -16.749 -30.514  19.394  1.00  0.00     0.009 C 
BRANCH   6   7
ATOM      7  C   UNL     1     -17.803 -29.435  19.725  1.00  0.00     0.032 C 
ATOM      8  C   UNL     1     -19.068 -29.648  18.889  1.00  0.00     0.014 C 
BRANCH   7   9
ATOM      9  C   UNL     1     -17.267 -28.049  19.483  1.00  0.00     0.044 C 
ATOM     10  O   UNL     1     -16.150 -27.712  19.954  1.00  0.00    -0.550 OA
ATOM     11  O   UNL     1     -18.013 -27.124  18.761  1.00  0.00    -0.550 OA
ENDBRANCH   7   9
ENDBRANCH   6   7
ENDBRANCH   5   6
ENDBRANCH   4   5
ENDBRANCH   3   4
ENDBRANCH   2   3
ENDBRANCH   1   2
BRANCH   1  12
ATOM     12  C   UNL     1     -19.227 -33.775  17.914  1.00  0.00     0.000 C 
BRANCH  12  13
ATOM     13  C   UNL     1     -19.130 -32.610  16.914  1.00  0.00    -0.000 C 
BRANCH  13  14
ATOM     14  C   UNL     1     -19.560 -33.017  15.494  1.00  0.00    -0.000 C 
BRANCH  14  15
ATOM     15  C   UNL     1     -18.466 -33.792  14.738  1.00  0.00    -0.000 C 
BRANCH  15  16
ATOM     16  C   UNL     1     -18.002 -33.146  13.419  1.00  0.00    -0.000 C 
BRANCH  16  17
ATOM     17  C   UNL     1     -16.938 -32.043  13.569  1.00  0.00    -0.000 C 
BRANCH  17  18
ATOM     18  C   UNL     1     -15.977 -32.262  14.757  1.00  0.00    -0.003 C 
ATOM     19  C   UNL     1     -16.001 -31.107  15.757  1.00  0.00     0.004 C 
ENDBRANCH  17  18
ENDBRANCH  16  17
ENDBRANCH  15  16
ENDBRANCH  14  15
ENDBRANCH  13  14
ENDBRANCH  12  13
ENDBRANCH   1  12
TORSDOF 14
ENDMDL
MODEL 7
REMARK VINA RESULT:    -4.295      2.524      4.419
REMARK INTER + INTRA:          -9.748
REMARK INTER:                  -7.329
REMARK INTRA:                  -2.419
REMARK UNBOUND:                -1.938
REMARK SMILES CCCCCCCCCCCCCC[C@H](C)C(=O)[O-]
REMARK SMILES IDX 9 1 10 2 11 3 12 4 13 5 14 6 15 7 16 8 17 9 18 10 19 11 8 12
REMARK SMILES IDX 7 13 6 14 5 15 4 16 3 17 2 18 1 19
REMARK H PARENT
REMARK Flexibility Score: inf
ROOT
ATOM      1  C   UNL     1     -17.961 -32.602  21.760  1.00  0.00     0.000 C 
ENDROOT
BRANCH   1   2
ATOM      2  C   UNL     1     -16.476 -32.210  21.863  1.00  0.00     0.000 C 
BRANCH   2   3
ATOM      3  C   UNL     1     -15.478 -33.220  21.260  1.00  0.00     0.000 C 
BRANCH   3   4
ATOM      4  C   UNL     1     -14.667 -32.701  20.055  1.00  0.00     0.000 C 
BRANCH   4   5
ATOM      5  C   UNL     1     -15.478 -31.795  19.101  1.00  0.00     0.001 C 
BRANCH   5   6
ATOM      6  C   UNL     1     -14.646 -30.653  18.486  1.00  0.00     0.009 C 
BRANCH   6   7
ATOM      7  C   UNL     1     -14.866 -30.469  16.968  1.00  0.00     0.032 C 
ATOM      8  C   UNL     1     -15.985 -31.391  16.474  1.00  0.00     0.014 C 
BRANCH   7   9
ATOM      9  C   UNL     1     -13.607 -30.747  16.191  1.00  0.00     0.044 C 
ATOM     10  O   UNL     1     -13.664 -31.358  15.092  1.00  0.00    -0.550 OA
ATOM     11  O   UNL     1     -12.370 -30.356  16.693  1.00  0.00    -0.550 OA
ENDBRANCH   7   9
ENDBRANCH   6   7
ENDBRANCH   5   6
ENDBRANCH   4   5
ENDBRANCH   3   4
ENDBRANCH   2   3
ENDBRANCH   1   2
BRANCH   1  12
ATOM     12  C   UNL     1     -18.202 -33.789  20.810  1.00  0.00     0.000 C 
BRANCH  12  13
ATOM     13  C   UNL     1     -18.877 -33.363  19.496  1.00  0.00    -0.000 C 
BRANCH  13  14
ATOM     14  C   UNL     1     -19.554 -31.986  19.602  1.00  0.00    -0.000 C 
BRANCH  14  15
ATOM     15  C   UNL     1     -18.963 -30.952  18.626  1.00  0.00    -0.000 C 
BRANCH  15  16
ATOM     16  C   UNL     1     -19.058 -29.487  19.091  1.00  0.00    -0.000 C 
BRANCH  16  17
ATOM     17  C   UNL     1     -17.710 -28.810  19.405  1.00  0.00    -0.000 C 
BRANCH  17  18
ATOM     18  C   UNL     1     -17.477 -27.496  18.630  1.00  0.00    -0.003 C 
ATOM     19  C   UNL     1     -17.353 -27.715  17.123  1.00  0.00     0.004 C 
ENDBRANCH  17  18
ENDBRANCH  16  17
ENDBRANCH  15  16
ENDBRANCH  14  15
ENDBRANCH  13  14
ENDBRANCH  12  13
ENDBRANCH   1  12
TORSDOF 14
ENDMDL
MODEL 8
REMARK VINA RESULT:    -4.278     10.780     13.465
REMARK INTER + INTRA:          -9.718
REMARK INTER:                  -7.383
REMARK INTRA:                  -2.335
REMARK UNBOUND:                -1.938
REMARK SMILES CCCCCCCCCCCCCC[C@H](C)C(=O)[O-]
REMARK SMILES IDX 9 1 10 2 11 3 12 4 13 5 14 6 15 7 16 8 17 9 18 10 19 11 8 12
REMARK SMILES IDX 7 13 6 14 5 15 4 16 3 17 2 18 1 19
REMARK H PARENT
REMARK Flexibility Score: inf
ROOT
ATOM      1  C   UNL     1      -8.976 -19.599  20.617  1.00  0.00     0.000 C 
ENDROOT
BRANCH   1   2
ATOM      2  C   UNL     1      -9.483 -20.836  21.379  1.00  0.00     0.000 C 
BRANCH   2   3
ATOM      3  C   UNL     1     -10.817 -21.428  20.875  1.00  0.00     0.000 C 
BRANCH   3   4
ATOM      4  C   UNL     1     -11.168 -21.098  19.411  1.00  0.00     0.000 C 
BRANCH   4   5
ATOM      5  C   UNL     1     -12.305 -20.060  19.260  1.00  0.00     0.001 C 
BRANCH   5   6
ATOM      6  C   UNL     1     -13.248 -20.003  20.477  1.00  0.00     0.009 C 
BRANCH   6   7
ATOM      7  C   UNL     1     -13.297 -18.619  21.163  1.00  0.00     0.032 C 
ATOM      8  C   UNL     1     -12.204 -17.705  20.601  1.00  0.00     0.014 C 
BRANCH   7   9
ATOM      9  C   UNL     1     -13.137 -18.737  22.654  1.00  0.00     0.044 C 
ATOM     10  O   UNL     1     -13.055 -17.701  23.365  1.00  0.00    -0.550 OA
ATOM     11  O   UNL     1     -13.050 -19.988  23.256  1.00  0.00    -0.550 OA
ENDBRANCH   7   9
ENDBRANCH   6   7
ENDBRANCH   5   6
ENDBRANCH   4   5
ENDBRANCH   3   4
ENDBRANCH   2   3
ENDBRANCH   1   2
BRANCH   1  12
ATOM     12  C   UNL     1      -7.636 -19.844  19.901  1.00  0.00     0.000 C 
BRANCH  12  13
ATOM     13  C   UNL     1      -7.822 -20.255  18.430  1.00  0.00    -0.000 C 
BRANCH  13  14
ATOM     14  C   UNL     1      -7.063 -21.546  18.080  1.00  0.00    -0.000 C 
BRANCH  14  15
ATOM     15  C   UNL     1      -7.327 -22.685  19.081  1.00  0.00    -0.000 C 
BRANCH  15  16
ATOM     16  C   UNL     1      -8.539 -23.576  18.752  1.00  0.00    -0.000 C 
BRANCH  16  17
ATOM     17  C   UNL     1      -9.118 -23.396  17.336  1.00  0.00    -0.000 C 
BRANCH  17  18
ATOM     18  C   UNL     1     -10.491 -24.073  17.134  1.00  0.00    -0.003 C 
ATOM     19  C   UNL     1     -11.470 -23.199  16.352  1.00  0.00     0.004 C 
ENDBRANCH  17  18
ENDBRANCH  16  17
ENDBRANCH  15  16
ENDBRANCH  14  15
ENDBRANCH  13  14
ENDBRANCH  12  13
ENDBRANCH   1  12
TORSDOF 14
ENDMDL
MODEL 9
REMARK VINA RESULT:    -4.228      2.156      5.449
REMARK INTER + INTRA:          -9.626
REMARK INTER:                  -7.422
REMARK INTRA:                  -2.204
REMARK UNBOUND:                -1.938
REMARK SMILES CCCCCCCCCCCCCC[C@H](C)C(=O)[O-]
REMARK SMILES IDX 9 1 10 2 11 3 12 4 13 5 14 6 15 7 16 8 17 9 18 10 19 11 8 12
REMARK SMILES IDX 7 13 6 14 5 15 4 16 3 17 2 18 1 19
REMARK H PARENT
REMARK Flexibility Score: inf
ROOT
ATOM      1  C   UNL     1     -17.309 -32.420  13.746  1.00  0.00     0.000 C 
ENDROOT
BRANCH   1   2
ATOM      2  C   UNL     1     -18.359 -33.365  14.359  1.00  0.00     0.000 C 
BRANCH   2   3
ATOM      3  C   UNL     1     -18.208 -33.635  15.871  1.00  0.00     0.000 C 
BRANCH   3   4
ATOM      4  C   UNL     1     -19.233 -32.918  16.771  1.00  0.00     0.000 C 
BRANCH   4   5
ATOM      5  C   UNL     1     -19.062 -33.220  18.278  1.00  0.00     0.001 C 
BRANCH   5   6
ATOM      6  C   UNL     1     -17.637 -33.672  18.654  1.00  0.00     0.009 C 
BRANCH   6   7
ATOM      7  C   UNL     1     -17.356 -33.647  20.172  1.00  0.00     0.032 C 
ATOM      8  C   UNL     1     -18.356 -32.731  20.886  1.00  0.00     0.014 C 
BRANCH   7   9
ATOM      9  C   UNL     1     -15.954 -33.187  20.466  1.00  0.00     0.044 C 
ATOM     10  O   UNL     1     -15.235 -32.722  19.543  1.00  0.00    -0.550 OA
ATOM     11  O   UNL     1     -15.432 -33.297  21.750  1.00  0.00    -0.550 OA
ENDBRANCH   7   9
ENDBRANCH   6   7
ENDBRANCH   5   6
ENDBRANCH   4   5
ENDBRANCH   3   4
ENDBRANCH   2   3
ENDBRANCH   1   2
BRANCH   1  12
ATOM     12  C   UNL     1     -16.009 -32.357  14.567  1.00  0.00     0.000 C 
BRANCH  12  13
ATOM     13  C   UNL     1     -15.710 -30.940  15.085  1.00  0.00    -0.000 C 
BRANCH  13  14
ATOM     14  C   UNL     1     -15.752 -30.854  16.621  1.00  0.00    -0.000 C 
BRANCH  14  15
ATOM     15  C   UNL     1     -16.991 -30.104  17.144  1.00  0.00    -0.000 C 
BRANCH  15  16
ATOM     16  C   UNL     1     -17.084 -29.988  18.677  1.00  0.00    -0.000 C 
BRANCH  16  17
ATOM     17  C   UNL     1     -18.271 -29.156  19.199  1.00  0.00    -0.000 C 
BRANCH  17  18
ATOM     18  C   UNL     1     -18.091 -27.633  19.020  1.00  0.00    -0.003 C 
ATOM     19  C   UNL     1     -16.831 -27.104  19.703  1.00  0.00     0.004 C 
ENDBRANCH  17  18
ENDBRANCH  16  17
ENDBRANCH  15  16
ENDBRANCH  14  15
ENDBRANCH  13  14
ENDBRANCH  12  13
ENDBRANCH   1  12
TORSDOF 14
ENDMDL
