MODEL 1
REMARK VINA RESULT:    -4.462      0.000      0.000
REMARK INTER + INTRA:          -6.195
REMARK INTER:                  -5.896
REMARK INTRA:                  -0.299
REMARK UNBOUND:                -0.299
REMARK SMILES C=CCC[C@@H](O)CCC
REMARK SMILES IDX 4 1 5 2 7 3 8 4 9 5 6 6 3 8 2 9 1 10
REMARK H PARENT 6 7
REMARK Flexibility Score: inf
ROOT
ATOM      1  C   UNL     1      12.717  15.499  26.823  1.00  0.00     0.036 C 
ENDROOT
BRANCH   1   2
ATOM      2  C   UNL     1      13.293  16.356  27.977  1.00  0.00     0.114 C 
BRANCH   2   3
ATOM      3  C   UNL     1      13.469  15.550  29.285  1.00  0.00     0.031 C 
BRANCH   3   4
ATOM      4  C   UNL     1      14.829  14.844  29.443  1.00  0.00    -0.001 C 
ATOM      5  C   UNL     1      14.924  13.995  30.709  1.00  0.00     0.004 C 
ENDBRANCH   3   4
ENDBRANCH   2   3
BRANCH   2   6
ATOM      6  O   UNL     1      12.473  17.472  28.221  1.00  0.00    -0.393 OA
ATOM      7  H   UNL     1      13.051  18.279  28.204  1.00  0.00     0.210 HD
ENDBRANCH   2   6
ENDBRANCH   1   2
BRANCH   1   8
ATOM      8  C   UNL     1      13.616  15.491  25.576  1.00  0.00     0.029 C 
BRANCH   8   9
ATOM      9  C   UNL     1      14.626  16.608  25.588  1.00  0.00    -0.035 C 
ATOM     10  C   UNL     1      14.542  17.645  24.748  1.00  0.00     0.004 C 
ENDBRANCH   8   9
ENDBRANCH   1   8
TORSDOF 6
ENDMDL
MODEL 2
REMARK VINA RESULT:    -4.450      1.725      4.902
REMARK INTER + INTRA:          -6.180
REMARK INTER:                  -6.040
REMARK INTRA:                  -0.140
REMARK UNBOUND:                -0.299
REMARK SMILES C=CCC[C@@H](O)CCC
REMARK SMILES IDX 4 1 5 2 7 3 8 4 9 5 6 6 3 8 2 9 1 10
REMARK H PARENT 6 7
REMARK Flexibility Score: inf
ROOT
ATOM      1  C   UNL     1      14.856  15.098  28.745  1.00  0.00     0.036 C 
ENDROOT
BRANCH   1   2
ATOM      2  C   UNL     1      13.822  15.589  27.701  1.00  0.00     0.114 C 
BRANCH   2   3
ATOM      3  C   UNL     1      13.840  17.125  27.523  1.00  0.00     0.031 C 
BRANCH   3   4
ATOM      4  C   UNL     1      12.472  17.766  27.221  1.00  0.00    -0.001 C 
ATOM      5  C   UNL     1      12.124  17.773  25.734  1.00  0.00     0.004 C 
ENDBRANCH   3   4
ENDBRANCH   2   3
BRANCH   2   6
ATOM      6  O   UNL     1      12.526  15.174  28.056  1.00  0.00    -0.393 OA
ATOM      7  H   UNL     1      12.273  15.657  28.885  1.00  0.00     0.210 HD
ENDBRANCH   2   6
ENDBRANCH   1   2
BRANCH   1   8
ATOM      8  C   UNL     1      14.222  14.767  30.106  1.00  0.00     0.029 C 
BRANCH   8   9
ATOM      9  C   UNL     1      15.055  13.804  30.909  1.00  0.00    -0.035 C 
ATOM     10  C   UNL     1      14.836  13.597  32.211  1.00  0.00     0.004 C 
ENDBRANCH   8   9
ENDBRANCH   1   8
TORSDOF 6
ENDMDL
MODEL 3
REMARK VINA RESULT:    -4.397      2.018      2.388
REMARK INTER + INTRA:          -6.110
REMARK INTER:                  -5.731
REMARK INTRA:                  -0.380
REMARK UNBOUND:                -0.299
REMARK SMILES C=CCC[C@@H](O)CCC
REMARK SMILES IDX 4 1 5 2 7 3 8 4 9 5 6 6 3 8 2 9 1 10
REMARK H PARENT 6 7
REMARK Flexibility Score: inf
ROOT
ATOM      1  C   UNL     1      12.872  15.393  26.091  1.00  0.00     0.036 C 
ENDROOT
BRANCH   1   2
ATOM      2  C   UNL     1      14.363  15.560  26.471  1.00  0.00     0.114 C 
BRANCH   2   3
ATOM      3  C   UNL     1      14.555  16.274  27.829  1.00  0.00     0.031 C 
BRANCH   3   4
ATOM      4  C   UNL     1      13.875  15.591  29.031  1.00  0.00    -0.001 C 
ATOM      5  C   UNL     1      14.804  14.650  29.795  1.00  0.00     0.004 C 
ENDBRANCH   3   4
ENDBRANCH   2   3
BRANCH   2   6
ATOM      6  O   UNL     1      15.053  16.266  25.469  1.00  0.00    -0.393 OA
ATOM      7  H   UNL     1      14.455  16.324  24.678  1.00  0.00     0.210 HD
ENDBRANCH   2   6
ENDBRANCH   1   2
BRANCH   1   8
ATOM      8  C   UNL     1      12.498  16.129  24.794  1.00  0.00     0.029 C 
BRANCH   8   9
ATOM      9  C   UNL     1      11.686  17.371  25.052  1.00  0.00    -0.035 C 
ATOM     10  C   UNL     1      11.358  17.756  26.289  1.00  0.00     0.004 C 
ENDBRANCH   8   9
ENDBRANCH   1   8
TORSDOF 6
ENDMDL
MODEL 4
REMARK VINA RESULT:    -4.346      1.718      2.085
REMARK INTER + INTRA:          -6.042
REMARK INTER:                  -5.786
REMARK INTRA:                  -0.256
REMARK UNBOUND:                -0.299
REMARK SMILES C=CCC[C@@H](O)CCC
REMARK SMILES IDX 4 1 5 2 7 3 8 4 9 5 6 6 3 8 2 9 1 10
REMARK H PARENT 6 7
REMARK Flexibility Score: inf
ROOT
ATOM      1  C   UNL     1      13.328  17.758  26.772  1.00  0.00     0.036 C 
ENDROOT
BRANCH   1   2
ATOM      2  C   UNL     1      13.713  17.012  28.072  1.00  0.00     0.114 C 
BRANCH   2   3
ATOM      3  C   UNL     1      14.033  15.518  27.827  1.00  0.00     0.031 C 
BRANCH   3   4
ATOM      4  C   UNL     1      15.217  14.960  28.640  1.00  0.00    -0.001 C 
ATOM      5  C   UNL     1      14.818  14.476  30.033  1.00  0.00     0.004 C 
ENDBRANCH   3   4
ENDBRANCH   2   3
BRANCH   2   6
ATOM      6  O   UNL     1      12.686  17.119  29.027  1.00  0.00    -0.393 OA
ATOM      7  H   UNL     1      12.838  17.957  29.538  1.00  0.00     0.210 HD
ENDBRANCH   2   6
ENDBRANCH   1   2
BRANCH   1   8
ATOM      8  C   UNL     1      11.808  17.833  26.552  1.00  0.00     0.029 C 
BRANCH   8   9
ATOM      9  C   UNL     1      11.408  17.428  25.158  1.00  0.00    -0.035 C 
ATOM     10  C   UNL     1      12.094  16.515  24.464  1.00  0.00     0.004 C 
ENDBRANCH   8   9
ENDBRANCH   1   8
TORSDOF 6
ENDMDL
MODEL 5
REMARK VINA RESULT:    -4.301      1.833      4.290
REMARK INTER + INTRA:          -5.983
REMARK INTER:                  -5.639
REMARK INTRA:                  -0.344
REMARK UNBOUND:                -0.299
REMARK SMILES C=CCC[C@@H](O)CCC
REMARK SMILES IDX 4 1 5 2 7 3 8 4 9 5 6 6 3 8 2 9 1 10
REMARK H PARENT 6 7
REMARK Flexibility Score: inf
ROOT
ATOM      1  C   UNL     1      14.028  15.143  26.517  1.00  0.00     0.036 C 
ENDROOT
BRANCH   1   2
ATOM      2  C   UNL     1      12.540  15.558  26.605  1.00  0.00     0.114 C 
BRANCH   2   3
ATOM      3  C   UNL     1      12.354  17.092  26.677  1.00  0.00     0.031 C 
BRANCH   3   4
ATOM      4  C   UNL     1      11.710  17.734  25.433  1.00  0.00    -0.001 C 
ATOM      5  C   UNL     1      12.000  16.971  24.142  1.00  0.00     0.004 C 
ENDBRANCH   3   4
ENDBRANCH   2   3
BRANCH   2   6
ATOM      6  O   UNL     1      11.924  14.960  27.719  1.00  0.00    -0.393 OA
ATOM      7  H   UNL     1      11.310  15.629  28.118  1.00  0.00     0.210 HD
ENDBRANCH   2   6
ENDBRANCH   1   2
BRANCH   1   8
ATOM      8  C   UNL     1      14.942  15.991  27.418  1.00  0.00     0.029 C 
BRANCH   8   9
ATOM      9  C   UNL     1      15.545  15.191  28.542  1.00  0.00    -0.035 C 
ATOM     10  C   UNL     1      14.828  14.816  29.605  1.00  0.00     0.004 C 
ENDBRANCH   8   9
ENDBRANCH   1   8
TORSDOF 6
ENDMDL
MODEL 6
REMARK VINA RESULT:    -4.296      1.854      4.738
REMARK INTER + INTRA:          -5.977
REMARK INTER:                  -5.688
REMARK INTRA:                  -0.289
REMARK UNBOUND:                -0.299
REMARK SMILES C=CCC[C@@H](O)CCC
REMARK SMILES IDX 4 1 5 2 7 3 8 4 9 5 6 6 3 8 2 9 1 10
REMARK H PARENT 6 7
REMARK Flexibility Score: inf
ROOT
ATOM      1  C   UNL     1      13.093  15.865  27.424  1.00  0.00     0.036 C 
ENDROOT
BRANCH   1   2
ATOM      2  C   UNL     1      14.172  15.879  26.314  1.00  0.00     0.114 C 
BRANCH   2   3
ATOM      3  C   UNL     1      14.124  17.164  25.455  1.00  0.00     0.031 C 
BRANCH   3   4
ATOM      4  C   UNL     1      12.711  17.709  25.168  1.00  0.00    -0.001 C 
ATOM      5  C   UNL     1      12.125  17.202  23.852  1.00  0.00     0.004 C 
ENDBRANCH   3   4
ENDBRANCH   2   3
BRANCH   2   6
ATOM      6  O   UNL     1      14.040  14.754  25.481  1.00  0.00    -0.393 OA
ATOM      7  H   UNL     1      13.074  14.640  25.281  1.00  0.00     0.210 HD
ENDBRANCH   2   6
ENDBRANCH   1   2
BRANCH   1   8
ATOM      8  C   UNL     1      13.679  16.047  28.833  1.00  0.00     0.029 C 
BRANCH   8   9
ATOM      9  C   UNL     1      14.817  15.101  29.110  1.00  0.00    -0.035 C 
ATOM     10  C   UNL     1      14.868  14.364  30.223  1.00  0.00     0.004 C 
ENDBRANCH   8   9
ENDBRANCH   1   8
TORSDOF 6
ENDMDL
MODEL 7
REMARK VINA RESULT:    -4.251      1.393      1.855
REMARK INTER + INTRA:          -5.917
REMARK INTER:                  -5.792
REMARK INTRA:                  -0.125
REMARK UNBOUND:                -0.299
REMARK SMILES C=CCC[C@@H](O)CCC
REMARK SMILES IDX 4 1 5 2 7 3 8 4 9 5 6 6 3 8 2 9 1 10
REMARK H PARENT 6 7
REMARK Flexibility Score: inf
ROOT
ATOM      1  C   UNL     1      14.385  16.846  28.113  1.00  0.00     0.036 C 
ENDROOT
BRANCH   1   2
ATOM      2  C   UNL     1      13.767  15.768  29.036  1.00  0.00     0.114 C 
BRANCH   2   3
ATOM      3  C   UNL     1      14.812  14.745  29.538  1.00  0.00     0.031 C 
BRANCH   3   4
ATOM      4  C   UNL     1      14.606  14.252  30.983  1.00  0.00    -0.001 C 
ATOM      5  C   UNL     1      15.430  13.010  31.320  1.00  0.00     0.004 C 
ENDBRANCH   3   4
ENDBRANCH   2   3
BRANCH   2   6
ATOM      6  O   UNL     1      12.727  15.090  28.375  1.00  0.00    -0.393 OA
ATOM      7  H   UNL     1      13.136  14.360  27.841  1.00  0.00     0.210 HD
ENDBRANCH   2   6
ENDBRANCH   1   2
BRANCH   1   8
ATOM      8  C   UNL     1      13.328  17.650  27.337  1.00  0.00     0.029 C 
BRANCH   8   9
ATOM      9  C   UNL     1      13.393  17.402  25.853  1.00  0.00    -0.035 C 
ATOM     10  C   UNL     1      14.556  17.337  25.199  1.00  0.00     0.004 C 
ENDBRANCH   8   9
ENDBRANCH   1   8
TORSDOF 6
ENDMDL
MODEL 8
REMARK VINA RESULT:    -3.901      2.233      4.427
REMARK INTER + INTRA:          -5.454
REMARK INTER:                  -4.887
REMARK INTRA:                  -0.567
REMARK UNBOUND:                -0.299
REMARK SMILES C=CCC[C@@H](O)CCC
REMARK SMILES IDX 4 1 5 2 7 3 8 4 9 5 6 6 3 8 2 9 1 10
REMARK H PARENT 6 7
REMARK Flexibility Score: inf
ROOT
ATOM      1  C   UNL     1      14.840  16.500  26.270  1.00  0.00     0.036 C 
ENDROOT
BRANCH   1   2
ATOM      2  C   UNL     1      14.078  17.415  25.280  1.00  0.00     0.114 C 
BRANCH   2   3
ATOM      3  C   UNL     1      12.919  16.683  24.566  1.00  0.00     0.031 C 
BRANCH   3   4
ATOM      4  C   UNL     1      11.526  17.311  24.763  1.00  0.00    -0.001 C 
ATOM      5  C   UNL     1      11.272  17.777  26.195  1.00  0.00     0.004 C 
ENDBRANCH   3   4
ENDBRANCH   2   3
BRANCH   2   6
ATOM      6  O   UNL     1      14.959  17.946  24.321  1.00  0.00    -0.393 OA
ATOM      7  H   UNL     1      15.687  18.414  24.807  1.00  0.00     0.210 HD
ENDBRANCH   2   6
ENDBRANCH   1   2
BRANCH   1   8
ATOM      8  C   UNL     1      14.014  15.283  26.718  1.00  0.00     0.029 C 
BRANCH   8   9
ATOM      9  C   UNL     1      13.412  15.468  28.086  1.00  0.00    -0.035 C 
ATOM     10  C   UNL     1      13.675  16.546  28.832  1.00  0.00     0.004 C 
ENDBRANCH   8   9
ENDBRANCH   1   8
TORSDOF 6
ENDMDL
MODEL 9
REMARK VINA RESULT:    -3.558      2.184      3.152
REMARK INTER + INTRA:          -5.002
REMARK INTER:                  -4.824
REMARK INTRA:                  -0.177
REMARK UNBOUND:                -0.299
REMARK SMILES C=CCC[C@@H](O)CCC
REMARK SMILES IDX 4 1 5 2 7 3 8 4 9 5 6 6 3 8 2 9 1 10
REMARK H PARENT 6 7
REMARK Flexibility Score: inf
ROOT
ATOM      1  C   UNL     1      12.874  16.764  24.764  1.00  0.00     0.036 C 
ENDROOT
BRANCH   1   2
ATOM      2  C   UNL     1      13.793  15.757  25.498  1.00  0.00     0.114 C 
BRANCH   2   3
ATOM      3  C   UNL     1      13.310  15.449  26.934  1.00  0.00     0.031 C 
BRANCH   3   4
ATOM      4  C   UNL     1      14.233  15.955  28.059  1.00  0.00    -0.001 C 
ATOM      5  C   UNL     1      13.989  17.416  28.429  1.00  0.00     0.004 C 
ENDBRANCH   3   4
ENDBRANCH   2   3
BRANCH   2   6
ATOM      6  O   UNL     1      15.115  16.236  25.541  1.00  0.00    -0.393 OA
ATOM      7  H   UNL     1      15.282  16.572  26.459  1.00  0.00     0.210 HD
ENDBRANCH   2   6
ENDBRANCH   1   2
BRANCH   1   8
ATOM      8  C   UNL     1      13.656  17.870  24.037  1.00  0.00     0.029 C 
BRANCH   8   9
ATOM      9  C   UNL     1      13.134  18.125  22.648  1.00  0.00    -0.035 C 
ATOM     10  C   UNL     1      11.899  17.767  22.281  1.00  0.00     0.004 C 
ENDBRANCH   8   9
ENDBRANCH   1   8
TORSDOF 6
ENDMDL
