MODEL 1
REMARK VINA RESULT:     7.381      0.000      0.000
REMARK INTER + INTRA:          16.533
REMARK INTER:                  11.696
REMARK INTRA:                   4.837
REMARK UNBOUND:                 4.837
REMARK SMILES C[C@@H]1O[C@@H](O[C@@H]2CC[C@]3(C)[C@H](CC[C@@]4(C)[C@@H]3C=C[C@]35OC[C@@]6(CCC(C)(C)C[C@@H]63)[C@H](O)C[C@]45C)[C@]2(C)CO)[C@H](O)[C@H](O[C@H]2O[C@@H](CO)[C@@H](O)[C@@H](O)[C@H]2O)[C@H]1O
REMARK SMILES IDX 1 1 2 2 54 3 41 4 39 5 4 6 3 7 55 8 42 10 43 11 52 12 44 13
REMARK SMILES IDX 50 14 45 15 48 16 53 17 51 19 46 21 47 22 49 24 5 26 6 27
REMARK SMILES IDX 7 28 35 29 8 30 11 31 36 32 9 33 12 34 10 35 16 36 13 37
REMARK SMILES IDX 14 38 17 39 15 40 33 41 18 42 19 43 32 44 34 45 29 46 20 47
REMARK SMILES IDX 30 48 22 49 28 50 21 51 23 52 25 53 24 54 26 55 27 56 37 57
REMARK SMILES IDX 38 58 31 60 40 62
REMARK H PARENT 55 9 53 18 51 20 47 23 49 25 38 59 31 61 40 63
REMARK Flexibility Score: inf
ROOT
ATOM      1  C   UNL     1      -7.743   5.045  14.660  1.00  0.00     0.041 C 
ATOM      2  C   UNL     1      -9.039   5.711  15.129  1.00  0.00     0.150 C 
ATOM      3  C   UNL     1      -8.984   5.969  16.665  1.00  0.00     0.175 C 
ATOM      4  C   UNL     1     -10.234   6.729  17.180  1.00  0.00     0.186 C 
ATOM      5  C   UNL     1     -10.876   7.568  16.046  1.00  0.00     0.202 C 
ATOM      6  C   UNL     1      -9.800   7.977  15.015  1.00  0.00     0.282 C 
ATOM      7  O   UNL     1      -9.228   6.880  14.331  1.00  0.00    -0.344 OA
ENDROOT
BRANCH   3   8
ATOM      8  O   UNL     1      -8.818   4.762  17.375  1.00  0.00    -0.388 OA
ATOM      9  H   UNL     1      -9.517   4.721  18.081  1.00  0.00     0.211 HD
ENDBRANCH   3   8
BRANCH   4  10
ATOM     10  O   UNL     1      -9.825   7.570  18.256  1.00  0.00    -0.341 OA
BRANCH  10  11
ATOM     11  C   UNL     1      -9.725   8.935  17.866  1.00  0.00     0.282 C 
ATOM     12  C   UNL     1      -8.258   9.334  17.600  1.00  0.00     0.202 C 
ATOM     13  O   UNL     1     -10.396   9.785  18.793  1.00  0.00    -0.341 OA
ATOM     14  C   UNL     1      -7.447   9.592  18.885  1.00  0.00     0.179 C 
ATOM     15  C   UNL     1      -9.693  10.046  20.010  1.00  0.00     0.178 C 
ATOM     16  C   UNL     1      -8.236  10.526  19.801  1.00  0.00     0.177 C 
BRANCH  12  17
ATOM     17  O   UNL     1      -7.621   8.415  16.741  1.00  0.00    -0.385 OA
ATOM     18  H   UNL     1      -8.025   8.483  15.844  1.00  0.00     0.211 HD
ENDBRANCH  12  17
BRANCH  14  19
ATOM     19  O   UNL     1      -7.044   8.424  19.565  1.00  0.00    -0.387 OA
ATOM     20  H   UNL     1      -7.536   7.654  19.192  1.00  0.00     0.211 HD
ENDBRANCH  14  19
BRANCH  15  21
ATOM     21  C   UNL     1      -9.890   8.925  21.058  1.00  0.00     0.191 C 
BRANCH  21  22
ATOM     22  O   UNL     1      -9.721   9.429  22.363  1.00  0.00    -0.394 OA
ATOM     23  H   UNL     1     -10.000  10.381  22.348  1.00  0.00     0.210 HD
ENDBRANCH  21  22
ENDBRANCH  15  21
BRANCH  16  24
ATOM     24  O   UNL     1      -7.579  10.702  21.034  1.00  0.00    -0.387 OA
ATOM     25  H   UNL     1      -6.759  11.236  20.845  1.00  0.00     0.211 HD
ENDBRANCH  16  24
ENDBRANCH  10  11
ENDBRANCH   4  10
BRANCH   6  26
ATOM     26  O   UNL     1     -10.219   8.986  14.106  1.00  0.00    -0.346 OA
BRANCH  26  27
ATOM     27  C   UNL     1     -10.712   8.558  12.836  1.00  0.00     0.130 C 
ATOM     28  C   UNL     1      -9.971   7.308  12.309  1.00  0.00     0.033 C 
ATOM     29  C   UNL     1     -10.572   9.741  11.796  1.00  0.00     0.020 C 
ATOM     30  C   UNL     1      -8.444   7.496  12.242  1.00  0.00     0.010 C 
ATOM     31  C   UNL     1      -9.178   9.680  11.021  1.00  0.00     0.006 C 
ATOM     32  C   UNL     1     -11.710   9.578  10.745  1.00  0.00     0.017 C 
ATOM     33  C   UNL     1      -7.981   8.924  11.738  1.00  0.00    -0.022 C 
ATOM     34  C   UNL     1      -8.710  11.004  10.355  1.00  0.00     0.005 C 
ATOM     35  C   UNL     1      -7.457   9.678  13.004  1.00  0.00     0.012 C 
ATOM     36  C   UNL     1      -6.806   8.751  10.686  1.00  0.00     0.024 C 
ATOM     37  C   UNL     1      -7.496  10.812   9.393  1.00  0.00     0.008 C 
ATOM     38  C   UNL     1      -6.253  10.094  10.038  1.00  0.00    -0.017 C 
ATOM     39  C   UNL     1      -7.286   7.860   9.533  1.00  0.00    -0.024 C 
ATOM     40  C   UNL     1      -5.660  11.121  11.072  1.00  0.00     0.013 C 
ATOM     41  C   UNL     1      -5.057   9.727   8.958  1.00  0.00     0.009 C 
ATOM     42  C   UNL     1      -6.618   7.783   8.388  1.00  0.00     0.005 C 
ATOM     43  C   UNL     1      -5.207   8.260   8.315  1.00  0.00     0.096 C 
ATOM     44  C   UNL     1      -3.621   9.799   9.636  1.00  0.00     0.043 C 
ATOM     45  C   UNL     1      -5.039  10.801   7.822  1.00  0.00     0.015 C 
ATOM     46  C   UNL     1      -4.273   7.212   8.990  1.00  0.00     0.037 C 
ATOM     47  O   UNL     1      -4.817   8.288   6.948  1.00  0.00    -0.369 OA
ATOM     48  C   UNL     1      -2.488   9.017   8.919  1.00  0.00     0.124 C 
ATOM     49  C   UNL     1      -2.972   7.626   8.326  1.00  0.00     0.026 C 
ATOM     50  C   UNL     1      -4.686   5.736   8.698  1.00  0.00     0.014 C 
ATOM     51  C   UNL     1      -3.473   7.854   6.886  1.00  0.00     0.171 C 
ATOM     52  C   UNL     1      -1.848   6.539   8.399  1.00  0.00     0.013 C 
ATOM     53  C   UNL     1      -3.566   4.714   8.984  1.00  0.00    -0.035 C 
ATOM     54  C   UNL     1      -2.317   5.097   8.152  1.00  0.00     0.007 C 
ATOM     55  C   UNL     1      -4.059   3.316   8.545  1.00  0.00     0.011 C 
ATOM     56  C   UNL     1      -3.243   4.663  10.498  1.00  0.00     0.011 C 
BRANCH  29  57
ATOM     57  C   UNL     1     -10.847  11.116  12.481  1.00  0.00     0.165 C 
BRANCH  57  58
ATOM     58  O   UNL     1     -11.747  11.013  13.554  1.00  0.00    -0.396 OA
ATOM     59  H   UNL     1     -11.961  10.048  13.640  1.00  0.00     0.210 HD
ENDBRANCH  57  58
ENDBRANCH  29  57
BRANCH  48  60
ATOM     60  O   UNL     1      -1.438   8.832   9.842  1.00  0.00    -0.392 OA
ATOM     61  H   UNL     1      -1.482   9.584  10.491  1.00  0.00     0.210 HD
ENDBRANCH  48  60
ENDBRANCH  26  27
ENDBRANCH   6  26
BRANCH   5  62
ATOM     62  O   UNL     1     -11.485   8.716  16.575  1.00  0.00    -0.385 OA
ATOM     63  H   UNL     1     -11.048   9.508  16.167  1.00  0.00     0.211 HD
ENDBRANCH   5  62
TORSDOF 14
ENDMDL
MODEL 2
REMARK VINA RESULT:     7.437      1.372      1.740
REMARK INTER + INTRA:          16.622
REMARK INTER:                   6.189
REMARK INTRA:                  10.433
REMARK UNBOUND:                 4.837
REMARK SMILES C[C@@H]1O[C@@H](O[C@@H]2CC[C@]3(C)[C@H](CC[C@@]4(C)[C@@H]3C=C[C@]35OC[C@@]6(CCC(C)(C)C[C@@H]63)[C@H](O)C[C@]45C)[C@]2(C)CO)[C@H](O)[C@H](O[C@H]2O[C@@H](CO)[C@@H](O)[C@@H](O)[C@H]2O)[C@H]1O
REMARK SMILES IDX 1 1 2 2 54 3 41 4 39 5 4 6 3 7 55 8 42 10 43 11 52 12 44 13
REMARK SMILES IDX 50 14 45 15 48 16 53 17 51 19 46 21 47 22 49 24 5 26 6 27
REMARK SMILES IDX 7 28 35 29 8 30 11 31 36 32 9 33 12 34 10 35 16 36 13 37
REMARK SMILES IDX 14 38 17 39 15 40 33 41 18 42 19 43 32 44 34 45 29 46 20 47
REMARK SMILES IDX 30 48 22 49 28 50 21 51 23 52 25 53 24 54 26 55 27 56 37 57
REMARK SMILES IDX 38 58 31 60 40 62
REMARK H PARENT 55 9 53 18 51 20 47 23 49 25 38 59 31 61 40 63
REMARK Flexibility Score: inf
ROOT
ATOM      1  C   UNL     1      -8.238   4.831  12.127  1.00  0.00     0.041 C 
ATOM      2  C   UNL     1      -9.177   5.489  13.142  1.00  0.00     0.150 C 
ATOM      3  C   UNL     1      -8.349   6.192  14.260  1.00  0.00     0.175 C 
ATOM      4  C   UNL     1      -9.249   6.956  15.266  1.00  0.00     0.186 C 
ATOM      5  C   UNL     1     -10.591   7.363  14.607  1.00  0.00     0.202 C 
ATOM      6  C   UNL     1     -10.402   7.543  13.085  1.00  0.00     0.282 C 
ATOM      7  O   UNL     1     -10.054   6.348  12.414  1.00  0.00    -0.344 OA
ENDROOT
BRANCH   3   8
ATOM      8  O   UNL     1      -7.530   5.268  14.940  1.00  0.00    -0.388 OA
ATOM      9  H   UNL     1      -8.059   4.876  15.684  1.00  0.00     0.211 HD
ENDBRANCH   3   8
BRANCH   4  10
ATOM     10  O   UNL     1      -8.536   8.110  15.705  1.00  0.00    -0.341 OA
BRANCH  10  11
ATOM     11  C   UNL     1      -9.404   9.190  16.030  1.00  0.00     0.282 C 
ATOM     12  C   UNL     1      -8.692  10.549  15.860  1.00  0.00     0.202 C 
ATOM     13  O   UNL     1      -9.997   9.004  17.313  1.00  0.00    -0.341 OA
ATOM     14  C   UNL     1      -7.744  10.897  17.024  1.00  0.00     0.179 C 
ATOM     15  C   UNL     1      -9.155   9.301  18.429  1.00  0.00     0.178 C 
ATOM     16  C   UNL     1      -8.474  10.689  18.349  1.00  0.00     0.177 C 
BRANCH  12  17
ATOM     17  O   UNL     1      -8.057  10.645  14.605  1.00  0.00    -0.385 OA
ATOM     18  H   UNL     1      -7.844   9.738  14.283  1.00  0.00     0.211 HD
ENDBRANCH  12  17
BRANCH  14  19
ATOM     19  O   UNL     1      -6.513  10.209  17.000  1.00  0.00    -0.387 OA
ATOM     20  H   UNL     1      -6.083  10.358  16.123  1.00  0.00     0.211 HD
ENDBRANCH  14  19
BRANCH  15  21
ATOM     21  C   UNL     1      -8.231   8.117  18.802  1.00  0.00     0.191 C 
BRANCH  21  22
ATOM     22  O   UNL     1      -8.931   6.895  18.721  1.00  0.00    -0.394 OA
ATOM     23  H   UNL     1      -9.436   6.790  19.569  1.00  0.00     0.210 HD
ENDBRANCH  21  22
ENDBRANCH  15  21
BRANCH  16  24
ATOM     24  O   UNL     1      -7.609  10.892  19.442  1.00  0.00    -0.387 OA
ATOM     25  H   UNL     1      -6.917  10.177  19.394  1.00  0.00     0.211 HD
ENDBRANCH  16  24
ENDBRANCH  10  11
ENDBRANCH   4  10
BRANCH   6  26
ATOM     26  O   UNL     1     -11.485   8.198  12.437  1.00  0.00    -0.346 OA
BRANCH  26  27
ATOM     27  C   UNL     1     -11.623   7.997  11.030  1.00  0.00     0.130 C 
ATOM     28  C   UNL     1     -10.712   6.863  10.506  1.00  0.00     0.033 C 
ATOM     29  C   UNL     1     -11.290   9.345  10.275  1.00  0.00     0.020 C 
ATOM     30  C   UNL     1      -9.227   7.070  10.862  1.00  0.00     0.010 C 
ATOM     31  C   UNL     1      -9.745   9.431   9.880  1.00  0.00     0.006 C 
ATOM     32  C   UNL     1     -12.121   9.361   8.957  1.00  0.00     0.017 C 
ATOM     33  C   UNL     1      -8.728   8.568  10.740  1.00  0.00    -0.022 C 
ATOM     34  C   UNL     1      -9.195  10.855   9.587  1.00  0.00     0.005 C 
ATOM     35  C   UNL     1      -8.575   9.091  12.206  1.00  0.00     0.012 C 
ATOM     36  C   UNL     1      -7.320   8.592  10.008  1.00  0.00     0.024 C 
ATOM     37  C   UNL     1      -7.772  10.843   8.948  1.00  0.00     0.008 C 
ATOM     38  C   UNL     1      -6.693  10.031   9.757  1.00  0.00    -0.017 C 
ATOM     39  C   UNL     1      -7.452   7.914   8.637  1.00  0.00    -0.024 C 
ATOM     40  C   UNL     1      -6.430  10.865  11.065  1.00  0.00     0.013 C 
ATOM     41  C   UNL     1      -5.248   9.868   8.971  1.00  0.00     0.009 C 
ATOM     42  C   UNL     1      -6.517   8.044   7.704  1.00  0.00     0.005 C 
ATOM     43  C   UNL     1      -5.159   8.536   8.073  1.00  0.00     0.096 C 
ATOM     44  C   UNL     1      -4.032   9.830   9.993  1.00  0.00     0.043 C 
ATOM     45  C   UNL     1      -5.003  11.125   8.074  1.00  0.00     0.015 C 
ATOM     46  C   UNL     1      -4.369   7.393   8.777  1.00  0.00     0.037 C 
ATOM     47  O   UNL     1      -4.443   8.807   6.875  1.00  0.00    -0.369 OA
ATOM     48  C   UNL     1      -2.718   9.194   9.466  1.00  0.00     0.124 C 
ATOM     49  C   UNL     1      -2.967   7.925   8.545  1.00  0.00     0.026 C 
ATOM     50  C   UNL     1      -4.620   5.987   8.145  1.00  0.00     0.014 C 
ATOM     51  C   UNL     1      -3.105   8.400   7.085  1.00  0.00     0.171 C 
ATOM     52  C   UNL     1      -1.843   6.851   8.717  1.00  0.00     0.013 C 
ATOM     53  C   UNL     1      -3.556   4.939   8.531  1.00  0.00    -0.035 C 
ATOM     54  C   UNL     1      -2.160   5.471   8.120  1.00  0.00     0.007 C 
ATOM     55  C   UNL     1      -3.852   3.637   7.752  1.00  0.00     0.011 C 
ATOM     56  C   UNL     1      -3.618   4.625  10.046  1.00  0.00     0.011 C 
BRANCH  29  57
ATOM     57  C   UNL     1     -11.797  10.576  11.088  1.00  0.00     0.165 C 
BRANCH  57  58
ATOM     58  O   UNL     1     -11.273  10.614  12.390  1.00  0.00    -0.396 OA
ATOM     59  H   UNL     1     -10.659  11.393  12.416  1.00  0.00     0.210 HD
ENDBRANCH  57  58
ENDBRANCH  29  57
BRANCH  48  60
ATOM     60  O   UNL     1      -1.923   8.857  10.581  1.00  0.00    -0.392 OA
ATOM     61  H   UNL     1      -1.155   8.323  10.245  1.00  0.00     0.210 HD
ENDBRANCH  48  60
ENDBRANCH  26  27
ENDBRANCH   6  26
BRANCH   5  62
ATOM     62  O   UNL     1     -11.068   8.557  15.170  1.00  0.00    -0.385 OA
ATOM     63  H   UNL     1     -10.647   9.312  14.682  1.00  0.00     0.211 HD
ENDBRANCH   5  62
TORSDOF 14
ENDMDL
