MODEL 1
REMARK VINA RESULT:    -3.115      0.000      0.000
REMARK INTER + INTRA:          -3.639
REMARK INTER:                  -3.388
REMARK INTRA:                  -0.251
REMARK UNBOUND:                -0.251
REMARK SMILES O=C([O-])c1ccccc1O
REMARK SMILES IDX 4 1 9 2 5 3 8 4 6 5 7 6 2 7 1 8 3 9 10 10
REMARK H PARENT 10 11
REMARK Flexibility Score: inf
ROOT
ATOM      1  C   UNL     1       4.019  23.286   6.360  1.00  0.00     0.039 A 
ATOM      2  C   UNL     1       4.289  23.990   5.157  1.00  0.00     0.124 A 
ATOM      3  C   UNL     1       4.949  23.356   7.413  1.00  0.00     0.014 A 
ATOM      4  C   UNL     1       5.499  24.683   5.019  1.00  0.00     0.047 A 
ATOM      5  C   UNL     1       6.140  24.070   7.267  1.00  0.00     0.001 A 
ATOM      6  C   UNL     1       6.420  24.724   6.067  1.00  0.00     0.004 A 
ENDROOT
BRANCH   1   7
ATOM      7  C   UNL     1       2.810  22.451   6.546  1.00  0.00     0.075 C 
ATOM      8  O   UNL     1       2.884  21.321   7.096  1.00  0.00    -0.545 OA
ATOM      9  O   UNL     1       1.564  22.939   6.174  1.00  0.00    -0.545 OA
ENDBRANCH   1   7
BRANCH   2  10
ATOM     10  O   UNL     1       3.381  24.054   4.099  1.00  0.00    -0.507 OA
ATOM     11  H   UNL     1       3.597  23.755   3.158  1.00  0.00     0.293 HD
ENDBRANCH   2  10
TORSDOF 2
ENDMDL
MODEL 2
REMARK VINA RESULT:    -3.027      1.017      2.230
REMARK INTER + INTRA:          -3.543
REMARK INTER:                  -3.298
REMARK INTRA:                  -0.245
REMARK UNBOUND:                -0.251
REMARK SMILES O=C([O-])c1ccccc1O
REMARK SMILES IDX 4 1 9 2 5 3 8 4 6 5 7 6 2 7 1 8 3 9 10 10
REMARK H PARENT 10 11
REMARK Flexibility Score: inf
ROOT
ATOM      1  C   UNL     1       4.229  23.209   6.421  1.00  0.00     0.039 A 
ATOM      2  C   UNL     1       5.293  23.284   7.357  1.00  0.00     0.124 A 
ATOM      3  C   UNL     1       4.342  23.906   5.205  1.00  0.00     0.014 A 
ATOM      4  C   UNL     1       6.401  24.096   7.081  1.00  0.00     0.047 A 
ATOM      5  C   UNL     1       5.463  24.694   4.936  1.00  0.00     0.001 A 
ATOM      6  C   UNL     1       6.487  24.797   5.877  1.00  0.00     0.004 A 
ENDROOT
BRANCH   1   7
ATOM      7  C   UNL     1       2.983  22.453   6.682  1.00  0.00     0.075 C 
ATOM      8  O   UNL     1       3.023  21.254   7.067  1.00  0.00    -0.545 OA
ATOM      9  O   UNL     1       1.750  23.083   6.570  1.00  0.00    -0.545 OA
ENDBRANCH   1   7
BRANCH   2  10
ATOM     10  O   UNL     1       5.308  22.550   8.545  1.00  0.00    -0.507 OA
ATOM     11  H   UNL     1       6.101  22.517   9.171  1.00  0.00     0.293 HD
ENDBRANCH   2  10
TORSDOF 2
ENDMDL
MODEL 3
REMARK VINA RESULT:    -2.984     24.084     24.558
REMARK INTER + INTRA:          -3.497
REMARK INTER:                  -3.258
REMARK INTRA:                  -0.238
REMARK UNBOUND:                -0.251
REMARK SMILES O=C([O-])c1ccccc1O
REMARK SMILES IDX 4 1 9 2 5 3 8 4 6 5 7 6 2 7 1 8 3 9 10 10
REMARK H PARENT 10 11
REMARK Flexibility Score: inf
ROOT
ATOM      1  C   UNL     1     -10.907  40.129  16.577  1.00  0.00     0.039 A 
ATOM      2  C   UNL     1     -10.068  40.280  15.442  1.00  0.00     0.124 A 
ATOM      3  C   UNL     1     -10.319  40.065  17.854  1.00  0.00     0.014 A 
ATOM      4  C   UNL     1      -8.677  40.298  15.607  1.00  0.00     0.047 A 
ATOM      5  C   UNL     1      -8.931  40.106  18.003  1.00  0.00     0.001 A 
ATOM      6  C   UNL     1      -8.110  40.212  16.880  1.00  0.00     0.004 A 
ENDROOT
BRANCH   1   7
ATOM      7  C   UNL     1     -12.378  40.003  16.476  1.00  0.00     0.075 C 
ATOM      8  O   UNL     1     -13.125  40.363  17.425  1.00  0.00    -0.545 OA
ATOM      9  O   UNL     1     -12.958  39.546  15.299  1.00  0.00    -0.545 OA
ENDBRANCH   1   7
BRANCH   2  10
ATOM     10  O   UNL     1     -10.569  40.448  14.150  1.00  0.00    -0.507 OA
ATOM     11  H   UNL     1     -10.747  41.351  13.732  1.00  0.00     0.293 HD
ENDBRANCH   2  10
TORSDOF 2
ENDMDL
MODEL 4
REMARK VINA RESULT:    -2.973     23.613     24.124
REMARK INTER + INTRA:          -3.485
REMARK INTER:                  -3.235
REMARK INTRA:                  -0.250
REMARK UNBOUND:                -0.251
REMARK SMILES O=C([O-])c1ccccc1O
REMARK SMILES IDX 4 1 9 2 5 3 8 4 6 5 7 6 2 7 1 8 3 9 10 10
REMARK H PARENT 10 11
REMARK Flexibility Score: inf
ROOT
ATOM      1  C   UNL     1      -9.111  40.023  17.280  1.00  0.00     0.039 A 
ATOM      2  C   UNL     1      -9.039  39.377  18.542  1.00  0.00     0.124 A 
ATOM      3  C   UNL     1      -7.969  40.678  16.784  1.00  0.00     0.014 A 
ATOM      4  C   UNL     1      -7.859  39.458  19.293  1.00  0.00     0.047 A 
ATOM      5  C   UNL     1      -6.794  40.731  17.537  1.00  0.00     0.001 A 
ATOM      6  C   UNL     1      -6.742  40.130  18.795  1.00  0.00     0.004 A 
ENDROOT
BRANCH   1   7
ATOM      7  C   UNL     1     -10.351  40.067  16.472  1.00  0.00     0.075 C 
ATOM      8  O   UNL     1     -10.304  40.025  15.214  1.00  0.00    -0.545 OA
ATOM      9  O   UNL     1     -11.590  40.087  17.099  1.00  0.00    -0.545 OA
ENDBRANCH   1   7
BRANCH   2  10
ATOM     10  O   UNL     1     -10.091  38.625  19.067  1.00  0.00    -0.507 OA
ATOM     11  H   UNL     1     -10.867  38.287  18.514  1.00  0.00     0.293 HD
ENDBRANCH   2  10
TORSDOF 2
ENDMDL
MODEL 5
REMARK VINA RESULT:    -2.951      0.946      1.551
REMARK INTER + INTRA:          -3.460
REMARK INTER:                  -3.212
REMARK INTRA:                  -0.248
REMARK UNBOUND:                -0.251
REMARK SMILES O=C([O-])c1ccccc1O
REMARK SMILES IDX 4 1 9 2 5 3 8 4 6 5 7 6 2 7 1 8 3 9 10 10
REMARK H PARENT 10 11
REMARK Flexibility Score: inf
ROOT
ATOM      1  C   UNL     1       4.807  23.781   6.039  1.00  0.00     0.039 A 
ATOM      2  C   UNL     1       4.652  24.262   4.713  1.00  0.00     0.124 A 
ATOM      3  C   UNL     1       6.025  24.005   6.707  1.00  0.00     0.014 A 
ATOM      4  C   UNL     1       5.731  24.890   4.075  1.00  0.00     0.047 A 
ATOM      5  C   UNL     1       7.082  24.652   6.064  1.00  0.00     0.001 A 
ATOM      6  C   UNL     1       6.939  25.084   4.746  1.00  0.00     0.004 A 
ENDROOT
BRANCH   1   7
ATOM      7  C   UNL     1       3.750  23.022   6.745  1.00  0.00     0.075 C 
ATOM      8  O   UNL     1       2.557  23.425   6.749  1.00  0.00    -0.545 OA
ATOM      9  O   UNL     1       4.053  21.812   7.358  1.00  0.00    -0.545 OA
ENDBRANCH   1   7
BRANCH   2  10
ATOM     10  O   UNL     1       3.449  24.169   4.011  1.00  0.00    -0.507 OA
ATOM     11  H   UNL     1       3.168  23.349   3.490  1.00  0.00     0.293 HD
ENDBRANCH   2  10
TORSDOF 2
ENDMDL
MODEL 6
REMARK VINA RESULT:    -2.944      1.701      2.576
REMARK INTER + INTRA:          -3.453
REMARK INTER:                  -3.201
REMARK INTRA:                  -0.251
REMARK UNBOUND:                -0.251
REMARK SMILES O=C([O-])c1ccccc1O
REMARK SMILES IDX 4 1 9 2 5 3 8 4 6 5 7 6 2 7 1 8 3 9 10 10
REMARK H PARENT 10 11
REMARK Flexibility Score: inf
ROOT
ATOM      1  C   UNL     1       4.515  24.002   4.918  1.00  0.00     0.039 A 
ATOM      2  C   UNL     1       5.740  24.716   4.863  1.00  0.00     0.124 A 
ATOM      3  C   UNL     1       4.121  23.419   6.136  1.00  0.00     0.014 A 
ATOM      4  C   UNL     1       6.559  24.773   5.999  1.00  0.00     0.047 A 
ATOM      5  C   UNL     1       4.939  23.503   7.264  1.00  0.00     0.001 A 
ATOM      6  C   UNL     1       6.162  24.170   7.193  1.00  0.00     0.004 A 
ENDROOT
BRANCH   1   7
ATOM      7  C   UNL     1       3.643  23.814   3.737  1.00  0.00     0.075 C 
ATOM      8  O   UNL     1       3.023  22.732   3.556  1.00  0.00    -0.545 OA
ATOM      9  O   UNL     1       3.444  24.861   2.845  1.00  0.00    -0.545 OA
ENDBRANCH   1   7
BRANCH   2  10
ATOM     10  O   UNL     1       6.162  25.406   3.725  1.00  0.00    -0.507 OA
ATOM     11  H   UNL     1       6.718  24.987   2.991  1.00  0.00     0.293 HD
ENDBRANCH   2  10
TORSDOF 2
ENDMDL
MODEL 7
REMARK VINA RESULT:    -2.929      1.457      3.518
REMARK INTER + INTRA:          -3.437
REMARK INTER:                  -3.190
REMARK INTRA:                  -0.247
REMARK UNBOUND:                -0.251
REMARK SMILES O=C([O-])c1ccccc1O
REMARK SMILES IDX 4 1 9 2 5 3 8 4 6 5 7 6 2 7 1 8 3 9 10 10
REMARK H PARENT 10 11
REMARK Flexibility Score: inf
ROOT
ATOM      1  C   UNL     1       5.179  24.478   4.715  1.00  0.00     0.039 A 
ATOM      2  C   UNL     1       4.084  23.773   5.280  1.00  0.00     0.124 A 
ATOM      3  C   UNL     1       6.329  24.689   5.497  1.00  0.00     0.014 A 
ATOM      4  C   UNL     1       4.145  23.359   6.618  1.00  0.00     0.047 A 
ATOM      5  C   UNL     1       6.381  24.251   6.821  1.00  0.00     0.001 A 
ATOM      6  C   UNL     1       5.287  23.596   7.385  1.00  0.00     0.004 A 
ENDROOT
BRANCH   1   7
ATOM      7  C   UNL     1       5.153  25.032   3.342  1.00  0.00     0.075 C 
ATOM      8  O   UNL     1       4.075  25.429   2.826  1.00  0.00    -0.545 OA
ATOM      9  O   UNL     1       6.337  25.184   2.631  1.00  0.00    -0.545 OA
ENDBRANCH   1   7
BRANCH   2  10
ATOM     10  O   UNL     1       2.944  23.435   4.549  1.00  0.00    -0.507 OA
ATOM     11  H   UNL     1       2.403  22.597   4.712  1.00  0.00     0.293 HD
ENDBRANCH   2  10
TORSDOF 2
ENDMDL
MODEL 8
REMARK VINA RESULT:    -2.928      1.743      3.285
REMARK INTER + INTRA:          -3.435
REMARK INTER:                  -3.186
REMARK INTRA:                  -0.249
REMARK UNBOUND:                -0.251
REMARK SMILES O=C([O-])c1ccccc1O
REMARK SMILES IDX 4 1 9 2 5 3 8 4 6 5 7 6 2 7 1 8 3 9 10 10
REMARK H PARENT 10 11
REMARK Flexibility Score: inf
ROOT
ATOM      1  C   UNL     1       4.733  24.592   4.017  1.00  0.00     0.039 A 
ATOM      2  C   UNL     1       4.607  24.297   5.400  1.00  0.00     0.124 A 
ATOM      3  C   UNL     1       6.004  24.909   3.503  1.00  0.00     0.014 A 
ATOM      4  C   UNL     1       5.730  24.389   6.232  1.00  0.00     0.047 A 
ATOM      5  C   UNL     1       7.117  24.975   4.343  1.00  0.00     0.001 A 
ATOM      6  C   UNL     1       6.979  24.726   5.708  1.00  0.00     0.004 A 
ENDROOT
BRANCH   1   7
ATOM      7  C   UNL     1       3.578  24.613   3.092  1.00  0.00     0.075 C 
ATOM      8  O   UNL     1       2.710  23.701   3.121  1.00  0.00    -0.545 OA
ATOM      9  O   UNL     1       3.402  25.683   2.223  1.00  0.00    -0.545 OA
ENDBRANCH   1   7
BRANCH   2  10
ATOM     10  O   UNL     1       3.405  23.881   5.976  1.00  0.00    -0.507 OA
ATOM     11  H   UNL     1       2.964  22.994   5.771  1.00  0.00     0.293 HD
ENDBRANCH   2  10
TORSDOF 2
ENDMDL
MODEL 9
REMARK VINA RESULT:    -2.896      2.119      3.016
REMARK INTER + INTRA:          -3.400
REMARK INTER:                  -3.182
REMARK INTRA:                  -0.219
REMARK UNBOUND:                -0.251
REMARK SMILES O=C([O-])c1ccccc1O
REMARK SMILES IDX 4 1 9 2 5 3 8 4 6 5 7 6 2 7 1 8 3 9 10 10
REMARK H PARENT 10 11
REMARK Flexibility Score: inf
ROOT
ATOM      1  C   UNL     1       5.815  24.066   5.861  1.00  0.00     0.039 A 
ATOM      2  C   UNL     1       4.550  24.192   5.230  1.00  0.00     0.124 A 
ATOM      3  C   UNL     1       6.969  24.464   5.160  1.00  0.00     0.014 A 
ATOM      4  C   UNL     1       4.480  24.647   3.906  1.00  0.00     0.047 A 
ATOM      5  C   UNL     1       6.879  24.935   3.849  1.00  0.00     0.001 A 
ATOM      6  C   UNL     1       5.637  25.017   3.219  1.00  0.00     0.004 A 
ENDROOT
BRANCH   1   7
ATOM      7  C   UNL     1       5.981  23.502   7.220  1.00  0.00     0.075 C 
ATOM      8  O   UNL     1       7.055  23.660   7.859  1.00  0.00    -0.545 OA
ATOM      9  O   UNL     1       4.921  22.847   7.835  1.00  0.00    -0.545 OA
ENDBRANCH   1   7
BRANCH   2  10
ATOM     10  O   UNL     1       3.349  23.912   5.883  1.00  0.00    -0.507 OA
ATOM     11  H   UNL     1       3.102  22.995   6.230  1.00  0.00     0.293 HD
ENDBRANCH   2  10
TORSDOF 2
ENDMDL
