MODEL 1
REMARK VINA RESULT:    -5.148      0.000      0.000
REMARK INTER + INTRA:          -5.840
REMARK INTER:                  -5.600
REMARK INTRA:                  -0.240
REMARK UNBOUND:                -0.240
REMARK SMILES O=C([O-])c1ccccc1O
REMARK SMILES IDX 4 1 9 2 5 3 8 4 6 5 7 6 2 7 1 8 3 9 10 10
REMARK H PARENT 10 11
REMARK Flexibility Score: inf
ROOT
ATOM      1  C   UNL     1      -3.061 -22.773  49.199  1.00  0.00     0.039 A 
ATOM      2  C   UNL     1      -3.372 -23.916  49.981  1.00  0.00     0.124 A 
ATOM      3  C   UNL     1      -4.006 -22.311  48.264  1.00  0.00     0.014 A 
ATOM      4  C   UNL     1      -4.577 -24.596  49.765  1.00  0.00     0.047 A 
ATOM      5  C   UNL     1      -5.213 -22.989  48.075  1.00  0.00     0.001 A 
ATOM      6  C   UNL     1      -5.493 -24.135  48.817  1.00  0.00     0.004 A 
ENDROOT
BRANCH   1   7
ATOM      7  C   UNL     1      -1.768 -22.059  49.300  1.00  0.00     0.075 C 
ATOM      8  O   UNL     1      -1.303 -21.420  48.320  1.00  0.00    -0.545 OA
ATOM      9  O   UNL     1      -1.083 -22.029  50.510  1.00  0.00    -0.545 OA
ENDBRANCH   1   7
BRANCH   2  10
ATOM     10  O   UNL     1      -2.536 -24.386  50.996  1.00  0.00    -0.507 OA
ATOM     11  H   UNL     1      -1.739 -24.984  50.832  1.00  0.00     0.293 HD
ENDBRANCH   2  10
TORSDOF 2
ENDMDL
MODEL 2
REMARK VINA RESULT:    -5.145      1.505      1.721
REMARK INTER + INTRA:          -5.836
REMARK INTER:                  -5.587
REMARK INTRA:                  -0.249
REMARK UNBOUND:                -0.240
REMARK SMILES O=C([O-])c1ccccc1O
REMARK SMILES IDX 4 1 9 2 5 3 8 4 6 5 7 6 2 7 1 8 3 9 10 10
REMARK H PARENT 10 11
REMARK Flexibility Score: inf
ROOT
ATOM      1  C   UNL     1      -3.873 -22.523  50.174  1.00  0.00     0.039 A 
ATOM      2  C   UNL     1      -3.451 -23.878  50.189  1.00  0.00     0.124 A 
ATOM      3  C   UNL     1      -4.982 -22.166  49.385  1.00  0.00     0.014 A 
ATOM      4  C   UNL     1      -4.100 -24.816  49.376  1.00  0.00     0.047 A 
ATOM      5  C   UNL     1      -5.632 -23.118  48.595  1.00  0.00     0.001 A 
ATOM      6  C   UNL     1      -5.185 -24.438  48.583  1.00  0.00     0.004 A 
ENDROOT
BRANCH   1   7
ATOM      7  C   UNL     1      -3.178 -21.457  50.929  1.00  0.00     0.075 C 
ATOM      8  O   UNL     1      -1.928 -21.483  51.084  1.00  0.00    -0.545 OA
ATOM      9  O   UNL     1      -3.895 -20.371  51.419  1.00  0.00    -0.545 OA
ENDBRANCH   1   7
BRANCH   2  10
ATOM     10  O   UNL     1      -2.422 -24.337  51.015  1.00  0.00    -0.507 OA
ATOM     11  H   UNL     1      -1.582 -24.779  50.669  1.00  0.00     0.293 HD
ENDBRANCH   2  10
TORSDOF 2
ENDMDL
MODEL 3
REMARK VINA RESULT:    -5.016      1.110      2.356
REMARK INTER + INTRA:          -5.696
REMARK INTER:                  -5.466
REMARK INTRA:                  -0.230
REMARK UNBOUND:                -0.240
REMARK SMILES O=C([O-])c1ccccc1O
REMARK SMILES IDX 4 1 9 2 5 3 8 4 6 5 7 6 2 7 1 8 3 9 10 10
REMARK H PARENT 10 11
REMARK Flexibility Score: inf
ROOT
ATOM      1  C   UNL     1      -3.076 -23.149  49.805  1.00  0.00     0.039 A 
ATOM      2  C   UNL     1      -3.617 -21.977  49.214  1.00  0.00     0.124 A 
ATOM      3  C   UNL     1      -3.808 -24.347  49.731  1.00  0.00     0.014 A 
ATOM      4  C   UNL     1      -4.889 -22.020  48.629  1.00  0.00     0.047 A 
ATOM      5  C   UNL     1      -5.067 -24.379  49.125  1.00  0.00     0.001 A 
ATOM      6  C   UNL     1      -5.610 -23.215  48.584  1.00  0.00     0.004 A 
ENDROOT
BRANCH   1   7
ATOM      7  C   UNL     1      -1.784 -23.160  50.527  1.00  0.00     0.075 C 
ATOM      8  O   UNL     1      -1.270 -22.091  50.951  1.00  0.00    -0.545 OA
ATOM      9  O   UNL     1      -1.154 -24.368  50.807  1.00  0.00    -0.545 OA
ENDBRANCH   1   7
BRANCH   2  10
ATOM     10  O   UNL     1      -2.918 -20.770  49.157  1.00  0.00    -0.507 OA
ATOM     11  H   UNL     1      -2.155 -20.535  49.777  1.00  0.00     0.293 HD
ENDBRANCH   2  10
TORSDOF 2
ENDMDL
MODEL 4
REMARK VINA RESULT:    -4.894      2.389      2.827
REMARK INTER + INTRA:          -5.563
REMARK INTER:                  -5.311
REMARK INTRA:                  -0.252
REMARK UNBOUND:                -0.240
REMARK SMILES O=C([O-])c1ccccc1O
REMARK SMILES IDX 4 1 9 2 5 3 8 4 6 5 7 6 2 7 1 8 3 9 10 10
REMARK H PARENT 10 11
REMARK Flexibility Score: inf
ROOT
ATOM      1  C   UNL     1      -4.743 -21.726  49.628  1.00  0.00     0.039 A 
ATOM      2  C   UNL     1      -3.578 -22.278  50.221  1.00  0.00     0.124 A 
ATOM      3  C   UNL     1      -5.653 -22.587  48.988  1.00  0.00     0.014 A 
ATOM      4  C   UNL     1      -3.325 -23.651  50.103  1.00  0.00     0.047 A 
ATOM      5  C   UNL     1      -5.396 -23.957  48.897  1.00  0.00     0.001 A 
ATOM      6  C   UNL     1      -4.229 -24.486  49.444  1.00  0.00     0.004 A 
ENDROOT
BRANCH   1   7
ATOM      7  C   UNL     1      -5.031 -20.274  49.626  1.00  0.00     0.075 C 
ATOM      8  O   UNL     1      -5.537 -19.716  48.616  1.00  0.00    -0.545 OA
ATOM      9  O   UNL     1      -4.809 -19.519  50.772  1.00  0.00    -0.545 OA
ENDBRANCH   1   7
BRANCH   2  10
ATOM     10  O   UNL     1      -2.672 -21.513  50.957  1.00  0.00    -0.507 OA
ATOM     11  H   UNL     1      -2.321 -21.781  51.866  1.00  0.00     0.293 HD
ENDBRANCH   2  10
TORSDOF 2
ENDMDL
MODEL 5
REMARK VINA RESULT:    -4.831     13.017     13.667
REMARK INTER + INTRA:          -5.495
REMARK INTER:                  -5.254
REMARK INTRA:                  -0.241
REMARK UNBOUND:                -0.240
REMARK SMILES O=C([O-])c1ccccc1O
REMARK SMILES IDX 4 1 9 2 5 3 8 4 6 5 7 6 2 7 1 8 3 9 10 10
REMARK H PARENT 10 11
REMARK Flexibility Score: inf
ROOT
ATOM      1  C   UNL     1      -7.477 -10.764  52.807  1.00  0.00     0.039 A 
ATOM      2  C   UNL     1      -8.841 -10.665  52.429  1.00  0.00     0.124 A 
ATOM      3  C   UNL     1      -6.598 -11.503  51.993  1.00  0.00     0.014 A 
ATOM      4  C   UNL     1      -9.298 -11.351  51.297  1.00  0.00     0.047 A 
ATOM      5  C   UNL     1      -7.066 -12.165  50.855  1.00  0.00     0.001 A 
ATOM      6  C   UNL     1      -8.416 -12.097  50.513  1.00  0.00     0.004 A 
ENDROOT
BRANCH   1   7
ATOM      7  C   UNL     1      -6.939 -10.149  54.041  1.00  0.00     0.075 C 
ATOM      8  O   UNL     1      -7.686  -9.924  55.030  1.00  0.00    -0.545 OA
ATOM      9  O   UNL     1      -5.580  -9.876  54.146  1.00  0.00    -0.545 OA
ENDBRANCH   1   7
BRANCH   2  10
ATOM     10  O   UNL     1      -9.760  -9.875  53.124  1.00  0.00    -0.507 OA
ATOM     11  H   UNL     1     -10.567  -9.447  52.694  1.00  0.00     0.293 HD
ENDBRANCH   2  10
TORSDOF 2
ENDMDL
MODEL 6
REMARK VINA RESULT:    -4.825      1.977      3.508
REMARK INTER + INTRA:          -5.489
REMARK INTER:                  -5.239
REMARK INTRA:                  -0.250
REMARK UNBOUND:                -0.240
REMARK SMILES O=C([O-])c1ccccc1O
REMARK SMILES IDX 4 1 9 2 5 3 8 4 6 5 7 6 2 7 1 8 3 9 10 10
REMARK H PARENT 10 11
REMARK Flexibility Score: inf
ROOT
ATOM      1  C   UNL     1      -2.691 -22.931  49.535  1.00  0.00     0.039 A 
ATOM      2  C   UNL     1      -1.670 -23.519  50.327  1.00  0.00     0.124 A 
ATOM      3  C   UNL     1      -2.329 -22.009  48.536  1.00  0.00     0.014 A 
ATOM      4  C   UNL     1      -0.338 -23.126  50.144  1.00  0.00     0.047 A 
ATOM      5  C   UNL     1      -0.993 -21.643  48.352  1.00  0.00     0.001 A 
ATOM      6  C   UNL     1      -0.001 -22.193  49.162  1.00  0.00     0.004 A 
ENDROOT
BRANCH   1   7
ATOM      7  C   UNL     1      -4.128 -23.221  49.733  1.00  0.00     0.075 C 
ATOM      8  O   UNL     1      -4.983 -22.296  49.723  1.00  0.00    -0.545 OA
ATOM      9  O   UNL     1      -4.561 -24.536  49.865  1.00  0.00    -0.545 OA
ENDBRANCH   1   7
BRANCH   2  10
ATOM     10  O   UNL     1      -1.929 -24.512  51.274  1.00  0.00    -0.507 OA
ATOM     11  H   UNL     1      -1.600 -24.474  52.228  1.00  0.00     0.293 HD
ENDBRANCH   2  10
TORSDOF 2
ENDMDL
MODEL 7
REMARK VINA RESULT:    -4.743      9.489     10.553
REMARK INTER + INTRA:          -5.399
REMARK INTER:                  -5.151
REMARK INTRA:                  -0.248
REMARK UNBOUND:                -0.240
REMARK SMILES O=C([O-])c1ccccc1O
REMARK SMILES IDX 4 1 9 2 5 3 8 4 6 5 7 6 2 7 1 8 3 9 10 10
REMARK H PARENT 10 11
REMARK Flexibility Score: inf
ROOT
ATOM      1  C   UNL     1       1.499 -20.063  57.712  1.00  0.00     0.039 A 
ATOM      2  C   UNL     1       1.254 -21.454  57.570  1.00  0.00     0.124 A 
ATOM      3  C   UNL     1       2.703 -19.642  58.305  1.00  0.00     0.014 A 
ATOM      4  C   UNL     1       2.179 -22.376  58.076  1.00  0.00     0.047 A 
ATOM      5  C   UNL     1       3.626 -20.575  58.786  1.00  0.00     0.001 A 
ATOM      6  C   UNL     1       3.359 -21.939  58.681  1.00  0.00     0.004 A 
ENDROOT
BRANCH   1   7
ATOM      7  C   UNL     1       0.526 -19.030  57.291  1.00  0.00     0.075 C 
ATOM      8  O   UNL     1      -0.703 -19.163  57.532  1.00  0.00    -0.545 OA
ATOM      9  O   UNL     1       0.972 -17.862  56.684  1.00  0.00    -0.545 OA
ENDBRANCH   1   7
BRANCH   2  10
ATOM     10  O   UNL     1       0.131 -21.958  56.910  1.00  0.00    -0.507 OA
ATOM     11  H   UNL     1      -0.105 -22.939  56.878  1.00  0.00     0.293 HD
ENDBRANCH   2  10
TORSDOF 2
ENDMDL
MODEL 8
REMARK VINA RESULT:    -4.711      2.008      3.232
REMARK INTER + INTRA:          -5.364
REMARK INTER:                  -5.145
REMARK INTRA:                  -0.219
REMARK UNBOUND:                -0.240
REMARK SMILES O=C([O-])c1ccccc1O
REMARK SMILES IDX 4 1 9 2 5 3 8 4 6 5 7 6 2 7 1 8 3 9 10 10
REMARK H PARENT 10 11
REMARK Flexibility Score: inf
ROOT
ATOM      1  C   UNL     1      -4.240 -22.366  49.797  1.00  0.00     0.039 A 
ATOM      2  C   UNL     1      -3.800 -21.169  50.420  1.00  0.00     0.124 A 
ATOM      3  C   UNL     1      -5.331 -22.310  48.911  1.00  0.00     0.014 A 
ATOM      4  C   UNL     1      -4.494 -19.974  50.192  1.00  0.00     0.047 A 
ATOM      5  C   UNL     1      -6.000 -21.106  48.677  1.00  0.00     0.001 A 
ATOM      6  C   UNL     1      -5.589 -19.942  49.325  1.00  0.00     0.004 A 
ENDROOT
BRANCH   1   7
ATOM      7  C   UNL     1      -3.621 -23.684  50.064  1.00  0.00     0.075 C 
ATOM      8  O   UNL     1      -2.488 -23.768  50.608  1.00  0.00    -0.545 OA
ATOM      9  O   UNL     1      -4.319 -24.851  49.777  1.00  0.00    -0.545 OA
ENDBRANCH   1   7
BRANCH   2  10
ATOM     10  O   UNL     1      -2.670 -21.116  51.238  1.00  0.00    -0.507 OA
ATOM     11  H   UNL     1      -2.509 -20.392  51.924  1.00  0.00     0.293 HD
ENDBRANCH   2  10
TORSDOF 2
ENDMDL
MODEL 9
REMARK VINA RESULT:    -4.655     12.876     13.667
REMARK INTER + INTRA:          -5.303
REMARK INTER:                  -5.091
REMARK INTRA:                  -0.212
REMARK UNBOUND:                -0.240
REMARK SMILES O=C([O-])c1ccccc1O
REMARK SMILES IDX 4 1 9 2 5 3 8 4 6 5 7 6 2 7 1 8 3 9 10 10
REMARK H PARENT 10 11
REMARK Flexibility Score: inf
ROOT
ATOM      1  C   UNL     1      -7.448 -11.229  52.281  1.00  0.00     0.039 A 
ATOM      2  C   UNL     1      -8.076 -10.433  53.275  1.00  0.00     0.124 A 
ATOM      3  C   UNL     1      -6.071 -11.492  52.391  1.00  0.00     0.014 A 
ATOM      4  C   UNL     1      -7.307  -9.875  54.304  1.00  0.00     0.047 A 
ATOM      5  C   UNL     1      -5.321 -10.945  53.436  1.00  0.00     0.001 A 
ATOM      6  C   UNL     1      -5.937 -10.130  54.385  1.00  0.00     0.004 A 
ENDROOT
BRANCH   1   7
ATOM      7  C   UNL     1      -8.174 -11.771  51.111  1.00  0.00     0.075 C 
ATOM      8  O   UNL     1      -9.401 -11.538  50.945  1.00  0.00    -0.545 OA
ATOM      9  O   UNL     1      -7.488 -12.491  50.139  1.00  0.00    -0.545 OA
ENDBRANCH   1   7
BRANCH   2  10
ATOM     10  O   UNL     1      -9.453 -10.201  53.296  1.00  0.00    -0.507 OA
ATOM     11  H   UNL     1      -9.936  -9.768  54.070  1.00  0.00     0.293 HD
ENDBRANCH   2  10
TORSDOF 2
ENDMDL
