MODEL 1
REMARK VINA RESULT:    -6.070      0.000      0.000
REMARK INTER + INTRA:         -12.285
REMARK INTER:                 -11.393
REMARK INTRA:                  -0.891
REMARK UNBOUND:                -0.891
REMARK SMILES CCCCCCCCC=CCCCCCCCC(=O)[O-]
REMARK SMILES IDX 10 1 9 2 11 3 12 4 13 5 14 6 15 7 16 8 17 9 18 10 19 11
REMARK SMILES IDX 20 12 8 13 7 14 6 15 5 16 4 17 3 18 2 19 1 20
REMARK H PARENT
REMARK Flexibility Score: inf
ROOT
ATOM      1  C   UNL     1     -10.244 -68.038 -30.191  1.00  0.00    -0.031 C 
ATOM      2  C   UNL     1     -10.597 -67.511 -31.380  1.00  0.00    -0.031 C 
ENDROOT
BRANCH   1   3
ATOM      3  C   UNL     1      -8.967 -67.737 -29.444  1.00  0.00     0.027 C 
BRANCH   3   4
ATOM      4  C   UNL     1      -9.094 -68.039 -27.940  1.00  0.00     0.004 C 
BRANCH   4   5
ATOM      5  C   UNL     1     -10.120 -69.132 -27.588  1.00  0.00     0.000 C 
BRANCH   5   6
ATOM      6  C   UNL     1     -10.598 -69.056 -26.130  1.00  0.00     0.000 C 
BRANCH   6   7
ATOM      7  C   UNL     1     -10.145 -67.747 -25.470  1.00  0.00     0.000 C 
BRANCH   7   8
ATOM      8  C   UNL     1     -11.304 -67.076 -24.725  1.00  0.00     0.006 C 
BRANCH   8   9
ATOM      9  C   UNL     1     -11.306 -65.563 -24.962  1.00  0.00     0.053 C 
BRANCH   9  10
ATOM     10  C   UNL     1     -12.394 -64.911 -24.170  1.00  0.00     0.041 C 
ATOM     11  O   UNL     1     -13.452 -64.531 -24.737  1.00  0.00    -0.550 OA
ATOM     12  O   UNL     1     -12.261 -64.766 -22.793  1.00  0.00    -0.550 OA
ENDBRANCH   9  10
ENDBRANCH   8   9
ENDBRANCH   7   8
ENDBRANCH   6   7
ENDBRANCH   5   6
ENDBRANCH   4   5
ENDBRANCH   3   4
ENDBRANCH   1   3
BRANCH   2  13
ATOM     13  C   UNL     1      -9.763 -66.551 -32.195  1.00  0.00     0.027 C 
BRANCH  13  14
ATOM     14  C   UNL     1     -10.580 -65.787 -33.248  1.00  0.00     0.004 C 
BRANCH  14  15
ATOM     15  C   UNL     1     -11.896 -66.503 -33.600  1.00  0.00     0.000 C 
BRANCH  15  16
ATOM     16  C   UNL     1     -11.742 -67.464 -34.789  1.00  0.00     0.000 C 
BRANCH  16  17
ATOM     17  C   UNL     1     -13.009 -67.538 -35.658  1.00  0.00    -0.000 C 
BRANCH  17  18
ATOM     18  C   UNL     1     -14.285 -67.158 -34.885  1.00  0.00    -0.000 C 
BRANCH  18  19
ATOM     19  C   UNL     1     -15.580 -67.204 -35.716  1.00  0.00    -0.003 C 
ATOM     20  C   UNL     1     -16.405 -65.923 -35.611  1.00  0.00     0.004 C 
ENDBRANCH  18  19
ENDBRANCH  17  18
ENDBRANCH  16  17
ENDBRANCH  15  16
ENDBRANCH  14  15
ENDBRANCH  13  14
ENDBRANCH   2  13
TORSDOF 15
ENDMDL
MODEL 2
REMARK VINA RESULT:    -6.065      1.896      2.713
REMARK INTER + INTRA:         -12.276
REMARK INTER:                 -11.001
REMARK INTRA:                  -1.274
REMARK UNBOUND:                -0.891
REMARK SMILES CCCCCCCCC=CCCCCCCCC(=O)[O-]
REMARK SMILES IDX 10 1 9 2 11 3 12 4 13 5 14 6 15 7 16 8 17 9 18 10 19 11
REMARK SMILES IDX 20 12 8 13 7 14 6 15 5 16 4 17 3 18 2 19 1 20
REMARK H PARENT
REMARK Flexibility Score: inf
ROOT
ATOM      1  C   UNL     1     -10.071 -69.096 -28.199  1.00  0.00    -0.031 C 
ATOM      2  C   UNL     1      -9.914 -68.272 -29.253  1.00  0.00    -0.031 C 
ENDROOT
BRANCH   1   3
ATOM      3  C   UNL     1      -8.983 -69.494 -27.230  1.00  0.00     0.027 C 
BRANCH   3   4
ATOM      4  C   UNL     1      -9.143 -68.797 -25.867  1.00  0.00     0.004 C 
BRANCH   4   5
ATOM      5  C   UNL     1      -8.979 -67.266 -25.904  1.00  0.00     0.000 C 
BRANCH   5   6
ATOM      6  C   UNL     1     -10.026 -66.531 -25.052  1.00  0.00     0.000 C 
BRANCH   6   7
ATOM      7  C   UNL     1     -11.366 -67.278 -25.064  1.00  0.00     0.000 C 
BRANCH   7   8
ATOM      8  C   UNL     1     -12.446 -66.484 -24.320  1.00  0.00     0.006 C 
BRANCH   8   9
ATOM      9  C   UNL     1     -12.433 -65.011 -24.740  1.00  0.00     0.053 C 
BRANCH   9  10
ATOM     10  C   UNL     1     -13.724 -64.643 -25.397  1.00  0.00     0.041 C 
ATOM     11  O   UNL     1     -13.925 -63.462 -25.785  1.00  0.00    -0.550 OA
ATOM     12  O   UNL     1     -14.690 -65.616 -25.627  1.00  0.00    -0.550 OA
ENDBRANCH   9  10
ENDBRANCH   8   9
ENDBRANCH   7   8
ENDBRANCH   6   7
ENDBRANCH   5   6
ENDBRANCH   4   5
ENDBRANCH   3   4
ENDBRANCH   1   3
BRANCH   2  13
ATOM     13  C   UNL     1      -8.616 -67.624 -29.675  1.00  0.00     0.027 C 
BRANCH  13  14
ATOM     14  C   UNL     1      -8.682 -66.998 -31.076  1.00  0.00     0.004 C 
BRANCH  14  15
ATOM     15  C   UNL     1      -9.974 -67.372 -31.825  1.00  0.00     0.000 C 
BRANCH  15  16
ATOM     16  C   UNL     1     -10.480 -66.236 -32.726  1.00  0.00     0.000 C 
BRANCH  16  17
ATOM     17  C   UNL     1     -11.935 -66.444 -33.182  1.00  0.00    -0.000 C 
BRANCH  17  18
ATOM     18  C   UNL     1     -12.961 -65.951 -32.144  1.00  0.00    -0.000 C 
BRANCH  18  19
ATOM     19  C   UNL     1     -14.400 -65.820 -32.673  1.00  0.00    -0.003 C 
ATOM     20  C   UNL     1     -15.457 -66.069 -31.598  1.00  0.00     0.004 C 
ENDBRANCH  18  19
ENDBRANCH  17  18
ENDBRANCH  16  17
ENDBRANCH  15  16
ENDBRANCH  14  15
ENDBRANCH  13  14
ENDBRANCH   2  13
TORSDOF 15
ENDMDL
MODEL 3
REMARK VINA RESULT:    -6.025      2.616      4.044
REMARK INTER + INTRA:         -12.200
REMARK INTER:                 -10.957
REMARK INTRA:                  -1.243
REMARK UNBOUND:                -0.891
REMARK SMILES CCCCCCCCC=CCCCCCCCC(=O)[O-]
REMARK SMILES IDX 10 1 9 2 11 3 12 4 13 5 14 6 15 7 16 8 17 9 18 10 19 11
REMARK SMILES IDX 20 12 8 13 7 14 6 15 5 16 4 17 3 18 2 19 1 20
REMARK H PARENT
REMARK Flexibility Score: inf
ROOT
ATOM      1  C   UNL     1      -7.443 -66.499 -28.750  1.00  0.00    -0.031 C 
ATOM      2  C   UNL     1      -8.131 -67.011 -29.788  1.00  0.00    -0.031 C 
ENDROOT
BRANCH   1   3
ATOM      3  C   UNL     1      -7.700 -66.805 -27.293  1.00  0.00     0.027 C 
BRANCH   3   4
ATOM      4  C   UNL     1      -8.016 -65.534 -26.485  1.00  0.00     0.004 C 
BRANCH   4   5
ATOM      5  C   UNL     1      -9.071 -65.720 -25.379  1.00  0.00     0.000 C 
BRANCH   5   6
ATOM      6  C   UNL     1      -9.472 -67.189 -25.175  1.00  0.00     0.000 C 
BRANCH   6   7
ATOM      7  C   UNL     1     -10.997 -67.354 -25.224  1.00  0.00     0.000 C 
BRANCH   7   8
ATOM      8  C   UNL     1     -11.677 -66.525 -24.129  1.00  0.00     0.006 C 
BRANCH   8   9
ATOM      9  C   UNL     1     -13.188 -66.772 -24.111  1.00  0.00     0.053 C 
BRANCH   9  10
ATOM     10  C   UNL     1     -13.899 -65.732 -24.916  1.00  0.00     0.041 C 
ATOM     11  O   UNL     1     -13.441 -64.561 -24.987  1.00  0.00    -0.550 OA
ATOM     12  O   UNL     1     -15.043 -66.068 -25.631  1.00  0.00    -0.550 OA
ENDBRANCH   9  10
ENDBRANCH   8   9
ENDBRANCH   7   8
ENDBRANCH   6   7
ENDBRANCH   5   6
ENDBRANCH   4   5
ENDBRANCH   3   4
ENDBRANCH   1   3
BRANCH   2  13
ATOM     13  C   UNL     1      -9.304 -67.956 -29.682  1.00  0.00     0.027 C 
BRANCH  13  14
ATOM     14  C   UNL     1     -10.407 -67.667 -30.712  1.00  0.00     0.004 C 
BRANCH  14  15
ATOM     15  C   UNL     1      -9.836 -67.302 -32.094  1.00  0.00     0.000 C 
BRANCH  15  16
ATOM     16  C   UNL     1     -10.784 -66.401 -32.902  1.00  0.00     0.000 C 
BRANCH  16  17
ATOM     17  C   UNL     1     -10.073 -65.170 -33.490  1.00  0.00    -0.000 C 
BRANCH  17  18
ATOM     18  C   UNL     1      -8.634 -65.007 -32.967  1.00  0.00    -0.000 C 
BRANCH  18  19
ATOM     19  C   UNL     1      -7.623 -64.501 -34.011  1.00  0.00    -0.003 C 
ATOM     20  C   UNL     1      -8.214 -63.462 -34.962  1.00  0.00     0.004 C 
ENDBRANCH  18  19
ENDBRANCH  17  18
ENDBRANCH  16  17
ENDBRANCH  15  16
ENDBRANCH  14  15
ENDBRANCH  13  14
ENDBRANCH   2  13
TORSDOF 15
ENDMDL
MODEL 4
REMARK VINA RESULT:    -5.956      6.299      8.476
REMARK INTER + INTRA:         -12.070
REMARK INTER:                 -10.822
REMARK INTRA:                  -1.248
REMARK UNBOUND:                -0.891
REMARK SMILES CCCCCCCCC=CCCCCCCCC(=O)[O-]
REMARK SMILES IDX 10 1 9 2 11 3 12 4 13 5 14 6 15 7 16 8 17 9 18 10 19 11
REMARK SMILES IDX 20 12 8 13 7 14 6 15 5 16 4 17 3 18 2 19 1 20
REMARK H PARENT
REMARK Flexibility Score: inf
ROOT
ATOM      1  C   UNL     1     -11.721 -67.052 -34.919  1.00  0.00    -0.031 C 
ATOM      2  C   UNL     1     -12.626 -67.591 -35.760  1.00  0.00    -0.031 C 
ENDROOT
BRANCH   1   3
ATOM      3  C   UNL     1     -11.935 -66.804 -33.445  1.00  0.00     0.027 C 
BRANCH   3   4
ATOM      4  C   UNL     1     -10.687 -66.205 -32.775  1.00  0.00     0.004 C 
BRANCH   4   5
ATOM      5  C   UNL     1      -9.939 -65.160 -33.623  1.00  0.00     0.000 C 
BRANCH   5   6
ATOM      6  C   UNL     1      -8.546 -64.824 -33.070  1.00  0.00     0.000 C 
BRANCH   6   7
ATOM      7  C   UNL     1      -7.656 -64.208 -34.158  1.00  0.00     0.000 C 
BRANCH   7   8
ATOM      8  C   UNL     1      -8.462 -63.272 -35.065  1.00  0.00     0.006 C 
BRANCH   8   9
ATOM      9  C   UNL     1      -7.948 -63.325 -36.506  1.00  0.00     0.053 C 
BRANCH   9  10
ATOM     10  C   UNL     1      -6.603 -62.681 -36.606  1.00  0.00     0.041 C 
ATOM     11  O   UNL     1      -5.562 -63.389 -36.651  1.00  0.00    -0.550 OA
ATOM     12  O   UNL     1      -6.499 -61.298 -36.700  1.00  0.00    -0.550 OA
ENDBRANCH   9  10
ENDBRANCH   8   9
ENDBRANCH   7   8
ENDBRANCH   6   7
ENDBRANCH   5   6
ENDBRANCH   4   5
ENDBRANCH   3   4
ENDBRANCH   1   3
BRANCH   2  13
ATOM     13  C   UNL     1     -14.027 -68.013 -35.387  1.00  0.00     0.027 C 
BRANCH  13  14
ATOM     14  C   UNL     1     -15.112 -67.140 -36.034  1.00  0.00     0.004 C 
BRANCH  14  15
ATOM     15  C   UNL     1     -16.165 -66.664 -35.016  1.00  0.00     0.000 C 
BRANCH  15  16
ATOM     16  C   UNL     1     -15.774 -66.996 -33.568  1.00  0.00     0.000 C 
BRANCH  16  17
ATOM     17  C   UNL     1     -15.324 -65.755 -32.777  1.00  0.00    -0.000 C 
BRANCH  17  18
ATOM     18  C   UNL     1     -15.243 -66.012 -31.261  1.00  0.00    -0.000 C 
BRANCH  18  19
ATOM     19  C   UNL     1     -16.586 -66.351 -30.592  1.00  0.00    -0.003 C 
ATOM     20  C   UNL     1     -16.756 -65.697 -29.222  1.00  0.00     0.004 C 
ENDBRANCH  18  19
ENDBRANCH  17  18
ENDBRANCH  16  17
ENDBRANCH  15  16
ENDBRANCH  14  15
ENDBRANCH  13  14
ENDBRANCH   2  13
TORSDOF 15
ENDMDL
MODEL 5
REMARK VINA RESULT:    -5.857      2.075      3.793
REMARK INTER + INTRA:         -11.884
REMARK INTER:                 -10.809
REMARK INTRA:                  -1.074
REMARK UNBOUND:                -0.891
REMARK SMILES CCCCCCCCC=CCCCCCCCC(=O)[O-]
REMARK SMILES IDX 10 1 9 2 11 3 12 4 13 5 14 6 15 7 16 8 17 9 18 10 19 11
REMARK SMILES IDX 20 12 8 13 7 14 6 15 5 16 4 17 3 18 2 19 1 20
REMARK H PARENT
REMARK Flexibility Score: inf
ROOT
ATOM      1  C   UNL     1     -11.232 -66.729 -33.558  1.00  0.00    -0.031 C 
ATOM      2  C   UNL     1     -12.548 -66.673 -33.279  1.00  0.00    -0.031 C 
ENDROOT
BRANCH   1   3
ATOM      3  C   UNL     1     -10.171 -65.835 -32.961  1.00  0.00     0.027 C 
BRANCH   3   4
ATOM      4  C   UNL     1      -9.331 -66.567 -31.900  1.00  0.00     0.004 C 
BRANCH   4   5
ATOM      5  C   UNL     1     -10.106 -67.606 -31.070  1.00  0.00     0.000 C 
BRANCH   5   6
ATOM      6  C   UNL     1      -9.375 -68.010 -29.781  1.00  0.00     0.000 C 
BRANCH   6   7
ATOM      7  C   UNL     1     -10.310 -68.776 -28.835  1.00  0.00     0.000 C 
BRANCH   7   8
ATOM      8  C   UNL     1      -9.512 -69.553 -27.782  1.00  0.00     0.006 C 
BRANCH   8   9
ATOM      9  C   UNL     1     -10.308 -69.693 -26.482  1.00  0.00     0.053 C 
BRANCH   9  10
ATOM     10  C   UNL     1     -10.306 -68.403 -25.726  1.00  0.00     0.041 C 
ATOM     11  O   UNL     1     -11.390 -67.889 -25.343  1.00  0.00    -0.550 OA
ATOM     12  O   UNL     1      -9.102 -67.791 -25.399  1.00  0.00    -0.550 OA
ENDBRANCH   9  10
ENDBRANCH   8   9
ENDBRANCH   7   8
ENDBRANCH   6   7
ENDBRANCH   5   6
ENDBRANCH   4   5
ENDBRANCH   3   4
ENDBRANCH   1   3
BRANCH   2  13
ATOM     13  C   UNL     1     -13.205 -65.684 -32.345  1.00  0.00     0.027 C 
BRANCH  13  14
ATOM     14  C   UNL     1     -14.683 -66.001 -32.073  1.00  0.00     0.004 C 
BRANCH  14  15
ATOM     15  C   UNL     1     -15.538 -65.948 -33.353  1.00  0.00     0.000 C 
BRANCH  15  16
ATOM     16  C   UNL     1     -16.296 -67.259 -33.608  1.00  0.00     0.000 C 
BRANCH  16  17
ATOM     17  C   UNL     1     -15.899 -67.924 -34.938  1.00  0.00    -0.000 C 
BRANCH  17  18
ATOM     18  C   UNL     1     -15.536 -66.901 -36.029  1.00  0.00    -0.000 C 
BRANCH  18  19
ATOM     19  C   UNL     1     -16.701 -66.501 -36.951  1.00  0.00    -0.003 C 
ATOM     20  C   UNL     1     -17.952 -67.353 -36.739  1.00  0.00     0.004 C 
ENDBRANCH  18  19
ENDBRANCH  17  18
ENDBRANCH  16  17
ENDBRANCH  15  16
ENDBRANCH  14  15
ENDBRANCH  13  14
ENDBRANCH   2  13
TORSDOF 15
ENDMDL
MODEL 6
REMARK VINA RESULT:    -5.839      2.749      3.800
REMARK INTER + INTRA:         -11.850
REMARK INTER:                 -10.854
REMARK INTRA:                  -0.996
REMARK UNBOUND:                -0.891
REMARK SMILES CCCCCCCCC=CCCCCCCCC(=O)[O-]
REMARK SMILES IDX 10 1 9 2 11 3 12 4 13 5 14 6 15 7 16 8 17 9 18 10 19 11
REMARK SMILES IDX 20 12 8 13 7 14 6 15 5 16 4 17 3 18 2 19 1 20
REMARK H PARENT
REMARK Flexibility Score: inf
ROOT
ATOM      1  C   UNL     1      -9.925 -68.333 -28.985  1.00  0.00    -0.031 C 
ATOM      2  C   UNL     1     -10.313 -68.094 -30.253  1.00  0.00    -0.031 C 
ENDROOT
BRANCH   1   3
ATOM      3  C   UNL     1      -8.724 -67.718 -28.306  1.00  0.00     0.027 C 
BRANCH   3   4
ATOM      4  C   UNL     1      -8.874 -67.702 -26.775  1.00  0.00     0.004 C 
BRANCH   4   5
ATOM      5  C   UNL     1      -9.772 -68.815 -26.204  1.00  0.00     0.000 C 
BRANCH   5   6
ATOM      6  C   UNL     1     -11.044 -68.274 -25.533  1.00  0.00     0.000 C 
BRANCH   6   7
ATOM      7  C   UNL     1     -10.949 -66.757 -25.317  1.00  0.00     0.000 C 
BRANCH   7   8
ATOM      8  C   UNL     1     -11.419 -66.370 -23.911  1.00  0.00     0.006 C 
BRANCH   8   9
ATOM      9  C   UNL     1     -12.103 -65.000 -23.918  1.00  0.00     0.053 C 
BRANCH   9  10
ATOM     10  C   UNL     1     -13.420 -65.076 -24.622  1.00  0.00     0.041 C 
ATOM     11  O   UNL     1     -14.262 -65.956 -24.301  1.00  0.00    -0.550 OA
ATOM     12  O   UNL     1     -13.739 -64.143 -25.601  1.00  0.00    -0.550 OA
ENDBRANCH   9  10
ENDBRANCH   8   9
ENDBRANCH   7   8
ENDBRANCH   6   7
ENDBRANCH   5   6
ENDBRANCH   4   5
ENDBRANCH   3   4
ENDBRANCH   1   3
BRANCH   2  13
ATOM     13  C   UNL     1      -9.599 -67.193 -31.233  1.00  0.00     0.027 C 
BRANCH  13  14
ATOM     14  C   UNL     1     -10.462 -66.819 -32.448  1.00  0.00     0.004 C 
BRANCH  14  15
ATOM     15  C   UNL     1      -9.973 -65.533 -33.139  1.00  0.00     0.000 C 
BRANCH  15  16
ATOM     16  C   UNL     1      -8.504 -65.218 -32.823  1.00  0.00     0.000 C 
BRANCH  16  17
ATOM     17  C   UNL     1      -7.873 -64.252 -33.841  1.00  0.00    -0.000 C 
BRANCH  17  18
ATOM     18  C   UNL     1      -8.824 -63.904 -35.001  1.00  0.00    -0.000 C 
BRANCH  18  19
ATOM     19  C   UNL     1      -8.324 -62.785 -35.931  1.00  0.00    -0.003 C 
ATOM     20  C   UNL     1      -8.092 -63.258 -37.365  1.00  0.00     0.004 C 
ENDBRANCH  18  19
ENDBRANCH  17  18
ENDBRANCH  16  17
ENDBRANCH  15  16
ENDBRANCH  14  15
ENDBRANCH  13  14
ENDBRANCH   2  13
TORSDOF 15
ENDMDL
MODEL 7
REMARK VINA RESULT:    -5.801      3.956      9.373
REMARK INTER + INTRA:         -11.779
REMARK INTER:                 -10.883
REMARK INTRA:                  -0.896
REMARK UNBOUND:                -0.891
REMARK SMILES CCCCCCCCC=CCCCCCCCC(=O)[O-]
REMARK SMILES IDX 10 1 9 2 11 3 12 4 13 5 14 6 15 7 16 8 17 9 18 10 19 11
REMARK SMILES IDX 20 12 8 13 7 14 6 15 5 16 4 17 3 18 2 19 1 20
REMARK H PARENT
REMARK Flexibility Score: inf
ROOT
ATOM      1  C   UNL     1      -9.744 -68.366 -29.474  1.00  0.00    -0.031 C 
ATOM      2  C   UNL     1      -9.911 -68.286 -28.139  1.00  0.00    -0.031 C 
ENDROOT
BRANCH   1   3
ATOM      3  C   UNL     1      -8.581 -67.788 -30.246  1.00  0.00     0.027 C 
BRANCH   3   4
ATOM      4  C   UNL     1      -9.049 -66.861 -31.382  1.00  0.00     0.004 C 
BRANCH   4   5
ATOM      5  C   UNL     1     -10.436 -67.200 -31.960  1.00  0.00     0.000 C 
BRANCH   5   6
ATOM      6  C   UNL     1     -10.949 -66.138 -32.945  1.00  0.00     0.000 C 
BRANCH   6   7
ATOM      7  C   UNL     1     -11.358 -66.778 -34.278  1.00  0.00     0.000 C 
BRANCH   7   8
ATOM      8  C   UNL     1     -12.837 -67.179 -34.267  1.00  0.00     0.006 C 
BRANCH   8   9
ATOM      9  C   UNL     1     -13.297 -67.625 -35.657  1.00  0.00     0.053 C 
BRANCH   9  10
ATOM     10  C   UNL     1     -14.790 -67.617 -35.743  1.00  0.00     0.041 C 
ATOM     11  O   UNL     1     -15.474 -68.349 -34.980  1.00  0.00    -0.550 OA
ATOM     12  O   UNL     1     -15.430 -66.763 -36.634  1.00  0.00    -0.550 OA
ENDBRANCH   9  10
ENDBRANCH   8   9
ENDBRANCH   7   8
ENDBRANCH   6   7
ENDBRANCH   5   6
ENDBRANCH   4   5
ENDBRANCH   3   4
ENDBRANCH   1   3
BRANCH   2  13
ATOM     13  C   UNL     1      -8.984 -67.577 -27.180  1.00  0.00     0.027 C 
BRANCH  13  14
ATOM     14  C   UNL     1      -9.379 -67.769 -25.708  1.00  0.00     0.004 C 
BRANCH  14  15
ATOM     15  C   UNL     1     -10.819 -68.289 -25.551  1.00  0.00     0.000 C 
BRANCH  15  16
ATOM     16  C   UNL     1     -11.773 -67.219 -24.996  1.00  0.00     0.000 C 
BRANCH  16  17
ATOM     17  C   UNL     1     -11.029 -66.070 -24.294  1.00  0.00    -0.000 C 
BRANCH  17  18
ATOM     18  C   UNL     1     -11.982 -65.087 -23.589  1.00  0.00    -0.000 C 
BRANCH  18  19
ATOM     19  C   UNL     1     -13.409 -65.619 -23.369  1.00  0.00    -0.003 C 
ATOM     20  C   UNL     1     -13.640 -66.142 -21.952  1.00  0.00     0.004 C 
ENDBRANCH  18  19
ENDBRANCH  17  18
ENDBRANCH  16  17
ENDBRANCH  15  16
ENDBRANCH  14  15
ENDBRANCH  13  14
ENDBRANCH   2  13
TORSDOF 15
ENDMDL
MODEL 8
REMARK VINA RESULT:    -5.780      2.501      4.790
REMARK INTER + INTRA:         -11.740
REMARK INTER:                 -10.634
REMARK INTRA:                  -1.106
REMARK UNBOUND:                -0.891
REMARK SMILES CCCCCCCCC=CCCCCCCCC(=O)[O-]
REMARK SMILES IDX 10 1 9 2 11 3 12 4 13 5 14 6 15 7 16 8 17 9 18 10 19 11
REMARK SMILES IDX 20 12 8 13 7 14 6 15 5 16 4 17 3 18 2 19 1 20
REMARK H PARENT
REMARK Flexibility Score: inf
ROOT
ATOM      1  C   UNL     1     -10.763 -68.380 -25.822  1.00  0.00    -0.031 C 
ATOM      2  C   UNL     1     -10.364 -69.465 -26.514  1.00  0.00    -0.031 C 
ENDROOT
BRANCH   1   3
ATOM      3  C   UNL     1      -9.972 -67.103 -25.662  1.00  0.00     0.027 C 
BRANCH   3   4
ATOM      4  C   UNL     1     -10.808 -65.986 -25.014  1.00  0.00     0.004 C 
BRANCH   4   5
ATOM      5  C   UNL     1     -10.942 -66.086 -23.483  1.00  0.00     0.000 C 
BRANCH   5   6
ATOM      6  C   UNL     1     -12.162 -66.908 -23.041  1.00  0.00     0.000 C 
BRANCH   6   7
ATOM      7  C   UNL     1     -13.166 -66.034 -22.277  1.00  0.00     0.000 C 
BRANCH   7   8
ATOM      8  C   UNL     1     -14.207 -65.433 -23.227  1.00  0.00     0.006 C 
BRANCH   8   9
ATOM      9  C   UNL     1     -14.364 -66.290 -24.485  1.00  0.00     0.053 C 
BRANCH   9  10
ATOM     10  C   UNL     1     -14.697 -65.433 -25.665  1.00  0.00     0.041 C 
ATOM     11  O   UNL     1     -15.484 -65.854 -26.553  1.00  0.00    -0.550 OA
ATOM     12  O   UNL     1     -14.176 -64.148 -25.760  1.00  0.00    -0.550 OA
ENDBRANCH   9  10
ENDBRANCH   8   9
ENDBRANCH   7   8
ENDBRANCH   6   7
ENDBRANCH   5   6
ENDBRANCH   4   5
ENDBRANCH   3   4
ENDBRANCH   1   3
BRANCH   2  13
ATOM     13  C   UNL     1      -9.040 -69.612 -27.226  1.00  0.00     0.027 C 
BRANCH  13  14
ATOM     14  C   UNL     1      -9.167 -69.545 -28.755  1.00  0.00     0.004 C 
BRANCH  14  15
ATOM     15  C   UNL     1      -9.432 -68.114 -29.258  1.00  0.00     0.000 C 
BRANCH  15  16
ATOM     16  C   UNL     1      -8.350 -67.624 -30.232  1.00  0.00     0.000 C 
BRANCH  16  17
ATOM     17  C   UNL     1      -8.938 -66.895 -31.453  1.00  0.00    -0.000 C 
BRANCH  17  18
ATOM     18  C   UNL     1     -10.410 -67.261 -31.713  1.00  0.00    -0.000 C 
BRANCH  18  19
ATOM     19  C   UNL     1     -11.001 -66.676 -33.008  1.00  0.00    -0.003 C 
ATOM     20  C   UNL     1     -10.279 -65.413 -33.478  1.00  0.00     0.004 C 
ENDBRANCH  18  19
ENDBRANCH  17  18
ENDBRANCH  16  17
ENDBRANCH  15  16
ENDBRANCH  14  15
ENDBRANCH  13  14
ENDBRANCH   2  13
TORSDOF 15
ENDMDL
MODEL 9
REMARK VINA RESULT:    -5.706      2.293      3.698
REMARK INTER + INTRA:         -11.601
REMARK INTER:                 -10.103
REMARK INTRA:                  -1.498
REMARK UNBOUND:                -0.891
REMARK SMILES CCCCCCCCC=CCCCCCCCC(=O)[O-]
REMARK SMILES IDX 10 1 9 2 11 3 12 4 13 5 14 6 15 7 16 8 17 9 18 10 19 11
REMARK SMILES IDX 20 12 8 13 7 14 6 15 5 16 4 17 3 18 2 19 1 20
REMARK H PARENT
REMARK Flexibility Score: inf
ROOT
ATOM      1  C   UNL     1     -10.073 -69.172 -29.108  1.00  0.00    -0.031 C 
ATOM      2  C   UNL     1      -9.805 -68.007 -29.731  1.00  0.00    -0.031 C 
ENDROOT
BRANCH   1   3
ATOM      3  C   UNL     1      -9.133 -69.904 -28.180  1.00  0.00     0.027 C 
BRANCH   3   4
ATOM      4  C   UNL     1      -9.578 -69.799 -26.711  1.00  0.00     0.004 C 
BRANCH   4   5
ATOM      5  C   UNL     1      -8.581 -69.075 -25.786  1.00  0.00     0.000 C 
BRANCH   5   6
ATOM      6  C   UNL     1      -9.063 -67.680 -25.361  1.00  0.00     0.000 C 
BRANCH   6   7
ATOM      7  C   UNL     1     -10.595 -67.598 -25.378  1.00  0.00     0.000 C 
BRANCH   7   8
ATOM      8  C   UNL     1     -11.079 -66.224 -24.902  1.00  0.00     0.006 C 
BRANCH   8   9
ATOM      9  C   UNL     1     -12.598 -66.098 -25.042  1.00  0.00     0.053 C 
BRANCH   9  10
ATOM     10  C   UNL     1     -13.038 -64.701 -24.742  1.00  0.00     0.041 C 
ATOM     11  O   UNL     1     -13.834 -64.106 -25.515  1.00  0.00    -0.550 OA
ATOM     12  O   UNL     1     -12.605 -64.070 -23.581  1.00  0.00    -0.550 OA
ENDBRANCH   9  10
ENDBRANCH   8   9
ENDBRANCH   7   8
ENDBRANCH   6   7
ENDBRANCH   5   6
ENDBRANCH   4   5
ENDBRANCH   3   4
ENDBRANCH   1   3
BRANCH   2  13
ATOM     13  C   UNL     1      -8.506 -67.242 -29.639  1.00  0.00     0.027 C 
BRANCH  13  14
ATOM     14  C   UNL     1      -7.766 -67.147 -30.982  1.00  0.00     0.004 C 
BRANCH  14  15
ATOM     15  C   UNL     1      -6.860 -65.905 -31.064  1.00  0.00     0.000 C 
BRANCH  15  16
ATOM     16  C   UNL     1      -6.808 -65.308 -32.479  1.00  0.00     0.000 C 
BRANCH  16  17
ATOM     17  C   UNL     1      -7.984 -64.357 -32.764  1.00  0.00    -0.000 C 
BRANCH  17  18
ATOM     18  C   UNL     1      -9.074 -65.003 -33.639  1.00  0.00    -0.000 C 
BRANCH  18  19
ATOM     19  C   UNL     1     -10.350 -65.411 -32.882  1.00  0.00    -0.003 C 
ATOM     20  C   UNL     1     -11.016 -66.659 -33.460  1.00  0.00     0.004 C 
ENDBRANCH  18  19
ENDBRANCH  17  18
ENDBRANCH  16  17
ENDBRANCH  15  16
ENDBRANCH  14  15
ENDBRANCH  13  14
ENDBRANCH   2  13
TORSDOF 15
ENDMDL
