MODEL 1
REMARK VINA RESULT:    49.961      0.000      0.000
REMARK INTER + INTRA:          59.762
REMARK INTER:                  57.263
REMARK INTRA:                   2.499
REMARK UNBOUND:                 2.499
REMARK SMILES C=C(C)[C@@H]1CC[C@]2(C(=O)[O-])CC[C@]3(C)[C@@H](CC[C@@H]4[C@@]5(C)CC[C@H](O)C(C)(C)[C@H]5CC[C@]43C)[C@H]12
REMARK SMILES IDX 7 1 6 2 33 3 11 4 5 5 15 6 4 7 12 8 16 9 13 10 17 11 31 12
REMARK SMILES IDX 14 13 18 14 30 15 32 16 19 17 29 18 21 19 20 20 28 21 22 22
REMARK SMILES IDX 25 23 23 24 26 25 27 26 8 27 9 28 10 29 2 30 3 31 1 32 24 33
REMARK H PARENT 24 34
REMARK Flexibility Score: inf
ROOT
ATOM      1  C   UNL     1     -50.719 121.697 -10.811  1.00  0.00     0.014 C 
ATOM      2  C   UNL     1     -50.285 123.015 -11.488  1.00  0.00     0.014 C 
ATOM      3  C   UNL     1     -51.481 122.185  -9.555  1.00  0.00     0.012 C 
ATOM      4  C   UNL     1     -51.556 120.780 -11.707  1.00  0.00     0.014 C 
ATOM      5  C   UNL     1     -49.914 123.957 -10.348  1.00  0.00     0.009 C 
ATOM      6  C   UNL     1     -52.996 122.603  -9.787  1.00  0.00     0.000 C 
ATOM      7  C   UNL     1     -50.555 123.355  -9.081  1.00  0.00     0.018 C 
ATOM      8  C   UNL     1     -52.891 121.375 -12.123  1.00  0.00     0.008 C 
ATOM      9  C   UNL     1     -53.745 122.557  -8.411  1.00  0.00     0.005 C 
ATOM     10  C   UNL     1     -53.823 121.899 -10.970  1.00  0.00    -0.024 C 
ATOM     11  C   UNL     1     -55.272 122.440  -8.426  1.00  0.00     0.005 C 
ATOM     12  C   UNL     1     -54.824 120.751 -10.395  1.00  0.00    -0.024 C 
ATOM     13  C   UNL     1     -54.637 123.061 -11.659  1.00  0.00     0.012 C 
ATOM     14  C   UNL     1     -55.896 121.454  -9.459  1.00  0.00     0.002 C 
ATOM     15  C   UNL     1     -55.619 120.012 -11.523  1.00  0.00     0.008 C 
ATOM     16  C   UNL     1     -53.990 119.641  -9.677  1.00  0.00     0.012 C 
ATOM     17  C   UNL     1     -57.130 120.602  -8.923  1.00  0.00    -0.026 C 
ATOM     18  C   UNL     1     -56.764 119.108 -11.018  1.00  0.00     0.005 C 
ATOM     19  C   UNL     1     -58.183 121.535  -8.214  1.00  0.00     0.010 C 
ATOM     20  C   UNL     1     -56.668 119.584  -7.823  1.00  0.00     0.012 C 
ATOM     21  C   UNL     1     -57.824 119.808 -10.116  1.00  0.00     0.003 C 
ATOM     22  C   UNL     1     -59.068 122.332  -9.161  1.00  0.00     0.033 C 
ATOM     23  C   UNL     1     -59.004 120.512 -10.944  1.00  0.00    -0.006 C 
ATOM     24  C   UNL     1     -59.905 121.382 -10.018  1.00  0.00     0.120 C 
ATOM     25  C   UNL     1     -59.916 119.422 -11.582  1.00  0.00     0.014 C 
ATOM     26  C   UNL     1     -58.518 121.394 -12.125  1.00  0.00     0.014 C 
ENDROOT
BRANCH   1  27
ATOM     27  C   UNL     1     -49.473 120.894 -10.429  1.00  0.00     0.048 C 
ATOM     28  O   UNL     1     -48.906 120.140 -11.266  1.00  0.00    -0.550 OA
ATOM     29  O   UNL     1     -48.876 121.069  -9.184  1.00  0.00    -0.550 OA
ENDBRANCH   1  27
BRANCH   7  30
ATOM     30  C   UNL     1     -51.130 124.365  -8.088  1.00  0.00    -0.077 C 
ATOM     31  C   UNL     1     -50.285 125.106  -7.073  1.00  0.00     0.039 C 
ATOM     32  C   UNL     1     -52.452 124.611  -8.104  1.00  0.00     0.008 C 
ENDBRANCH   7  30
BRANCH  24  33
ATOM     33  O   UNL     1     -60.697 120.566  -9.187  1.00  0.00    -0.393 OA
ATOM     34  H   UNL     1     -61.634 120.644  -9.507  1.00  0.00     0.210 HD
ENDBRANCH  24  33
TORSDOF 3
ENDMDL
