MODEL 1
REMARK VINA RESULT:    -5.453      0.000      0.000
REMARK INTER + INTRA:          -7.761
REMARK INTER:                  -8.322
REMARK INTRA:                   0.561
REMARK UNBOUND:                 0.561
REMARK SMILES CC1=CCC[C@H](C)C(=O)C[C@@H](C(C)C)C(=O)C1
REMARK SMILES IDX 8 1 9 2 6 3 7 4 5 5 4 6 3 7 2 8 1 9 10 11 11 12 15 13 16 14
REMARK SMILES IDX 17 15 12 17 13 18 14 19
REMARK H PARENT
REMARK Flexibility Score: 70.00
ROOT
ATOM      1  C   UNL     1      -7.558  30.137  23.231  1.00  0.00     0.136 C 
ATOM      2  O   UNL     1      -6.736  29.585  22.513  1.00  0.00    -0.299 OA
ENDROOT
BRANCH   1   3
ATOM      3  C   UNL     1      -8.893  29.443  23.462  1.00  0.00     0.053 C 
ATOM      4  C   UNL     1      -9.018  28.194  22.580  1.00  0.00     0.016 C 
BRANCH   3   5
ATOM      5  C   UNL     1      -9.141  29.095  24.950  1.00  0.00     0.015 C 
BRANCH   5   6
ATOM      6  C   UNL     1     -10.117  30.024  25.702  1.00  0.00     0.028 C 
BRANCH   6   7
ATOM      7  C   UNL     1      -9.508  31.180  26.466  1.00  0.00    -0.028 C 
ATOM      8  C   UNL     1      -9.247  32.416  25.979  1.00  0.00    -0.070 CG0
ATOM      9  C   UNL     1      -8.486  33.373  26.862  1.00  0.00     0.039 C 
ATOM     10  G   UNL     1      -9.732  32.912  24.631  1.00  0.00     0.000 G0
ENDBRANCH   6   7
ENDBRANCH   5   6
ENDBRANCH   3   5
ENDBRANCH   1   3
BRANCH   1  11
ATOM     11  C   UNL     1      -7.172  31.463  23.869  1.00  0.00     0.087 C 
BRANCH  11  12
ATOM     12  C   UNL     1      -7.615  32.711  23.059  1.00  0.00     0.066 C 
BRANCH  12  13
ATOM     13  C   UNL     1      -8.612  33.557  23.832  1.00  0.00     0.140 C 
ATOM     14  O   UNL     1      -8.533  34.776  23.798  1.00  0.00    -0.299 OA
BRANCH  13  15
ATOM     15  C   UNL     1      -9.739  32.918  24.613  1.00  0.00     0.106 CG0
ATOM     16  G   UNL     1      -9.227  32.416  25.948  1.00  0.00     0.000 G0
ENDBRANCH  13  15
ENDBRANCH  12  13
BRANCH  12  17
ATOM     17  C   UNL     1      -8.118  32.388  21.613  1.00  0.00    -0.006 C 
ATOM     18  C   UNL     1      -7.425  33.191  20.495  1.00  0.00     0.008 C 
ATOM     19  C   UNL     1      -9.641  32.558  21.498  1.00  0.00     0.008 C 
ENDBRANCH  12  17
ENDBRANCH  11  12
ENDBRANCH   1  11
TORSDOF 1
ENDMDL
MODEL 2
REMARK VINA RESULT:    -5.308      1.683      2.474
REMARK INTER + INTRA:          -7.540
REMARK INTER:                  -7.756
REMARK INTRA:                   0.216
REMARK UNBOUND:                 0.561
REMARK SMILES CC1=CCC[C@H](C)C(=O)C[C@@H](C(C)C)C(=O)C1
REMARK SMILES IDX 8 1 9 2 6 3 7 4 5 5 4 6 3 7 2 8 1 9 10 11 11 12 15 13 16 14
REMARK SMILES IDX 17 15 12 17 13 18 14 19
REMARK H PARENT
REMARK Flexibility Score: 70.00
ROOT
ATOM      1  C   UNL     1      -8.435  31.276  23.137  1.00  0.00     0.136 C 
ATOM      2  O   UNL     1      -7.409  31.483  22.504  1.00  0.00    -0.299 OA
ENDROOT
BRANCH   1   3
ATOM      3  C   UNL     1      -8.946  29.845  23.231  1.00  0.00     0.053 C 
ATOM      4  C   UNL     1      -7.962  28.870  22.569  1.00  0.00     0.016 C 
BRANCH   3   5
ATOM      5  C   UNL     1      -9.259  29.413  24.684  1.00  0.00     0.015 C 
BRANCH   5   6
ATOM      6  C   UNL     1      -8.180  29.755  25.733  1.00  0.00     0.028 C 
BRANCH   6   7
ATOM      7  C   UNL     1      -8.662  30.056  27.135  1.00  0.00    -0.028 C 
ATOM      8  C   UNL     1      -9.268  31.194  27.549  1.00  0.00    -0.070 CG0
ATOM      9  C   UNL     1      -9.523  31.357  29.026  1.00  0.00     0.039 C 
ATOM     10  G   UNL     1      -9.762  32.278  26.610  1.00  0.00     0.000 G0
ENDBRANCH   6   7
ENDBRANCH   5   6
ENDBRANCH   3   5
ENDBRANCH   1   3
BRANCH   1  11
ATOM     11  C   UNL     1      -9.108  32.461  23.813  1.00  0.00     0.087 C 
BRANCH  11  12
ATOM     12  C   UNL     1      -8.170  33.283  24.737  1.00  0.00     0.066 C 
BRANCH  12  13
ATOM     13  C   UNL     1      -8.592  33.190  26.193  1.00  0.00     0.140 C 
ATOM     14  O   UNL     1      -8.022  33.865  27.037  1.00  0.00    -0.299 OA
BRANCH  13  15
ATOM     15  C   UNL     1      -9.745  32.307  26.617  1.00  0.00     0.106 CG0
ATOM     16  G   UNL     1      -9.248  31.208  27.535  1.00  0.00     0.000 G0
ENDBRANCH  13  15
ENDBRANCH  12  13
BRANCH  12  17
ATOM     17  C   UNL     1      -7.963  34.765  24.280  1.00  0.00    -0.006 C 
ATOM     18  C   UNL     1      -9.117  35.720  24.644  1.00  0.00     0.008 C 
ATOM     19  C   UNL     1      -7.683  34.853  22.771  1.00  0.00     0.008 C 
ENDBRANCH  12  17
ENDBRANCH  11  12
ENDBRANCH   1  11
TORSDOF 1
ENDMDL
MODEL 3
REMARK VINA RESULT:    -5.068      1.832      3.946
REMARK INTER + INTRA:          -7.173
REMARK INTER:                  -7.038
REMARK INTRA:                  -0.135
REMARK UNBOUND:                 0.561
REMARK SMILES CC1=CCC[C@H](C)C(=O)C[C@@H](C(C)C)C(=O)C1
REMARK SMILES IDX 8 1 9 2 6 3 7 4 5 5 4 6 3 7 2 8 1 9 10 11 11 12 15 13 16 14
REMARK SMILES IDX 17 15 12 17 13 18 14 19
REMARK H PARENT
REMARK Flexibility Score: 70.00
ROOT
ATOM      1  C   UNL     1      -8.162  33.975  22.273  1.00  0.00     0.136 C 
ATOM      2  O   UNL     1      -7.466  34.958  22.063  1.00  0.00    -0.299 OA
ENDROOT
BRANCH   1   3
ATOM      3  C   UNL     1      -8.026  32.783  21.335  1.00  0.00     0.053 C 
ATOM      4  C   UNL     1      -7.124  33.128  20.143  1.00  0.00     0.016 C 
BRANCH   3   5
ATOM      5  C   UNL     1      -7.529  31.506  22.053  1.00  0.00     0.015 C 
BRANCH   5   6
ATOM      6  C   UNL     1      -8.604  30.437  22.342  1.00  0.00     0.028 C 
BRANCH   6   7
ATOM      7  C   UNL     1      -8.555  29.769  23.698  1.00  0.00    -0.028 C 
ATOM      8  C   UNL     1      -8.960  30.305  24.873  1.00  0.00    -0.070 CG0
ATOM      9  C   UNL     1      -8.673  29.531  26.135  1.00  0.00     0.039 C 
ATOM     10  G   UNL     1      -9.739  31.601  24.986  1.00  0.00     0.000 G0
ENDBRANCH   6   7
ENDBRANCH   5   6
ENDBRANCH   3   5
ENDBRANCH   1   3
BRANCH   1  11
ATOM     11  C   UNL     1      -9.089  34.001  23.480  1.00  0.00     0.087 C 
BRANCH  11  12
ATOM     12  C   UNL     1      -8.364  33.834  24.842  1.00  0.00     0.066 C 
BRANCH  12  13
ATOM     13  C   UNL     1      -8.949  32.690  25.653  1.00  0.00     0.140 C 
ATOM     14  O   UNL     1      -8.799  32.665  26.865  1.00  0.00    -0.299 OA
BRANCH  13  15
ATOM     15  C   UNL     1      -9.758  31.597  24.991  1.00  0.00     0.106 CG0
ATOM     16  G   UNL     1      -8.937  30.326  24.898  1.00  0.00     0.000 G0
ENDBRANCH  13  15
ENDBRANCH  12  13
BRANCH  12  17
ATOM     17  C   UNL     1      -8.264  35.153  25.677  1.00  0.00    -0.006 C 
ATOM     18  C   UNL     1      -9.325  36.217  25.333  1.00  0.00     0.008 C 
ATOM     19  C   UNL     1      -6.863  35.776  25.576  1.00  0.00     0.008 C 
ENDBRANCH  12  17
ENDBRANCH  11  12
ENDBRANCH   1  11
TORSDOF 1
ENDMDL
MODEL 4
REMARK VINA RESULT:    -4.962      1.545      3.819
REMARK INTER + INTRA:          -7.011
REMARK INTER:                  -7.054
REMARK INTRA:                   0.043
REMARK UNBOUND:                 0.561
REMARK SMILES CC1=CCC[C@H](C)C(=O)C[C@@H](C(C)C)C(=O)C1
REMARK SMILES IDX 8 1 9 2 6 3 7 4 5 5 4 6 3 7 2 8 1 9 10 11 11 12 15 13 16 14
REMARK SMILES IDX 17 15 12 17 13 18 14 19
REMARK H PARENT
REMARK Flexibility Score: 70.00
ROOT
ATOM      1  C   UNL     1      -7.921  34.201  24.085  1.00  0.00     0.136 C 
ATOM      2  O   UNL     1      -7.997  35.025  23.184  1.00  0.00    -0.299 OA
ENDROOT
BRANCH   1   3
ATOM      3  C   UNL     1      -8.356  34.620  25.483  1.00  0.00     0.053 C 
ATOM      4  C   UNL     1      -8.930  36.043  25.471  1.00  0.00     0.016 C 
BRANCH   3   5
ATOM      5  C   UNL     1      -9.355  33.627  26.125  1.00  0.00     0.015 C 
BRANCH   5   6
ATOM      6  C   UNL     1      -8.748  32.615  27.120  1.00  0.00     0.028 C 
BRANCH   6   7
ATOM      7  C   UNL     1      -9.336  31.221  27.119  1.00  0.00    -0.028 C 
ATOM      8  C   UNL     1      -9.074  30.240  26.223  1.00  0.00    -0.070 CG0
ATOM      9  C   UNL     1      -9.892  28.975  26.308  1.00  0.00     0.039 C 
ATOM     10  G   UNL     1      -7.969  30.314  25.188  1.00  0.00     0.000 G0
ENDBRANCH   6   7
ENDBRANCH   5   6
ENDBRANCH   3   5
ENDBRANCH   1   3
BRANCH   1  11
ATOM     11  C   UNL     1      -7.428  32.805  23.735  1.00  0.00     0.087 C 
BRANCH  11  12
ATOM     12  C   UNL     1      -8.519  31.877  23.134  1.00  0.00     0.066 C 
BRANCH  12  13
ATOM     13  C   UNL     1      -8.526  30.513  23.803  1.00  0.00     0.140 C 
ATOM     14  O   UNL     1      -8.977  29.547  23.207  1.00  0.00    -0.299 OA
BRANCH  13  15
ATOM     15  C   UNL     1      -7.941  30.316  25.183  1.00  0.00     0.106 CG0
ATOM     16  G   UNL     1      -9.050  30.249  26.214  1.00  0.00     0.000 G0
ENDBRANCH  13  15
ENDBRANCH  12  13
BRANCH  12  17
ATOM     17  C   UNL     1      -8.472  31.766  21.574  1.00  0.00    -0.006 C 
ATOM     18  C   UNL     1      -7.430  32.674  20.893  1.00  0.00     0.008 C 
ATOM     19  C   UNL     1      -9.856  32.018  20.953  1.00  0.00     0.008 C 
ENDBRANCH  12  17
ENDBRANCH  11  12
ENDBRANCH   1  11
TORSDOF 1
ENDMDL
MODEL 5
REMARK VINA RESULT:    -4.921      2.120      4.656
REMARK INTER + INTRA:          -6.950
REMARK INTER:                  -7.026
REMARK INTRA:                   0.077
REMARK UNBOUND:                 0.561
REMARK SMILES CC1=CCC[C@H](C)C(=O)C[C@@H](C(C)C)C(=O)C1
REMARK SMILES IDX 8 1 9 2 6 3 7 4 5 5 4 6 3 7 2 8 1 9 10 11 11 12 15 13 16 14
REMARK SMILES IDX 17 15 12 17 13 18 14 19
REMARK H PARENT
REMARK Flexibility Score: 70.00
ROOT
ATOM      1  C   UNL     1      -9.199  31.510  25.915  1.00  0.00     0.136 C 
ATOM      2  O   UNL     1      -8.566  30.677  26.547  1.00  0.00    -0.299 OA
ENDROOT
BRANCH   1   3
ATOM      3  C   UNL     1      -9.225  32.941  26.435  1.00  0.00     0.053 C 
ATOM      4  C   UNL     1      -8.303  33.095  27.652  1.00  0.00     0.016 C 
BRANCH   3   5
ATOM      5  C   UNL     1      -8.879  33.984  25.344  1.00  0.00     0.015 C 
BRANCH   5   6
ATOM      6  C   UNL     1      -7.666  33.644  24.452  1.00  0.00     0.028 C 
BRANCH   6   7
ATOM      7  C   UNL     1      -7.757  34.046  22.996  1.00  0.00    -0.028 C 
ATOM      8  C   UNL     1      -7.570  33.237  21.926  1.00  0.00    -0.070 CG0
ATOM      9  C   UNL     1      -7.544  33.875  20.560  1.00  0.00     0.039 C 
ATOM     10  G   UNL     1      -7.450  31.729  22.018  1.00  0.00     0.000 G0
ENDBRANCH   6   7
ENDBRANCH   5   6
ENDBRANCH   3   5
ENDBRANCH   1   3
BRANCH   1  11
ATOM     11  C   UNL     1      -9.889  31.063  24.635  1.00  0.00     0.087 C 
BRANCH  11  12
ATOM     12  C   UNL     1      -8.959  30.319  23.639  1.00  0.00     0.066 C 
BRANCH  12  13
ATOM     13  C   UNL     1      -8.781  31.098  22.347  1.00  0.00     0.140 C 
ATOM     14  O   UNL     1      -9.734  31.264  21.601  1.00  0.00    -0.299 OA
BRANCH  13  15
ATOM     15  C   UNL     1      -7.450  31.717  21.985  1.00  0.00     0.106 CG0
ATOM     16  G   UNL     1      -7.579  33.226  21.920  1.00  0.00     0.000 G0
ENDBRANCH  13  15
ENDBRANCH  12  13
BRANCH  12  17
ATOM     17  C   UNL     1      -9.367  28.831  23.375  1.00  0.00    -0.006 C 
ATOM     18  C   UNL     1      -9.734  28.029  24.638  1.00  0.00     0.008 C 
ATOM     19  C   UNL     1      -8.278  28.082  22.591  1.00  0.00     0.008 C 
ENDBRANCH  12  17
ENDBRANCH  11  12
ENDBRANCH   1  11
TORSDOF 1
ENDMDL
MODEL 6
REMARK VINA RESULT:    -4.903      1.694      3.945
REMARK INTER + INTRA:          -6.922
REMARK INTER:                  -7.179
REMARK INTRA:                   0.257
REMARK UNBOUND:                 0.561
REMARK SMILES CC1=CCC[C@H](C)C(=O)C[C@@H](C(C)C)C(=O)C1
REMARK SMILES IDX 8 1 9 2 6 3 7 4 5 5 4 6 3 7 2 8 1 9 10 11 11 12 15 13 16 14
REMARK SMILES IDX 17 15 12 17 13 18 14 19
REMARK H PARENT
REMARK Flexibility Score: 70.00
ROOT
ATOM      1  C   UNL     1      -8.794  29.759  24.442  1.00  0.00     0.136 C 
ATOM      2  O   UNL     1      -9.732  29.153  24.940  1.00  0.00    -0.299 OA
ENDROOT
BRANCH   1   3
ATOM      3  C   UNL     1      -8.345  29.366  23.041  1.00  0.00     0.053 C 
ATOM      4  C   UNL     1      -8.963  28.024  22.627  1.00  0.00     0.016 C 
BRANCH   3   5
ATOM      5  C   UNL     1      -8.640  30.459  21.986  1.00  0.00     0.015 C 
BRANCH   5   6
ATOM      6  C   UNL     1      -7.453  31.376  21.620  1.00  0.00     0.028 C 
BRANCH   6   7
ATOM      7  C   UNL     1      -7.736  32.860  21.541  1.00  0.00    -0.028 C 
ATOM      8  C   UNL     1      -7.825  33.718  22.584  1.00  0.00    -0.070 CG0
ATOM      9  C   UNL     1      -8.278  35.127  22.299  1.00  0.00     0.039 C 
ATOM     10  G   UNL     1      -7.434  33.362  24.005  1.00  0.00     0.000 G0
ENDBRANCH   6   7
ENDBRANCH   5   6
ENDBRANCH   3   5
ENDBRANCH   1   3
BRANCH   1  11
ATOM     11  C   UNL     1      -8.164  30.886  25.247  1.00  0.00     0.087 C 
BRANCH  11  12
ATOM     12  C   UNL     1      -9.126  32.068  25.546  1.00  0.00     0.066 C 
BRANCH  12  13
ATOM     13  C   UNL     1      -8.639  33.362  24.919  1.00  0.00     0.140 C 
ATOM     14  O   UNL     1      -9.200  34.415  25.181  1.00  0.00    -0.299 OA
BRANCH  13  15
ATOM     15  C   UNL     1      -7.434  33.381  24.005  1.00  0.00     0.106 CG0
ATOM     16  G   UNL     1      -7.859  33.729  22.592  1.00  0.00     0.000 G0
ENDBRANCH  13  15
ENDBRANCH  12  13
BRANCH  12  17
ATOM     17  C   UNL     1      -9.468  32.244  27.063  1.00  0.00    -0.006 C 
ATOM     18  C   UNL     1      -8.329  32.836  27.917  1.00  0.00     0.008 C 
ATOM     19  C   UNL     1      -9.941  30.921  27.688  1.00  0.00     0.008 C 
ENDBRANCH  12  17
ENDBRANCH  11  12
ENDBRANCH   1  11
TORSDOF 1
ENDMDL
MODEL 7
REMARK VINA RESULT:    -4.888      1.953      3.534
REMARK INTER + INTRA:          -6.900
REMARK INTER:                  -7.116
REMARK INTRA:                   0.216
REMARK UNBOUND:                 0.561
REMARK SMILES CC1=CCC[C@H](C)C(=O)C[C@@H](C(C)C)C(=O)C1
REMARK SMILES IDX 8 1 9 2 6 3 7 4 5 5 4 6 3 7 2 8 1 9 10 11 11 12 15 13 16 14
REMARK SMILES IDX 17 15 12 17 13 18 14 19
REMARK H PARENT
REMARK Flexibility Score: 70.00
ROOT
ATOM      1  C   UNL     1      -9.354  30.238  26.402  1.00  0.00     0.136 C 
ATOM      2  O   UNL     1      -8.570  29.302  26.478  1.00  0.00    -0.299 OA
ENDROOT
BRANCH   1   3
ATOM      3  C   UNL     1      -9.872  30.848  27.697  1.00  0.00     0.053 C 
ATOM      4  C   UNL     1     -10.050  29.771  28.775  1.00  0.00     0.016 C 
BRANCH   3   5
ATOM      5  C   UNL     1      -8.985  32.006  28.214  1.00  0.00     0.015 C 
BRANCH   5   6
ATOM      6  C   UNL     1      -8.125  32.719  27.148  1.00  0.00     0.028 C 
BRANCH   6   7
ATOM      7  C   UNL     1      -8.687  33.993  26.559  1.00  0.00    -0.028 C 
ATOM      8  C   UNL     1      -8.449  34.478  25.317  1.00  0.00    -0.070 CG0
ATOM      9  C   UNL     1      -8.978  35.850  24.985  1.00  0.00     0.039 C 
ATOM     10  G   UNL     1      -7.741  33.698  24.227  1.00  0.00     0.000 G0
ENDBRANCH   6   7
ENDBRANCH   5   6
ENDBRANCH   3   5
ENDBRANCH   1   3
BRANCH   1  11
ATOM     11  C   UNL     1      -9.728  30.746  25.018  1.00  0.00     0.087 C 
BRANCH  11  12
ATOM     12  C   UNL     1      -8.514  31.166  24.145  1.00  0.00     0.066 C 
BRANCH  12  13
ATOM     13  C   UNL     1      -8.635  32.603  23.668  1.00  0.00     0.140 C 
ATOM     14  O   UNL     1      -9.493  32.902  22.852  1.00  0.00    -0.299 OA
BRANCH  13  15
ATOM     15  C   UNL     1      -7.740  33.688  24.222  1.00  0.00     0.106 CG0
ATOM     16  G   UNL     1      -8.475  34.474  25.289  1.00  0.00     0.000 G0
ENDBRANCH  13  15
ENDBRANCH  12  13
BRANCH  12  17
ATOM     17  C   UNL     1      -8.203  30.182  22.970  1.00  0.00    -0.006 C 
ATOM     18  C   UNL     1      -9.034  28.884  22.976  1.00  0.00     0.008 C 
ATOM     19  C   UNL     1      -6.707  29.831  22.913  1.00  0.00     0.008 C 
ENDBRANCH  12  17
ENDBRANCH  11  12
ENDBRANCH   1  11
TORSDOF 1
ENDMDL
MODEL 8
REMARK VINA RESULT:    -4.847      1.667      3.696
REMARK INTER + INTRA:          -6.836
REMARK INTER:                  -8.175
REMARK INTRA:                   1.339
REMARK UNBOUND:                 0.561
REMARK SMILES CC1=CCC[C@H](C)C(=O)C[C@@H](C(C)C)C(=O)C1
REMARK SMILES IDX 8 1 9 2 6 3 7 4 5 5 4 6 3 7 2 8 1 9 10 11 11 12 15 13 16 14
REMARK SMILES IDX 17 15 12 17 13 18 14 19
REMARK H PARENT
REMARK Flexibility Score: 70.00
ROOT
ATOM      1  C   UNL     1      -9.123  32.451  21.615  1.00  0.00     0.136 C 
ATOM      2  O   UNL     1      -9.604  32.323  20.498  1.00  0.00    -0.299 OA
ENDROOT
BRANCH   1   3
ATOM      3  C   UNL     1      -7.739  33.075  21.735  1.00  0.00     0.053 C 
ATOM      4  C   UNL     1      -7.149  33.363  20.349  1.00  0.00     0.016 C 
BRANCH   3   5
ATOM      5  C   UNL     1      -7.728  34.348  22.616  1.00  0.00     0.015 C 
BRANCH   5   6
ATOM      6  C   UNL     1      -8.741  34.366  23.781  1.00  0.00     0.028 C 
BRANCH   6   7
ATOM      7  C   UNL     1      -8.208  34.015  25.153  1.00  0.00    -0.028 C 
ATOM      8  C   UNL     1      -8.754  33.136  26.027  1.00  0.00    -0.070 CG0
ATOM      9  C   UNL     1      -8.155  33.054  27.408  1.00  0.00     0.039 C 
ATOM     10  G   UNL     1      -9.884  32.189  25.676  1.00  0.00     0.000 G0
ENDBRANCH   6   7
ENDBRANCH   5   6
ENDBRANCH   3   5
ENDBRANCH   1   3
BRANCH   1  11
ATOM     11  C   UNL     1      -9.958  32.007  22.807  1.00  0.00     0.087 C 
BRANCH  11  12
ATOM     12  C   UNL     1      -9.419  30.740  23.524  1.00  0.00     0.066 C 
BRANCH  12  13
ATOM     13  C   UNL     1      -9.369  30.926  25.031  1.00  0.00     0.140 C 
ATOM     14  O   UNL     1      -8.861  30.065  25.734  1.00  0.00    -0.299 OA
BRANCH  13  15
ATOM     15  C   UNL     1      -9.896  32.185  25.680  1.00  0.00     0.106 CG0
ATOM     16  G   UNL     1      -8.751  33.125  25.999  1.00  0.00     0.000 G0
ENDBRANCH  13  15
ENDBRANCH  12  13
BRANCH  12  17
ATOM     17  C   UNL     1      -8.061  30.213  22.953  1.00  0.00    -0.006 C 
ATOM     18  C   UNL     1      -8.039  28.707  22.625  1.00  0.00     0.008 C 
ATOM     19  C   UNL     1      -6.890  30.550  23.891  1.00  0.00     0.008 C 
ENDBRANCH  12  17
ENDBRANCH  11  12
ENDBRANCH   1  11
TORSDOF 1
ENDMDL
MODEL 9
REMARK VINA RESULT:    -4.703      1.614      3.796
REMARK INTER + INTRA:          -6.617
REMARK INTER:                  -7.758
REMARK INTRA:                   1.140
REMARK UNBOUND:                 0.561
REMARK SMILES CC1=CCC[C@H](C)C(=O)C[C@@H](C(C)C)C(=O)C1
REMARK SMILES IDX 8 1 9 2 6 3 7 4 5 5 4 6 3 7 2 8 1 9 10 11 11 12 15 13 16 14
REMARK SMILES IDX 17 15 12 17 13 18 14 19
REMARK H PARENT
REMARK Flexibility Score: 70.00
ROOT
ATOM      1  C   UNL     1      -7.485  32.502  22.474  1.00  0.00     0.136 C 
ATOM      2  O   UNL     1      -7.319  32.448  21.263  1.00  0.00    -0.299 OA
ENDROOT
BRANCH   1   3
ATOM      3  C   UNL     1      -7.829  33.849  23.094  1.00  0.00     0.053 C 
ATOM      4  C   UNL     1      -7.778  34.963  22.041  1.00  0.00     0.016 C 
BRANCH   3   5
ATOM      5  C   UNL     1      -9.192  33.844  23.827  1.00  0.00     0.015 C 
BRANCH   5   6
ATOM      6  C   UNL     1      -9.255  34.664  25.134  1.00  0.00     0.028 C 
BRANCH   6   7
ATOM      7  C   UNL     1      -8.553  34.080  26.340  1.00  0.00    -0.028 C 
ATOM      8  C   UNL     1      -8.745  32.845  26.861  1.00  0.00    -0.070 CG0
ATOM      9  C   UNL     1      -8.063  32.520  28.166  1.00  0.00     0.039 C 
ATOM     10  G   UNL     1      -9.549  31.756  26.179  1.00  0.00     0.000 G0
ENDBRANCH   6   7
ENDBRANCH   5   6
ENDBRANCH   3   5
ENDBRANCH   1   3
BRANCH   1  11
ATOM     11  C   UNL     1      -7.370  31.209  23.268  1.00  0.00     0.087 C 
BRANCH  11  12
ATOM     12  C   UNL     1      -8.704  30.732  23.903  1.00  0.00     0.066 C 
BRANCH  12  13
ATOM     13  C   UNL     1      -8.663  30.807  25.420  1.00  0.00     0.140 C 
ATOM     14  O   UNL     1      -7.864  30.124  26.041  1.00  0.00    -0.299 OA
BRANCH  13  15
ATOM     15  C   UNL     1      -9.567  31.753  26.179  1.00  0.00     0.106 CG0
ATOM     16  G   UNL     1      -8.742  32.833  26.850  1.00  0.00     0.000 G0
ENDBRANCH  13  15
ENDBRANCH  12  13
BRANCH  12  17
ATOM     17  C   UNL     1      -9.185  29.331  23.398  1.00  0.00    -0.006 C 
ATOM     18  C   UNL     1      -9.724  28.398  24.500  1.00  0.00     0.008 C 
ATOM     19  C   UNL     1      -8.079  28.609  22.611  1.00  0.00     0.008 C 
ENDBRANCH  12  17
ENDBRANCH  11  12
ENDBRANCH   1  11
TORSDOF 1
ENDMDL
