MODEL 1
REMARK VINA RESULT:    -3.900      0.000      0.000
REMARK INTER + INTRA:          -5.796
REMARK INTER:                  -5.268
REMARK INTRA:                  -0.528
REMARK UNBOUND:                -0.528
REMARK SMILES [NH3+]CCCC[C@@H]([NH3+])C(=O)[O-]
REMARK SMILES IDX 4 1 3 2 2 3 1 4 5 8 6 9 7 10 8 14 9 15 10 16
REMARK H PARENT 1 5 1 6 1 7 7 11 7 12 7 13
REMARK Flexibility Score: inf
ROOT
ATOM      1  C   UNL     1      25.154   2.645  17.402  1.00  0.00     0.012 C 
ENDROOT
BRANCH   1   2
ATOM      2  C   UNL     1      24.552   3.283  18.663  1.00  0.00     0.061 C 
BRANCH   2   3
ATOM      3  C   UNL     1      23.033   3.501  18.553  1.00  0.00     0.258 C 
BRANCH   3   4
ATOM      4  N   UNL     1      22.314   2.620  19.473  1.00  0.00    -0.358 N 
ATOM      5  H   UNL     1      22.052   1.731  18.990  1.00  0.00     0.344 HD
ATOM      6  H   UNL     1      21.453   3.097  19.828  1.00  0.00     0.344 HD
ATOM      7  H   UNL     1      22.934   2.394  20.285  1.00  0.00     0.344 HD
ENDBRANCH   3   4
ENDBRANCH   2   3
ENDBRANCH   1   2
BRANCH   1   8
ATOM      8  C   UNL     1      25.431   1.139  17.575  1.00  0.00     0.072 C 
BRANCH   8   9
ATOM      9  C   UNL     1      24.424   0.268  16.793  1.00  0.00     0.227 C 
BRANCH   9  10
ATOM     10  N   UNL     1      25.131  -0.710  15.957  1.00  0.00    -0.350 N 
ATOM     11  H   UNL     1      25.537  -1.474  16.545  1.00  0.00     0.345 HD
ATOM     12  H   UNL     1      25.902  -0.236  15.432  1.00  0.00     0.345 HD
ATOM     13  H   UNL     1      24.471  -1.125  15.260  1.00  0.00     0.345 HD
ENDBRANCH   9  10
BRANCH   9  14
ATOM     14  C   UNL     1      23.473  -0.439  17.725  1.00  0.00     0.099 C 
ATOM     15  O   UNL     1      23.412  -0.116  18.942  1.00  0.00    -0.544 OA
ATOM     16  O   UNL     1      22.651  -1.449  17.242  1.00  0.00    -0.544 OA
ENDBRANCH   9  14
ENDBRANCH   8   9
ENDBRANCH   1   8
TORSDOF 7
ENDMDL
MODEL 2
REMARK VINA RESULT:    -3.661      9.209     10.268
REMARK INTER + INTRA:          -5.473
REMARK INTER:                  -4.880
REMARK INTRA:                  -0.593
REMARK UNBOUND:                -0.528
REMARK SMILES [NH3+]CCCC[C@@H]([NH3+])C(=O)[O-]
REMARK SMILES IDX 4 1 3 2 2 3 1 4 5 8 6 9 7 10 8 14 9 15 10 16
REMARK H PARENT 1 5 1 6 1 7 7 11 7 12 7 13
REMARK Flexibility Score: inf
ROOT
ATOM      1  C   UNL     1      28.130   0.937   7.553  1.00  0.00     0.012 C 
ENDROOT
BRANCH   1   2
ATOM      2  C   UNL     1      29.069  -0.045   8.271  1.00  0.00     0.061 C 
BRANCH   2   3
ATOM      3  C   UNL     1      28.410  -0.718   9.487  1.00  0.00     0.258 C 
BRANCH   3   4
ATOM      4  N   UNL     1      28.824  -0.066  10.729  1.00  0.00    -0.358 N 
ATOM      5  H   UNL     1      28.397   0.886  10.796  1.00  0.00     0.344 HD
ATOM      6  H   UNL     1      29.867   0.010  10.765  1.00  0.00     0.344 HD
ATOM      7  H   UNL     1      28.500  -0.641  11.541  1.00  0.00     0.344 HD
ENDBRANCH   3   4
ENDBRANCH   2   3
ENDBRANCH   1   2
BRANCH   1   8
ATOM      8  C   UNL     1      28.478   2.409   7.846  1.00  0.00     0.072 C 
BRANCH   8   9
ATOM      9  C   UNL     1      27.417   3.091   8.738  1.00  0.00     0.227 C 
BRANCH   9  10
ATOM     10  N   UNL     1      26.274   2.194   8.954  1.00  0.00    -0.350 N 
ATOM     11  H   UNL     1      25.372   2.705   8.812  1.00  0.00     0.345 HD
ATOM     12  H   UNL     1      26.302   1.813   9.928  1.00  0.00     0.345 HD
ATOM     13  H   UNL     1      26.324   1.389   8.288  1.00  0.00     0.345 HD
ENDBRANCH   9  10
BRANCH   9  14
ATOM     14  C   UNL     1      28.003   3.512  10.061  1.00  0.00     0.099 C 
ATOM     15  O   UNL     1      27.479   4.448  10.724  1.00  0.00    -0.544 OA
ATOM     16  O   UNL     1      29.123   2.862  10.562  1.00  0.00    -0.544 OA
ENDBRANCH   9  14
ENDBRANCH   8   9
ENDBRANCH   1   8
TORSDOF 7
ENDMDL
MODEL 3
REMARK VINA RESULT:    -3.610      1.599      3.722
REMARK INTER + INTRA:          -5.404
REMARK INTER:                  -5.108
REMARK INTRA:                  -0.296
REMARK UNBOUND:                -0.528
REMARK SMILES [NH3+]CCCC[C@@H]([NH3+])C(=O)[O-]
REMARK SMILES IDX 4 1 3 2 2 3 1 4 5 8 6 9 7 10 8 14 9 15 10 16
REMARK H PARENT 1 5 1 6 1 7 7 11 7 12 7 13
REMARK Flexibility Score: inf
ROOT
ATOM      1  C   UNL     1      25.023   2.778  17.451  1.00  0.00     0.012 C 
ENDROOT
BRANCH   1   2
ATOM      2  C   UNL     1      25.534   1.329  17.475  1.00  0.00     0.061 C 
BRANCH   2   3
ATOM      3  C   UNL     1      24.523   0.331  16.885  1.00  0.00     0.258 C 
BRANCH   3   4
ATOM      4  N   UNL     1      25.190  -0.619  15.996  1.00  0.00    -0.358 N 
ATOM      5  H   UNL     1      26.062  -0.196  15.604  1.00  0.00     0.344 HD
ATOM      6  H   UNL     1      24.549  -0.893  15.216  1.00  0.00     0.344 HD
ATOM      7  H   UNL     1      25.444  -1.476  16.540  1.00  0.00     0.344 HD
ENDBRANCH   3   4
ENDBRANCH   2   3
ENDBRANCH   1   2
BRANCH   1   8
ATOM      8  C   UNL     1      24.365   3.195  18.780  1.00  0.00     0.072 C 
BRANCH   8   9
ATOM      9  C   UNL     1      22.832   3.333  18.653  1.00  0.00     0.227 C 
BRANCH   9  10
ATOM     10  N   UNL     1      22.430   3.313  17.240  1.00  0.00    -0.350 N 
ATOM     11  H   UNL     1      22.607   4.242  16.793  1.00  0.00     0.345 HD
ATOM     12  H   UNL     1      21.412   3.085  17.164  1.00  0.00     0.345 HD
ATOM     13  H   UNL     1      22.968   2.576  16.729  1.00  0.00     0.345 HD
ENDBRANCH   9  10
BRANCH   9  14
ATOM     14  C   UNL     1      22.119   2.242  19.409  1.00  0.00     0.099 C 
ATOM     15  O   UNL     1      22.739   1.206  19.772  1.00  0.00    -0.544 OA
ATOM     16  O   UNL     1      20.773   2.378  19.719  1.00  0.00    -0.544 OA
ENDBRANCH   9  14
ENDBRANCH   8   9
ENDBRANCH   1   8
TORSDOF 7
ENDMDL
MODEL 4
REMARK VINA RESULT:    -3.498      3.069      4.851
REMARK INTER + INTRA:          -5.253
REMARK INTER:                  -5.127
REMARK INTRA:                  -0.126
REMARK UNBOUND:                -0.528
REMARK SMILES [NH3+]CCCC[C@@H]([NH3+])C(=O)[O-]
REMARK SMILES IDX 4 1 3 2 2 3 1 4 5 8 6 9 7 10 8 14 9 15 10 16
REMARK H PARENT 1 5 1 6 1 7 7 11 7 12 7 13
REMARK Flexibility Score: inf
ROOT
ATOM      1  C   UNL     1      25.264   2.742  17.462  1.00  0.00     0.012 C 
ENDROOT
BRANCH   1   2
ATOM      2  C   UNL     1      25.655   1.257  17.504  1.00  0.00     0.061 C 
BRANCH   2   3
ATOM      3  C   UNL     1      24.572   0.338  16.913  1.00  0.00     0.258 C 
BRANCH   3   4
ATOM      4  N   UNL     1      25.160  -0.631  15.989  1.00  0.00    -0.358 N 
ATOM      5  H   UNL     1      25.477  -0.150  15.116  1.00  0.00     0.344 HD
ATOM      6  H   UNL     1      24.460  -1.370  15.750  1.00  0.00     0.344 HD
ATOM      7  H   UNL     1      25.985  -1.082  16.446  1.00  0.00     0.344 HD
ENDBRANCH   3   4
ENDBRANCH   2   3
ENDBRANCH   1   2
BRANCH   1   8
ATOM      8  C   UNL     1      24.541   3.200  18.742  1.00  0.00     0.072 C 
BRANCH   8   9
ATOM      9  C   UNL     1      23.113   3.714  18.453  1.00  0.00     0.227 C 
BRANCH   9  10
ATOM     10  N   UNL     1      22.167   3.186  19.443  1.00  0.00    -0.350 N 
ATOM     11  H   UNL     1      21.454   2.572  18.983  1.00  0.00     0.345 HD
ATOM     12  H   UNL     1      21.679   3.976  19.924  1.00  0.00     0.345 HD
ATOM     13  H   UNL     1      22.682   2.633  20.166  1.00  0.00     0.345 HD
ENDBRANCH   9  10
BRANCH   9  14
ATOM     14  C   UNL     1      23.065   5.220  18.442  1.00  0.00     0.099 C 
ATOM     15  O   UNL     1      22.760   5.857  19.486  1.00  0.00    -0.544 OA
ATOM     16  O   UNL     1      23.366   5.916  17.279  1.00  0.00    -0.544 OA
ENDBRANCH   9  14
ENDBRANCH   8   9
ENDBRANCH   1   8
TORSDOF 7
ENDMDL
MODEL 5
REMARK VINA RESULT:    -3.464      2.192      4.429
REMARK INTER + INTRA:          -5.207
REMARK INTER:                  -4.690
REMARK INTRA:                  -0.517
REMARK UNBOUND:                -0.528
REMARK SMILES [NH3+]CCCC[C@@H]([NH3+])C(=O)[O-]
REMARK SMILES IDX 4 1 3 2 2 3 1 4 5 8 6 9 7 10 8 14 9 15 10 16
REMARK H PARENT 1 5 1 6 1 7 7 11 7 12 7 13
REMARK Flexibility Score: inf
ROOT
ATOM      1  C   UNL     1      22.716   0.046  18.729  1.00  0.00     0.012 C 
ENDROOT
BRANCH   1   2
ATOM      2  C   UNL     1      23.064  -0.630  17.393  1.00  0.00     0.061 C 
BRANCH   2   3
ATOM      3  C   UNL     1      24.535  -1.071  17.314  1.00  0.00     0.258 C 
BRANCH   3   4
ATOM      4  N   UNL     1      25.196  -0.470  16.156  1.00  0.00    -0.358 N 
ATOM      5  H   UNL     1      25.075  -1.081  15.315  1.00  0.00     0.344 HD
ATOM      6  H   UNL     1      26.215  -0.336  16.352  1.00  0.00     0.344 HD
ATOM      7  H   UNL     1      24.764   0.462  15.961  1.00  0.00     0.344 HD
ENDBRANCH   3   4
ENDBRANCH   2   3
ENDBRANCH   1   2
BRANCH   1   8
ATOM      8  C   UNL     1      23.700   1.173  19.096  1.00  0.00     0.072 C 
BRANCH   8   9
ATOM      9  C   UNL     1      23.382   2.488  18.351  1.00  0.00     0.227 C 
BRANCH   9  10
ATOM     10  N   UNL     1      22.941   3.520  19.297  1.00  0.00    -0.350 N 
ATOM     11  H   UNL     1      22.172   3.157  19.907  1.00  0.00     0.345 HD
ATOM     12  H   UNL     1      22.596   4.358  18.773  1.00  0.00     0.345 HD
ATOM     13  H   UNL     1      23.744   3.820  19.896  1.00  0.00     0.345 HD
ENDBRANCH   9  10
BRANCH   9  14
ATOM     14  C   UNL     1      24.576   2.977  17.571  1.00  0.00     0.099 C 
ATOM     15  O   UNL     1      25.604   2.256  17.456  1.00  0.00    -0.544 OA
ATOM     16  O   UNL     1      24.545   4.226  16.966  1.00  0.00    -0.544 OA
ENDBRANCH   9  14
ENDBRANCH   8   9
ENDBRANCH   1   8
TORSDOF 7
ENDMDL
MODEL 6
REMARK VINA RESULT:    -3.423      2.050      2.448
REMARK INTER + INTRA:          -5.151
REMARK INTER:                  -4.940
REMARK INTRA:                  -0.211
REMARK UNBOUND:                -0.528
REMARK SMILES [NH3+]CCCC[C@@H]([NH3+])C(=O)[O-]
REMARK SMILES IDX 4 1 3 2 2 3 1 4 5 8 6 9 7 10 8 14 9 15 10 16
REMARK H PARENT 1 5 1 6 1 7 7 11 7 12 7 13
REMARK Flexibility Score: inf
ROOT
ATOM      1  C   UNL     1      25.335   0.399  18.472  1.00  0.00     0.012 C 
ENDROOT
BRANCH   1   2
ATOM      2  C   UNL     1      24.112   1.285  18.753  1.00  0.00     0.061 C 
BRANCH   2   3
ATOM      3  C   UNL     1      24.117   2.586  17.933  1.00  0.00     0.258 C 
BRANCH   3   4
ATOM      4  N   UNL     1      24.803   2.393  16.656  1.00  0.00    -0.358 N 
ATOM      5  H   UNL     1      24.149   1.975  15.955  1.00  0.00     0.344 HD
ATOM      6  H   UNL     1      25.631   1.766  16.784  1.00  0.00     0.344 HD
ATOM      7  H   UNL     1      25.133   3.320  16.301  1.00  0.00     0.344 HD
ENDBRANCH   3   4
ENDBRANCH   2   3
ENDBRANCH   1   2
BRANCH   1   8
ATOM      8  C   UNL     1      24.951  -1.061  18.166  1.00  0.00     0.072 C 
BRANCH   8   9
ATOM      9  C   UNL     1      24.205  -1.196  16.820  1.00  0.00     0.227 C 
BRANCH   9  10
ATOM     10  N   UNL     1      25.118  -0.940  15.699  1.00  0.00    -0.350 N 
ATOM     11  H   UNL     1      25.410  -1.838  15.248  1.00  0.00     0.345 HD
ATOM     12  H   UNL     1      25.968  -0.437  16.041  1.00  0.00     0.345 HD
ATOM     13  H   UNL     1      24.646  -0.335  14.988  1.00  0.00     0.345 HD
ENDBRANCH   9  10
BRANCH   9  14
ATOM     14  C   UNL     1      23.579  -2.559  16.676  1.00  0.00     0.099 C 
ATOM     15  O   UNL     1      24.259  -3.601  16.881  1.00  0.00    -0.544 OA
ATOM     16  O   UNL     1      22.240  -2.674  16.324  1.00  0.00    -0.544 OA
ENDBRANCH   9  14
ENDBRANCH   8   9
ENDBRANCH   1   8
TORSDOF 7
ENDMDL
MODEL 7
REMARK VINA RESULT:    -3.416      2.052      2.451
REMARK INTER + INTRA:          -5.142
REMARK INTER:                  -4.613
REMARK INTRA:                  -0.529
REMARK UNBOUND:                -0.528
REMARK SMILES [NH3+]CCCC[C@@H]([NH3+])C(=O)[O-]
REMARK SMILES IDX 4 1 3 2 2 3 1 4 5 8 6 9 7 10 8 14 9 15 10 16
REMARK H PARENT 1 5 1 6 1 7 7 11 7 12 7 13
REMARK Flexibility Score: inf
ROOT
ATOM      1  C   UNL     1      22.711   2.340  18.793  1.00  0.00     0.012 C 
ENDROOT
BRANCH   1   2
ATOM      2  C   UNL     1      23.903   3.309  18.780  1.00  0.00     0.061 C 
BRANCH   2   3
ATOM      3  C   UNL     1      24.273   3.779  17.363  1.00  0.00     0.258 C 
BRANCH   3   4
ATOM      4  N   UNL     1      24.874   2.690  16.594  1.00  0.00    -0.358 N 
ATOM      5  H   UNL     1      24.542   1.767  16.957  1.00  0.00     0.344 HD
ATOM      6  H   UNL     1      25.918   2.740  16.655  1.00  0.00     0.344 HD
ATOM      7  H   UNL     1      24.590   2.782  15.591  1.00  0.00     0.344 HD
ENDBRANCH   3   4
ENDBRANCH   2   3
ENDBRANCH   1   2
BRANCH   1   8
ATOM      8  C   UNL     1      23.064   0.975  19.414  1.00  0.00     0.072 C 
BRANCH   8   9
ATOM      9  C   UNL     1      23.157  -0.142  18.351  1.00  0.00     0.227 C 
BRANCH   9  10
ATOM     10  N   UNL     1      22.541   0.295  17.092  1.00  0.00    -0.350 N 
ATOM     11  H   UNL     1      22.059   1.216  17.217  1.00  0.00     0.345 HD
ATOM     12  H   UNL     1      21.843  -0.416  16.773  1.00  0.00     0.345 HD
ATOM     13  H   UNL     1      23.273   0.387  16.351  1.00  0.00     0.345 HD
ENDBRANCH   9  10
BRANCH   9  14
ATOM     14  C   UNL     1      24.587  -0.552  18.112  1.00  0.00     0.099 C 
ATOM     15  O   UNL     1      25.533   0.236  18.387  1.00  0.00    -0.544 OA
ATOM     16  O   UNL     1      24.872  -1.808  17.594  1.00  0.00    -0.544 OA
ENDBRANCH   9  14
ENDBRANCH   8   9
ENDBRANCH   1   8
TORSDOF 7
ENDMDL
MODEL 8
REMARK VINA RESULT:    -3.383      2.354      3.306
REMARK INTER + INTRA:          -5.098
REMARK INTER:                  -4.625
REMARK INTRA:                  -0.472
REMARK UNBOUND:                -0.528
REMARK SMILES [NH3+]CCCC[C@@H]([NH3+])C(=O)[O-]
REMARK SMILES IDX 4 1 3 2 2 3 1 4 5 8 6 9 7 10 8 14 9 15 10 16
REMARK H PARENT 1 5 1 6 1 7 7 11 7 12 7 13
REMARK Flexibility Score: inf
ROOT
ATOM      1  C   UNL     1      23.020  -0.062  18.075  1.00  0.00     0.012 C 
ENDROOT
BRANCH   1   2
ATOM      2  C   UNL     1      21.712   0.326  18.781  1.00  0.00     0.061 C 
BRANCH   2   3
ATOM      3  C   UNL     1      21.942   1.217  20.013  1.00  0.00     0.258 C 
BRANCH   3   4
ATOM      4  N   UNL     1      21.563   2.601  19.732  1.00  0.00    -0.358 N 
ATOM      5  H   UNL     1      21.753   3.203  20.567  1.00  0.00     0.344 HD
ATOM      6  H   UNL     1      20.549   2.653  19.482  1.00  0.00     0.344 HD
ATOM      7  H   UNL     1      22.128   2.954  18.926  1.00  0.00     0.344 HD
ENDBRANCH   3   4
ENDBRANCH   2   3
ENDBRANCH   1   2
BRANCH   1   8
ATOM      8  C   UNL     1      24.263   0.542  18.756  1.00  0.00     0.072 C 
BRANCH   8   9
ATOM      9  C   UNL     1      25.136   1.346  17.766  1.00  0.00     0.227 C 
BRANCH   9  10
ATOM     10  N   UNL     1      24.944   0.854  16.396  1.00  0.00    -0.350 N 
ATOM     11  H   UNL     1      25.853   0.842  15.877  1.00  0.00     0.345 HD
ATOM     12  H   UNL     1      24.268   1.470  15.889  1.00  0.00     0.345 HD
ATOM     13  H   UNL     1      24.547  -0.114  16.418  1.00  0.00     0.345 HD
ENDBRANCH   9  10
BRANCH   9  14
ATOM     14  C   UNL     1      24.829   2.819  17.836  1.00  0.00     0.099 C 
ATOM     15  O   UNL     1      24.901   3.537  16.802  1.00  0.00    -0.544 OA
ATOM     16  O   UNL     1      24.455   3.393  19.043  1.00  0.00    -0.544 OA
ENDBRANCH   9  14
ENDBRANCH   8   9
ENDBRANCH   1   8
TORSDOF 7
ENDMDL
MODEL 9
REMARK VINA RESULT:    -3.368      9.720     10.557
REMARK INTER + INTRA:          -5.078
REMARK INTER:                  -4.839
REMARK INTRA:                  -0.239
REMARK UNBOUND:                -0.528
REMARK SMILES [NH3+]CCCC[C@@H]([NH3+])C(=O)[O-]
REMARK SMILES IDX 4 1 3 2 2 3 1 4 5 8 6 9 7 10 8 14 9 15 10 16
REMARK H PARENT 1 5 1 6 1 7 7 11 7 12 7 13
REMARK Flexibility Score: inf
ROOT
ATOM      1  C   UNL     1      28.417   1.941   7.714  1.00  0.00     0.012 C 
ENDROOT
BRANCH   1   2
ATOM      2  C   UNL     1      27.807   0.816   8.565  1.00  0.00     0.061 C 
BRANCH   2   3
ATOM      3  C   UNL     1      28.872  -0.043   9.268  1.00  0.00     0.258 C 
BRANCH   3   4
ATOM      4  N   UNL     1      29.111   0.437  10.628  1.00  0.00    -0.358 N 
ATOM      5  H   UNL     1      28.365   0.085  11.271  1.00  0.00     0.344 HD
ATOM      6  H   UNL     1      29.127   1.483  10.644  1.00  0.00     0.344 HD
ATOM      7  H   UNL     1      30.038   0.080  10.959  1.00  0.00     0.344 HD
ENDBRANCH   3   4
ENDBRANCH   2   3
ENDBRANCH   1   2
BRANCH   1   8
ATOM      8  C   UNL     1      28.561   3.261   8.493  1.00  0.00     0.072 C 
BRANCH   8   9
ATOM      9  C   UNL     1      27.275   3.621   9.272  1.00  0.00     0.227 C 
BRANCH   9  10
ATOM     10  N   UNL     1      27.550   3.689  10.712  1.00  0.00    -0.350 N 
ATOM     11  H   UNL     1      28.035   4.585  10.954  1.00  0.00     0.345 HD
ATOM     12  H   UNL     1      28.155   2.885  10.997  1.00  0.00     0.345 HD
ATOM     13  H   UNL     1      26.654   3.627  11.248  1.00  0.00     0.345 HD
ENDBRANCH   9  10
BRANCH   9  14
ATOM     14  C   UNL     1      26.693   4.926   8.793  1.00  0.00     0.099 C 
ATOM     15  O   UNL     1      26.727   5.949   9.528  1.00  0.00    -0.544 OA
ATOM     16  O   UNL     1      26.120   5.009   7.531  1.00  0.00    -0.544 OA
ENDBRANCH   9  14
ENDBRANCH   8   9
ENDBRANCH   1   8
TORSDOF 7
ENDMDL
