MODEL 1
REMARK VINA RESULT:    -6.741      0.000      0.000
REMARK INTER + INTRA:          -8.388
REMARK INTER:                  -8.120
REMARK INTRA:                  -0.268
REMARK UNBOUND:                -0.268
REMARK SMILES O=c1c(O)c(-c2ccc(O)c(O)c2)oc2cc(O)cc(O)c12
REMARK SMILES IDX 5 1 3 2 2 3 1 4 22 5 20 6 19 7 17 8 16 9 15 10 14 11 6 12
REMARK SMILES IDX 7 13 8 14 9 15 13 16 11 17 10 18 12 20 4 22 21 24 18 26
REMARK H PARENT 10 19 12 21 4 23 21 25 18 27
REMARK Flexibility Score: inf
ROOT
ATOM      1  C   UNL     1     138.005 149.125 142.395  1.00  0.00     0.180 A 
ATOM      2  C   UNL     1     138.201 148.994 141.009  1.00  0.00     0.208 A 
ATOM      3  C   UNL     1     137.180 149.403 140.136  1.00  0.00     0.238 A 
ATOM      4  O   UNL     1     137.382 149.334 138.895  1.00  0.00    -0.285 OA
ATOM      5  C   UNL     1     135.971 149.922 140.658  1.00  0.00     0.111 A 
ATOM      6  C   UNL     1     134.855 150.329 139.868  1.00  0.00     0.134 A 
ATOM      7  C   UNL     1     133.761 150.950 140.485  1.00  0.00     0.093 A 
ATOM      8  C   UNL     1     133.714 151.118 141.868  1.00  0.00     0.123 A 
ATOM      9  C   UNL     1     134.775 150.669 142.658  1.00  0.00     0.094 A 
ATOM     10  C   UNL     1     135.895 150.080 142.068  1.00  0.00     0.146 A 
ATOM     11  O   UNL     1     136.886 149.676 142.852  1.00  0.00    -0.452 OA
ENDROOT
BRANCH   1  12
ATOM     12  C   UNL     1     139.024 148.692 143.378  1.00  0.00     0.025 A 
ATOM     13  C   UNL     1     140.143 149.506 143.616  1.00  0.00     0.016 A 
ATOM     14  C   UNL     1     141.107 149.128 144.555  1.00  0.00     0.051 A 
ATOM     15  C   UNL     1     140.961 147.941 145.279  1.00  0.00     0.157 A 
ATOM     16  C   UNL     1     138.868 147.510 144.122  1.00  0.00     0.062 A 
ATOM     17  C   UNL     1     139.834 147.130 145.067  1.00  0.00     0.158 A 
BRANCH  15  18
ATOM     18  O   UNL     1     141.939 147.589 146.207  1.00  0.00    -0.504 OA
ATOM     19  H   UNL     1     141.914 146.709 146.708  1.00  0.00     0.293 HD
ENDBRANCH  15  18
BRANCH  17  20
ATOM     20  O   UNL     1     139.675 145.952 145.796  1.00  0.00    -0.504 OA
ATOM     21  H   UNL     1     139.516 145.964 146.797  1.00  0.00     0.293 HD
ENDBRANCH  17  20
ENDBRANCH   1  12
BRANCH   2  22
ATOM     22  O   UNL     1     139.410 148.500 140.513  1.00  0.00    -0.502 OA
ATOM     23  H   UNL     1     139.653 148.543 139.531  1.00  0.00     0.293 HD
ENDBRANCH   2  22
BRANCH   6  24
ATOM     24  O   UNL     1     134.759 150.124 138.488  1.00  0.00    -0.507 OA
ATOM     25  H   UNL     1     135.529 149.861 137.892  1.00  0.00     0.293 HD
ENDBRANCH   6  24
BRANCH   8  26
ATOM     26  O   UNL     1     132.603 151.725 142.450  1.00  0.00    -0.508 OA
ATOM     27  H   UNL     1     131.712 151.769 141.971  1.00  0.00     0.293 HD
ENDBRANCH   8  26
TORSDOF 6
ENDMDL
MODEL 2
REMARK VINA RESULT:    -6.440      0.654      1.427
REMARK INTER + INTRA:          -8.026
REMARK INTER:                  -7.839
REMARK INTRA:                  -0.187
REMARK UNBOUND:                -0.268
REMARK SMILES O=c1c(O)c(-c2ccc(O)c(O)c2)oc2cc(O)cc(O)c12
REMARK SMILES IDX 5 1 3 2 2 3 1 4 22 5 20 6 19 7 17 8 16 9 15 10 14 11 6 12
REMARK SMILES IDX 7 13 8 14 9 15 13 16 11 17 10 18 12 20 4 22 21 24 18 26
REMARK H PARENT 10 19 12 21 4 23 21 25 18 27
REMARK Flexibility Score: inf
ROOT
ATOM      1  C   UNL     1     137.721 148.757 142.539  1.00  0.00     0.180 A 
ATOM      2  C   UNL     1     137.991 148.686 141.161  1.00  0.00     0.208 A 
ATOM      3  C   UNL     1     137.053 149.212 140.257  1.00  0.00     0.238 A 
ATOM      4  O   UNL     1     137.325 149.194 139.027  1.00  0.00    -0.285 OA
ATOM      5  C   UNL     1     135.852 149.784 140.739  1.00  0.00     0.111 A 
ATOM      6  C   UNL     1     134.815 150.310 139.912  1.00  0.00     0.134 A 
ATOM      7  C   UNL     1     133.730 150.971 140.501  1.00  0.00     0.093 A 
ATOM      8  C   UNL     1     133.612 151.068 141.886  1.00  0.00     0.123 A 
ATOM      9  C   UNL     1     134.590 150.505 142.707  1.00  0.00     0.094 A 
ATOM     10  C   UNL     1     135.703 149.872 142.149  1.00  0.00     0.146 A 
ATOM     11  O   UNL     1     136.616 149.359 142.964  1.00  0.00    -0.452 OA
ENDROOT
BRANCH   1  12
ATOM     12  C   UNL     1     138.649 148.202 143.552  1.00  0.00     0.025 A 
ATOM     13  C   UNL     1     138.277 147.058 144.275  1.00  0.00     0.016 A 
ATOM     14  C   UNL     1     139.145 146.505 145.220  1.00  0.00     0.051 A 
ATOM     15  C   UNL     1     140.400 147.078 145.448  1.00  0.00     0.157 A 
ATOM     16  C   UNL     1     139.919 148.764 143.767  1.00  0.00     0.062 A 
ATOM     17  C   UNL     1     140.793 148.210 144.715  1.00  0.00     0.158 A 
BRANCH  15  18
ATOM     18  O   UNL     1     141.244 146.506 146.399  1.00  0.00    -0.504 OA
ATOM     19  H   UNL     1     141.134 146.681 147.390  1.00  0.00     0.293 HD
ENDBRANCH  15  18
BRANCH  17  20
ATOM     20  O   UNL     1     142.049 148.777 144.925  1.00  0.00    -0.504 OA
ATOM     21  H   UNL     1     142.891 148.358 144.548  1.00  0.00     0.293 HD
ENDBRANCH  17  20
ENDBRANCH   1  12
BRANCH   2  22
ATOM     22  O   UNL     1     139.193 148.136 140.707  1.00  0.00    -0.502 OA
ATOM     23  H   UNL     1     139.642 147.356 141.170  1.00  0.00     0.293 HD
ENDBRANCH   2  22
BRANCH   6  24
ATOM     24  O   UNL     1     134.789 150.186 138.520  1.00  0.00    -0.507 OA
ATOM     25  H   UNL     1     135.473 150.586 137.895  1.00  0.00     0.293 HD
ENDBRANCH   6  24
BRANCH   8  26
ATOM     26  O   UNL     1     132.510 151.719 142.438  1.00  0.00    -0.508 OA
ATOM     27  H   UNL     1     131.886 152.280 141.871  1.00  0.00     0.293 HD
ENDBRANCH   8  26
TORSDOF 6
ENDMDL
MODEL 3
REMARK VINA RESULT:    -6.217      1.483      6.868
REMARK INTER + INTRA:          -7.758
REMARK INTER:                  -7.512
REMARK INTRA:                  -0.246
REMARK UNBOUND:                -0.268
REMARK SMILES O=c1c(O)c(-c2ccc(O)c(O)c2)oc2cc(O)cc(O)c12
REMARK SMILES IDX 5 1 3 2 2 3 1 4 22 5 20 6 19 7 17 8 16 9 15 10 14 11 6 12
REMARK SMILES IDX 7 13 8 14 9 15 13 16 11 17 10 18 12 20 4 22 21 24 18 26
REMARK H PARENT 10 19 12 21 4 23 21 25 18 27
REMARK Flexibility Score: inf
ROOT
ATOM      1  C   UNL     1     137.475 148.756 142.645  1.00  0.00     0.180 A 
ATOM      2  C   UNL     1     138.825 149.118 142.504  1.00  0.00     0.208 A 
ATOM      3  C   UNL     1     139.781 148.526 143.347  1.00  0.00     0.238 A 
ATOM      4  O   UNL     1     140.995 148.814 143.180  1.00  0.00    -0.285 OA
ATOM      5  C   UNL     1     139.372 147.594 144.330  1.00  0.00     0.111 A 
ATOM      6  C   UNL     1     140.247 146.963 145.264  1.00  0.00     0.134 A 
ATOM      7  C   UNL     1     139.753 145.958 146.105  1.00  0.00     0.093 A 
ATOM      8  C   UNL     1     138.404 145.608 146.093  1.00  0.00     0.123 A 
ATOM      9  C   UNL     1     137.526 146.260 145.225  1.00  0.00     0.094 A 
ATOM     10  C   UNL     1     137.996 147.240 144.349  1.00  0.00     0.146 A 
ATOM     11  O   UNL     1     137.131 147.829 143.532  1.00  0.00    -0.452 OA
ENDROOT
BRANCH   1  12
ATOM     12  C   UNL     1     136.408 149.355 141.811  1.00  0.00     0.025 A 
ATOM     13  C   UNL     1     136.266 148.949 140.475  1.00  0.00     0.016 A 
ATOM     14  C   UNL     1     135.253 149.485 139.675  1.00  0.00     0.051 A 
ATOM     15  C   UNL     1     134.360 150.423 140.201  1.00  0.00     0.157 A 
ATOM     16  C   UNL     1     135.495 150.282 142.344  1.00  0.00     0.062 A 
ATOM     17  C   UNL     1     134.477 150.821 141.543  1.00  0.00     0.158 A 
BRANCH  15  18
ATOM     18  O   UNL     1     133.361 150.942 139.379  1.00  0.00    -0.504 OA
ATOM     19  H   UNL     1     133.574 151.482 138.549  1.00  0.00     0.293 HD
ENDBRANCH  15  18
BRANCH  17  20
ATOM     20  O   UNL     1     133.579 151.744 142.078  1.00  0.00    -0.504 OA
ATOM     21  H   UNL     1     132.695 151.455 142.479  1.00  0.00     0.293 HD
ENDBRANCH  17  20
ENDBRANCH   1  12
BRANCH   2  22
ATOM     22  O   UNL     1     139.211 150.025 141.513  1.00  0.00    -0.502 OA
ATOM     23  H   UNL     1     139.813 149.763 140.742  1.00  0.00     0.293 HD
ENDBRANCH   2  22
BRANCH   6  24
ATOM     24  O   UNL     1     141.594 147.303 145.423  1.00  0.00    -0.507 OA
ATOM     25  H   UNL     1     142.109 147.913 144.805  1.00  0.00     0.293 HD
ENDBRANCH   6  24
BRANCH   8  26
ATOM     26  O   UNL     1     137.943 144.615 146.955  1.00  0.00    -0.508 OA
ATOM     27  H   UNL     1     137.484 144.843 147.829  1.00  0.00     0.293 HD
ENDBRANCH   8  26
TORSDOF 6
ENDMDL
MODEL 4
REMARK VINA RESULT:    -5.907      1.871      7.041
REMARK INTER + INTRA:          -7.384
REMARK INTER:                  -7.336
REMARK INTRA:                  -0.048
REMARK UNBOUND:                -0.268
REMARK SMILES O=c1c(O)c(-c2ccc(O)c(O)c2)oc2cc(O)cc(O)c12
REMARK SMILES IDX 5 1 3 2 2 3 1 4 22 5 20 6 19 7 17 8 16 9 15 10 14 11 6 12
REMARK SMILES IDX 7 13 8 14 9 15 13 16 11 17 10 18 12 20 4 22 21 24 18 26
REMARK H PARENT 10 19 12 21 4 23 21 25 18 27
REMARK Flexibility Score: inf
ROOT
ATOM      1  C   UNL     1     139.022 148.720 142.161  1.00  0.00     0.180 A 
ATOM      2  C   UNL     1     139.809 147.847 141.390  1.00  0.00     0.208 A 
ATOM      3  C   UNL     1     141.040 147.406 141.905  1.00  0.00     0.238 A 
ATOM      4  O   UNL     1     141.714 146.582 141.233  1.00  0.00    -0.285 OA
ATOM      5  C   UNL     1     141.475 147.857 143.174  1.00  0.00     0.111 A 
ATOM      6  C   UNL     1     142.721 147.507 143.775  1.00  0.00     0.134 A 
ATOM      7  C   UNL     1     142.989 147.906 145.090  1.00  0.00     0.093 A 
ATOM      8  C   UNL     1     142.088 148.695 145.802  1.00  0.00     0.123 A 
ATOM      9  C   UNL     1     140.892 149.094 145.203  1.00  0.00     0.094 A 
ATOM     10  C   UNL     1     140.580 148.681 143.905  1.00  0.00     0.146 A 
ATOM     11  O   UNL     1     139.427 149.073 143.375  1.00  0.00    -0.452 OA
ENDROOT
BRANCH   1  12
ATOM     12  C   UNL     1     137.726 149.248 141.675  1.00  0.00     0.025 A 
ATOM     13  C   UNL     1     136.596 149.170 142.504  1.00  0.00     0.016 A 
ATOM     14  C   UNL     1     135.367 149.680 142.075  1.00  0.00     0.051 A 
ATOM     15  C   UNL     1     135.253 150.287 140.821  1.00  0.00     0.157 A 
ATOM     16  C   UNL     1     137.614 149.877 140.423  1.00  0.00     0.062 A 
ATOM     17  C   UNL     1     136.382 150.392 139.992  1.00  0.00     0.158 A 
BRANCH  15  18
ATOM     18  O   UNL     1     134.015 150.785 140.419  1.00  0.00    -0.504 OA
ATOM     19  H   UNL     1     133.691 150.715 139.462  1.00  0.00     0.293 HD
ENDBRANCH  15  18
BRANCH  17  20
ATOM     20  O   UNL     1     136.279 151.009 138.746  1.00  0.00    -0.504 OA
ATOM     21  H   UNL     1     137.057 151.032 138.098  1.00  0.00     0.293 HD
ENDBRANCH  17  20
ENDBRANCH   1  12
BRANCH   2  22
ATOM     22  O   UNL     1     139.351 147.397 140.149  1.00  0.00    -0.502 OA
ATOM     23  H   UNL     1     139.522 147.905 139.289  1.00  0.00     0.293 HD
ENDBRANCH   2  22
BRANCH   6  24
ATOM     24  O   UNL     1     143.732 146.798 143.119  1.00  0.00    -0.507 OA
ATOM     25  H   UNL     1     144.211 145.996 143.501  1.00  0.00     0.293 HD
ENDBRANCH   6  24
BRANCH   8  26
ATOM     26  O   UNL     1     142.395 149.088 147.103  1.00  0.00    -0.508 OA
ATOM     27  H   UNL     1     143.164 149.718 147.299  1.00  0.00     0.293 HD
ENDBRANCH   8  26
TORSDOF 6
ENDMDL
MODEL 5
REMARK VINA RESULT:    -5.876     10.358     12.312
REMARK INTER + INTRA:          -7.346
REMARK INTER:                  -7.288
REMARK INTRA:                  -0.058
REMARK UNBOUND:                -0.268
REMARK SMILES O=c1c(O)c(-c2ccc(O)c(O)c2)oc2cc(O)cc(O)c12
REMARK SMILES IDX 5 1 3 2 2 3 1 4 22 5 20 6 19 7 17 8 16 9 15 10 14 11 6 12
REMARK SMILES IDX 7 13 8 14 9 15 13 16 11 17 10 18 12 20 4 22 21 24 18 26
REMARK H PARENT 10 19 12 21 4 23 21 25 18 27
REMARK Flexibility Score: inf
ROOT
ATOM      1  C   UNL     1     147.602 146.603 142.026  1.00  0.00     0.180 A 
ATOM      2  C   UNL     1     147.072 145.557 141.251  1.00  0.00     0.208 A 
ATOM      3  C   UNL     1     147.037 144.260 141.789  1.00  0.00     0.238 A 
ATOM      4  O   UNL     1     146.513 143.338 141.111  1.00  0.00    -0.285 OA
ATOM      5  C   UNL     1     147.548 144.023 143.087  1.00  0.00     0.111 A 
ATOM      6  C   UNL     1     147.600 142.743 143.716  1.00  0.00     0.134 A 
ATOM      7  C   UNL     1     148.005 142.646 145.054  1.00  0.00     0.093 A 
ATOM      8  C   UNL     1     148.420 143.771 145.763  1.00  0.00     0.123 A 
ATOM      9  C   UNL     1     148.430 145.021 145.140  1.00  0.00     0.094 A 
ATOM     10  C   UNL     1     147.998 145.154 143.819  1.00  0.00     0.146 A 
ATOM     11  O   UNL     1     148.012 146.360 143.265  1.00  0.00    -0.452 OA
ENDROOT
BRANCH   1  12
ATOM     12  C   UNL     1     147.695 147.991 141.517  1.00  0.00     0.025 A 
ATOM     13  C   UNL     1     147.201 149.047 142.299  1.00  0.00     0.016 A 
ATOM     14  C   UNL     1     147.297 150.366 141.848  1.00  0.00     0.051 A 
ATOM     15  C   UNL     1     147.900 150.651 140.619  1.00  0.00     0.157 A 
ATOM     16  C   UNL     1     148.319 148.281 140.292  1.00  0.00     0.062 A 
ATOM     17  C   UNL     1     148.418 149.606 139.838  1.00  0.00     0.158 A 
BRANCH  15  18
ATOM     18  O   UNL     1     147.979 151.977 140.195  1.00  0.00    -0.504 OA
ATOM     19  H   UNL     1     147.168 152.583 140.167  1.00  0.00     0.293 HD
ENDBRANCH  15  18
BRANCH  17  20
ATOM     20  O   UNL     1     149.034 149.884 138.619  1.00  0.00    -0.504 OA
ATOM     21  H   UNL     1     148.634 149.579 137.739  1.00  0.00     0.293 HD
ENDBRANCH  17  20
ENDBRANCH   1  12
BRANCH   2  22
ATOM     22  O   UNL     1     146.553 145.817 139.979  1.00  0.00    -0.502 OA
ATOM     23  H   UNL     1     146.220 145.082 139.367  1.00  0.00     0.293 HD
ENDBRANCH   2  22
BRANCH   6  24
ATOM     24  O   UNL     1     147.294 141.542 143.069  1.00  0.00    -0.507 OA
ATOM     25  H   UNL     1     146.383 141.300 142.709  1.00  0.00     0.293 HD
ENDBRANCH   6  24
BRANCH   8  26
ATOM     26  O   UNL     1     148.832 143.636 147.088  1.00  0.00    -0.508 OA
ATOM     27  H   UNL     1     148.707 142.769 147.596  1.00  0.00     0.293 HD
ENDBRANCH   8  26
TORSDOF 6
ENDMDL
MODEL 6
REMARK VINA RESULT:    -5.814      1.764      6.727
REMARK INTER + INTRA:          -7.272
REMARK INTER:                  -7.737
REMARK INTRA:                   0.465
REMARK UNBOUND:                -0.268
REMARK SMILES O=c1c(O)c(-c2ccc(O)c(O)c2)oc2cc(O)cc(O)c12
REMARK SMILES IDX 5 1 3 2 2 3 1 4 22 5 20 6 19 7 17 8 16 9 15 10 14 11 6 12
REMARK SMILES IDX 7 13 8 14 9 15 13 16 11 17 10 18 12 20 4 22 21 24 18 26
REMARK H PARENT 10 19 12 21 4 23 21 25 18 27
REMARK Flexibility Score: inf
ROOT
ATOM      1  C   UNL     1     138.029 149.427 141.176  1.00  0.00     0.180 A 
ATOM      2  C   UNL     1     138.639 149.279 139.918  1.00  0.00     0.208 A 
ATOM      3  C   UNL     1     139.994 148.914 139.858  1.00  0.00     0.238 A 
ATOM      4  O   UNL     1     140.520 148.731 138.729  1.00  0.00    -0.285 OA
ATOM      5  C   UNL     1     140.725 148.719 141.053  1.00  0.00     0.111 A 
ATOM      6  C   UNL     1     142.112 148.388 141.111  1.00  0.00     0.134 A 
ATOM      7  C   UNL     1     142.701 148.090 142.346  1.00  0.00     0.093 A 
ATOM      8  C   UNL     1     141.971 148.175 143.530  1.00  0.00     0.123 A 
ATOM      9  C   UNL     1     140.629 148.556 143.493  1.00  0.00     0.094 A 
ATOM     10  C   UNL     1     140.004 148.824 142.273  1.00  0.00     0.146 A 
ATOM     11  O   UNL     1     138.724 149.173 142.279  1.00  0.00    -0.452 OA
ENDROOT
BRANCH   1  12
ATOM     12  C   UNL     1     136.612 149.834 141.320  1.00  0.00     0.025 A 
ATOM     13  C   UNL     1     136.043 149.908 142.601  1.00  0.00     0.016 A 
ATOM     14  C   UNL     1     134.714 150.309 142.763  1.00  0.00     0.051 A 
ATOM     15  C   UNL     1     133.939 150.656 141.652  1.00  0.00     0.157 A 
ATOM     16  C   UNL     1     135.838 150.203 140.206  1.00  0.00     0.062 A 
ATOM     17  C   UNL     1     134.504 150.608 140.367  1.00  0.00     0.158 A 
BRANCH  15  18
ATOM     18  O   UNL     1     132.617 151.050 141.844  1.00  0.00    -0.504 OA
ATOM     19  H   UNL     1     132.100 150.813 142.682  1.00  0.00     0.293 HD
ENDBRANCH  15  18
BRANCH  17  20
ATOM     20  O   UNL     1     133.743 150.967 139.256  1.00  0.00    -0.504 OA
ATOM     21  H   UNL     1     133.769 150.429 138.397  1.00  0.00     0.293 HD
ENDBRANCH  17  20
ENDBRANCH   1  12
BRANCH   2  22
ATOM     22  O   UNL     1     137.893 149.455 138.749  1.00  0.00    -0.502 OA
ATOM     23  H   UNL     1     137.963 150.290 138.180  1.00  0.00     0.293 HD
ENDBRANCH   2  22
BRANCH   6  24
ATOM     24  O   UNL     1     142.956 148.365 139.996  1.00  0.00    -0.507 OA
ATOM     25  H   UNL     1     143.907 148.701 139.989  1.00  0.00     0.293 HD
ENDBRANCH   6  24
BRANCH   8  26
ATOM     26  O   UNL     1     142.594 147.887 144.744  1.00  0.00    -0.508 OA
ATOM     27  H   UNL     1     142.597 146.950 145.129  1.00  0.00     0.293 HD
ENDBRANCH   8  26
TORSDOF 6
ENDMDL
MODEL 7
REMARK VINA RESULT:    -5.702      2.383      3.632
REMARK INTER + INTRA:          -7.137
REMARK INTER:                  -7.021
REMARK INTRA:                  -0.116
REMARK UNBOUND:                -0.268
REMARK SMILES O=c1c(O)c(-c2ccc(O)c(O)c2)oc2cc(O)cc(O)c12
REMARK SMILES IDX 5 1 3 2 2 3 1 4 22 5 20 6 19 7 17 8 16 9 15 10 14 11 6 12
REMARK SMILES IDX 7 13 8 14 9 15 13 16 11 17 10 18 12 20 4 22 21 24 18 26
REMARK H PARENT 10 19 12 21 4 23 21 25 18 27
REMARK Flexibility Score: inf
ROOT
ATOM      1  C   UNL     1     137.762 147.520 143.698  1.00  0.00     0.180 A 
ATOM      2  C   UNL     1     139.003 148.100 143.386  1.00  0.00     0.208 A 
ATOM      3  C   UNL     1     139.074 149.036 142.341  1.00  0.00     0.238 A 
ATOM      4  O   UNL     1     140.178 149.592 142.101  1.00  0.00    -0.285 OA
ATOM      5  C   UNL     1     137.907 149.367 141.611  1.00  0.00     0.111 A 
ATOM      6  C   UNL     1     137.870 150.271 140.508  1.00  0.00     0.134 A 
ATOM      7  C   UNL     1     136.637 150.624 139.945  1.00  0.00     0.093 A 
ATOM      8  C   UNL     1     135.449 150.057 140.401  1.00  0.00     0.123 A 
ATOM      9  C   UNL     1     135.478 149.125 141.441  1.00  0.00     0.094 A 
ATOM     10  C   UNL     1     136.689 148.781 142.046  1.00  0.00     0.146 A 
ATOM     11  O   UNL     1     136.673 147.900 143.039  1.00  0.00    -0.452 OA
ENDROOT
BRANCH   1  12
ATOM     12  C   UNL     1     137.613 146.508 144.769  1.00  0.00     0.025 A 
ATOM     13  C   UNL     1     137.896 146.861 146.097  1.00  0.00     0.016 A 
ATOM     14  C   UNL     1     137.743 145.928 147.126  1.00  0.00     0.051 A 
ATOM     15  C   UNL     1     137.291 144.635 146.847  1.00  0.00     0.157 A 
ATOM     16  C   UNL     1     137.139 145.214 144.492  1.00  0.00     0.062 A 
ATOM     17  C   UNL     1     136.982 144.276 145.525  1.00  0.00     0.158 A 
BRANCH  15  18
ATOM     18  O   UNL     1     137.149 143.726 147.894  1.00  0.00    -0.504 OA
ATOM     19  H   UNL     1     136.700 142.827 147.769  1.00  0.00     0.293 HD
ENDBRANCH  15  18
BRANCH  17  20
ATOM     20  O   UNL     1     136.517 142.993 145.240  1.00  0.00    -0.504 OA
ATOM     21  H   UNL     1     136.061 142.775 144.362  1.00  0.00     0.293 HD
ENDBRANCH  17  20
ENDBRANCH   1  12
BRANCH   2  22
ATOM     22  O   UNL     1     140.139 147.775 144.133  1.00  0.00    -0.502 OA
ATOM     23  H   UNL     1     140.097 147.565 145.123  1.00  0.00     0.293 HD
ENDBRANCH   2  22
BRANCH   6  24
ATOM     24  O   UNL     1     139.008 150.825 139.914  1.00  0.00    -0.507 OA
ATOM     25  H   UNL     1     139.929 150.413 139.942  1.00  0.00     0.293 HD
ENDBRANCH   6  24
BRANCH   8  26
ATOM     26  O   UNL     1     134.241 150.418 139.806  1.00  0.00    -0.508 OA
ATOM     27  H   UNL     1     133.489 149.750 139.685  1.00  0.00     0.293 HD
ENDBRANCH   8  26
TORSDOF 6
ENDMDL
MODEL 8
REMARK VINA RESULT:    -5.648      6.844     10.077
REMARK INTER + INTRA:          -7.072
REMARK INTER:                  -6.951
REMARK INTRA:                  -0.120
REMARK UNBOUND:                -0.268
REMARK SMILES O=c1c(O)c(-c2ccc(O)c(O)c2)oc2cc(O)cc(O)c12
REMARK SMILES IDX 5 1 3 2 2 3 1 4 22 5 20 6 19 7 17 8 16 9 15 10 14 11 6 12
REMARK SMILES IDX 7 13 8 14 9 15 13 16 11 17 10 18 12 20 4 22 21 24 18 26
REMARK H PARENT 10 19 12 21 4 23 21 25 18 27
REMARK Flexibility Score: inf
ROOT
ATOM      1  C   UNL     1     145.972 147.587 143.444  1.00  0.00     0.180 A 
ATOM      2  C   UNL     1     146.825 146.523 143.106  1.00  0.00     0.208 A 
ATOM      3  C   UNL     1     147.744 146.695 142.057  1.00  0.00     0.238 A 
ATOM      4  O   UNL     1     148.542 145.757 141.794  1.00  0.00    -0.285 OA
ATOM      5  C   UNL     1     147.787 147.920 141.351  1.00  0.00     0.111 A 
ATOM      6  C   UNL     1     148.649 148.190 140.246  1.00  0.00     0.134 A 
ATOM      7  C   UNL     1     148.698 149.483 139.708  1.00  0.00     0.093 A 
ATOM      8  C   UNL     1     147.871 150.495 140.189  1.00  0.00     0.123 A 
ATOM      9  C   UNL     1     146.980 150.227 141.230  1.00  0.00     0.094 A 
ATOM     10  C   UNL     1     146.934 148.958 141.812  1.00  0.00     0.146 A 
ATOM     11  O   UNL     1     146.080 148.747 142.807  1.00  0.00    -0.452 OA
ENDROOT
BRANCH   1  12
ATOM     12  C   UNL     1     144.960 147.473 144.520  1.00  0.00     0.025 A 
ATOM     13  C   UNL     1     145.380 147.265 145.843  1.00  0.00     0.016 A 
ATOM     14  C   UNL     1     144.445 147.175 146.877  1.00  0.00     0.051 A 
ATOM     15  C   UNL     1     143.079 147.306 146.608  1.00  0.00     0.157 A 
ATOM     16  C   UNL     1     143.588 147.625 144.254  1.00  0.00     0.062 A 
ATOM     17  C   UNL     1     142.647 147.537 145.292  1.00  0.00     0.158 A 
BRANCH  15  18
ATOM     18  O   UNL     1     142.169 147.210 147.659  1.00  0.00    -0.504 OA
ATOM     19  H   UNL     1     141.601 147.995 147.954  1.00  0.00     0.293 HD
ENDBRANCH  15  18
BRANCH  17  20
ATOM     20  O   UNL     1     141.288 147.683 145.018  1.00  0.00    -0.504 OA
ATOM     21  H   UNL     1     140.587 147.130 145.497  1.00  0.00     0.293 HD
ENDBRANCH  17  20
ENDBRANCH   1  12
BRANCH   2  22
ATOM     22  O   UNL     1     146.782 145.328 143.830  1.00  0.00    -0.502 OA
ATOM     23  H   UNL     1     147.607 144.766 144.000  1.00  0.00     0.293 HD
ENDBRANCH   2  22
BRANCH   6  24
ATOM     24  O   UNL     1     149.451 147.226 139.628  1.00  0.00    -0.507 OA
ATOM     25  H   UNL     1     150.317 147.422 139.149  1.00  0.00     0.293 HD
ENDBRANCH   6  24
BRANCH   8  26
ATOM     26  O   UNL     1     147.934 151.765 139.619  1.00  0.00    -0.508 OA
ATOM     27  H   UNL     1     147.096 152.299 139.420  1.00  0.00     0.293 HD
ENDBRANCH   8  26
TORSDOF 6
ENDMDL
MODEL 9
REMARK VINA RESULT:    -5.031     10.289     10.938
REMARK INTER + INTRA:          -6.328
REMARK INTER:                  -6.024
REMARK INTRA:                  -0.304
REMARK UNBOUND:                -0.268
REMARK SMILES O=c1c(O)c(-c2ccc(O)c(O)c2)oc2cc(O)cc(O)c12
REMARK SMILES IDX 5 1 3 2 2 3 1 4 22 5 20 6 19 7 17 8 16 9 15 10 14 11 6 12
REMARK SMILES IDX 7 13 8 14 9 15 13 16 11 17 10 18 12 20 4 22 21 24 18 26
REMARK H PARENT 10 19 12 21 4 23 21 25 18 27
REMARK Flexibility Score: inf
ROOT
ATOM      1  C   UNL     1     147.744 146.446 142.273  1.00  0.00     0.180 A 
ATOM      2  C   UNL     1     147.901 145.770 141.052  1.00  0.00     0.208 A 
ATOM      3  C   UNL     1     147.993 146.518 139.866  1.00  0.00     0.238 A 
ATOM      4  O   UNL     1     148.187 145.909 138.782  1.00  0.00    -0.285 OA
ATOM      5  C   UNL     1     147.911 147.930 139.916  1.00  0.00     0.111 A 
ATOM      6  C   UNL     1     147.951 148.785 138.775  1.00  0.00     0.134 A 
ATOM      7  C   UNL     1     147.994 150.174 138.953  1.00  0.00     0.093 A 
ATOM      8  C   UNL     1     147.930 150.738 140.225  1.00  0.00     0.123 A 
ATOM      9  C   UNL     1     147.830 149.913 141.347  1.00  0.00     0.094 A 
ATOM     10  C   UNL     1     147.822 148.524 141.203  1.00  0.00     0.146 A 
ATOM     11  O   UNL     1     147.736 147.774 142.295  1.00  0.00    -0.452 OA
ENDROOT
BRANCH   1  12
ATOM     12  C   UNL     1     147.614 145.726 143.561  1.00  0.00     0.025 A 
ATOM     13  C   UNL     1     148.771 145.307 144.237  1.00  0.00     0.016 A 
ATOM     14  C   UNL     1     148.673 144.644 145.464  1.00  0.00     0.051 A 
ATOM     15  C   UNL     1     147.421 144.403 146.039  1.00  0.00     0.157 A 
ATOM     16  C   UNL     1     146.358 145.501 144.151  1.00  0.00     0.062 A 
ATOM     17  C   UNL     1     146.258 144.837 145.383  1.00  0.00     0.158 A 
BRANCH  15  18
ATOM     18  O   UNL     1     147.355 143.738 147.262  1.00  0.00    -0.504 OA
ATOM     19  H   UNL     1     147.303 144.234 148.143  1.00  0.00     0.293 HD
ENDBRANCH  15  18
BRANCH  17  20
ATOM     20  O   UNL     1     145.007 144.613 145.958  1.00  0.00    -0.504 OA
ATOM     21  H   UNL     1     144.232 144.247 145.418  1.00  0.00     0.293 HD
ENDBRANCH  17  20
ENDBRANCH   1  12
BRANCH   2  22
ATOM     22  O   UNL     1     148.001 144.376 141.027  1.00  0.00    -0.502 OA
ATOM     23  H   UNL     1     147.277 143.785 140.636  1.00  0.00     0.293 HD
ENDBRANCH   2  22
BRANCH   6  24
ATOM     24  O   UNL     1     147.925 148.326 137.454  1.00  0.00    -0.507 OA
ATOM     25  H   UNL     1     147.780 148.912 136.646  1.00  0.00     0.293 HD
ENDBRANCH   6  24
BRANCH   8  26
ATOM     26  O   UNL     1     147.958 152.125 140.364  1.00  0.00    -0.508 OA
ATOM     27  H   UNL     1     148.573 152.702 139.803  1.00  0.00     0.293 HD
ENDBRANCH   8  26
TORSDOF 6
ENDMDL
