MODEL 1
REMARK VINA RESULT:    20.337      0.000      0.000
REMARK INTER + INTRA:          30.939
REMARK INTER:                  28.660
REMARK INTRA:                   2.279
REMARK UNBOUND:                 2.279
REMARK SMILES COc1ccc(-c2cc(=O)c3c(OC)c(OC)c(OC)c(OC)c3o2)cc1OC
REMARK SMILES IDX 7 1 8 2 9 3 10 4 11 5 24 6 25 7 21 8 18 9 15 10 12 11 6 12
REMARK SMILES IDX 3 13 27 14 4 15 26 16 5 17 2 18 1 19 28 20 29 21 22 22 23 23
REMARK SMILES IDX 13 24 14 25 19 26 20 27 16 28 17 29
REMARK H PARENT
REMARK Flexibility Score: inf
ROOT
ATOM      1  C   UNL     1      13.754  22.330   2.477  1.00  0.00     0.138 A 
ATOM      2  C   UNL     1      14.656  23.390   2.309  1.00  0.00     0.100 A 
ATOM      3  C   UNL     1      14.917  23.871   1.027  1.00  0.00     0.197 A 
ATOM      4  O   UNL     1      15.729  24.826   0.896  1.00  0.00    -0.289 OA
ATOM      5  C   UNL     1      14.277  23.283  -0.089  1.00  0.00     0.115 A 
ATOM      6  C   UNL     1      13.389  22.213   0.163  1.00  0.00     0.188 A 
ATOM      7  O   UNL     1      13.173  21.797   1.407  1.00  0.00    -0.452 OA
ATOM      8  C   UNL     1      12.736  21.555  -0.884  1.00  0.00     0.209 A 
ATOM      9  C   UNL     1      12.977  21.961  -2.216  1.00  0.00     0.211 A 
ATOM     10  C   UNL     1      13.792  23.085  -2.477  1.00  0.00     0.208 A 
ATOM     11  C   UNL     1      14.487  23.724  -1.420  1.00  0.00     0.179 A 
ENDROOT
BRANCH   1  12
ATOM     12  C   UNL     1      13.442  21.760   3.815  1.00  0.00     0.021 A 
ATOM     13  C   UNL     1      12.810  20.631   6.327  1.00  0.00     0.160 A 
ATOM     14  C   UNL     1      12.210  20.129   5.164  1.00  0.00     0.161 A 
ATOM     15  C   UNL     1      13.713  21.706   6.233  1.00  0.00     0.051 A 
ATOM     16  C   UNL     1      12.528  20.695   3.914  1.00  0.00     0.062 A 
ATOM     17  C   UNL     1      14.018  22.269   4.993  1.00  0.00     0.016 A 
BRANCH  13  18
ATOM     18  O   UNL     1      12.483  20.036   7.556  1.00  0.00    -0.493 OA
ATOM     19  C   UNL     1      12.629  20.669   8.823  1.00  0.00     0.278 C 
ENDBRANCH  13  18
BRANCH  14  20
ATOM     20  O   UNL     1      11.301  19.064   5.289  1.00  0.00    -0.493 OA
ATOM     21  C   UNL     1       9.912  19.216   5.564  1.00  0.00     0.278 C 
ENDBRANCH  14  20
ENDBRANCH   1  12
BRANCH   8  22
ATOM     22  O   UNL     1      11.873  20.500  -0.529  1.00  0.00    -0.490 OA
ATOM     23  C   UNL     1      12.231  19.139  -0.323  1.00  0.00     0.278 C 
ENDBRANCH   8  22
BRANCH  11  24
ATOM     24  O   UNL     1      15.381  24.795  -1.632  1.00  0.00    -0.492 OA
ATOM     25  C   UNL     1      15.558  25.944  -0.809  1.00  0.00     0.278 C 
ENDBRANCH  11  24
BRANCH   9  26
ATOM     26  O   UNL     1      12.423  21.239  -3.276  1.00  0.00    -0.490 OA
ATOM     27  C   UNL     1      13.137  20.206  -3.950  1.00  0.00     0.279 C 
ENDBRANCH   9  26
BRANCH  10  28
ATOM     28  O   UNL     1      13.904  23.573  -3.784  1.00  0.00    -0.490 OA
ATOM     29  C   UNL     1      13.670  24.937  -4.121  1.00  0.00     0.278 C 
ENDBRANCH  10  28
TORSDOF 7
ENDMDL
MODEL 2
REMARK VINA RESULT:    20.696      1.712      4.116
REMARK INTER + INTRA:          31.444
REMARK INTER:                  30.887
REMARK INTRA:                   0.557
REMARK UNBOUND:                 2.279
REMARK SMILES COc1ccc(-c2cc(=O)c3c(OC)c(OC)c(OC)c(OC)c3o2)cc1OC
REMARK SMILES IDX 7 1 8 2 9 3 10 4 11 5 24 6 25 7 21 8 18 9 15 10 12 11 6 12
REMARK SMILES IDX 3 13 27 14 4 15 26 16 5 17 2 18 1 19 28 20 29 21 22 22 23 23
REMARK SMILES IDX 13 24 14 25 19 26 20 27 16 28 17 29
REMARK H PARENT
REMARK Flexibility Score: inf
ROOT
ATOM      1  C   UNL     1      13.379  21.190   2.909  1.00  0.00     0.138 A 
ATOM      2  C   UNL     1      12.736  20.051   2.404  1.00  0.00     0.100 A 
ATOM      3  C   UNL     1      12.581  19.907   1.027  1.00  0.00     0.197 A 
ATOM      4  O   UNL     1      12.002  18.875   0.590  1.00  0.00    -0.289 OA
ATOM      5  C   UNL     1      13.064  20.910   0.154  1.00  0.00     0.115 A 
ATOM      6  C   UNL     1      13.692  22.032   0.743  1.00  0.00     0.188 A 
ATOM      7  O   UNL     1      13.818  22.116   2.064  1.00  0.00    -0.452 OA
ATOM      8  C   UNL     1      14.174  23.083  -0.042  1.00  0.00     0.209 A 
ATOM      9  C   UNL     1      14.021  23.028  -1.446  1.00  0.00     0.211 A 
ATOM     10  C   UNL     1      13.476  21.875  -2.053  1.00  0.00     0.208 A 
ATOM     11  C   UNL     1      12.949  20.828  -1.256  1.00  0.00     0.179 A 
ENDROOT
BRANCH   1  12
ATOM     12  C   UNL     1      13.564  21.412   4.369  1.00  0.00     0.021 A 
ATOM     13  C   UNL     1      13.942  21.896   7.127  1.00  0.00     0.160 A 
ATOM     14  C   UNL     1      14.361  22.848   6.186  1.00  0.00     0.161 A 
ATOM     15  C   UNL     1      13.350  20.699   6.685  1.00  0.00     0.051 A 
ATOM     16  C   UNL     1      14.170  22.601   4.812  1.00  0.00     0.062 A 
ATOM     17  C   UNL     1      13.171  20.457   5.322  1.00  0.00     0.016 A 
BRANCH  13  18
ATOM     18  O   UNL     1      14.133  22.177   8.489  1.00  0.00    -0.493 OA
ATOM     19  C   UNL     1      14.969  21.421   9.359  1.00  0.00     0.278 C 
ENDBRANCH  13  18
BRANCH  14  20
ATOM     20  O   UNL     1      14.963  24.028   6.654  1.00  0.00    -0.493 OA
ATOM     21  C   UNL     1      16.032  24.704   6.001  1.00  0.00     0.278 C 
ENDBRANCH  14  20
ENDBRANCH   1  12
BRANCH   8  22
ATOM     22  O   UNL     1      14.781  24.156   0.639  1.00  0.00    -0.490 OA
ATOM     23  C   UNL     1      16.155  24.521   0.603  1.00  0.00     0.278 C 
ENDBRANCH   8  22
BRANCH  11  24
ATOM     24  O   UNL     1      12.317  19.694  -1.806  1.00  0.00    -0.492 OA
ATOM     25  C   UNL     1      11.062  19.650  -2.479  1.00  0.00     0.278 C 
ENDBRANCH  11  24
BRANCH   9  26
ATOM     26  O   UNL     1      14.392  24.122  -2.232  1.00  0.00    -0.490 OA
ATOM     27  C   UNL     1      13.529  24.675  -3.223  1.00  0.00     0.279 C 
ENDBRANCH   9  26
BRANCH  10  28
ATOM     28  O   UNL     1      13.467  21.763  -3.449  1.00  0.00    -0.490 OA
ATOM     29  C   UNL     1      13.633  20.521  -4.125  1.00  0.00     0.278 C 
ENDBRANCH  10  28
TORSDOF 7
ENDMDL
MODEL 3
REMARK VINA RESULT:    21.373      1.375      3.888
REMARK INTER + INTRA:          32.399
REMARK INTER:                  31.761
REMARK INTRA:                   0.638
REMARK UNBOUND:                 2.279
REMARK SMILES COc1ccc(-c2cc(=O)c3c(OC)c(OC)c(OC)c(OC)c3o2)cc1OC
REMARK SMILES IDX 7 1 8 2 9 3 10 4 11 5 24 6 25 7 21 8 18 9 15 10 12 11 6 12
REMARK SMILES IDX 3 13 27 14 4 15 26 16 5 17 2 18 1 19 28 20 29 21 22 22 23 23
REMARK SMILES IDX 13 24 14 25 19 26 20 27 16 28 17 29
REMARK H PARENT
REMARK Flexibility Score: inf
ROOT
ATOM      1  C   UNL     1      13.365  21.136   2.519  1.00  0.00     0.138 A 
ATOM      2  C   UNL     1      12.675  20.217   1.717  1.00  0.00     0.100 A 
ATOM      3  C   UNL     1      12.648  20.400   0.335  1.00  0.00     0.197 A 
ATOM      4  O   UNL     1      12.024  19.562  -0.371  1.00  0.00    -0.289 OA
ATOM      5  C   UNL     1      13.308  21.510  -0.242  1.00  0.00     0.115 A 
ATOM      6  C   UNL     1      13.973  22.396   0.636  1.00  0.00     0.188 A 
ATOM      7  O   UNL     1      13.972  22.171   1.947  1.00  0.00    -0.452 OA
ATOM      8  C   UNL     1      14.627  23.534   0.155  1.00  0.00     0.209 A 
ATOM      9  C   UNL     1      14.612  23.808  -1.231  1.00  0.00     0.211 A 
ATOM     10  C   UNL     1      14.029  22.887  -2.129  1.00  0.00     0.208 A 
ATOM     11  C   UNL     1      13.329  21.756  -1.637  1.00  0.00     0.179 A 
ENDROOT
BRANCH   1  12
ATOM     12  C   UNL     1      13.422  21.008   4.001  1.00  0.00     0.021 A 
ATOM     13  C   UNL     1      13.546  20.830   6.818  1.00  0.00     0.160 A 
ATOM     14  C   UNL     1      13.896  22.027   6.177  1.00  0.00     0.161 A 
ATOM     15  C   UNL     1      13.150  19.721   6.048  1.00  0.00     0.051 A 
ATOM     16  C   UNL     1      13.832  22.110   4.772  1.00  0.00     0.062 A 
ATOM     17  C   UNL     1      13.097  19.807   4.656  1.00  0.00     0.016 A 
BRANCH  13  18
ATOM     18  O   UNL     1      13.606  20.782   8.220  1.00  0.00    -0.493 OA
ATOM     19  C   UNL     1      14.801  20.919   8.982  1.00  0.00     0.278 C 
ENDBRANCH  13  18
BRANCH  14  20
ATOM     20  O   UNL     1      14.302  23.114   6.969  1.00  0.00    -0.493 OA
ATOM     21  C   UNL     1      15.226  24.115   6.556  1.00  0.00     0.278 C 
ENDBRANCH  14  20
ENDBRANCH   1  12
BRANCH   8  22
ATOM     22  O   UNL     1      15.257  24.354   1.111  1.00  0.00    -0.490 OA
ATOM     23  C   UNL     1      16.567  24.193   1.640  1.00  0.00     0.278 C 
ENDBRANCH   8  22
BRANCH  11  24
ATOM     24  O   UNL     1      12.654  20.850  -2.482  1.00  0.00    -0.492 OA
ATOM     25  C   UNL     1      13.225  20.040  -3.506  1.00  0.00     0.278 C 
ENDBRANCH  11  24
BRANCH   9  26
ATOM     26  O   UNL     1      15.160  25.000  -1.712  1.00  0.00    -0.490 OA
ATOM     27  C   UNL     1      15.001  26.241  -1.030  1.00  0.00     0.279 C 
ENDBRANCH   9  26
BRANCH  10  28
ATOM     28  O   UNL     1      14.151  23.088  -3.508  1.00  0.00    -0.490 OA
ATOM     29  C   UNL     1      13.961  24.359  -4.123  1.00  0.00     0.278 C 
ENDBRANCH  10  28
TORSDOF 7
ENDMDL
MODEL 4
REMARK VINA RESULT:    21.830      1.983      2.526
REMARK INTER + INTRA:          33.043
REMARK INTER:                  33.685
REMARK INTRA:                  -0.642
REMARK UNBOUND:                 2.279
REMARK SMILES COc1ccc(-c2cc(=O)c3c(OC)c(OC)c(OC)c(OC)c3o2)cc1OC
REMARK SMILES IDX 7 1 8 2 9 3 10 4 11 5 24 6 25 7 21 8 18 9 15 10 12 11 6 12
REMARK SMILES IDX 3 13 27 14 4 15 26 16 5 17 2 18 1 19 28 20 29 21 22 22 23 23
REMARK SMILES IDX 13 24 14 25 19 26 20 27 16 28 17 29
REMARK H PARENT
REMARK Flexibility Score: inf
ROOT
ATOM      1  C   UNL     1      13.318  22.633   2.982  1.00  0.00     0.138 A 
ATOM      2  C   UNL     1      12.316  23.512   2.549  1.00  0.00     0.100 A 
ATOM      3  C   UNL     1      12.174  23.771   1.187  1.00  0.00     0.197 A 
ATOM      4  O   UNL     1      11.267  24.563   0.815  1.00  0.00    -0.289 OA
ATOM      5  C   UNL     1      13.043  23.152   0.258  1.00  0.00     0.115 A 
ATOM      6  C   UNL     1      14.033  22.286   0.775  1.00  0.00     0.188 A 
ATOM      7  O   UNL     1      14.121  22.070   2.085  1.00  0.00    -0.452 OA
ATOM      8  C   UNL     1      14.952  21.654  -0.068  1.00  0.00     0.209 A 
ATOM      9  C   UNL     1      14.896  21.894  -1.459  1.00  0.00     0.211 A 
ATOM     10  C   UNL     1      13.859  22.686  -1.999  1.00  0.00     0.208 A 
ATOM     11  C   UNL     1      12.954  23.360  -1.141  1.00  0.00     0.179 A 
ENDROOT
BRANCH   1  12
ATOM     12  C   UNL     1      13.533  22.325   4.422  1.00  0.00     0.021 A 
ATOM     13  C   UNL     1      13.899  21.688   7.150  1.00  0.00     0.160 A 
ATOM     14  C   UNL     1      13.000  20.944   6.373  1.00  0.00     0.161 A 
ATOM     15  C   UNL     1      14.601  22.757   6.565  1.00  0.00     0.051 A 
ATOM     16  C   UNL     1      12.821  21.266   5.013  1.00  0.00     0.062 A 
ATOM     17  C   UNL     1      14.414  23.077   5.219  1.00  0.00     0.016 A 
BRANCH  13  18
ATOM     18  O   UNL     1      14.067  21.334   8.498  1.00  0.00    -0.493 OA
ATOM     19  C   UNL     1      15.299  20.914   9.076  1.00  0.00     0.278 C 
ENDBRANCH  13  18
BRANCH  14  20
ATOM     20  O   UNL     1      12.301  19.891   6.987  1.00  0.00    -0.493 OA
ATOM     21  C   UNL     1      11.248  19.155   6.374  1.00  0.00     0.278 C 
ENDBRANCH  14  20
ENDBRANCH   1  12
BRANCH   8  22
ATOM     22  O   UNL     1      15.900  20.812   0.546  1.00  0.00    -0.490 OA
ATOM     23  C   UNL     1      17.275  21.099   0.772  1.00  0.00     0.278 C 
ENDBRANCH   8  22
BRANCH  11  24
ATOM     24  O   UNL     1      11.953  24.232  -1.620  1.00  0.00    -0.492 OA
ATOM     25  C   UNL     1      12.140  25.416  -2.390  1.00  0.00     0.278 C 
ENDBRANCH  11  24
BRANCH   9  26
ATOM     26  O   UNL     1      15.878  21.363  -2.299  1.00  0.00    -0.490 OA
ATOM     27  C   UNL     1      15.671  20.171  -3.053  1.00  0.00     0.279 C 
ENDBRANCH   9  26
BRANCH  10  28
ATOM     28  O   UNL     1      13.719  22.796  -3.387  1.00  0.00    -0.490 OA
ATOM     29  C   UNL     1      12.721  22.093  -4.122  1.00  0.00     0.278 C 
ENDBRANCH  10  28
TORSDOF 7
ENDMDL
MODEL 5
REMARK VINA RESULT:    22.719      2.341      4.713
REMARK INTER + INTRA:          34.295
REMARK INTER:                  31.772
REMARK INTRA:                   2.523
REMARK UNBOUND:                 2.279
REMARK SMILES COc1ccc(-c2cc(=O)c3c(OC)c(OC)c(OC)c(OC)c3o2)cc1OC
REMARK SMILES IDX 7 1 8 2 9 3 10 4 11 5 24 6 25 7 21 8 18 9 15 10 12 11 6 12
REMARK SMILES IDX 3 13 27 14 4 15 26 16 5 17 2 18 1 19 28 20 29 21 22 22 23 23
REMARK SMILES IDX 13 24 14 25 19 26 20 27 16 28 17 29
REMARK H PARENT
REMARK Flexibility Score: inf
ROOT
ATOM      1  C   UNL     1      14.799  22.716   1.631  1.00  0.00     0.138 A 
ATOM      2  C   UNL     1      14.255  21.433   1.781  1.00  0.00     0.100 A 
ATOM      3  C   UNL     1      13.666  20.806   0.685  1.00  0.00     0.197 A 
ATOM      4  O   UNL     1      13.184  19.651   0.838  1.00  0.00    -0.289 OA
ATOM      5  C   UNL     1      13.616  21.469  -0.563  1.00  0.00     0.115 A 
ATOM      6  C   UNL     1      14.178  22.765  -0.631  1.00  0.00     0.188 A 
ATOM      7  O   UNL     1      14.733  23.314   0.446  1.00  0.00    -0.452 OA
ATOM      8  C   UNL     1      14.148  23.504  -1.817  1.00  0.00     0.209 A 
ATOM      9  C   UNL     1      13.534  22.951  -2.963  1.00  0.00     0.211 A 
ATOM     10  C   UNL     1      13.048  21.625  -2.936  1.00  0.00     0.208 A 
ATOM     11  C   UNL     1      13.041  20.892  -1.723  1.00  0.00     0.179 A 
ENDROOT
BRANCH   1  12
ATOM     12  C   UNL     1      15.429  23.447   2.763  1.00  0.00     0.021 A 
ATOM     13  C   UNL     1      16.581  24.806   4.956  1.00  0.00     0.160 A 
ATOM     14  C   UNL     1      15.465  23.981   5.153  1.00  0.00     0.161 A 
ATOM     15  C   UNL     1      17.109  24.962   3.661  1.00  0.00     0.051 A 
ATOM     16  C   UNL     1      14.894  23.306   4.056  1.00  0.00     0.062 A 
ATOM     17  C   UNL     1      16.534  24.296   2.577  1.00  0.00     0.016 A 
BRANCH  13  18
ATOM     18  O   UNL     1      17.136  25.454   6.071  1.00  0.00    -0.493 OA
ATOM     19  C   UNL     1      16.947  26.831   6.382  1.00  0.00     0.278 C 
ENDBRANCH  13  18
BRANCH  14  20
ATOM     20  O   UNL     1      14.949  23.856   6.454  1.00  0.00    -0.493 OA
ATOM     21  C   UNL     1      14.537  22.629   7.046  1.00  0.00     0.278 C 
ENDBRANCH  14  20
ENDBRANCH   1  12
BRANCH   8  22
ATOM     22  O   UNL     1      14.732  24.785  -1.780  1.00  0.00    -0.490 OA
ATOM     23  C   UNL     1      14.447  25.826  -0.854  1.00  0.00     0.278 C 
ENDBRANCH   8  22
BRANCH  11  24
ATOM     24  O   UNL     1      12.490  19.597  -1.617  1.00  0.00    -0.492 OA
ATOM     25  C   UNL     1      11.111  19.242  -1.674  1.00  0.00     0.278 C 
ENDBRANCH  11  24
BRANCH   9  26
ATOM     26  O   UNL     1      13.393  23.722  -4.120  1.00  0.00    -0.490 OA
ATOM     27  C   UNL     1      13.602  25.132  -4.125  1.00  0.00     0.279 C 
ENDBRANCH   9  26
BRANCH  10  28
ATOM     28  O   UNL     1      12.581  21.032  -4.114  1.00  0.00    -0.490 OA
ATOM     29  C   UNL     1      11.574  20.025  -4.125  1.00  0.00     0.278 C 
ENDBRANCH  10  28
TORSDOF 7
ENDMDL
MODEL 6
REMARK VINA RESULT:    23.129      2.339      3.377
REMARK INTER + INTRA:          34.874
REMARK INTER:                  35.307
REMARK INTRA:                  -0.434
REMARK UNBOUND:                 2.279
REMARK SMILES COc1ccc(-c2cc(=O)c3c(OC)c(OC)c(OC)c(OC)c3o2)cc1OC
REMARK SMILES IDX 7 1 8 2 9 3 10 4 11 5 24 6 25 7 21 8 18 9 15 10 12 11 6 12
REMARK SMILES IDX 3 13 27 14 4 15 26 16 5 17 2 18 1 19 28 20 29 21 22 22 23 23
REMARK SMILES IDX 13 24 14 25 19 26 20 27 16 28 17 29
REMARK H PARENT
REMARK Flexibility Score: inf
ROOT
ATOM      1  C   UNL     1      13.296  22.604   2.969  1.00  0.00     0.138 A 
ATOM      2  C   UNL     1      12.270  23.464   2.555  1.00  0.00     0.100 A 
ATOM      3  C   UNL     1      12.054  23.666   1.193  1.00  0.00     0.197 A 
ATOM      4  O   UNL     1      11.125  24.442   0.839  1.00  0.00    -0.289 OA
ATOM      5  C   UNL     1      12.873  23.010   0.245  1.00  0.00     0.115 A 
ATOM      6  C   UNL     1      13.892  22.167   0.743  1.00  0.00     0.188 A 
ATOM      7  O   UNL     1      14.051  22.005   2.054  1.00  0.00    -0.452 OA
ATOM      8  C   UNL     1      14.766  21.501  -0.122  1.00  0.00     0.209 A 
ATOM      9  C   UNL     1      14.635  21.685  -1.517  1.00  0.00     0.211 A 
ATOM     10  C   UNL     1      13.567  22.453  -2.032  1.00  0.00     0.208 A 
ATOM     11  C   UNL     1      12.708  23.162  -1.154  1.00  0.00     0.179 A 
ENDROOT
BRANCH   1  12
ATOM     12  C   UNL     1      13.589  22.355   4.407  1.00  0.00     0.021 A 
ATOM     13  C   UNL     1      14.179  21.940   7.139  1.00  0.00     0.160 A 
ATOM     14  C   UNL     1      14.692  23.064   6.475  1.00  0.00     0.161 A 
ATOM     15  C   UNL     1      13.385  21.019   6.431  1.00  0.00     0.051 A 
ATOM     16  C   UNL     1      14.395  23.265   5.113  1.00  0.00     0.062 A 
ATOM     17  C   UNL     1      13.101  21.220   5.079  1.00  0.00     0.016 A 
BRANCH  13  18
ATOM     18  O   UNL     1      14.481  21.775   8.500  1.00  0.00    -0.493 OA
ATOM     19  C   UNL     1      15.602  21.050   8.995  1.00  0.00     0.278 C 
ENDBRANCH  13  18
BRANCH  14  20
ATOM     20  O   UNL     1      15.495  23.959   7.202  1.00  0.00    -0.493 OA
ATOM     21  C   UNL     1      16.121  25.113   6.652  1.00  0.00     0.278 C 
ENDBRANCH  14  20
ENDBRANCH   1  12
BRANCH   8  22
ATOM     22  O   UNL     1      15.748  20.686   0.473  1.00  0.00    -0.490 OA
ATOM     23  C   UNL     1      17.085  21.054   0.787  1.00  0.00     0.278 C 
ENDBRANCH   8  22
BRANCH  11  24
ATOM     24  O   UNL     1      11.681  24.012  -1.614  1.00  0.00    -0.492 OA
ATOM     25  C   UNL     1      11.830  25.214  -2.364  1.00  0.00     0.278 C 
ENDBRANCH  11  24
BRANCH   9  26
ATOM     26  O   UNL     1      15.571  21.120  -2.386  1.00  0.00    -0.490 OA
ATOM     27  C   UNL     1      15.329  19.898  -3.077  1.00  0.00     0.279 C 
ENDBRANCH   9  26
BRANCH  10  28
ATOM     28  O   UNL     1      13.353  22.507  -3.414  1.00  0.00    -0.490 OA
ATOM     29  C   UNL     1      12.638  21.500  -4.124  1.00  0.00     0.278 C 
ENDBRANCH  10  28
TORSDOF 7
ENDMDL
