MODEL 1
REMARK VINA RESULT:    -7.162      0.000      0.000
REMARK INTER + INTRA:         -13.941
REMARK INTER:                 -12.396
REMARK INTRA:                  -1.545
REMARK UNBOUND:                -1.545
REMARK SMILES OC[C@@H]1O[C@H](O[C@@H]2[C@H](O)[C@H](O)[C@@H](O[C@@H]3[C@@H](O)[C@H](O)[C@H](O)O[C@@H]3CO)O[C@@H]2CO)[C@H](O)[C@H](O)[C@@H]1O
REMARK SMILES IDX 7 1 26 2 25 3 12 4 10 5 8 6 6 7 5 8 3 9 33 10 4 11 31 12
REMARK SMILES IDX 29 13 2 14 1 15 34 17 32 19 30 21 27 23 28 24 9 26 11 28
REMARK SMILES IDX 13 30 14 31 22 32 15 33 21 34 17 35 19 36 23 37 24 38 16 40
REMARK SMILES IDX 18 42 20 44
REMARK H PARENT 1 16 34 18 32 20 30 22 28 25 9 27 11 29 24 39 16 41 18 43
REMARK H PARENT 20 45
REMARK Flexibility Score: inf
ROOT
ATOM      1  C   UNL     1      37.748   2.917  45.260  1.00  0.00     0.184 C 
ATOM      2  C   UNL     1      36.835   1.868  44.562  1.00  0.00     0.178 C 
ATOM      3  O   UNL     1      37.417   1.448  43.338  1.00  0.00    -0.341 OA
ATOM      4  C   UNL     1      38.623   0.728  43.549  1.00  0.00     0.282 C 
ATOM      5  C   UNL     1      39.679   1.599  44.256  1.00  0.00     0.202 C 
ATOM      6  C   UNL     1      39.088   2.210  45.548  1.00  0.00     0.180 C 
ENDROOT
BRANCH   1   7
ATOM      7  O   UNL     1      37.977   4.058  44.430  1.00  0.00    -0.341 OA
BRANCH   7   8
ATOM      8  C   UNL     1      38.056   5.263  45.183  1.00  0.00     0.282 C 
ATOM      9  C   UNL     1      39.457   6.696  43.811  1.00  0.00     0.178 C 
ATOM     10  C   UNL     1      38.238   7.586  43.426  1.00  0.00     0.177 C 
ATOM     11  O   UNL     1      39.309   5.910  44.995  1.00  0.00    -0.341 OA
ATOM     12  C   UNL     1      36.903   6.856  43.550  1.00  0.00     0.179 C 
ATOM     13  C   UNL     1      36.840   6.180  44.922  1.00  0.00     0.202 C 
BRANCH   9  14
ATOM     14  C   UNL     1      40.090   5.904  42.651  1.00  0.00     0.191 C 
BRANCH  14  15
ATOM     15  O   UNL     1      39.202   4.970  42.115  1.00  0.00    -0.394 OA
ATOM     16  H   UNL     1      38.567   5.486  41.555  1.00  0.00     0.210 HD
ENDBRANCH  14  15
ENDBRANCH   9  14
BRANCH  10  17
ATOM     17  O   UNL     1      38.370   8.104  42.128  1.00  0.00    -0.387 OA
ATOM     18  H   UNL     1      38.381   9.095  42.208  1.00  0.00     0.211 HD
ENDBRANCH  10  17
BRANCH  12  19
ATOM     19  O   UNL     1      36.750   5.923  42.512  1.00  0.00    -0.387 OA
ATOM     20  H   UNL     1      37.029   5.040  42.871  1.00  0.00     0.211 HD
ENDBRANCH  12  19
BRANCH  13  21
ATOM     21  O   UNL     1      35.618   5.507  45.102  1.00  0.00    -0.385 OA
ATOM     22  H   UNL     1      35.813   4.545  45.245  1.00  0.00     0.211 HD
ENDBRANCH  13  21
ENDBRANCH   7   8
ENDBRANCH   1   7
BRANCH   2  23
ATOM     23  C   UNL     1      35.409   2.350  44.290  1.00  0.00     0.191 C 
BRANCH  23  24
ATOM     24  O   UNL     1      35.350   3.037  43.069  1.00  0.00    -0.394 OA
ATOM     25  H   UNL     1      34.527   2.719  42.611  1.00  0.00     0.210 HD
ENDBRANCH  23  24
ENDBRANCH   2  23
BRANCH   6  26
ATOM     26  O   UNL     1      39.991   3.098  46.146  1.00  0.00    -0.387 OA
ATOM     27  H   UNL     1      40.689   3.299  45.469  1.00  0.00     0.211 HD
ENDBRANCH   6  26
BRANCH   5  28
ATOM     28  O   UNL     1      40.105   2.613  43.379  1.00  0.00    -0.385 OA
ATOM     29  H   UNL     1      40.737   2.195  42.736  1.00  0.00     0.211 HD
ENDBRANCH   5  28
BRANCH   4  30
ATOM     30  O   UNL     1      38.370  -0.440  44.323  1.00  0.00    -0.341 OA
BRANCH  30  31
ATOM     31  C   UNL     1      38.860  -1.632  43.731  1.00  0.00     0.184 C 
ATOM     32  C   UNL     1      38.165  -2.853  44.389  1.00  0.00     0.178 C 
ATOM     33  C   UNL     1      38.597  -1.604  42.219  1.00  0.00     0.180 C 
ATOM     34  O   UNL     1      38.494  -4.088  43.760  1.00  0.00    -0.342 OA
ATOM     35  C   UNL     1      38.977  -2.965  41.618  1.00  0.00     0.201 C 
ATOM     36  C   UNL     1      38.260  -4.115  42.357  1.00  0.00     0.279 C 
BRANCH  32  37
ATOM     37  C   UNL     1      36.645  -2.677  44.610  1.00  0.00     0.191 C 
BRANCH  37  38
ATOM     38  O   UNL     1      36.095  -3.836  45.174  1.00  0.00    -0.394 OA
ATOM     39  H   UNL     1      35.596  -4.302  44.454  1.00  0.00     0.210 HD
ENDBRANCH  37  38
ENDBRANCH  32  37
BRANCH  33  40
ATOM     40  O   UNL     1      39.371  -0.591  41.627  1.00  0.00    -0.387 OA
ATOM     41  H   UNL     1      38.981   0.277  41.912  1.00  0.00     0.211 HD
ENDBRANCH  33  40
BRANCH  35  42
ATOM     42  O   UNL     1      38.712  -3.013  40.234  1.00  0.00    -0.385 OA
ATOM     43  H   UNL     1      37.742  -3.191  40.116  1.00  0.00     0.211 HD
ENDBRANCH  35  42
BRANCH  36  44
ATOM     44  O   UNL     1      36.880  -4.125  42.085  1.00  0.00    -0.366 OA
ATOM     45  H   UNL     1      36.521  -3.240  42.349  1.00  0.00     0.213 HD
ENDBRANCH  36  44
ENDBRANCH  30  31
ENDBRANCH   4  30
TORSDOF 18
ENDMDL
MODEL 2
REMARK VINA RESULT:    -6.711      2.201      8.145
REMARK INTER + INTRA:         -13.160
REMARK INTER:                 -11.304
REMARK INTRA:                  -1.856
REMARK UNBOUND:                -1.545
REMARK SMILES OC[C@@H]1O[C@H](O[C@@H]2[C@H](O)[C@H](O)[C@@H](O[C@@H]3[C@@H](O)[C@H](O)[C@H](O)O[C@@H]3CO)O[C@@H]2CO)[C@H](O)[C@H](O)[C@@H]1O
REMARK SMILES IDX 7 1 26 2 25 3 12 4 10 5 8 6 6 7 5 8 3 9 33 10 4 11 31 12
REMARK SMILES IDX 29 13 2 14 1 15 34 17 32 19 30 21 27 23 28 24 9 26 11 28
REMARK SMILES IDX 13 30 14 31 22 32 15 33 21 34 17 35 19 36 23 37 24 38 16 40
REMARK SMILES IDX 18 42 20 44
REMARK H PARENT 1 16 34 18 32 20 30 22 28 25 9 27 11 29 24 39 16 41 18 43
REMARK H PARENT 20 45
REMARK Flexibility Score: inf
ROOT
ATOM      1  C   UNL     1      36.185   1.829  43.834  1.00  0.00     0.184 C 
ATOM      2  C   UNL     1      34.781   2.228  44.375  1.00  0.00     0.178 C 
ATOM      3  O   UNL     1      34.849   2.495  45.767  1.00  0.00    -0.341 OA
ATOM      4  C   UNL     1      35.634   3.646  46.045  1.00  0.00     0.282 C 
ATOM      5  C   UNL     1      37.087   3.461  45.566  1.00  0.00     0.202 C 
ATOM      6  C   UNL     1      37.108   3.040  44.078  1.00  0.00     0.180 C 
ENDROOT
BRANCH   1   7
ATOM      7  O   UNL     1      36.707   0.684  44.510  1.00  0.00    -0.341 OA
BRANCH   7   8
ATOM      8  C   UNL     1      36.761  -0.460  43.665  1.00  0.00     0.282 C 
ATOM      9  C   UNL     1      39.137  -0.939  43.512  1.00  0.00     0.178 C 
ATOM     10  C   UNL     1      38.980  -2.206  44.405  1.00  0.00     0.177 C 
ATOM     11  O   UNL     1      37.947  -0.469  42.878  1.00  0.00    -0.341 OA
ATOM     12  C   UNL     1      37.750  -2.151  45.308  1.00  0.00     0.179 C 
ATOM     13  C   UNL     1      36.536  -1.767  44.459  1.00  0.00     0.202 C 
BRANCH   9  14
ATOM     14  C   UNL     1      39.973   0.201  44.123  1.00  0.00     0.191 C 
BRANCH  14  15
ATOM     15  O   UNL     1      39.421   0.665  45.319  1.00  0.00    -0.394 OA
ATOM     16  H   UNL     1      40.186   0.823  45.930  1.00  0.00     0.210 HD
ENDBRANCH  14  15
ENDBRANCH   9  14
BRANCH  10  17
ATOM     17  O   UNL     1      40.125  -2.430  45.186  1.00  0.00    -0.387 OA
ATOM     18  H   UNL     1      40.126  -1.745  45.906  1.00  0.00     0.211 HD
ENDBRANCH  10  17
BRANCH  12  19
ATOM     19  O   UNL     1      37.948  -1.241  46.359  1.00  0.00    -0.387 OA
ATOM     20  H   UNL     1      38.369  -1.745  47.104  1.00  0.00     0.211 HD
ENDBRANCH  12  19
BRANCH  13  21
ATOM     21  O   UNL     1      35.365  -1.721  45.237  1.00  0.00    -0.385 OA
ATOM     22  H   UNL     1      34.729  -2.392  44.878  1.00  0.00     0.211 HD
ENDBRANCH  13  21
ENDBRANCH   7   8
ENDBRANCH   1   7
BRANCH   2  23
ATOM     23  C   UNL     1      33.687   1.189  44.125  1.00  0.00     0.191 C 
BRANCH  23  24
ATOM     24  O   UNL     1      33.042   1.442  42.906  1.00  0.00    -0.394 OA
ATOM     25  H   UNL     1      33.703   1.234  42.194  1.00  0.00     0.210 HD
ENDBRANCH  23  24
ENDBRANCH   2  23
BRANCH   6  26
ATOM     26  O   UNL     1      38.413   2.753  43.654  1.00  0.00    -0.387 OA
ATOM     27  H   UNL     1      38.469   3.017  42.699  1.00  0.00     0.211 HD
ENDBRANCH   6  26
BRANCH   5  28
ATOM     28  O   UNL     1      37.717   2.491  46.365  1.00  0.00    -0.385 OA
ATOM     29  H   UNL     1      38.157   2.971  47.115  1.00  0.00     0.211 HD
ENDBRANCH   5  28
BRANCH   4  30
ATOM     30  O   UNL     1      35.066   4.792  45.418  1.00  0.00    -0.341 OA
BRANCH  30  31
ATOM     31  C   UNL     1      35.896   5.940  45.471  1.00  0.00     0.184 C 
ATOM     32  C   UNL     1      36.338   6.318  44.034  1.00  0.00     0.178 C 
ATOM     33  C   UNL     1      35.135   7.098  46.131  1.00  0.00     0.180 C 
ATOM     34  O   UNL     1      37.063   7.543  43.976  1.00  0.00    -0.342 OA
ATOM     35  C   UNL     1      35.980   8.377  46.030  1.00  0.00     0.201 C 
ATOM     36  C   UNL     1      36.395   8.650  44.569  1.00  0.00     0.279 C 
BRANCH  32  37
ATOM     37  C   UNL     1      35.210   6.237  42.979  1.00  0.00     0.191 C 
BRANCH  37  38
ATOM     38  O   UNL     1      35.680   5.637  41.803  1.00  0.00    -0.394 OA
ATOM     39  H   UNL     1      35.144   6.004  41.054  1.00  0.00     0.210 HD
ENDBRANCH  37  38
ENDBRANCH  32  37
BRANCH  33  40
ATOM     40  O   UNL     1      34.896   6.793  47.482  1.00  0.00    -0.387 OA
ATOM     41  H   UNL     1      34.592   5.847  47.517  1.00  0.00     0.211 HD
ENDBRANCH  33  40
BRANCH  35  42
ATOM     42  O   UNL     1      35.309   9.486  46.581  1.00  0.00    -0.385 OA
ATOM     43  H   UNL     1      34.617   9.777  45.930  1.00  0.00     0.211 HD
ENDBRANCH  35  42
BRANCH  36  44
ATOM     44  O   UNL     1      35.296   9.044  43.784  1.00  0.00    -0.366 OA
ATOM     45  H   UNL     1      35.548   9.886  43.326  1.00  0.00     0.213 HD
ENDBRANCH  36  44
ENDBRANCH  30  31
ENDBRANCH   4  30
TORSDOF 18
ENDMDL
MODEL 3
REMARK VINA RESULT:    -6.641      1.689      3.787
REMARK INTER + INTRA:         -13.039
REMARK INTER:                 -12.663
REMARK INTRA:                  -0.376
REMARK UNBOUND:                -1.545
REMARK SMILES OC[C@@H]1O[C@H](O[C@@H]2[C@H](O)[C@H](O)[C@@H](O[C@@H]3[C@@H](O)[C@H](O)[C@H](O)O[C@@H]3CO)O[C@@H]2CO)[C@H](O)[C@H](O)[C@@H]1O
REMARK SMILES IDX 7 1 26 2 25 3 12 4 10 5 8 6 6 7 5 8 3 9 33 10 4 11 31 12
REMARK SMILES IDX 29 13 2 14 1 15 34 17 32 19 30 21 27 23 28 24 9 26 11 28
REMARK SMILES IDX 13 30 14 31 22 32 15 33 21 34 17 35 19 36 23 37 24 38 16 40
REMARK SMILES IDX 18 42 20 44
REMARK H PARENT 1 16 34 18 32 20 30 22 28 25 9 27 11 29 24 39 16 41 18 43
REMARK H PARENT 20 45
REMARK Flexibility Score: inf
ROOT
ATOM      1  C   UNL     1      37.725   3.423  43.686  1.00  0.00     0.184 C 
ATOM      2  C   UNL     1      39.005   2.941  44.429  1.00  0.00     0.178 C 
ATOM      3  O   UNL     1      38.682   2.526  45.747  1.00  0.00    -0.341 OA
ATOM      4  C   UNL     1      37.861   1.366  45.746  1.00  0.00     0.282 C 
ATOM      5  C   UNL     1      36.522   1.629  45.031  1.00  0.00     0.202 C 
ATOM      6  C   UNL     1      36.775   2.210  43.621  1.00  0.00     0.180 C 
ENDROOT
BRANCH   1   7
ATOM      7  O   UNL     1      37.084   4.497  44.376  1.00  0.00    -0.341 OA
BRANCH   7   8
ATOM      8  C   UNL     1      36.497   5.435  43.482  1.00  0.00     0.282 C 
ATOM      9  C   UNL     1      35.326   6.968  44.957  1.00  0.00     0.178 C 
ATOM     10  C   UNL     1      36.370   8.092  44.684  1.00  0.00     0.177 C 
ATOM     11  O   UNL     1      35.259   5.926  43.982  1.00  0.00    -0.341 OA
ATOM     12  C   UNL     1      37.723   7.552  44.227  1.00  0.00     0.179 C 
ATOM     13  C   UNL     1      37.493   6.552  43.091  1.00  0.00     0.202 C 
BRANCH   9  14
ATOM     14  C   UNL     1      35.294   6.431  46.400  1.00  0.00     0.191 C 
BRANCH  14  15
ATOM     15  O   UNL     1      34.925   7.421  47.313  1.00  0.00    -0.394 OA
ATOM     16  H   UNL     1      35.332   8.264  46.983  1.00  0.00     0.210 HD
ENDBRANCH  14  15
ENDBRANCH   9  14
BRANCH  10  17
ATOM     17  O   UNL     1      36.548   8.911  45.809  1.00  0.00    -0.387 OA
ATOM     18  H   UNL     1      35.705   9.423  45.935  1.00  0.00     0.211 HD
ENDBRANCH  10  17
BRANCH  12  19
ATOM     19  O   UNL     1      38.407   6.958  45.300  1.00  0.00    -0.387 OA
ATOM     20  H   UNL     1      38.815   7.694  45.827  1.00  0.00     0.211 HD
ENDBRANCH  12  19
BRANCH  13  21
ATOM     21  O   UNL     1      38.711   6.035  42.614  1.00  0.00    -0.385 OA
ATOM     22  H   UNL     1      38.621   5.885  41.638  1.00  0.00     0.211 HD
ENDBRANCH  13  21
ENDBRANCH   7   8
ENDBRANCH   1   7
BRANCH   2  23
ATOM     23  C   UNL     1      40.125   3.981  44.502  1.00  0.00     0.191 C 
BRANCH  23  24
ATOM     24  O   UNL     1      39.968   4.791  45.636  1.00  0.00    -0.394 OA
ATOM     25  H   UNL     1      40.824   5.282  45.747  1.00  0.00     0.210 HD
ENDBRANCH  23  24
ENDBRANCH   2  23
BRANCH   6  26
ATOM     26  O   UNL     1      35.572   2.565  42.997  1.00  0.00    -0.387 OA
ATOM     27  H   UNL     1      35.417   1.904  42.272  1.00  0.00     0.211 HD
ENDBRANCH   6  26
BRANCH   5  28
ATOM     28  O   UNL     1      35.753   2.518  45.802  1.00  0.00    -0.385 OA
ATOM     29  H   UNL     1      34.828   2.497  45.437  1.00  0.00     0.211 HD
ENDBRANCH   5  28
BRANCH   4  30
ATOM     30  O   UNL     1      38.538   0.285  45.113  1.00  0.00    -0.341 OA
BRANCH  30  31
ATOM     31  C   UNL     1      37.673  -0.603  44.425  1.00  0.00     0.184 C 
ATOM     32  C   UNL     1      38.416  -1.196  43.200  1.00  0.00     0.178 C 
ATOM     33  C   UNL     1      37.214  -1.717  45.376  1.00  0.00     0.180 C 
ATOM     34  O   UNL     1      37.670  -2.206  42.528  1.00  0.00    -0.342 OA
ATOM     35  C   UNL     1      36.418  -2.761  44.580  1.00  0.00     0.201 C 
ATOM     36  C   UNL     1      37.228  -3.267  43.367  1.00  0.00     0.279 C 
BRANCH  32  37
ATOM     37  C   UNL     1      39.877  -1.617  43.484  1.00  0.00     0.191 C 
BRANCH  37  38
ATOM     38  O   UNL     1      40.037  -1.946  44.837  1.00  0.00    -0.394 OA
ATOM     39  H   UNL     1      39.735  -1.163  45.366  1.00  0.00     0.210 HD
ENDBRANCH  37  38
ENDBRANCH  32  37
BRANCH  33  40
ATOM     40  O   UNL     1      36.402  -1.168  46.384  1.00  0.00    -0.387 OA
ATOM     41  H   UNL     1      36.239  -0.219  46.141  1.00  0.00     0.211 HD
ENDBRANCH  33  40
BRANCH  35  42
ATOM     42  O   UNL     1      36.008  -3.835  45.396  1.00  0.00    -0.385 OA
ATOM     43  H   UNL     1      35.150  -4.181  45.035  1.00  0.00     0.211 HD
ENDBRANCH  35  42
BRANCH  36  44
ATOM     44  O   UNL     1      38.313  -4.067  43.767  1.00  0.00    -0.366 OA
ATOM     45  H   UNL     1      39.126  -3.501  43.731  1.00  0.00     0.213 HD
ENDBRANCH  36  44
ENDBRANCH  30  31
ENDBRANCH   4  30
TORSDOF 18
ENDMDL
MODEL 4
REMARK VINA RESULT:    -6.619     13.865     16.011
REMARK INTER + INTRA:         -13.001
REMARK INTER:                 -10.365
REMARK INTRA:                  -2.636
REMARK UNBOUND:                -1.545
REMARK SMILES OC[C@@H]1O[C@H](O[C@@H]2[C@H](O)[C@H](O)[C@@H](O[C@@H]3[C@@H](O)[C@H](O)[C@H](O)O[C@@H]3CO)O[C@@H]2CO)[C@H](O)[C@H](O)[C@@H]1O
REMARK SMILES IDX 7 1 26 2 25 3 12 4 10 5 8 6 6 7 5 8 3 9 33 10 4 11 31 12
REMARK SMILES IDX 29 13 2 14 1 15 34 17 32 19 30 21 27 23 28 24 9 26 11 28
REMARK SMILES IDX 13 30 14 31 22 32 15 33 21 34 17 35 19 36 23 37 24 38 16 40
REMARK SMILES IDX 18 42 20 44
REMARK H PARENT 1 16 34 18 32 20 30 22 28 25 9 27 11 29 24 39 16 41 18 43
REMARK H PARENT 20 45
REMARK Flexibility Score: inf
ROOT
ATOM      1  C   UNL     1      22.505   2.395  36.846  1.00  0.00     0.184 C 
ATOM      2  C   UNL     1      23.235   1.414  35.883  1.00  0.00     0.178 C 
ATOM      3  O   UNL     1      24.414   2.014  35.371  1.00  0.00    -0.341 OA
ATOM      4  C   UNL     1      25.379   2.231  36.392  1.00  0.00     0.282 C 
ATOM      5  C   UNL     1      24.840   3.184  37.477  1.00  0.00     0.202 C 
ATOM      6  C   UNL     1      23.480   2.674  38.007  1.00  0.00     0.180 C 
ENDROOT
BRANCH   1   7
ATOM      7  O   UNL     1      22.168   3.622  36.197  1.00  0.00    -0.341 OA
BRANCH   7   8
ATOM      8  C   UNL     1      20.834   4.030  36.480  1.00  0.00     0.282 C 
ATOM      9  C   UNL     1      21.079   6.359  37.124  1.00  0.00     0.178 C 
ATOM     10  C   UNL     1      20.429   6.837  35.793  1.00  0.00     0.177 C 
ATOM     11  O   UNL     1      20.799   5.012  37.510  1.00  0.00    -0.341 OA
ATOM     12  C   UNL     1      20.545   5.811  34.669  1.00  0.00     0.179 C 
ATOM     13  C   UNL     1      20.082   4.451  35.197  1.00  0.00     0.202 C 
BRANCH   9  14
ATOM     14  C   UNL     1      22.563   6.730  37.306  1.00  0.00     0.191 C 
BRANCH  14  15
ATOM     15  O   UNL     1      23.063   6.283  38.531  1.00  0.00    -0.394 OA
ATOM     16  H   UNL     1      22.424   6.603  39.220  1.00  0.00     0.210 HD
ENDBRANCH  14  15
ENDBRANCH   9  14
BRANCH  10  17
ATOM     17  O   UNL     1      20.969   8.061  35.367  1.00  0.00    -0.387 OA
ATOM     18  H   UNL     1      21.169   7.971  34.398  1.00  0.00     0.211 HD
ENDBRANCH  10  17
BRANCH  12  19
ATOM     19  O   UNL     1      21.863   5.750  34.187  1.00  0.00    -0.387 OA
ATOM     20  H   UNL     1      21.822   5.911  33.208  1.00  0.00     0.211 HD
ENDBRANCH  12  19
BRANCH  13  21
ATOM     21  O   UNL     1      20.147   3.466  34.195  1.00  0.00    -0.385 OA
ATOM     22  H   UNL     1      19.321   3.525  33.650  1.00  0.00     0.211 HD
ENDBRANCH  13  21
ENDBRANCH   7   8
ENDBRANCH   1   7
BRANCH   2  23
ATOM     23  C   UNL     1      22.383   0.926  34.710  1.00  0.00     0.191 C 
BRANCH  23  24
ATOM     24  O   UNL     1      22.327   1.903  33.706  1.00  0.00    -0.394 OA
ATOM     25  H   UNL     1      21.725   2.617  34.046  1.00  0.00     0.210 HD
ENDBRANCH  23  24
ENDBRANCH   2  23
BRANCH   6  26
ATOM     26  O   UNL     1      22.917   3.585  38.910  1.00  0.00    -0.387 OA
ATOM     27  H   UNL     1      22.094   3.163  39.270  1.00  0.00     0.211 HD
ENDBRANCH   6  26
BRANCH   5  28
ATOM     28  O   UNL     1      24.708   4.475  36.934  1.00  0.00    -0.385 OA
ATOM     29  H   UNL     1      25.626   4.832  36.802  1.00  0.00     0.211 HD
ENDBRANCH   5  28
BRANCH   4  30
ATOM     30  O   UNL     1      25.754   0.993  36.986  1.00  0.00    -0.341 OA
BRANCH  30  31
ATOM     31  C   UNL     1      27.033   0.532  36.582  1.00  0.00     0.184 C 
ATOM     32  C   UNL     1      28.099   1.032  37.589  1.00  0.00     0.178 C 
ATOM     33  C   UNL     1      27.029  -1.001  36.507  1.00  0.00     0.180 C 
ATOM     34  O   UNL     1      29.398   0.501  37.340  1.00  0.00    -0.342 OA
ATOM     35  C   UNL     1      28.458  -1.494  36.234  1.00  0.00     0.201 C 
ATOM     36  C   UNL     1      29.448  -0.919  37.269  1.00  0.00     0.279 C 
BRANCH  32  37
ATOM     37  C   UNL     1      27.678   0.916  39.073  1.00  0.00     0.191 C 
BRANCH  37  38
ATOM     38  O   UNL     1      28.726   1.315  39.913  1.00  0.00    -0.394 OA
ATOM     39  H   UNL     1      29.348   1.860  39.365  1.00  0.00     0.210 HD
ENDBRANCH  37  38
ENDBRANCH  32  37
BRANCH  33  40
ATOM     40  O   UNL     1      26.177  -1.418  35.470  1.00  0.00    -0.387 OA
ATOM     41  H   UNL     1      26.750  -1.603  34.679  1.00  0.00     0.211 HD
ENDBRANCH  33  40
BRANCH  35  42
ATOM     42  O   UNL     1      28.523  -2.901  36.200  1.00  0.00    -0.385 OA
ATOM     43  H   UNL     1      29.105  -3.160  35.437  1.00  0.00     0.211 HD
ENDBRANCH  35  42
BRANCH  36  44
ATOM     44  O   UNL     1      29.253  -1.486  38.541  1.00  0.00    -0.366 OA
ATOM     45  H   UNL     1      28.638  -2.255  38.430  1.00  0.00     0.213 HD
ENDBRANCH  36  44
ENDBRANCH  30  31
ENDBRANCH   4  30
TORSDOF 18
ENDMDL
MODEL 5
REMARK VINA RESULT:    -6.446      1.331      2.402
REMARK INTER + INTRA:         -12.701
REMARK INTER:                 -12.616
REMARK INTRA:                  -0.085
REMARK UNBOUND:                -1.545
REMARK SMILES OC[C@@H]1O[C@H](O[C@@H]2[C@H](O)[C@H](O)[C@@H](O[C@@H]3[C@@H](O)[C@H](O)[C@H](O)O[C@@H]3CO)O[C@@H]2CO)[C@H](O)[C@H](O)[C@@H]1O
REMARK SMILES IDX 7 1 26 2 25 3 12 4 10 5 8 6 6 7 5 8 3 9 33 10 4 11 31 12
REMARK SMILES IDX 29 13 2 14 1 15 34 17 32 19 30 21 27 23 28 24 9 26 11 28
REMARK SMILES IDX 13 30 14 31 22 32 15 33 21 34 17 35 19 36 23 37 24 38 16 40
REMARK SMILES IDX 18 42 20 44
REMARK H PARENT 1 16 34 18 32 20 30 22 28 25 9 27 11 29 24 39 16 41 18 43
REMARK H PARENT 20 45
REMARK Flexibility Score: inf
ROOT
ATOM      1  C   UNL     1      36.229   2.642  45.612  1.00  0.00     0.184 C 
ATOM      2  C   UNL     1      36.183   1.852  44.272  1.00  0.00     0.178 C 
ATOM      3  O   UNL     1      37.497   1.643  43.780  1.00  0.00    -0.341 OA
ATOM      4  C   UNL     1      38.245   0.783  44.628  1.00  0.00     0.282 C 
ATOM      5  C   UNL     1      38.399   1.385  46.038  1.00  0.00     0.202 C 
ATOM      6  C   UNL     1      37.014   1.767  46.609  1.00  0.00     0.180 C 
ENDROOT
BRANCH   1   7
ATOM      7  O   UNL     1      36.884   3.903  45.462  1.00  0.00    -0.341 OA
BRANCH   7   8
ATOM      8  C   UNL     1      36.737   4.432  44.149  1.00  0.00     0.282 C 
ATOM      9  C   UNL     1      35.989   6.709  44.536  1.00  0.00     0.178 C 
ATOM     10  C   UNL     1      37.368   7.280  44.089  1.00  0.00     0.177 C 
ATOM     11  O   UNL     1      35.684   5.387  44.088  1.00  0.00    -0.341 OA
ATOM     12  C   UNL     1      38.506   6.274  44.236  1.00  0.00     0.179 C 
ATOM     13  C   UNL     1      38.080   4.954  43.590  1.00  0.00     0.202 C 
BRANCH   9  14
ATOM     14  C   UNL     1      35.630   6.930  46.017  1.00  0.00     0.191 C 
BRANCH  14  15
ATOM     15  O   UNL     1      34.725   5.973  46.480  1.00  0.00    -0.394 OA
ATOM     16  H   UNL     1      35.257   5.330  47.016  1.00  0.00     0.210 HD
ENDBRANCH  14  15
ENDBRANCH   9  14
BRANCH  10  17
ATOM     17  O   UNL     1      37.687   8.456  44.787  1.00  0.00    -0.387 OA
ATOM     18  H   UNL     1      38.589   8.324  45.183  1.00  0.00     0.211 HD
ENDBRANCH  10  17
BRANCH  12  19
ATOM     19  O   UNL     1      38.840   6.098  45.589  1.00  0.00    -0.387 OA
ATOM     20  H   UNL     1      38.671   6.963  46.045  1.00  0.00     0.211 HD
ENDBRANCH  12  19
BRANCH  13  21
ATOM     21  O   UNL     1      39.102   3.991  43.677  1.00  0.00    -0.385 OA
ATOM     22  H   UNL     1      38.708   3.154  44.035  1.00  0.00     0.211 HD
ENDBRANCH  13  21
ENDBRANCH   7   8
ENDBRANCH   1   7
BRANCH   2  23
ATOM     23  C   UNL     1      35.346   2.513  43.175  1.00  0.00     0.191 C 
BRANCH  23  24
ATOM     24  O   UNL     1      33.979   2.315  43.417  1.00  0.00    -0.394 OA
ATOM     25  H   UNL     1      33.878   1.361  43.678  1.00  0.00     0.210 HD
ENDBRANCH  23  24
ENDBRANCH   2  23
BRANCH   6  26
ATOM     26  O   UNL     1      37.139   2.421  47.841  1.00  0.00    -0.387 OA
ATOM     27  H   UNL     1      36.221   2.655  48.138  1.00  0.00     0.211 HD
ENDBRANCH   6  26
BRANCH   5  28
ATOM     28  O   UNL     1      39.236   2.513  45.971  1.00  0.00    -0.385 OA
ATOM     29  H   UNL     1      39.409   2.691  45.009  1.00  0.00     0.211 HD
ENDBRANCH   5  28
BRANCH   4  30
ATOM     30  O   UNL     1      37.616  -0.491  44.717  1.00  0.00    -0.341 OA
BRANCH  30  31
ATOM     31  C   UNL     1      38.365  -1.539  44.125  1.00  0.00     0.184 C 
ATOM     32  C   UNL     1      37.784  -2.903  44.578  1.00  0.00     0.178 C 
ATOM     33  C   UNL     1      38.320  -1.406  42.597  1.00  0.00     0.180 C 
ATOM     34  O   UNL     1      38.388  -4.014  43.921  1.00  0.00    -0.342 OA
ATOM     35  C   UNL     1      38.991  -2.636  41.966  1.00  0.00     0.201 C 
ATOM     36  C   UNL     1      38.365  -3.941  42.500  1.00  0.00     0.279 C 
BRANCH  32  37
ATOM     37  C   UNL     1      36.239  -2.970  44.572  1.00  0.00     0.191 C 
BRANCH  37  38
ATOM     38  O   UNL     1      35.714  -2.259  45.660  1.00  0.00    -0.394 OA
ATOM     39  H   UNL     1      34.766  -2.058  45.446  1.00  0.00     0.210 HD
ENDBRANCH  37  38
ENDBRANCH  32  37
BRANCH  33  40
ATOM     40  O   UNL     1      39.003  -0.241  42.207  1.00  0.00    -0.387 OA
ATOM     41  H   UNL     1      39.826  -0.532  41.731  1.00  0.00     0.211 HD
ENDBRANCH  33  40
BRANCH  35  42
ATOM     42  O   UNL     1      38.938  -2.590  40.558  1.00  0.00    -0.385 OA
ATOM     43  H   UNL     1      38.595  -1.695  40.296  1.00  0.00     0.211 HD
ENDBRANCH  35  42
BRANCH  36  44
ATOM     44  O   UNL     1      37.057  -4.124  42.017  1.00  0.00    -0.366 OA
ATOM     45  H   UNL     1      37.101  -4.088  41.027  1.00  0.00     0.213 HD
ENDBRANCH  36  44
ENDBRANCH  30  31
ENDBRANCH   4  30
TORSDOF 18
ENDMDL
MODEL 6
REMARK VINA RESULT:    -6.411     12.852     14.890
REMARK INTER + INTRA:         -12.640
REMARK INTER:                 -10.632
REMARK INTRA:                  -2.008
REMARK UNBOUND:                -1.545
REMARK SMILES OC[C@@H]1O[C@H](O[C@@H]2[C@H](O)[C@H](O)[C@@H](O[C@@H]3[C@@H](O)[C@H](O)[C@H](O)O[C@@H]3CO)O[C@@H]2CO)[C@H](O)[C@H](O)[C@@H]1O
REMARK SMILES IDX 7 1 26 2 25 3 12 4 10 5 8 6 6 7 5 8 3 9 33 10 4 11 31 12
REMARK SMILES IDX 29 13 2 14 1 15 34 17 32 19 30 21 27 23 28 24 9 26 11 28
REMARK SMILES IDX 13 30 14 31 22 32 15 33 21 34 17 35 19 36 23 37 24 38 16 40
REMARK SMILES IDX 18 42 20 44
REMARK H PARENT 1 16 34 18 32 20 30 22 28 25 9 27 11 29 24 39 16 41 18 43
REMARK H PARENT 20 45
REMARK Flexibility Score: inf
ROOT
ATOM      1  C   UNL     1      25.957   2.582  38.027  1.00  0.00     0.184 C 
ATOM      2  C   UNL     1      26.092   1.108  38.507  1.00  0.00     0.178 C 
ATOM      3  O   UNL     1      25.122   0.293  37.869  1.00  0.00    -0.341 OA
ATOM      4  C   UNL     1      25.355   0.194  36.471  1.00  0.00     0.282 C 
ATOM      5  C   UNL     1      25.278   1.574  35.792  1.00  0.00     0.202 C 
ATOM      6  C   UNL     1      26.217   2.573  36.507  1.00  0.00     0.180 C 
ENDROOT
BRANCH   1   7
ATOM      7  O   UNL     1      24.655   3.108  38.288  1.00  0.00    -0.341 OA
BRANCH   7   8
ATOM      8  C   UNL     1      24.706   4.401  38.881  1.00  0.00     0.282 C 
ATOM      9  C   UNL     1      23.045   5.660  37.634  1.00  0.00     0.178 C 
ATOM     10  C   UNL     1      22.078   5.670  38.855  1.00  0.00     0.177 C 
ATOM     11  O   UNL     1      24.422   5.420  37.928  1.00  0.00    -0.341 OA
ATOM     12  C   UNL     1      22.335   4.523  39.829  1.00  0.00     0.179 C 
ATOM     13  C   UNL     1      23.830   4.481  40.152  1.00  0.00     0.202 C 
BRANCH   9  14
ATOM     14  C   UNL     1      22.555   4.868  36.408  1.00  0.00     0.191 C 
BRANCH  14  15
ATOM     15  O   UNL     1      23.500   4.868  35.379  1.00  0.00    -0.394 OA
ATOM     16  H   UNL     1      23.036   5.236  34.583  1.00  0.00     0.210 HD
ENDBRANCH  14  15
ENDBRANCH   9  14
BRANCH  10  17
ATOM     17  O   UNL     1      20.735   5.646  38.446  1.00  0.00    -0.387 OA
ATOM     18  H   UNL     1      20.192   5.399  39.241  1.00  0.00     0.211 HD
ENDBRANCH  10  17
BRANCH  12  19
ATOM     19  O   UNL     1      21.894   3.305  39.288  1.00  0.00    -0.387 OA
ATOM     20  H   UNL     1      20.903   3.352  39.234  1.00  0.00     0.211 HD
ENDBRANCH  12  19
BRANCH  13  21
ATOM     21  O   UNL     1      24.125   3.452  41.066  1.00  0.00    -0.385 OA
ATOM     22  H   UNL     1      25.061   3.570  41.372  1.00  0.00     0.211 HD
ENDBRANCH  13  21
ENDBRANCH   7   8
ENDBRANCH   1   7
BRANCH   2  23
ATOM     23  C   UNL     1      25.975   0.921  40.020  1.00  0.00     0.191 C 
BRANCH  23  24
ATOM     24  O   UNL     1      26.506   2.031  40.693  1.00  0.00    -0.394 OA
ATOM     25  H   UNL     1      25.776   2.703  40.740  1.00  0.00     0.210 HD
ENDBRANCH  23  24
ENDBRANCH   2  23
BRANCH   6  26
ATOM     26  O   UNL     1      26.077   3.864  35.979  1.00  0.00    -0.387 OA
ATOM     27  H   UNL     1      25.179   4.189  36.248  1.00  0.00     0.211 HD
ENDBRANCH   6  26
BRANCH   5  28
ATOM     28  O   UNL     1      23.949   2.033  35.824  1.00  0.00    -0.385 OA
ATOM     29  H   UNL     1      23.494   1.667  35.020  1.00  0.00     0.211 HD
ENDBRANCH   5  28
BRANCH   4  30
ATOM     30  O   UNL     1      26.629  -0.391  36.225  1.00  0.00    -0.341 OA
BRANCH  30  31
ATOM     31  C   UNL     1      26.764  -0.936  34.923  1.00  0.00     0.184 C 
ATOM     32  C   UNL     1      28.264  -1.201  34.632  1.00  0.00     0.178 C 
ATOM     33  C   UNL     1      25.950  -2.233  34.820  1.00  0.00     0.180 C 
ATOM     34  O   UNL     1      28.482  -1.879  33.397  1.00  0.00    -0.342 OA
ATOM     35  C   UNL     1      26.238  -2.900  33.466  1.00  0.00     0.201 C 
ATOM     36  C   UNL     1      27.755  -3.093  33.257  1.00  0.00     0.279 C 
BRANCH  32  37
ATOM     37  C   UNL     1      29.039  -1.835  35.810  1.00  0.00     0.191 C 
BRANCH  37  38
ATOM     38  O   UNL     1      29.336  -0.866  36.779  1.00  0.00    -0.394 OA
ATOM     39  H   UNL     1      28.486  -0.647  37.242  1.00  0.00     0.210 HD
ENDBRANCH  37  38
ENDBRANCH  32  37
BRANCH  33  40
ATOM     40  O   UNL     1      24.580  -1.937  34.921  1.00  0.00    -0.387 OA
ATOM     41  H   UNL     1      24.383  -1.235  34.246  1.00  0.00     0.211 HD
ENDBRANCH  33  40
BRANCH  35  42
ATOM     42  O   UNL     1      25.550  -4.123  33.334  1.00  0.00    -0.385 OA
ATOM     43  H   UNL     1      26.012  -4.794  33.903  1.00  0.00     0.211 HD
ENDBRANCH  35  42
BRANCH  36  44
ATOM     44  O   UNL     1      28.273  -4.083  34.110  1.00  0.00    -0.366 OA
ATOM     45  H   UNL     1      28.611  -4.818  33.538  1.00  0.00     0.213 HD
ENDBRANCH  36  44
ENDBRANCH  30  31
ENDBRANCH   4  30
TORSDOF 18
ENDMDL
MODEL 7
REMARK VINA RESULT:    -6.370     13.055     15.145
REMARK INTER + INTRA:         -12.570
REMARK INTER:                  -9.573
REMARK INTRA:                  -2.997
REMARK UNBOUND:                -1.545
REMARK SMILES OC[C@@H]1O[C@H](O[C@@H]2[C@H](O)[C@H](O)[C@@H](O[C@@H]3[C@@H](O)[C@H](O)[C@H](O)O[C@@H]3CO)O[C@@H]2CO)[C@H](O)[C@H](O)[C@@H]1O
REMARK SMILES IDX 7 1 26 2 25 3 12 4 10 5 8 6 6 7 5 8 3 9 33 10 4 11 31 12
REMARK SMILES IDX 29 13 2 14 1 15 34 17 32 19 30 21 27 23 28 24 9 26 11 28
REMARK SMILES IDX 13 30 14 31 22 32 15 33 21 34 17 35 19 36 23 37 24 38 16 40
REMARK SMILES IDX 18 42 20 44
REMARK H PARENT 1 16 34 18 32 20 30 22 28 25 9 27 11 29 24 39 16 41 18 43
REMARK H PARENT 20 45
REMARK Flexibility Score: inf
ROOT
ATOM      1  C   UNL     1      24.185   0.699  39.247  1.00  0.00     0.184 C 
ATOM      2  C   UNL     1      23.953  -0.144  37.960  1.00  0.00     0.178 C 
ATOM      3  O   UNL     1      24.369   0.583  36.816  1.00  0.00    -0.341 OA
ATOM      4  C   UNL     1      25.775   0.792  36.808  1.00  0.00     0.282 C 
ATOM      5  C   UNL     1      26.225   1.613  38.032  1.00  0.00     0.202 C 
ATOM      6  C   UNL     1      25.702   0.960  39.333  1.00  0.00     0.180 C 
ENDROOT
BRANCH   1   7
ATOM      7  O   UNL     1      23.486   1.944  39.199  1.00  0.00    -0.341 OA
BRANCH   7   8
ATOM      8  C   UNL     1      23.051   2.367  40.486  1.00  0.00     0.282 C 
ATOM      9  C   UNL     1      22.772   4.766  40.229  1.00  0.00     0.178 C 
ATOM     10  C   UNL     1      21.221   4.631  40.283  1.00  0.00     0.177 C 
ATOM     11  O   UNL     1      23.515   3.679  40.785  1.00  0.00    -0.341 OA
ATOM     12  C   UNL     1      20.728   3.244  39.880  1.00  0.00     0.179 C 
ATOM     13  C   UNL     1      21.525   2.195  40.659  1.00  0.00     0.202 C 
BRANCH   9  14
ATOM     14  C   UNL     1      23.347   5.250  38.885  1.00  0.00     0.191 C 
BRANCH  14  15
ATOM     15  O   UNL     1      23.156   4.309  37.870  1.00  0.00    -0.394 OA
ATOM     16  H   UNL     1      23.926   3.686  37.926  1.00  0.00     0.210 HD
ENDBRANCH  14  15
ENDBRANCH   9  14
BRANCH  10  17
ATOM     17  O   UNL     1      20.593   5.602  39.486  1.00  0.00    -0.387 OA
ATOM     18  H   UNL     1      20.048   6.170  40.093  1.00  0.00     0.211 HD
ENDBRANCH  10  17
BRANCH  12  19
ATOM     19  O   UNL     1      20.854   3.057  38.493  1.00  0.00    -0.387 OA
ATOM     20  H   UNL     1      21.628   2.451  38.351  1.00  0.00     0.211 HD
ENDBRANCH  12  19
BRANCH  13  21
ATOM     21  O   UNL     1      21.098   0.893  40.342  1.00  0.00    -0.385 OA
ATOM     22  H   UNL     1      21.724   0.251  40.766  1.00  0.00     0.211 HD
ENDBRANCH  13  21
ENDBRANCH   7   8
ENDBRANCH   1   7
BRANCH   2  23
ATOM     23  C   UNL     1      22.508  -0.602  37.754  1.00  0.00     0.191 C 
BRANCH  23  24
ATOM     24  O   UNL     1      21.679   0.498  37.494  1.00  0.00    -0.394 OA
ATOM     25  H   UNL     1      22.281   1.242  37.224  1.00  0.00     0.210 HD
ENDBRANCH  23  24
ENDBRANCH   2  23
BRANCH   6  26
ATOM     26  O   UNL     1      26.000   1.752  40.450  1.00  0.00    -0.387 OA
ATOM     27  H   UNL     1      26.137   2.677  40.119  1.00  0.00     0.211 HD
ENDBRANCH   6  26
BRANCH   5  28
ATOM     28  O   UNL     1      25.743   2.928  37.909  1.00  0.00    -0.385 OA
ATOM     29  H   UNL     1      26.516   3.501  37.660  1.00  0.00     0.211 HD
ENDBRANCH   5  28
BRANCH   4  30
ATOM     30  O   UNL     1      26.458  -0.457  36.791  1.00  0.00    -0.341 OA
BRANCH  30  31
ATOM     31  C   UNL     1      26.819  -0.891  35.490  1.00  0.00     0.184 C 
ATOM     32  C   UNL     1      28.339  -1.194  35.455  1.00  0.00     0.178 C 
ATOM     33  C   UNL     1      26.004  -2.138  35.118  1.00  0.00     0.180 C 
ATOM     34  O   UNL     1      28.765  -1.770  34.223  1.00  0.00    -0.342 OA
ATOM     35  C   UNL     1      26.521  -2.696  33.784  1.00  0.00     0.201 C 
ATOM     36  C   UNL     1      28.045  -2.935  33.838  1.00  0.00     0.279 C 
BRANCH  32  37
ATOM     37  C   UNL     1      28.864  -1.961  36.690  1.00  0.00     0.191 C 
BRANCH  37  38
ATOM     38  O   UNL     1      28.866  -1.131  37.819  1.00  0.00    -0.394 OA
ATOM     39  H   UNL     1      27.983  -0.678  37.850  1.00  0.00     0.210 HD
ENDBRANCH  37  38
ENDBRANCH  32  37
BRANCH  33  40
ATOM     40  O   UNL     1      24.648  -1.792  34.995  1.00  0.00    -0.387 OA
ATOM     41  H   UNL     1      24.547  -0.875  35.362  1.00  0.00     0.211 HD
ENDBRANCH  33  40
BRANCH  35  42
ATOM     42  O   UNL     1      25.839  -3.871  33.414  1.00  0.00    -0.385 OA
ATOM     43  H   UNL     1      26.114  -4.592  34.040  1.00  0.00     0.211 HD
ENDBRANCH  35  42
BRANCH  36  44
ATOM     44  O   UNL     1      28.370  -4.017  34.676  1.00  0.00    -0.366 OA
ATOM     45  H   UNL     1      28.861  -3.651  35.455  1.00  0.00     0.213 HD
ENDBRANCH  36  44
ENDBRANCH  30  31
ENDBRANCH   4  30
TORSDOF 18
ENDMDL
MODEL 8
REMARK VINA RESULT:    -6.331     13.914     16.117
REMARK INTER + INTRA:         -12.502
REMARK INTER:                  -9.900
REMARK INTRA:                  -2.603
REMARK UNBOUND:                -1.545
REMARK SMILES OC[C@@H]1O[C@H](O[C@@H]2[C@H](O)[C@H](O)[C@@H](O[C@@H]3[C@@H](O)[C@H](O)[C@H](O)O[C@@H]3CO)O[C@@H]2CO)[C@H](O)[C@H](O)[C@@H]1O
REMARK SMILES IDX 7 1 26 2 25 3 12 4 10 5 8 6 6 7 5 8 3 9 33 10 4 11 31 12
REMARK SMILES IDX 29 13 2 14 1 15 34 17 32 19 30 21 27 23 28 24 9 26 11 28
REMARK SMILES IDX 13 30 14 31 22 32 15 33 21 34 17 35 19 36 23 37 24 38 16 40
REMARK SMILES IDX 18 42 20 44
REMARK H PARENT 1 16 34 18 32 20 30 22 28 25 9 27 11 29 24 39 16 41 18 43
REMARK H PARENT 20 45
REMARK Flexibility Score: inf
ROOT
ATOM      1  C   UNL     1      23.790   2.895  35.896  1.00  0.00     0.184 C 
ATOM      2  C   UNL     1      25.195   2.253  36.087  1.00  0.00     0.178 C 
ATOM      3  O   UNL     1      25.112   1.142  36.965  1.00  0.00    -0.341 OA
ATOM      4  C   UNL     1      24.353   0.081  36.400  1.00  0.00     0.282 C 
ATOM      5  C   UNL     1      22.904   0.520  36.115  1.00  0.00     0.202 C 
ATOM      6  C   UNL     1      22.895   1.810  35.263  1.00  0.00     0.180 C 
ENDROOT
BRANCH   1   7
ATOM      7  O   UNL     1      23.226   3.317  37.139  1.00  0.00    -0.341 OA
BRANCH   7   8
ATOM      8  C   UNL     1      22.666   4.623  37.060  1.00  0.00     0.282 C 
ATOM      9  C   UNL     1      20.606   4.433  38.332  1.00  0.00     0.178 C 
ATOM     10  C   UNL     1      21.198   5.283  39.494  1.00  0.00     0.177 C 
ATOM     11  O   UNL     1      21.243   4.579  37.061  1.00  0.00    -0.341 OA
ATOM     12  C   UNL     1      22.724   5.257  39.536  1.00  0.00     0.179 C 
ATOM     13  C   UNL     1      23.257   5.563  38.134  1.00  0.00     0.202 C 
BRANCH   9  14
ATOM     14  C   UNL     1      20.300   2.963  38.676  1.00  0.00     0.191 C 
BRANCH  14  15
ATOM     15  O   UNL     1      21.366   2.355  39.343  1.00  0.00    -0.394 OA
ATOM     16  H   UNL     1      21.123   2.359  40.305  1.00  0.00     0.210 HD
ENDBRANCH  14  15
ENDBRANCH   9  14
BRANCH  10  17
ATOM     17  O   UNL     1      20.689   4.878  40.738  1.00  0.00    -0.387 OA
ATOM     18  H   UNL     1      20.241   5.669  41.142  1.00  0.00     0.211 HD
ENDBRANCH  10  17
BRANCH  12  19
ATOM     19  O   UNL     1      23.186   4.014  39.998  1.00  0.00    -0.387 OA
ATOM     20  H   UNL     1      22.849   3.906  40.926  1.00  0.00     0.211 HD
ENDBRANCH  12  19
BRANCH  13  21
ATOM     21  O   UNL     1      24.664   5.573  38.116  1.00  0.00    -0.385 OA
ATOM     22  H   UNL     1      24.967   6.517  38.158  1.00  0.00     0.211 HD
ENDBRANCH  13  21
ENDBRANCH   7   8
ENDBRANCH   1   7
BRANCH   2  23
ATOM     23  C   UNL     1      26.265   3.214  36.608  1.00  0.00     0.191 C 
BRANCH  23  24
ATOM     24  O   UNL     1      26.256   4.405  35.867  1.00  0.00    -0.394 OA
ATOM     25  H   UNL     1      25.584   4.278  35.146  1.00  0.00     0.210 HD
ENDBRANCH  23  24
ENDBRANCH   2  23
BRANCH   6  26
ATOM     26  O   UNL     1      21.591   2.292  35.090  1.00  0.00    -0.387 OA
ATOM     27  H   UNL     1      21.505   2.555  34.137  1.00  0.00     0.211 HD
ENDBRANCH   6  26
BRANCH   5  28
ATOM     28  O   UNL     1      22.235   0.727  37.335  1.00  0.00    -0.385 OA
ATOM     29  H   UNL     1      22.169   1.710  37.469  1.00  0.00     0.211 HD
ENDBRANCH   5  28
BRANCH   4  30
ATOM     30  O   UNL     1      24.962  -0.372  35.196  1.00  0.00    -0.341 OA
BRANCH  30  31
ATOM     31  C   UNL     1      25.864  -1.450  35.385  1.00  0.00     0.184 C 
ATOM     32  C   UNL     1      25.507  -2.595  34.403  1.00  0.00     0.178 C 
ATOM     33  C   UNL     1      27.303  -0.964  35.157  1.00  0.00     0.180 C 
ATOM     34  O   UNL     1      26.448  -3.665  34.426  1.00  0.00    -0.342 OA
ATOM     35  C   UNL     1      28.252  -2.170  35.198  1.00  0.00     0.201 C 
ATOM     36  C   UNL     1      27.797  -3.266  34.211  1.00  0.00     0.279 C 
BRANCH  32  37
ATOM     37  C   UNL     1      25.169  -2.122  32.970  1.00  0.00     0.191 C 
BRANCH  37  38
ATOM     38  O   UNL     1      23.900  -1.527  32.936  1.00  0.00    -0.394 OA
ATOM     39  H   UNL     1      23.433  -1.883  32.137  1.00  0.00     0.210 HD
ENDBRANCH  37  38
ENDBRANCH  32  37
BRANCH  33  40
ATOM     40  O   UNL     1      27.654  -0.049  36.165  1.00  0.00    -0.387 OA
ATOM     41  H   UNL     1      27.237   0.821  35.926  1.00  0.00     0.211 HD
ENDBRANCH  33  40
BRANCH  35  42
ATOM     42  O   UNL     1      29.586  -1.789  34.949  1.00  0.00    -0.385 OA
ATOM     43  H   UNL     1      29.632  -0.798  34.994  1.00  0.00     0.211 HD
ENDBRANCH  35  42
BRANCH  36  44
ATOM     44  O   UNL     1      27.990  -2.872  32.875  1.00  0.00    -0.366 OA
ATOM     45  H   UNL     1      27.100  -2.857  32.440  1.00  0.00     0.213 HD
ENDBRANCH  36  44
ENDBRANCH  30  31
ENDBRANCH   4  30
TORSDOF 18
ENDMDL
MODEL 9
REMARK VINA RESULT:    -6.135     13.273     15.341
REMARK INTER + INTRA:         -12.163
REMARK INTER:                  -9.438
REMARK INTRA:                  -2.725
REMARK UNBOUND:                -1.545
REMARK SMILES OC[C@@H]1O[C@H](O[C@@H]2[C@H](O)[C@H](O)[C@@H](O[C@@H]3[C@@H](O)[C@H](O)[C@H](O)O[C@@H]3CO)O[C@@H]2CO)[C@H](O)[C@H](O)[C@@H]1O
REMARK SMILES IDX 7 1 26 2 25 3 12 4 10 5 8 6 6 7 5 8 3 9 33 10 4 11 31 12
REMARK SMILES IDX 29 13 2 14 1 15 34 17 32 19 30 21 27 23 28 24 9 26 11 28
REMARK SMILES IDX 13 30 14 31 22 32 15 33 21 34 17 35 19 36 23 37 24 38 16 40
REMARK SMILES IDX 18 42 20 44
REMARK H PARENT 1 16 34 18 32 20 30 22 28 25 9 27 11 29 24 39 16 41 18 43
REMARK H PARENT 20 45
REMARK Flexibility Score: inf
ROOT
ATOM      1  C   UNL     1      24.018   2.828  38.467  1.00  0.00     0.184 C 
ATOM      2  C   UNL     1      23.568   1.340  38.392  1.00  0.00     0.178 C 
ATOM      3  O   UNL     1      23.453   0.930  37.039  1.00  0.00    -0.341 OA
ATOM      4  C   UNL     1      24.715   0.913  36.385  1.00  0.00     0.282 C 
ATOM      5  C   UNL     1      25.351   2.316  36.362  1.00  0.00     0.202 C 
ATOM      6  C   UNL     1      25.402   2.902  37.792  1.00  0.00     0.180 C 
ENDROOT
BRANCH   1   7
ATOM      7  O   UNL     1      23.106   3.693  37.788  1.00  0.00    -0.341 OA
BRANCH   7   8
ATOM      8  C   UNL     1      23.072   4.995  38.361  1.00  0.00     0.282 C 
ATOM      9  C   UNL     1      22.290   6.395  36.537  1.00  0.00     0.178 C 
ATOM     10  C   UNL     1      20.904   6.584  37.224  1.00  0.00     0.177 C 
ATOM     11  O   UNL     1      23.363   5.996  37.392  1.00  0.00    -0.341 OA
ATOM     12  C   UNL     1      20.564   5.461  38.200  1.00  0.00     0.179 C 
ATOM     13  C   UNL     1      21.757   5.245  39.134  1.00  0.00     0.202 C 
BRANCH   9  14
ATOM     14  C   UNL     1      22.269   5.615  35.210  1.00  0.00     0.191 C 
BRANCH  14  15
ATOM     15  O   UNL     1      21.883   4.286  35.395  1.00  0.00    -0.394 OA
ATOM     16  H   UNL     1      21.021   4.182  34.915  1.00  0.00     0.210 HD
ENDBRANCH  14  15
ENDBRANCH   9  14
BRANCH  10  17
ATOM     17  O   UNL     1      19.875   6.711  36.278  1.00  0.00    -0.387 OA
ATOM     18  H   UNL     1      20.101   6.111  35.518  1.00  0.00     0.211 HD
ENDBRANCH  10  17
BRANCH  12  19
ATOM     19  O   UNL     1      20.237   4.284  37.507  1.00  0.00    -0.387 OA
ATOM     20  H   UNL     1      19.558   3.805  38.051  1.00  0.00     0.211 HD
ENDBRANCH  12  19
BRANCH  13  21
ATOM     21  O   UNL     1      21.492   4.231  40.073  1.00  0.00    -0.385 OA
ATOM     22  H   UNL     1      20.809   4.569  40.707  1.00  0.00     0.211 HD
ENDBRANCH  13  21
ENDBRANCH   7   8
ENDBRANCH   1   7
BRANCH   2  23
ATOM     23  C   UNL     1      22.253   1.038  39.112  1.00  0.00     0.191 C 
BRANCH  23  24
ATOM     24  O   UNL     1      21.203   1.770  38.539  1.00  0.00    -0.394 OA
ATOM     25  H   UNL     1      20.402   1.591  39.100  1.00  0.00     0.210 HD
ENDBRANCH  23  24
ENDBRANCH   2  23
BRANCH   6  26
ATOM     26  O   UNL     1      25.871   4.222  37.779  1.00  0.00    -0.387 OA
ATOM     27  H   UNL     1      26.595   4.265  37.103  1.00  0.00     0.211 HD
ENDBRANCH   6  26
BRANCH   5  28
ATOM     28  O   UNL     1      24.604   3.149  35.511  1.00  0.00    -0.385 OA
ATOM     29  H   UNL     1      24.393   2.621  34.696  1.00  0.00     0.211 HD
ENDBRANCH   5  28
BRANCH   4  30
ATOM     30  O   UNL     1      25.592  -0.001  37.034  1.00  0.00    -0.341 OA
BRANCH  30  31
ATOM     31  C   UNL     1      26.880  -0.071  36.442  1.00  0.00     0.184 C 
ATOM     32  C   UNL     1      27.949   0.312  37.497  1.00  0.00     0.178 C 
ATOM     33  C   UNL     1      27.124  -1.489  35.906  1.00  0.00     0.180 C 
ATOM     34  O   UNL     1      29.284   0.135  37.030  1.00  0.00    -0.342 OA
ATOM     35  C   UNL     1      28.578  -1.598  35.422  1.00  0.00     0.201 C 
ATOM     36  C   UNL     1      29.563  -1.167  36.530  1.00  0.00     0.279 C 
BRANCH  32  37
ATOM     37  C   UNL     1      27.715  -0.306  38.895  1.00  0.00     0.191 C 
BRANCH  37  38
ATOM     38  O   UNL     1      26.728   0.408  39.588  1.00  0.00    -0.394 OA
ATOM     39  H   UNL     1      26.453  -0.149  40.360  1.00  0.00     0.210 HD
ENDBRANCH  37  38
ENDBRANCH  32  37
BRANCH  33  40
ATOM     40  O   UNL     1      26.248  -1.744  34.838  1.00  0.00    -0.387 OA
ATOM     41  H   UNL     1      25.514  -2.312  35.194  1.00  0.00     0.211 HD
ENDBRANCH  33  40
BRANCH  35  42
ATOM     42  O   UNL     1      28.875  -2.896  34.960  1.00  0.00    -0.385 OA
ATOM     43  H   UNL     1      28.958  -2.854  33.970  1.00  0.00     0.211 HD
ENDBRANCH  35  42
BRANCH  36  44
ATOM     44  O   UNL     1      29.604  -2.103  37.579  1.00  0.00    -0.366 OA
ATOM     45  H   UNL     1      29.942  -1.631  38.382  1.00  0.00     0.213 HD
ENDBRANCH  36  44
ENDBRANCH  30  31
ENDBRANCH   4  30
TORSDOF 18
ENDMDL
