MODEL 1
REMARK VINA RESULT:    -4.460      0.000      0.000
REMARK INTER + INTRA:          -8.733
REMARK INTER:                  -7.590
REMARK INTRA:                  -1.143
REMARK UNBOUND:                -1.143
REMARK SMILES CCCCCCCCCCCCCC(=O)[O-]
REMARK SMILES IDX 8 1 9 2 10 3 11 4 12 5 13 6 14 7 15 8 16 9 7 10 6 11 5 12
REMARK SMILES IDX 4 13 3 14 2 15 1 16
REMARK H PARENT
REMARK Flexibility Score: inf
ROOT
ATOM      1  C   UNL     1      22.658  -3.110  53.950  1.00  0.00     0.000 C 
ENDROOT
BRANCH   1   2
ATOM      2  C   UNL     1      23.561  -2.328  54.918  1.00  0.00     0.000 C 
BRANCH   2   3
ATOM      3  C   UNL     1      24.347  -3.251  55.865  1.00  0.00     0.000 C 
BRANCH   3   4
ATOM      4  C   UNL     1      23.983  -3.039  57.347  1.00  0.00     0.000 C 
BRANCH   4   5
ATOM      5  C   UNL     1      22.519  -3.342  57.709  1.00  0.00     0.006 C 
BRANCH   5   6
ATOM      6  C   UNL     1      21.661  -2.078  57.843  1.00  0.00     0.053 C 
BRANCH   6   7
ATOM      7  C   UNL     1      20.521  -2.114  56.876  1.00  0.00     0.041 C 
ATOM      8  O   UNL     1      19.911  -3.193  56.655  1.00  0.00    -0.550 OA
ATOM      9  O   UNL     1      20.161  -0.965  56.181  1.00  0.00    -0.550 OA
ENDBRANCH   6   7
ENDBRANCH   5   6
ENDBRANCH   4   5
ENDBRANCH   3   4
ENDBRANCH   2   3
ENDBRANCH   1   2
BRANCH   1  10
ATOM     10  C   UNL     1      23.165  -4.541  53.698  1.00  0.00     0.000 C 
BRANCH  10  11
ATOM     11  C   UNL     1      23.692  -4.735  52.267  1.00  0.00    -0.000 C 
BRANCH  11  12
ATOM     12  C   UNL     1      25.019  -5.511  52.224  1.00  0.00    -0.000 C 
BRANCH  12  13
ATOM     13  C   UNL     1      25.470  -6.000  53.613  1.00  0.00    -0.000 C 
BRANCH  13  14
ATOM     14  C   UNL     1      26.991  -5.967  53.848  1.00  0.00    -0.000 C 
BRANCH  14  15
ATOM     15  C   UNL     1      27.799  -5.959  52.541  1.00  0.00    -0.003 C 
ATOM     16  C   UNL     1      29.061  -6.807  52.668  1.00  0.00     0.004 C 
ENDBRANCH  14  15
ENDBRANCH  13  14
ENDBRANCH  12  13
ENDBRANCH  11  12
ENDBRANCH  10  11
ENDBRANCH   1  10
TORSDOF 12
ENDMDL
MODEL 2
REMARK VINA RESULT:    -4.178      4.197      7.342
REMARK INTER + INTRA:          -8.252
REMARK INTER:                  -7.507
REMARK INTRA:                  -0.744
REMARK UNBOUND:                -1.143
REMARK SMILES CCCCCCCCCCCCCC(=O)[O-]
REMARK SMILES IDX 8 1 9 2 10 3 11 4 12 5 13 6 14 7 15 8 16 9 7 10 6 11 5 12
REMARK SMILES IDX 4 13 3 14 2 15 1 16
REMARK H PARENT
REMARK Flexibility Score: inf
ROOT
ATOM      1  C   UNL     1      22.611  -5.102  52.874  1.00  0.00     0.000 C 
ENDROOT
BRANCH   1   2
ATOM      2  C   UNL     1      23.795  -5.739  52.127  1.00  0.00     0.000 C 
BRANCH   2   3
ATOM      3  C   UNL     1      25.153  -5.203  52.612  1.00  0.00     0.000 C 
BRANCH   3   4
ATOM      4  C   UNL     1      25.831  -6.132  53.638  1.00  0.00     0.000 C 
BRANCH   4   5
ATOM      5  C   UNL     1      27.365  -6.210  53.533  1.00  0.00     0.006 C 
BRANCH   5   6
ATOM      6  C   UNL     1      27.866  -6.220  52.084  1.00  0.00     0.053 C 
BRANCH   6   7
ATOM      7  C   UNL     1      29.133  -7.007  51.974  1.00  0.00     0.041 C 
ATOM      8  O   UNL     1      29.351  -7.720  50.960  1.00  0.00    -0.550 OA
ATOM      9  O   UNL     1      30.053  -6.991  53.016  1.00  0.00    -0.550 OA
ENDBRANCH   6   7
ENDBRANCH   5   6
ENDBRANCH   4   5
ENDBRANCH   3   4
ENDBRANCH   2   3
ENDBRANCH   1   2
BRANCH   1  10
ATOM     10  C   UNL     1      23.041  -4.412  54.180  1.00  0.00     0.000 C 
BRANCH  10  11
ATOM     11  C   UNL     1      22.694  -2.915  54.196  1.00  0.00    -0.000 C 
BRANCH  11  12
ATOM     12  C   UNL     1      23.563  -2.115  55.182  1.00  0.00    -0.000 C 
BRANCH  12  13
ATOM     13  C   UNL     1      24.292  -3.012  56.199  1.00  0.00    -0.000 C 
BRANCH  13  14
ATOM     14  C   UNL     1      23.549  -3.212  57.533  1.00  0.00    -0.000 C 
BRANCH  14  15
ATOM     15  C   UNL     1      22.232  -2.425  57.608  1.00  0.00    -0.003 C 
ATOM     16  C   UNL     1      21.028  -3.359  57.520  1.00  0.00     0.004 C 
ENDBRANCH  14  15
ENDBRANCH  13  14
ENDBRANCH  12  13
ENDBRANCH  11  12
ENDBRANCH  10  11
ENDBRANCH   1  10
TORSDOF 12
ENDMDL
MODEL 3
REMARK VINA RESULT:    -3.973      1.447      2.023
REMARK INTER + INTRA:          -7.904
REMARK INTER:                  -7.152
REMARK INTRA:                  -0.752
REMARK UNBOUND:                -1.143
REMARK SMILES CCCCCCCCCCCCCC(=O)[O-]
REMARK SMILES IDX 8 1 9 2 10 3 11 4 12 5 13 6 14 7 15 8 16 9 7 10 6 11 5 12
REMARK SMILES IDX 4 13 3 14 2 15 1 16
REMARK H PARENT
REMARK Flexibility Score: inf
ROOT
ATOM      1  C   UNL     1      23.980  -3.669  55.318  1.00  0.00     0.000 C 
ENDROOT
BRANCH   1   2
ATOM      2  C   UNL     1      23.658  -2.346  56.033  1.00  0.00     0.000 C 
BRANCH   2   3
ATOM      3  C   UNL     1      22.562  -1.540  55.314  1.00  0.00     0.000 C 
BRANCH   3   4
ATOM      4  C   UNL     1      21.848  -0.539  56.242  1.00  0.00     0.000 C 
BRANCH   4   5
ATOM      5  C   UNL     1      20.646  -1.109  57.015  1.00  0.00     0.006 C 
BRANCH   5   6
ATOM      6  C   UNL     1      19.958  -2.267  56.282  1.00  0.00     0.053 C 
BRANCH   6   7
ATOM      7  C   UNL     1      18.813  -1.761  55.463  1.00  0.00     0.041 C 
ATOM      8  O   UNL     1      18.904  -1.710  54.209  1.00  0.00    -0.550 OA
ATOM      9  O   UNL     1      17.661  -1.300  56.089  1.00  0.00    -0.550 OA
ENDBRANCH   6   7
ENDBRANCH   5   6
ENDBRANCH   4   5
ENDBRANCH   3   4
ENDBRANCH   2   3
ENDBRANCH   1   2
BRANCH   1  10
ATOM     10  C   UNL     1      23.175  -3.847  54.019  1.00  0.00     0.000 C 
BRANCH  10  11
ATOM     11  C   UNL     1      23.590  -5.103  53.237  1.00  0.00    -0.000 C 
BRANCH  11  12
ATOM     12  C   UNL     1      24.879  -5.743  53.782  1.00  0.00    -0.000 C 
BRANCH  12  13
ATOM     13  C   UNL     1      26.001  -5.814  52.730  1.00  0.00    -0.000 C 
BRANCH  13  14
ATOM     14  C   UNL     1      27.360  -6.299  53.266  1.00  0.00    -0.000 C 
BRANCH  14  15
ATOM     15  C   UNL     1      28.508  -6.085  52.268  1.00  0.00    -0.003 C 
ATOM     16  C   UNL     1      29.713  -6.952  52.622  1.00  0.00     0.004 C 
ENDBRANCH  14  15
ENDBRANCH  13  14
ENDBRANCH  12  13
ENDBRANCH  11  12
ENDBRANCH  10  11
ENDBRANCH   1  10
TORSDOF 12
ENDMDL
MODEL 4
REMARK VINA RESULT:    -3.860      3.289      6.639
REMARK INTER + INTRA:          -7.710
REMARK INTER:                  -6.045
REMARK INTRA:                  -1.666
REMARK UNBOUND:                -1.143
REMARK SMILES CCCCCCCCCCCCCC(=O)[O-]
REMARK SMILES IDX 8 1 9 2 10 3 11 4 12 5 13 6 14 7 15 8 16 9 7 10 6 11 5 12
REMARK SMILES IDX 4 13 3 14 2 15 1 16
REMARK H PARENT
REMARK Flexibility Score: inf
ROOT
ATOM      1  C   UNL     1      22.481  -4.327  57.686  1.00  0.00     0.000 C 
ENDROOT
BRANCH   1   2
ATOM      2  C   UNL     1      21.073  -4.439  57.077  1.00  0.00     0.000 C 
BRANCH   2   3
ATOM      3  C   UNL     1      20.966  -5.579  56.049  1.00  0.00     0.000 C 
BRANCH   3   4
ATOM      4  C   UNL     1      21.121  -5.092  54.596  1.00  0.00     0.000 C 
BRANCH   4   5
ATOM      5  C   UNL     1      22.179  -5.840  53.766  1.00  0.00     0.006 C 
BRANCH   5   6
ATOM      6  C   UNL     1      23.473  -5.038  53.582  1.00  0.00     0.053 C 
BRANCH   6   7
ATOM      7  C   UNL     1      24.160  -5.437  52.315  1.00  0.00     0.041 C 
ATOM      8  O   UNL     1      23.492  -5.634  51.266  1.00  0.00    -0.550 OA
ATOM      9  O   UNL     1      25.535  -5.639  52.303  1.00  0.00    -0.550 OA
ENDBRANCH   6   7
ENDBRANCH   5   6
ENDBRANCH   4   5
ENDBRANCH   3   4
ENDBRANCH   2   3
ENDBRANCH   1   2
BRANCH   1  10
ATOM     10  C   UNL     1      23.030  -2.891  57.639  1.00  0.00     0.000 C 
BRANCH  10  11
ATOM     11  C   UNL     1      23.652  -2.543  56.277  1.00  0.00    -0.000 C 
BRANCH  11  12
ATOM     12  C   UNL     1      22.687  -1.764  55.366  1.00  0.00    -0.000 C 
BRANCH  12  13
ATOM     13  C   UNL     1      21.960  -0.623  56.102  1.00  0.00    -0.000 C 
BRANCH  13  14
ATOM     14  C   UNL     1      20.441  -0.817  56.255  1.00  0.00    -0.000 C 
BRANCH  14  15
ATOM     15  C   UNL     1      19.831  -1.670  55.132  1.00  0.00    -0.003 C 
ATOM     16  C   UNL     1      18.583  -1.008  54.554  1.00  0.00     0.004 C 
ENDBRANCH  14  15
ENDBRANCH  13  14
ENDBRANCH  12  13
ENDBRANCH  11  12
ENDBRANCH  10  11
ENDBRANCH   1  10
TORSDOF 12
ENDMDL
MODEL 5
REMARK VINA RESULT:    -3.789      3.229      6.398
REMARK INTER + INTRA:          -7.590
REMARK INTER:                  -5.610
REMARK INTRA:                  -1.980
REMARK UNBOUND:                -1.143
REMARK SMILES CCCCCCCCCCCCCC(=O)[O-]
REMARK SMILES IDX 8 1 9 2 10 3 11 4 12 5 13 6 14 7 15 8 16 9 7 10 6 11 5 12
REMARK SMILES IDX 4 13 3 14 2 15 1 16
REMARK H PARENT
REMARK Flexibility Score: inf
ROOT
ATOM      1  C   UNL     1      21.565  -0.718  56.471  1.00  0.00     0.000 C 
ENDROOT
BRANCH   1   2
ATOM      2  C   UNL     1      22.559  -1.393  55.511  1.00  0.00     0.000 C 
BRANCH   2   3
ATOM      3  C   UNL     1      23.601  -2.250  56.250  1.00  0.00     0.000 C 
BRANCH   3   4
ATOM      4  C   UNL     1      24.002  -3.513  55.465  1.00  0.00     0.000 C 
BRANCH   4   5
ATOM      5  C   UNL     1      23.347  -3.658  54.080  1.00  0.00     0.006 C 
BRANCH   5   6
ATOM      6  C   UNL     1      23.246  -5.115  53.615  1.00  0.00     0.053 C 
BRANCH   6   7
ATOM      7  C   UNL     1      24.460  -5.499  52.830  1.00  0.00     0.041 C 
ATOM      8  O   UNL     1      24.433  -5.484  51.572  1.00  0.00    -0.550 OA
ATOM      9  O   UNL     1      25.609  -5.919  53.489  1.00  0.00    -0.550 OA
ENDBRANCH   6   7
ENDBRANCH   5   6
ENDBRANCH   4   5
ENDBRANCH   3   4
ENDBRANCH   2   3
ENDBRANCH   1   2
BRANCH   1  10
ATOM     10  C   UNL     1      21.370  -1.516  57.772  1.00  0.00     0.000 C 
BRANCH  10  11
ATOM     11  C   UNL     1      20.152  -2.452  57.711  1.00  0.00    -0.000 C 
BRANCH  11  12
ATOM     12  C   UNL     1      20.542  -3.913  57.428  1.00  0.00    -0.000 C 
BRANCH  12  13
ATOM     13  C   UNL     1      20.230  -4.346  55.984  1.00  0.00    -0.000 C 
BRANCH  13  14
ATOM     14  C   UNL     1      19.246  -3.430  55.233  1.00  0.00    -0.000 C 
BRANCH  14  15
ATOM     15  C   UNL     1      19.740  -3.042  53.831  1.00  0.00    -0.003 C 
ATOM     16  C   UNL     1      18.651  -2.317  53.046  1.00  0.00     0.004 C 
ENDBRANCH  14  15
ENDBRANCH  13  14
ENDBRANCH  12  13
ENDBRANCH  11  12
ENDBRANCH  10  11
ENDBRANCH   1  10
TORSDOF 12
ENDMDL
MODEL 6
REMARK VINA RESULT:    -3.779     12.387     13.890
REMARK INTER + INTRA:          -7.573
REMARK INTER:                  -6.213
REMARK INTRA:                  -1.360
REMARK UNBOUND:                -1.143
REMARK SMILES CCCCCCCCCCCCCC(=O)[O-]
REMARK SMILES IDX 8 1 9 2 10 3 11 4 12 5 13 6 14 7 15 8 16 9 7 10 6 11 5 12
REMARK SMILES IDX 4 13 3 14 2 15 1 16
REMARK H PARENT
REMARK Flexibility Score: inf
ROOT
ATOM      1  C   UNL     1      27.854   5.975  48.415  1.00  0.00     0.000 C 
ENDROOT
BRANCH   1   2
ATOM      2  C   UNL     1      28.632   4.728  48.868  1.00  0.00     0.000 C 
BRANCH   2   3
ATOM      3  C   UNL     1      29.960   5.082  49.559  1.00  0.00     0.000 C 
BRANCH   3   4
ATOM      4  C   UNL     1      31.176   4.957  48.621  1.00  0.00     0.000 C 
BRANCH   4   5
ATOM      5  C   UNL     1      31.415   6.164  47.697  1.00  0.00     0.006 C 
BRANCH   5   6
ATOM      6  C   UNL     1      31.055   5.879  46.234  1.00  0.00     0.053 C 
BRANCH   6   7
ATOM      7  C   UNL     1      32.052   6.515  45.317  1.00  0.00     0.041 C 
ATOM      8  O   UNL     1      32.461   7.684  45.539  1.00  0.00    -0.550 OA
ATOM      9  O   UNL     1      32.493   5.833  44.190  1.00  0.00    -0.550 OA
ENDBRANCH   6   7
ENDBRANCH   5   6
ENDBRANCH   4   5
ENDBRANCH   3   4
ENDBRANCH   2   3
ENDBRANCH   1   2
BRANCH   1  10
ATOM     10  C   UNL     1      27.183   5.785  47.044  1.00  0.00     0.000 C 
BRANCH  10  11
ATOM     11  C   UNL     1      27.413   4.379  46.466  1.00  0.00    -0.000 C 
BRANCH  11  12
ATOM     12  C   UNL     1      26.100   3.670  46.090  1.00  0.00    -0.000 C 
BRANCH  12  13
ATOM     13  C   UNL     1      25.104   3.597  47.261  1.00  0.00    -0.000 C 
BRANCH  13  14
ATOM     14  C   UNL     1      24.612   2.179  47.603  1.00  0.00    -0.000 C 
BRANCH  14  15
ATOM     15  C   UNL     1      24.695   1.862  49.105  1.00  0.00    -0.003 C 
ATOM     16  C   UNL     1      25.425   2.969  49.860  1.00  0.00     0.004 C 
ENDBRANCH  14  15
ENDBRANCH  13  14
ENDBRANCH  12  13
ENDBRANCH  11  12
ENDBRANCH  10  11
ENDBRANCH   1  10
TORSDOF 12
ENDMDL
MODEL 7
REMARK VINA RESULT:    -3.755      3.287      6.361
REMARK INTER + INTRA:          -7.532
REMARK INTER:                  -5.472
REMARK INTRA:                  -2.061
REMARK UNBOUND:                -1.143
REMARK SMILES CCCCCCCCCCCCCC(=O)[O-]
REMARK SMILES IDX 8 1 9 2 10 3 11 4 12 5 13 6 14 7 15 8 16 9 7 10 6 11 5 12
REMARK SMILES IDX 4 13 3 14 2 15 1 16
REMARK H PARENT
REMARK Flexibility Score: inf
ROOT
ATOM      1  C   UNL     1      22.897  -2.881  57.677  1.00  0.00     0.000 C 
ENDROOT
BRANCH   1   2
ATOM      2  C   UNL     1      23.881  -2.561  56.540  1.00  0.00     0.000 C 
BRANCH   2   3
ATOM      3  C   UNL     1      23.969  -3.692  55.502  1.00  0.00     0.000 C 
BRANCH   3   4
ATOM      4  C   UNL     1      23.335  -3.315  54.149  1.00  0.00     0.000 C 
BRANCH   4   5
ATOM      5  C   UNL     1      22.440  -4.399  53.523  1.00  0.00     0.006 C 
BRANCH   5   6
ATOM      6  C   UNL     1      23.173  -5.729  53.307  1.00  0.00     0.053 C 
BRANCH   6   7
ATOM      7  C   UNL     1      24.193  -5.594  52.221  1.00  0.00     0.041 C 
ATOM      8  O   UNL     1      25.420  -5.680  52.490  1.00  0.00    -0.550 OA
ATOM      9  O   UNL     1      23.790  -5.325  50.919  1.00  0.00    -0.550 OA
ENDBRANCH   6   7
ENDBRANCH   5   6
ENDBRANCH   4   5
ENDBRANCH   3   4
ENDBRANCH   2   3
ENDBRANCH   1   2
BRANCH   1  10
ATOM     10  C   UNL     1      21.778  -1.832  57.800  1.00  0.00     0.000 C 
BRANCH  10  11
ATOM     11  C   UNL     1      21.693  -0.916  56.569  1.00  0.00    -0.000 C 
BRANCH  11  12
ATOM     12  C   UNL     1      20.538  -1.295  55.625  1.00  0.00    -0.000 C 
BRANCH  12  13
ATOM     13  C   UNL     1      19.542  -2.279  56.266  1.00  0.00    -0.000 C 
BRANCH  13  14
ATOM     14  C   UNL     1      19.553  -3.695  55.662  1.00  0.00    -0.000 C 
BRANCH  14  15
ATOM     15  C   UNL     1      19.573  -4.800  56.729  1.00  0.00    -0.003 C 
ATOM     16  C   UNL     1      20.819  -5.672  56.595  1.00  0.00     0.004 C 
ENDBRANCH  14  15
ENDBRANCH  13  14
ENDBRANCH  12  13
ENDBRANCH  11  12
ENDBRANCH  10  11
ENDBRANCH   1  10
TORSDOF 12
ENDMDL
MODEL 8
REMARK VINA RESULT:    -3.747      2.872      6.053
REMARK INTER + INTRA:          -7.518
REMARK INTER:                  -5.662
REMARK INTRA:                  -1.856
REMARK UNBOUND:                -1.143
REMARK SMILES CCCCCCCCCCCCCC(=O)[O-]
REMARK SMILES IDX 8 1 9 2 10 3 11 4 12 5 13 6 14 7 15 8 16 9 7 10 6 11 5 12
REMARK SMILES IDX 4 13 3 14 2 15 1 16
REMARK H PARENT
REMARK Flexibility Score: inf
ROOT
ATOM      1  C   UNL     1      23.455  -2.120  55.229  1.00  0.00     0.000 C 
ENDROOT
BRANCH   1   2
ATOM      2  C   UNL     1      23.223  -2.933  53.944  1.00  0.00     0.000 C 
BRANCH   2   3
ATOM      3  C   UNL     1      23.597  -4.416  54.111  1.00  0.00     0.000 C 
BRANCH   3   4
ATOM      4  C   UNL     1      24.115  -5.054  52.808  1.00  0.00     0.000 C 
BRANCH   4   5
ATOM      5  C   UNL     1      23.079  -5.889  52.034  1.00  0.00     0.006 C 
BRANCH   5   6
ATOM      6  C   UNL     1      22.408  -6.963  52.899  1.00  0.00     0.053 C 
BRANCH   6   7
ATOM      7  C   UNL     1      20.924  -6.927  52.720  1.00  0.00     0.041 C 
ATOM      8  O   UNL     1      20.379  -5.950  52.142  1.00  0.00    -0.550 OA
ATOM      9  O   UNL     1      20.136  -7.949  53.236  1.00  0.00    -0.550 OA
ENDBRANCH   6   7
ENDBRANCH   5   6
ENDBRANCH   4   5
ENDBRANCH   3   4
ENDBRANCH   2   3
ENDBRANCH   1   2
BRANCH   1  10
ATOM     10  C   UNL     1      24.309  -2.878  56.260  1.00  0.00     0.000 C 
BRANCH  10  11
ATOM     11  C   UNL     1      23.523  -3.224  57.534  1.00  0.00    -0.000 C 
BRANCH  11  12
ATOM     12  C   UNL     1      22.203  -2.442  57.649  1.00  0.00    -0.000 C 
BRANCH  12  13
ATOM     13  C   UNL     1      20.963  -3.352  57.587  1.00  0.00    -0.000 C 
BRANCH  13  14
ATOM     14  C   UNL     1      21.252  -4.815  57.205  1.00  0.00    -0.000 C 
BRANCH  14  15
ATOM     15  C   UNL     1      20.514  -5.259  55.933  1.00  0.00    -0.003 C 
ATOM     16  C   UNL     1      19.960  -4.059  55.171  1.00  0.00     0.004 C 
ENDBRANCH  14  15
ENDBRANCH  13  14
ENDBRANCH  12  13
ENDBRANCH  11  12
ENDBRANCH  10  11
ENDBRANCH   1  10
TORSDOF 12
ENDMDL
