MODEL 1
REMARK VINA RESULT:    -4.991      0.000      0.000
REMARK INTER + INTRA:         -13.353
REMARK INTER:                 -11.409
REMARK INTRA:                  -1.944
REMARK UNBOUND:                -1.944
REMARK SMILES CCCCCCCCCCCCCCCCCCCCCCCC(=O)[O-]
REMARK SMILES IDX 13 1 14 2 15 3 16 4 17 5 18 6 19 7 20 8 21 9 22 10 23 11
REMARK SMILES IDX 24 12 25 13 26 14 12 15 11 16 10 17 9 18 8 19 7 20 6 21 5 22
REMARK SMILES IDX 4 23 3 24 2 25 1 26
REMARK H PARENT
REMARK Flexibility Score: inf
ROOT
ATOM      1  C   UNL     1      -5.302  -5.030  28.351  1.00  0.00     0.000 C 
ENDROOT
BRANCH   1   2
ATOM      2  C   UNL     1      -5.835  -6.472  28.250  1.00  0.00     0.000 C 
BRANCH   2   3
ATOM      3  C   UNL     1      -5.768  -7.286  29.554  1.00  0.00     0.000 C 
BRANCH   3   4
ATOM      4  C   UNL     1      -6.227  -8.741  29.368  1.00  0.00     0.000 C 
BRANCH   4   5
ATOM      5  C   UNL     1      -5.274  -9.759  30.021  1.00  0.00     0.000 C 
BRANCH   5   6
ATOM      6  C   UNL     1      -4.652 -10.789  29.056  1.00  0.00     0.000 C 
BRANCH   6   7
ATOM      7  C   UNL     1      -5.013 -10.597  27.570  1.00  0.00     0.000 C 
BRANCH   7   8
ATOM      8  C   UNL     1      -4.897 -11.865  26.701  1.00  0.00     0.000 C 
BRANCH   8   9
ATOM      9  C   UNL     1      -4.091 -11.698  25.399  1.00  0.00     0.000 C 
BRANCH   9  10
ATOM     10  C   UNL     1      -3.394 -12.972  24.882  1.00  0.00     0.006 C 
BRANCH  10  11
ATOM     11  C   UNL     1      -2.979 -12.901  23.401  1.00  0.00     0.053 C 
BRANCH  11  12
ATOM     12  C   UNL     1      -1.498 -12.756  23.222  1.00  0.00     0.041 C 
ATOM     13  O   UNL     1      -0.964 -13.011  22.108  1.00  0.00    -0.550 OA
ATOM     14  O   UNL     1      -0.700 -12.369  24.294  1.00  0.00    -0.550 OA
ENDBRANCH  11  12
ENDBRANCH  10  11
ENDBRANCH   9  10
ENDBRANCH   8   9
ENDBRANCH   7   8
ENDBRANCH   6   7
ENDBRANCH   5   6
ENDBRANCH   4   5
ENDBRANCH   3   4
ENDBRANCH   2   3
ENDBRANCH   1   2
BRANCH   1  15
ATOM     15  C   UNL     1      -5.669  -4.320  29.673  1.00  0.00     0.000 C 
BRANCH  15  16
ATOM     16  C   UNL     1      -5.034  -2.923  29.781  1.00  0.00     0.000 C 
BRANCH  16  17
ATOM     17  C   UNL     1      -4.193  -2.560  28.547  1.00  0.00     0.000 C 
BRANCH  17  18
ATOM     18  C   UNL     1      -4.453  -1.123  28.061  1.00  0.00    -0.000 C 
BRANCH  18  19
ATOM     19  C   UNL     1      -5.257  -0.294  29.076  1.00  0.00    -0.000 C 
BRANCH  19  20
ATOM     20  C   UNL     1      -4.510   0.975  29.522  1.00  0.00    -0.000 C 
BRANCH  20  21
ATOM     21  C   UNL     1      -3.028   0.715  29.853  1.00  0.00    -0.000 C 
BRANCH  21  22
ATOM     22  C   UNL     1      -2.028   1.665  29.169  1.00  0.00    -0.000 C 
BRANCH  22  23
ATOM     23  C   UNL     1      -0.849   0.929  28.517  1.00  0.00    -0.000 C 
BRANCH  23  24
ATOM     24  C   UNL     1      -1.197   0.495  27.087  1.00  0.00    -0.000 C 
BRANCH  24  25
ATOM     25  C   UNL     1      -0.763  -0.951  26.827  1.00  0.00    -0.003 C 
ATOM     26  C   UNL     1      -0.583  -1.714  28.137  1.00  0.00     0.004 C 
ENDBRANCH  24  25
ENDBRANCH  23  24
ENDBRANCH  22  23
ENDBRANCH  21  22
ENDBRANCH  20  21
ENDBRANCH  19  20
ENDBRANCH  18  19
ENDBRANCH  17  18
ENDBRANCH  16  17
ENDBRANCH  15  16
ENDBRANCH   1  15
TORSDOF 22
ENDMDL
MODEL 2
REMARK VINA RESULT:    -4.905      3.365     10.447
REMARK INTER + INTRA:         -13.156
REMARK INTER:                 -11.512
REMARK INTRA:                  -1.644
REMARK UNBOUND:                -1.944
REMARK SMILES CCCCCCCCCCCCCCCCCCCCCCCC(=O)[O-]
REMARK SMILES IDX 13 1 14 2 15 3 16 4 17 5 18 6 19 7 20 8 21 9 22 10 23 11
REMARK SMILES IDX 24 12 25 13 26 14 12 15 11 16 10 17 9 18 8 19 7 20 6 21 5 22
REMARK SMILES IDX 4 23 3 24 2 25 1 26
REMARK H PARENT
REMARK Flexibility Score: inf
ROOT
ATOM      1  C   UNL     1      -6.046  -7.747  28.736  1.00  0.00     0.000 C 
ENDROOT
BRANCH   1   2
ATOM      2  C   UNL     1      -5.692  -6.307  29.155  1.00  0.00     0.000 C 
BRANCH   2   3
ATOM      3  C   UNL     1      -5.251  -5.383  28.008  1.00  0.00     0.000 C 
BRANCH   3   4
ATOM      4  C   UNL     1      -6.035  -4.061  27.976  1.00  0.00     0.000 C 
BRANCH   4   5
ATOM      5  C   UNL     1      -5.640  -3.102  29.114  1.00  0.00     0.000 C 
BRANCH   5   6
ATOM      6  C   UNL     1      -5.106  -1.728  28.659  1.00  0.00     0.000 C 
BRANCH   6   7
ATOM      7  C   UNL     1      -3.579  -1.548  28.774  1.00  0.00     0.000 C 
BRANCH   7   8
ATOM      8  C   UNL     1      -2.912  -0.852  27.570  1.00  0.00     0.000 C 
BRANCH   8   9
ATOM      9  C   UNL     1      -1.693   0.025  27.912  1.00  0.00     0.000 C 
BRANCH   9  10
ATOM     10  C   UNL     1      -0.404  -0.297  27.131  1.00  0.00     0.006 C 
BRANCH  10  11
ATOM     11  C   UNL     1      -0.011  -1.786  27.156  1.00  0.00     0.053 C 
BRANCH  11  12
ATOM     12  C   UNL     1       0.232  -2.296  28.543  1.00  0.00     0.041 C 
ATOM     13  O   UNL     1       1.110  -1.760  29.274  1.00  0.00    -0.550 OA
ATOM     14  O   UNL     1      -0.488  -3.385  29.023  1.00  0.00    -0.550 OA
ENDBRANCH  11  12
ENDBRANCH  10  11
ENDBRANCH   9  10
ENDBRANCH   8   9
ENDBRANCH   7   8
ENDBRANCH   6   7
ENDBRANCH   5   6
ENDBRANCH   4   5
ENDBRANCH   3   4
ENDBRANCH   2   3
ENDBRANCH   1   2
BRANCH   1  15
ATOM     15  C   UNL     1      -6.184  -8.727  29.922  1.00  0.00     0.000 C 
BRANCH  15  16
ATOM     16  C   UNL     1      -5.308  -9.980  29.750  1.00  0.00     0.000 C 
BRANCH  16  17
ATOM     17  C   UNL     1      -5.046 -10.317  28.273  1.00  0.00     0.000 C 
BRANCH  17  18
ATOM     18  C   UNL     1      -3.965 -11.400  28.101  1.00  0.00    -0.000 C 
BRANCH  18  19
ATOM     19  C   UNL     1      -4.187 -12.260  26.847  1.00  0.00    -0.000 C 
BRANCH  19  20
ATOM     20  C   UNL     1      -4.527 -11.415  25.607  1.00  0.00    -0.000 C 
BRANCH  20  21
ATOM     21  C   UNL     1      -3.759 -11.859  24.347  1.00  0.00    -0.000 C 
BRANCH  21  22
ATOM     22  C   UNL     1      -2.566 -12.797  24.605  1.00  0.00    -0.000 C 
BRANCH  22  23
ATOM     23  C   UNL     1      -1.333 -12.451  23.757  1.00  0.00    -0.000 C 
BRANCH  23  24
ATOM     24  C   UNL     1      -0.236 -11.815  24.620  1.00  0.00    -0.000 C 
BRANCH  24  25
ATOM     25  C   UNL     1      -0.188 -12.454  26.012  1.00  0.00    -0.003 C 
ATOM     26  C   UNL     1      -0.388 -11.407  27.104  1.00  0.00     0.004 C 
ENDBRANCH  24  25
ENDBRANCH  23  24
ENDBRANCH  22  23
ENDBRANCH  21  22
ENDBRANCH  20  21
ENDBRANCH  19  20
ENDBRANCH  18  19
ENDBRANCH  17  18
ENDBRANCH  16  17
ENDBRANCH  15  16
ENDBRANCH   1  15
TORSDOF 22
ENDMDL
MODEL 3
REMARK VINA RESULT:    -4.862      1.274      2.128
REMARK INTER + INTRA:         -13.059
REMARK INTER:                 -11.661
REMARK INTRA:                  -1.399
REMARK UNBOUND:                -1.944
REMARK SMILES CCCCCCCCCCCCCCCCCCCCCCCC(=O)[O-]
REMARK SMILES IDX 13 1 14 2 15 3 16 4 17 5 18 6 19 7 20 8 21 9 22 10 23 11
REMARK SMILES IDX 24 12 25 13 26 14 12 15 11 16 10 17 9 18 8 19 7 20 6 21 5 22
REMARK SMILES IDX 4 23 3 24 2 25 1 26
REMARK H PARENT
REMARK Flexibility Score: inf
ROOT
ATOM      1  C   UNL     1      -5.833  -6.858  28.484  1.00  0.00     0.000 C 
ENDROOT
BRANCH   1   2
ATOM      2  C   UNL     1      -6.152  -8.082  29.364  1.00  0.00     0.000 C 
BRANCH   2   3
ATOM      3  C   UNL     1      -5.761  -9.441  28.759  1.00  0.00     0.000 C 
BRANCH   3   4
ATOM      4  C   UNL     1      -4.982 -10.326  29.745  1.00  0.00     0.000 C 
BRANCH   4   5
ATOM      5  C   UNL     1      -4.221 -11.471  29.051  1.00  0.00     0.000 C 
BRANCH   5   6
ATOM      6  C   UNL     1      -3.826 -11.203  27.585  1.00  0.00     0.000 C 
BRANCH   6   7
ATOM      7  C   UNL     1      -4.684 -11.930  26.531  1.00  0.00     0.000 C 
BRANCH   7   8
ATOM      8  C   UNL     1      -4.073 -11.985  25.117  1.00  0.00     0.000 C 
BRANCH   8   9
ATOM      9  C   UNL     1      -2.731 -12.732  25.011  1.00  0.00     0.000 C 
BRANCH   9  10
ATOM     10  C   UNL     1      -1.889 -12.410  23.760  1.00  0.00     0.006 C 
BRANCH  10  11
ATOM     11  C   UNL     1      -0.376 -12.308  24.033  1.00  0.00     0.053 C 
BRANCH  11  12
ATOM     12  C   UNL     1       0.442 -12.355  22.778  1.00  0.00     0.041 C 
ATOM     13  O   UNL     1       1.039 -13.416  22.448  1.00  0.00    -0.550 OA
ATOM     14  O   UNL     1       0.573 -11.219  21.986  1.00  0.00    -0.550 OA
ENDBRANCH  11  12
ENDBRANCH  10  11
ENDBRANCH   9  10
ENDBRANCH   8   9
ENDBRANCH   7   8
ENDBRANCH   6   7
ENDBRANCH   5   6
ENDBRANCH   4   5
ENDBRANCH   3   4
ENDBRANCH   2   3
ENDBRANCH   1   2
BRANCH   1  15
ATOM     15  C   UNL     1      -5.468  -5.590  29.286  1.00  0.00     0.000 C 
BRANCH  15  16
ATOM     16  C   UNL     1      -4.849  -4.495  28.400  1.00  0.00     0.000 C 
BRANCH  16  17
ATOM     17  C   UNL     1      -5.772  -3.276  28.241  1.00  0.00     0.000 C 
BRANCH  17  18
ATOM     18  C   UNL     1      -5.241  -2.037  28.985  1.00  0.00    -0.000 C 
BRANCH  18  19
ATOM     19  C   UNL     1      -4.326  -1.169  28.106  1.00  0.00    -0.000 C 
BRANCH  19  20
ATOM     20  C   UNL     1      -3.687  -0.009  28.890  1.00  0.00    -0.000 C 
BRANCH  20  21
ATOM     21  C   UNL     1      -2.160   0.071  28.707  1.00  0.00    -0.000 C 
BRANCH  21  22
ATOM     22  C   UNL     1      -1.656  -0.201  27.278  1.00  0.00    -0.000 C 
BRANCH  22  23
ATOM     23  C   UNL     1      -0.616  -1.329  27.211  1.00  0.00    -0.000 C 
BRANCH  23  24
ATOM     24  C   UNL     1      -0.001  -1.590  28.592  1.00  0.00    -0.000 C 
BRANCH  24  25
ATOM     25  C   UNL     1       0.049  -3.090  28.900  1.00  0.00    -0.003 C 
ATOM     26  C   UNL     1      -1.347  -3.707  28.854  1.00  0.00     0.004 C 
ENDBRANCH  24  25
ENDBRANCH  23  24
ENDBRANCH  22  23
ENDBRANCH  21  22
ENDBRANCH  20  21
ENDBRANCH  19  20
ENDBRANCH  18  19
ENDBRANCH  17  18
ENDBRANCH  16  17
ENDBRANCH  15  16
ENDBRANCH   1  15
TORSDOF 22
ENDMDL
MODEL 4
REMARK VINA RESULT:    -4.844      3.336     10.580
REMARK INTER + INTRA:         -13.017
REMARK INTER:                 -11.234
REMARK INTRA:                  -1.784
REMARK UNBOUND:                -1.944
REMARK SMILES CCCCCCCCCCCCCCCCCCCCCCCC(=O)[O-]
REMARK SMILES IDX 13 1 14 2 15 3 16 4 17 5 18 6 19 7 20 8 21 9 22 10 23 11
REMARK SMILES IDX 24 12 25 13 26 14 12 15 11 16 10 17 9 18 8 19 7 20 6 21 5 22
REMARK SMILES IDX 4 23 3 24 2 25 1 26
REMARK H PARENT
REMARK Flexibility Score: inf
ROOT
ATOM      1  C   UNL     1      -6.190  -8.487  29.038  1.00  0.00     0.000 C 
ENDROOT
BRANCH   1   2
ATOM      2  C   UNL     1      -5.813  -7.004  29.217  1.00  0.00     0.000 C 
BRANCH   2   3
ATOM      3  C   UNL     1      -5.809  -6.171  27.924  1.00  0.00     0.000 C 
BRANCH   3   4
ATOM      4  C   UNL     1      -5.824  -4.657  28.195  1.00  0.00     0.000 C 
BRANCH   4   5
ATOM      5  C   UNL     1      -5.383  -4.300  29.627  1.00  0.00     0.000 C 
BRANCH   5   6
ATOM      6  C   UNL     1      -4.953  -2.833  29.835  1.00  0.00     0.000 C 
BRANCH   6   7
ATOM      7  C   UNL     1      -5.498  -1.836  28.793  1.00  0.00     0.000 C 
BRANCH   7   8
ATOM      8  C   UNL     1      -4.903  -0.416  28.876  1.00  0.00     0.000 C 
BRANCH   8   9
ATOM      9  C   UNL     1      -3.364  -0.350  28.896  1.00  0.00     0.000 C 
BRANCH   9  10
ATOM     10  C   UNL     1      -2.670  -0.639  27.551  1.00  0.00     0.006 C 
BRANCH  10  11
ATOM     11  C   UNL     1      -1.148  -0.409  27.569  1.00  0.00     0.053 C 
BRANCH  11  12
ATOM     12  C   UNL     1      -0.370  -1.688  27.617  1.00  0.00     0.041 C 
ATOM     13  O   UNL     1       0.571  -1.892  26.801  1.00  0.00    -0.550 OA
ATOM     14  O   UNL     1      -0.702  -2.674  28.541  1.00  0.00    -0.550 OA
ENDBRANCH  11  12
ENDBRANCH  10  11
ENDBRANCH   9  10
ENDBRANCH   8   9
ENDBRANCH   7   8
ENDBRANCH   6   7
ENDBRANCH   5   6
ENDBRANCH   4   5
ENDBRANCH   3   4
ENDBRANCH   2   3
ENDBRANCH   1   2
BRANCH   1  15
ATOM     15  C   UNL     1      -5.491  -9.435  30.037  1.00  0.00     0.000 C 
BRANCH  15  16
ATOM     16  C   UNL     1      -4.753 -10.586  29.332  1.00  0.00     0.000 C 
BRANCH  16  17
ATOM     17  C   UNL     1      -4.980 -10.588  27.811  1.00  0.00     0.000 C 
BRANCH  17  18
ATOM     18  C   UNL     1      -3.957 -11.463  27.066  1.00  0.00    -0.000 C 
BRANCH  18  19
ATOM     19  C   UNL     1      -3.592 -12.737  27.845  1.00  0.00    -0.000 C 
BRANCH  19  20
ATOM     20  C   UNL     1      -2.071 -12.909  28.011  1.00  0.00    -0.000 C 
BRANCH  20  21
ATOM     21  C   UNL     1      -1.275 -11.662  27.582  1.00  0.00    -0.000 C 
BRANCH  21  22
ATOM     22  C   UNL     1      -0.339 -11.866  26.376  1.00  0.00    -0.000 C 
BRANCH  22  23
ATOM     23  C   UNL     1      -0.716 -13.085  25.521  1.00  0.00    -0.000 C 
BRANCH  23  24
ATOM     24  C   UNL     1      -1.209 -12.650  24.135  1.00  0.00    -0.000 C 
BRANCH  24  25
ATOM     25  C   UNL     1      -2.726 -12.825  24.008  1.00  0.00    -0.003 C 
ATOM     26  C   UNL     1      -3.113 -13.253  22.595  1.00  0.00     0.004 C 
ENDBRANCH  24  25
ENDBRANCH  23  24
ENDBRANCH  22  23
ENDBRANCH  21  22
ENDBRANCH  20  21
ENDBRANCH  19  20
ENDBRANCH  18  19
ENDBRANCH  17  18
ENDBRANCH  16  17
ENDBRANCH  15  16
ENDBRANCH   1  15
TORSDOF 22
ENDMDL
MODEL 5
REMARK VINA RESULT:    -4.835      1.106      2.536
REMARK INTER + INTRA:         -12.996
REMARK INTER:                 -11.190
REMARK INTRA:                  -1.807
REMARK UNBOUND:                -1.944
REMARK SMILES CCCCCCCCCCCCCCCCCCCCCCCC(=O)[O-]
REMARK SMILES IDX 13 1 14 2 15 3 16 4 17 5 18 6 19 7 20 8 21 9 22 10 23 11
REMARK SMILES IDX 24 12 25 13 26 14 12 15 11 16 10 17 9 18 8 19 7 20 6 21 5 22
REMARK SMILES IDX 4 23 3 24 2 25 1 26
REMARK H PARENT
REMARK Flexibility Score: inf
ROOT
ATOM      1  C   UNL     1      -5.383  -2.803  29.541  1.00  0.00     0.000 C 
ENDROOT
BRANCH   1   2
ATOM      2  C   UNL     1      -5.638  -4.322  29.564  1.00  0.00     0.000 C 
BRANCH   2   3
ATOM      3  C   UNL     1      -5.327  -5.056  28.249  1.00  0.00     0.000 C 
BRANCH   3   4
ATOM      4  C   UNL     1      -5.871  -6.494  28.230  1.00  0.00     0.000 C 
BRANCH   4   5
ATOM      5  C   UNL     1      -5.771  -7.191  29.599  1.00  0.00     0.000 C 
BRANCH   5   6
ATOM      6  C   UNL     1      -6.416  -8.591  29.672  1.00  0.00     0.000 C 
BRANCH   6   7
ATOM      7  C   UNL     1      -5.425  -9.771  29.647  1.00  0.00     0.000 C 
BRANCH   7   8
ATOM      8  C   UNL     1      -5.033 -10.263  28.239  1.00  0.00     0.000 C 
BRANCH   8   9
ATOM      9  C   UNL     1      -4.075 -11.470  28.208  1.00  0.00     0.000 C 
BRANCH   9  10
ATOM     10  C   UNL     1      -3.419 -11.761  26.845  1.00  0.00     0.006 C 
BRANCH  10  11
ATOM     11  C   UNL     1      -4.274 -12.642  25.914  1.00  0.00     0.053 C 
BRANCH  11  12
ATOM     12  C   UNL     1      -3.496 -13.179  24.751  1.00  0.00     0.041 C 
ATOM     13  O   UNL     1      -3.305 -12.464  23.729  1.00  0.00    -0.550 OA
ATOM     14  O   UNL     1      -3.007 -14.481  24.780  1.00  0.00    -0.550 OA
ENDBRANCH  11  12
ENDBRANCH  10  11
ENDBRANCH   9  10
ENDBRANCH   8   9
ENDBRANCH   7   8
ENDBRANCH   6   7
ENDBRANCH   5   6
ENDBRANCH   4   5
ENDBRANCH   3   4
ENDBRANCH   2   3
ENDBRANCH   1   2
BRANCH   1  15
ATOM     15  C   UNL     1      -4.179  -2.385  28.670  1.00  0.00     0.000 C 
BRANCH  15  16
ATOM     16  C   UNL     1      -4.305  -0.942  28.151  1.00  0.00     0.000 C 
BRANCH  16  17
ATOM     17  C   UNL     1      -5.290  -0.102  28.980  1.00  0.00     0.000 C 
BRANCH  17  18
ATOM     18  C   UNL     1      -4.602   1.078  29.689  1.00  0.00    -0.000 C 
BRANCH  18  19
ATOM     19  C   UNL     1      -3.071   0.940  29.715  1.00  0.00    -0.000 C 
BRANCH  19  20
ATOM     20  C   UNL     1      -2.357   2.242  29.310  1.00  0.00    -0.000 C 
BRANCH  20  21
ATOM     21  C   UNL     1      -1.258   2.022  28.253  1.00  0.00    -0.000 C 
BRANCH  21  22
ATOM     22  C   UNL     1      -0.618   0.622  28.257  1.00  0.00    -0.000 C 
BRANCH  22  23
ATOM     23  C   UNL     1      -0.885  -0.166  26.966  1.00  0.00    -0.000 C 
BRANCH  23  24
ATOM     24  C   UNL     1      -0.161  -1.518  26.990  1.00  0.00    -0.000 C 
BRANCH  24  25
ATOM     25  C   UNL     1      -0.551  -2.331  28.229  1.00  0.00    -0.003 C 
ATOM     26  C   UNL     1       0.682  -2.717  29.042  1.00  0.00     0.004 C 
ENDBRANCH  24  25
ENDBRANCH  23  24
ENDBRANCH  22  23
ENDBRANCH  21  22
ENDBRANCH  20  21
ENDBRANCH  19  20
ENDBRANCH  18  19
ENDBRANCH  17  18
ENDBRANCH  16  17
ENDBRANCH  15  16
ENDBRANCH   1  15
TORSDOF 22
ENDMDL
MODEL 6
REMARK VINA RESULT:    -4.823      3.187     10.452
REMARK INTER + INTRA:         -12.970
REMARK INTER:                 -11.321
REMARK INTRA:                  -1.649
REMARK UNBOUND:                -1.944
REMARK SMILES CCCCCCCCCCCCCCCCCCCCCCCC(=O)[O-]
REMARK SMILES IDX 13 1 14 2 15 3 16 4 17 5 18 6 19 7 20 8 21 9 22 10 23 11
REMARK SMILES IDX 24 12 25 13 26 14 12 15 11 16 10 17 9 18 8 19 7 20 6 21 5 22
REMARK SMILES IDX 4 23 3 24 2 25 1 26
REMARK H PARENT
REMARK Flexibility Score: inf
ROOT
ATOM      1  C   UNL     1      -5.857  -6.523  28.266  1.00  0.00     0.000 C 
ENDROOT
BRANCH   1   2
ATOM      2  C   UNL     1      -5.398  -5.055  28.355  1.00  0.00     0.000 C 
BRANCH   2   3
ATOM      3  C   UNL     1      -5.752  -4.339  29.669  1.00  0.00     0.000 C 
BRANCH   3   4
ATOM      4  C   UNL     1      -5.056  -2.975  29.807  1.00  0.00     0.000 C 
BRANCH   4   5
ATOM      5  C   UNL     1      -4.123  -2.655  28.624  1.00  0.00     0.000 C 
BRANCH   5   6
ATOM      6  C   UNL     1      -4.212  -1.211  28.089  1.00  0.00     0.000 C 
BRANCH   6   7
ATOM      7  C   UNL     1      -3.572  -0.138  28.992  1.00  0.00     0.000 C 
BRANCH   7   8
ATOM      8  C   UNL     1      -2.075   0.124  28.733  1.00  0.00     0.000 C 
BRANCH   8   9
ATOM      9  C   UNL     1      -1.612  -0.096  27.280  1.00  0.00     0.000 C 
BRANCH   9  10
ATOM     10  C   UNL     1      -0.303  -0.892  27.114  1.00  0.00     0.006 C 
BRANCH  10  11
ATOM     11  C   UNL     1       0.452  -1.138  28.433  1.00  0.00     0.053 C 
BRANCH  11  12
ATOM     12  C   UNL     1       0.611  -2.595  28.745  1.00  0.00     0.041 C 
ATOM     13  O   UNL     1       1.747  -3.139  28.681  1.00  0.00    -0.550 OA
ATOM     14  O   UNL     1      -0.500  -3.363  29.078  1.00  0.00    -0.550 OA
ENDBRANCH  11  12
ENDBRANCH  10  11
ENDBRANCH   9  10
ENDBRANCH   8   9
ENDBRANCH   7   8
ENDBRANCH   6   7
ENDBRANCH   5   6
ENDBRANCH   4   5
ENDBRANCH   3   4
ENDBRANCH   2   3
ENDBRANCH   1   2
BRANCH   1  15
ATOM     15  C   UNL     1      -5.765  -7.289  29.605  1.00  0.00     0.000 C 
BRANCH  15  16
ATOM     16  C   UNL     1      -6.254  -8.742  29.482  1.00  0.00     0.000 C 
BRANCH  16  17
ATOM     17  C   UNL     1      -5.283  -9.746  30.123  1.00  0.00     0.000 C 
BRANCH  17  18
ATOM     18  C   UNL     1      -4.642 -10.686  29.087  1.00  0.00    -0.000 C 
BRANCH  18  19
ATOM     19  C   UNL     1      -5.104 -10.385  27.652  1.00  0.00    -0.000 C 
BRANCH  19  20
ATOM     20  C   UNL     1      -4.589 -11.422  26.638  1.00  0.00    -0.000 C 
BRANCH  20  21
ATOM     21  C   UNL     1      -3.321 -12.152  27.117  1.00  0.00    -0.000 C 
BRANCH  21  22
ATOM     22  C   UNL     1      -2.685 -13.105  26.088  1.00  0.00    -0.000 C 
BRANCH  22  23
ATOM     23  C   UNL     1      -3.287 -12.961  24.682  1.00  0.00    -0.000 C 
BRANCH  23  24
ATOM     24  C   UNL     1      -2.219 -12.524  23.671  1.00  0.00    -0.000 C 
BRANCH  24  25
ATOM     25  C   UNL     1      -0.859 -12.336  24.352  1.00  0.00    -0.003 C 
ATOM     26  C   UNL     1       0.032 -11.395  23.546  1.00  0.00     0.004 C 
ENDBRANCH  24  25
ENDBRANCH  23  24
ENDBRANCH  22  23
ENDBRANCH  21  22
ENDBRANCH  20  21
ENDBRANCH  19  20
ENDBRANCH  18  19
ENDBRANCH  17  18
ENDBRANCH  16  17
ENDBRANCH  15  16
ENDBRANCH   1  15
TORSDOF 22
ENDMDL
MODEL 7
REMARK VINA RESULT:    -4.797      3.368     10.694
REMARK INTER + INTRA:         -12.911
REMARK INTER:                 -11.179
REMARK INTRA:                  -1.731
REMARK UNBOUND:                -1.944
REMARK SMILES CCCCCCCCCCCCCCCCCCCCCCCC(=O)[O-]
REMARK SMILES IDX 13 1 14 2 15 3 16 4 17 5 18 6 19 7 20 8 21 9 22 10 23 11
REMARK SMILES IDX 24 12 25 13 26 14 12 15 11 16 10 17 9 18 8 19 7 20 6 21 5 22
REMARK SMILES IDX 4 23 3 24 2 25 1 26
REMARK H PARENT
REMARK Flexibility Score: inf
ROOT
ATOM      1  C   UNL     1      -4.452  -2.112  28.624  1.00  0.00     0.000 C 
ENDROOT
BRANCH   1   2
ATOM      2  C   UNL     1      -4.705  -0.611  28.384  1.00  0.00     0.000 C 
BRANCH   2   3
ATOM      3  C   UNL     1      -5.740   0.035  29.320  1.00  0.00     0.000 C 
BRANCH   3   4
ATOM      4  C   UNL     1      -5.312   1.430  29.804  1.00  0.00     0.000 C 
BRANCH   4   5
ATOM      5  C   UNL     1      -3.799   1.534  30.071  1.00  0.00     0.000 C 
BRANCH   5   6
ATOM      6  C   UNL     1      -3.196   2.943  29.895  1.00  0.00     0.000 C 
BRANCH   6   7
ATOM      7  C   UNL     1      -1.745   2.976  29.377  1.00  0.00     0.000 C 
BRANCH   7   8
ATOM      8  C   UNL     1      -1.132   1.595  29.067  1.00  0.00     0.000 C 
BRANCH   8   9
ATOM      9  C   UNL     1      -0.854   1.320  27.577  1.00  0.00     0.000 C 
BRANCH   9  10
ATOM     10  C   UNL     1      -1.437   0.004  27.025  1.00  0.00     0.006 C 
BRANCH  10  11
ATOM     11  C   UNL     1      -0.948  -1.256  27.763  1.00  0.00     0.053 C 
BRANCH  11  12
ATOM     12  C   UNL     1       0.532  -1.458  27.644  1.00  0.00     0.041 C 
ATOM     13  O   UNL     1       1.298  -1.110  28.584  1.00  0.00    -0.550 OA
ATOM     14  O   UNL     1       1.073  -2.001  26.484  1.00  0.00    -0.550 OA
ENDBRANCH  11  12
ENDBRANCH  10  11
ENDBRANCH   9  10
ENDBRANCH   8   9
ENDBRANCH   7   8
ENDBRANCH   6   7
ENDBRANCH   5   6
ENDBRANCH   4   5
ENDBRANCH   3   4
ENDBRANCH   2   3
ENDBRANCH   1   2
BRANCH   1  15
ATOM     15  C   UNL     1      -5.743  -2.943  28.792  1.00  0.00     0.000 C 
BRANCH  15  16
ATOM     16  C   UNL     1      -5.456  -4.380  29.261  1.00  0.00     0.000 C 
BRANCH  16  17
ATOM     17  C   UNL     1      -5.258  -5.354  28.088  1.00  0.00     0.000 C 
BRANCH  17  18
ATOM     18  C   UNL     1      -6.040  -6.666  28.277  1.00  0.00    -0.000 C 
BRANCH  18  19
ATOM     19  C   UNL     1      -5.731  -7.349  29.620  1.00  0.00    -0.000 C 
BRANCH  19  20
ATOM     20  C   UNL     1      -6.379  -8.740  29.735  1.00  0.00    -0.000 C 
BRANCH  20  21
ATOM     21  C   UNL     1      -5.346  -9.877  29.855  1.00  0.00    -0.000 C 
BRANCH  21  22
ATOM     22  C   UNL     1      -4.920 -10.519  28.522  1.00  0.00    -0.000 C 
BRANCH  22  23
ATOM     23  C   UNL     1      -3.659 -11.387  28.648  1.00  0.00    -0.000 C 
BRANCH  23  24
ATOM     24  C   UNL     1      -3.115 -11.765  27.264  1.00  0.00    -0.000 C 
BRANCH  24  25
ATOM     25  C   UNL     1      -4.255 -11.976  26.262  1.00  0.00    -0.003 C 
ATOM     26  C   UNL     1      -4.256 -13.404  25.723  1.00  0.00     0.004 C 
ENDBRANCH  24  25
ENDBRANCH  23  24
ENDBRANCH  22  23
ENDBRANCH  21  22
ENDBRANCH  20  21
ENDBRANCH  19  20
ENDBRANCH  18  19
ENDBRANCH  17  18
ENDBRANCH  16  17
ENDBRANCH  15  16
ENDBRANCH   1  15
TORSDOF 22
ENDMDL
MODEL 8
REMARK VINA RESULT:    -4.751      3.592     11.184
REMARK INTER + INTRA:         -12.805
REMARK INTER:                 -11.578
REMARK INTRA:                  -1.227
REMARK UNBOUND:                -1.944
REMARK SMILES CCCCCCCCCCCCCCCCCCCCCCCC(=O)[O-]
REMARK SMILES IDX 13 1 14 2 15 3 16 4 17 5 18 6 19 7 20 8 21 9 22 10 23 11
REMARK SMILES IDX 24 12 25 13 26 14 12 15 11 16 10 17 9 18 8 19 7 20 6 21 5 22
REMARK SMILES IDX 4 23 3 24 2 25 1 26
REMARK H PARENT
REMARK Flexibility Score: inf
ROOT
ATOM      1  C   UNL     1      -5.741  -9.436  28.635  1.00  0.00     0.000 C 
ENDROOT
BRANCH   1   2
ATOM      2  C   UNL     1      -6.057  -8.157  29.435  1.00  0.00     0.000 C 
BRANCH   2   3
ATOM      3  C   UNL     1      -6.129  -6.867  28.601  1.00  0.00     0.000 C 
BRANCH   3   4
ATOM      4  C   UNL     1      -5.399  -5.689  29.267  1.00  0.00     0.000 C 
BRANCH   4   5
ATOM      5  C   UNL     1      -4.960  -4.610  28.261  1.00  0.00     0.000 C 
BRANCH   5   6
ATOM      6  C   UNL     1      -5.803  -3.318  28.273  1.00  0.00     0.000 C 
BRANCH   6   7
ATOM      7  C   UNL     1      -5.442  -2.310  29.382  1.00  0.00     0.000 C 
BRANCH   7   8
ATOM      8  C   UNL     1      -5.215  -0.863  28.900  1.00  0.00     0.000 C 
BRANCH   8   9
ATOM      9  C   UNL     1      -3.744  -0.408  28.862  1.00  0.00     0.000 C 
BRANCH   9  10
ATOM     10  C   UNL     1      -2.828  -1.201  27.909  1.00  0.00     0.006 C 
BRANCH  10  11
ATOM     11  C   UNL     1      -1.721  -0.354  27.254  1.00  0.00     0.053 C 
BRANCH  11  12
ATOM     12  C   UNL     1      -0.346  -0.777  27.673  1.00  0.00     0.041 C 
ATOM     13  O   UNL     1       0.388  -1.429  26.880  1.00  0.00    -0.550 OA
ATOM     14  O   UNL     1       0.118  -0.480  28.950  1.00  0.00    -0.550 OA
ENDBRANCH  11  12
ENDBRANCH  10  11
ENDBRANCH   9  10
ENDBRANCH   8   9
ENDBRANCH   7   8
ENDBRANCH   6   7
ENDBRANCH   5   6
ENDBRANCH   4   5
ENDBRANCH   3   4
ENDBRANCH   2   3
ENDBRANCH   1   2
BRANCH   1  15
ATOM     15  C   UNL     1      -4.875 -10.457  29.405  1.00  0.00     0.000 C 
BRANCH  15  16
ATOM     16  C   UNL     1      -4.137 -11.425  28.465  1.00  0.00     0.000 C 
BRANCH  16  17
ATOM     17  C   UNL     1      -4.437 -11.150  26.982  1.00  0.00     0.000 C 
BRANCH  17  18
ATOM     18  C   UNL     1      -4.858 -12.421  26.223  1.00  0.00    -0.000 C 
BRANCH  18  19
ATOM     19  C   UNL     1      -3.686 -13.390  26.001  1.00  0.00    -0.000 C 
BRANCH  19  20
ATOM     20  C   UNL     1      -2.421 -12.676  25.493  1.00  0.00    -0.000 C 
BRANCH  20  21
ATOM     21  C   UNL     1      -2.544 -12.202  24.032  1.00  0.00    -0.000 C 
BRANCH  21  22
ATOM     22  C   UNL     1      -3.144 -13.232  23.058  1.00  0.00    -0.000 C 
BRANCH  22  23
ATOM     23  C   UNL     1      -2.144 -13.709  21.995  1.00  0.00    -0.000 C 
BRANCH  23  24
ATOM     24  C   UNL     1      -0.720 -13.254  22.339  1.00  0.00    -0.000 C 
BRANCH  24  25
ATOM     25  C   UNL     1       0.158 -13.191  21.085  1.00  0.00    -0.003 C 
ATOM     26  C   UNL     1       0.917 -11.869  21.011  1.00  0.00     0.004 C 
ENDBRANCH  24  25
ENDBRANCH  23  24
ENDBRANCH  22  23
ENDBRANCH  21  22
ENDBRANCH  20  21
ENDBRANCH  19  20
ENDBRANCH  18  19
ENDBRANCH  17  18
ENDBRANCH  16  17
ENDBRANCH  15  16
ENDBRANCH   1  15
TORSDOF 22
ENDMDL
MODEL 9
REMARK VINA RESULT:    -4.741      4.471     11.109
REMARK INTER + INTRA:         -12.782
REMARK INTER:                 -11.234
REMARK INTRA:                  -1.548
REMARK UNBOUND:                -1.944
REMARK SMILES CCCCCCCCCCCCCCCCCCCCCCCC(=O)[O-]
REMARK SMILES IDX 13 1 14 2 15 3 16 4 17 5 18 6 19 7 20 8 21 9 22 10 23 11
REMARK SMILES IDX 24 12 25 13 26 14 12 15 11 16 10 17 9 18 8 19 7 20 6 21 5 22
REMARK SMILES IDX 4 23 3 24 2 25 1 26
REMARK H PARENT
REMARK Flexibility Score: inf
ROOT
ATOM      1  C   UNL     1      -5.874  -6.606  28.233  1.00  0.00     0.000 C 
ENDROOT
BRANCH   1   2
ATOM      2  C   UNL     1      -5.442  -5.127  28.284  1.00  0.00     0.000 C 
BRANCH   2   3
ATOM      3  C   UNL     1      -5.536  -4.468  29.671  1.00  0.00     0.000 C 
BRANCH   3   4
ATOM      4  C   UNL     1      -4.917  -3.061  29.701  1.00  0.00     0.000 C 
BRANCH   4   5
ATOM      5  C   UNL     1      -5.363  -2.184  28.517  1.00  0.00     0.000 C 
BRANCH   5   6
ATOM      6  C   UNL     1      -4.998  -0.690  28.633  1.00  0.00     0.000 C 
BRANCH   6   7
ATOM      7  C   UNL     1      -3.492  -0.391  28.771  1.00  0.00     0.000 C 
BRANCH   7   8
ATOM      8  C   UNL     1      -2.627  -0.831  27.573  1.00  0.00     0.000 C 
BRANCH   8   9
ATOM      9  C   UNL     1      -1.166  -1.182  27.912  1.00  0.00     0.000 C 
BRANCH   9  10
ATOM     10  C   UNL     1      -0.334  -0.036  28.521  1.00  0.00     0.006 C 
BRANCH  10  11
ATOM     11  C   UNL     1       0.575   0.685  27.508  1.00  0.00     0.053 C 
BRANCH  11  12
ATOM     12  C   UNL     1      -0.011   1.976  27.023  1.00  0.00     0.041 C 
ATOM     13  O   UNL     1      -1.134   2.364  27.448  1.00  0.00    -0.550 OA
ATOM     14  O   UNL     1       0.666   2.738  26.077  1.00  0.00    -0.550 OA
ENDBRANCH  11  12
ENDBRANCH  10  11
ENDBRANCH   9  10
ENDBRANCH   8   9
ENDBRANCH   7   8
ENDBRANCH   6   7
ENDBRANCH   5   6
ENDBRANCH   4   5
ENDBRANCH   3   4
ENDBRANCH   2   3
ENDBRANCH   1   2
BRANCH   1  15
ATOM     15  C   UNL     1      -5.741  -7.342  29.584  1.00  0.00     0.000 C 
BRANCH  15  16
ATOM     16  C   UNL     1      -6.393  -8.735  29.557  1.00  0.00     0.000 C 
BRANCH  16  17
ATOM     17  C   UNL     1      -5.365  -9.864  29.381  1.00  0.00     0.000 C 
BRANCH  17  18
ATOM     18  C   UNL     1      -5.127 -10.216  27.902  1.00  0.00    -0.000 C 
BRANCH  18  19
ATOM     19  C   UNL     1      -4.184 -11.417  27.725  1.00  0.00    -0.000 C 
BRANCH  19  20
ATOM     20  C   UNL     1      -4.488 -12.220  26.448  1.00  0.00    -0.000 C 
BRANCH  20  21
ATOM     21  C   UNL     1      -4.247 -11.413  25.158  1.00  0.00    -0.000 C 
BRANCH  21  22
ATOM     22  C   UNL     1      -3.518 -12.175  24.036  1.00  0.00    -0.000 C 
BRANCH  22  23
ATOM     23  C   UNL     1      -2.337 -13.014  24.546  1.00  0.00    -0.000 C 
BRANCH  23  24
ATOM     24  C   UNL     1      -1.010 -12.491  23.981  1.00  0.00    -0.000 C 
BRANCH  24  25
ATOM     25  C   UNL     1      -0.249 -11.671  25.028  1.00  0.00    -0.003 C 
ATOM     26  C   UNL     1      -0.694 -12.036  26.441  1.00  0.00     0.004 C 
ENDBRANCH  24  25
ENDBRANCH  23  24
ENDBRANCH  22  23
ENDBRANCH  21  22
ENDBRANCH  20  21
ENDBRANCH  19  20
ENDBRANCH  18  19
ENDBRANCH  17  18
ENDBRANCH  16  17
ENDBRANCH  15  16
ENDBRANCH   1  15
TORSDOF 22
ENDMDL
