MODEL 1
REMARK VINA RESULT:    -4.620      0.000      0.000
REMARK INTER + INTRA:          -4.755
REMARK INTER:                  -4.755
REMARK INTRA:                   0.000
REMARK UNBOUND:                 0.000
REMARK SMILES Cc1ccccc1O
REMARK SMILES IDX 1 1 2 2 3 3 4 4 5 5 6 6 7 7 8 8
REMARK H PARENT 8 9
REMARK Flexibility Score: inf
ROOT
ATOM      1  C   UNL     1      -2.311  63.408 -12.260  1.00  0.00     0.048 C 
ATOM      2  C   UNL     1      -1.748  62.665 -11.081  1.00  0.00    -0.009 A 
ATOM      3  C   UNL     1      -1.718  61.260 -11.076  1.00  0.00     0.007 A 
ATOM      4  C   UNL     1      -1.195  60.570  -9.980  1.00  0.00     0.001 A 
ATOM      5  C   UNL     1      -0.698  61.274  -8.881  1.00  0.00     0.004 A 
ATOM      6  C   UNL     1      -0.724  62.671  -8.875  1.00  0.00     0.046 A 
ATOM      7  C   UNL     1      -1.247  63.372  -9.970  1.00  0.00     0.118 A 
ENDROOT
BRANCH   7   8
ATOM      8  O   UNL     1      -1.271  64.767  -9.962  1.00  0.00    -0.508 OA
ATOM      9  H   UNL     1      -1.976  65.288 -10.470  1.00  0.00     0.293 HD
ENDBRANCH   7   8
TORSDOF 1
ENDMDL
MODEL 2
REMARK VINA RESULT:    -4.610     15.915     16.976
REMARK INTER + INTRA:          -4.745
REMARK INTER:                  -4.745
REMARK INTRA:                   0.000
REMARK UNBOUND:                 0.000
REMARK SMILES Cc1ccccc1O
REMARK SMILES IDX 1 1 2 2 3 3 4 4 5 5 6 6 7 7 8 8
REMARK H PARENT 8 9
REMARK Flexibility Score: inf
ROOT
ATOM      1  C   UNL     1      -4.630  66.988 -28.058  1.00  0.00     0.048 C 
ATOM      2  C   UNL     1      -4.284  67.641 -26.750  1.00  0.00    -0.009 A 
ATOM      3  C   UNL     1      -5.200  68.502 -26.122  1.00  0.00     0.007 A 
ATOM      4  C   UNL     1      -4.878  69.109 -24.905  1.00  0.00     0.001 A 
ATOM      5  C   UNL     1      -3.641  68.862 -24.305  1.00  0.00     0.004 A 
ATOM      6  C   UNL     1      -2.722  68.009 -24.922  1.00  0.00     0.046 A 
ATOM      7  C   UNL     1      -3.037  67.396 -26.143  1.00  0.00     0.118 A 
ENDROOT
BRANCH   7   8
ATOM      8  O   UNL     1      -2.118  66.543 -26.755  1.00  0.00    -0.508 OA
ATOM      9  H   UNL     1      -2.416  65.811 -27.390  1.00  0.00     0.293 HD
ENDBRANCH   7   8
TORSDOF 1
ENDMDL
MODEL 3
REMARK VINA RESULT:    -4.556     16.221     17.913
REMARK INTER + INTRA:          -4.689
REMARK INTER:                  -4.689
REMARK INTRA:                   0.000
REMARK UNBOUND:                 0.000
REMARK SMILES Cc1ccccc1O
REMARK SMILES IDX 1 1 2 2 3 3 4 4 5 5 6 6 7 7 8 8
REMARK H PARENT 8 9
REMARK Flexibility Score: inf
ROOT
ATOM      1  C   UNL     1      -3.575  68.609 -24.854  1.00  0.00     0.048 C 
ATOM      2  C   UNL     1      -4.253  68.097 -26.093  1.00  0.00    -0.009 A 
ATOM      3  C   UNL     1      -5.526  68.571 -26.454  1.00  0.00     0.007 A 
ATOM      4  C   UNL     1      -6.157  68.095 -27.606  1.00  0.00     0.001 A 
ATOM      5  C   UNL     1      -5.523  67.142 -28.408  1.00  0.00     0.004 A 
ATOM      6  C   UNL     1      -4.258  66.663 -28.059  1.00  0.00     0.046 A 
ATOM      7  C   UNL     1      -3.618  67.135 -26.904  1.00  0.00     0.118 A 
ENDROOT
BRANCH   7   8
ATOM      8  O   UNL     1      -2.355  66.656 -26.558  1.00  0.00    -0.508 OA
ATOM      9  H   UNL     1      -2.201  65.678 -26.340  1.00  0.00     0.293 HD
ENDBRANCH   7   8
TORSDOF 1
ENDMDL
MODEL 4
REMARK VINA RESULT:    -4.544      0.957      2.660
REMARK INTER + INTRA:          -4.677
REMARK INTER:                  -4.677
REMARK INTRA:                   0.000
REMARK UNBOUND:                 0.000
REMARK SMILES Cc1ccccc1O
REMARK SMILES IDX 1 1 2 2 3 3 4 4 5 5 6 6 7 7 8 8
REMARK H PARENT 8 9
REMARK Flexibility Score: inf
ROOT
ATOM      1  C   UNL     1      -0.387  61.420  -8.875  1.00  0.00     0.048 C 
ATOM      2  C   UNL     1      -1.281  61.671 -10.056  1.00  0.00    -0.009 A 
ATOM      3  C   UNL     1      -1.898  60.597 -10.721  1.00  0.00     0.007 A 
ATOM      4  C   UNL     1      -2.729  60.831 -11.819  1.00  0.00     0.001 A 
ATOM      5  C   UNL     1      -2.953  62.137 -12.263  1.00  0.00     0.004 A 
ATOM      6  C   UNL     1      -2.345  63.212 -11.610  1.00  0.00     0.046 A 
ATOM      7  C   UNL     1      -1.508  62.987 -10.507  1.00  0.00     0.118 A 
ENDROOT
BRANCH   7   8
ATOM      8  O   UNL     1      -0.903  64.062  -9.857  1.00  0.00    -0.508 OA
ATOM      9  H   UNL     1      -0.152  63.923  -9.190  1.00  0.00     0.293 HD
ENDBRANCH   7   8
TORSDOF 1
ENDMDL
MODEL 5
REMARK VINA RESULT:    -4.521      1.764      3.286
REMARK INTER + INTRA:          -4.653
REMARK INTER:                  -4.653
REMARK INTRA:                   0.000
REMARK UNBOUND:                 0.000
REMARK SMILES Cc1ccccc1O
REMARK SMILES IDX 1 1 2 2 3 3 4 4 5 5 6 6 7 7 8 8
REMARK H PARENT 8 9
REMARK Flexibility Score: inf
ROOT
ATOM      1  C   UNL     1      -0.149  61.010 -10.143  1.00  0.00     0.048 C 
ATOM      2  C   UNL     1      -0.933  62.287 -10.263  1.00  0.00    -0.009 A 
ATOM      3  C   UNL     1      -1.008  63.178  -9.179  1.00  0.00     0.007 A 
ATOM      4  C   UNL     1      -1.737  64.365  -9.291  1.00  0.00     0.001 A 
ATOM      5  C   UNL     1      -2.395  64.672 -10.485  1.00  0.00     0.004 A 
ATOM      6  C   UNL     1      -2.327  63.793 -11.568  1.00  0.00     0.046 A 
ATOM      7  C   UNL     1      -1.599  62.600 -11.465  1.00  0.00     0.118 A 
ENDROOT
BRANCH   7   8
ATOM      8  O   UNL     1      -1.532  61.724 -12.548  1.00  0.00    -0.508 OA
ATOM      9  H   UNL     1      -0.647  61.477 -12.977  1.00  0.00     0.293 HD
ENDBRANCH   7   8
TORSDOF 1
ENDMDL
MODEL 6
REMARK VINA RESULT:    -4.473     15.594     17.319
REMARK INTER + INTRA:          -4.604
REMARK INTER:                  -4.604
REMARK INTRA:                   0.000
REMARK UNBOUND:                 0.000
REMARK SMILES Cc1ccccc1O
REMARK SMILES IDX 1 1 2 2 3 3 4 4 5 5 6 6 7 7 8 8
REMARK H PARENT 8 9
REMARK Flexibility Score: inf
ROOT
ATOM      1  C   UNL     1      -2.573  68.236 -24.323  1.00  0.00     0.048 C 
ATOM      2  C   UNL     1      -3.641  68.162 -25.378  1.00  0.00    -0.009 A 
ATOM      3  C   UNL     1      -4.826  68.906 -25.241  1.00  0.00     0.007 A 
ATOM      4  C   UNL     1      -5.818  68.837 -26.222  1.00  0.00     0.001 A 
ATOM      5  C   UNL     1      -5.638  68.027 -27.346  1.00  0.00     0.004 A 
ATOM      6  C   UNL     1      -4.464  67.284 -27.491  1.00  0.00     0.046 A 
ATOM      7  C   UNL     1      -3.462  67.346 -26.512  1.00  0.00     0.118 A 
ENDROOT
BRANCH   7   8
ATOM      8  O   UNL     1      -2.291  66.603 -26.660  1.00  0.00    -0.508 OA
ATOM      9  H   UNL     1      -1.397  66.953 -26.337  1.00  0.00     0.293 HD
ENDBRANCH   7   8
TORSDOF 1
ENDMDL
MODEL 7
REMARK VINA RESULT:    -4.295      4.740      5.597
REMARK INTER + INTRA:          -4.420
REMARK INTER:                  -4.420
REMARK INTRA:                   0.000
REMARK UNBOUND:                 0.000
REMARK SMILES Cc1ccccc1O
REMARK SMILES IDX 1 1 2 2 3 3 4 4 5 5 6 6 7 7 8 8
REMARK H PARENT 8 9
REMARK Flexibility Score: inf
ROOT
ATOM      1  C   UNL     1      -7.227  60.628 -14.455  1.00  0.00     0.048 C 
ATOM      2  C   UNL     1      -5.854  60.536 -13.851  1.00  0.00    -0.009 A 
ATOM      3  C   UNL     1      -4.713  60.645 -14.664  1.00  0.00     0.007 A 
ATOM      4  C   UNL     1      -3.436  60.559 -14.102  1.00  0.00     0.001 A 
ATOM      5  C   UNL     1      -3.288  60.363 -12.727  1.00  0.00     0.004 A 
ATOM      6  C   UNL     1      -4.416  60.253 -11.910  1.00  0.00     0.046 A 
ATOM      7  C   UNL     1      -5.701  60.337 -12.465  1.00  0.00     0.118 A 
ENDROOT
BRANCH   7   8
ATOM      8  O   UNL     1      -6.825  60.227 -11.647  1.00  0.00    -0.508 OA
ATOM      9  H   UNL     1      -7.520  60.964 -11.599  1.00  0.00     0.293 HD
ENDBRANCH   7   8
TORSDOF 1
ENDMDL
MODEL 8
REMARK VINA RESULT:    -4.277      4.215      5.141
REMARK INTER + INTRA:          -4.402
REMARK INTER:                  -4.402
REMARK INTRA:                   0.000
REMARK UNBOUND:                 0.000
REMARK SMILES Cc1ccccc1O
REMARK SMILES IDX 1 1 2 2 3 3 4 4 5 5 6 6 7 7 8 8
REMARK H PARENT 8 9
REMARK Flexibility Score: inf
ROOT
ATOM      1  C   UNL     1      -2.835  61.762 -14.136  1.00  0.00     0.048 C 
ATOM      2  C   UNL     1      -4.074  61.246 -13.459  1.00  0.00    -0.009 A 
ATOM      3  C   UNL     1      -5.345  61.647 -13.905  1.00  0.00     0.007 A 
ATOM      4  C   UNL     1      -6.497  61.167 -13.276  1.00  0.00     0.001 A 
ATOM      5  C   UNL     1      -6.390  60.284 -12.198  1.00  0.00     0.004 A 
ATOM      6  C   UNL     1      -5.131  59.880 -11.747  1.00  0.00     0.046 A 
ATOM      7  C   UNL     1      -3.970  60.357 -12.371  1.00  0.00     0.118 A 
ENDROOT
BRANCH   7   8
ATOM      8  O   UNL     1      -2.715  59.951 -11.919  1.00  0.00    -0.508 OA
ATOM      9  H   UNL     1      -1.892  60.528 -12.051  1.00  0.00     0.293 HD
ENDBRANCH   7   8
TORSDOF 1
ENDMDL
