MODEL 1
REMARK VINA RESULT:    -2.441      0.000      0.000
REMARK INTER + INTRA:          -7.176
REMARK INTER:                  -5.580
REMARK INTRA:                  -1.596
REMARK UNBOUND:                -1.596
REMARK SMILES CCCCCCCCCCCCCCCCCCCCCCCC(=O)[O-]
REMARK SMILES IDX 13 1 14 2 15 3 16 4 17 5 18 6 19 7 20 8 21 9 22 10 23 11
REMARK SMILES IDX 24 12 25 13 26 14 12 15 11 16 10 17 9 18 8 19 7 20 6 21 5 22
REMARK SMILES IDX 4 23 3 24 2 25 1 26
REMARK H PARENT
REMARK Flexibility Score: inf
ROOT
ATOM      1  C   UNL     1      -6.577  -6.868  -5.397  1.00  0.00     0.000 C 
ENDROOT
BRANCH   1   2
ATOM      2  C   UNL     1      -8.025  -6.728  -4.880  1.00  0.00     0.000 C 
BRANCH   2   3
ATOM      3  C   UNL     1      -9.006  -7.754  -5.481  1.00  0.00     0.000 C 
BRANCH   3   4
ATOM      4  C   UNL     1     -10.445  -7.680  -4.936  1.00  0.00     0.000 C 
BRANCH   4   5
ATOM      5  C   UNL     1     -11.547  -8.058  -5.949  1.00  0.00     0.000 C 
BRANCH   5   6
ATOM      6  C   UNL     1     -11.687  -9.568  -6.224  1.00  0.00     0.000 C 
BRANCH   6   7
ATOM      7  C   UNL     1     -13.128 -10.112  -6.150  1.00  0.00     0.000 C 
BRANCH   7   8
ATOM      8  C   UNL     1     -14.043  -9.394  -5.141  1.00  0.00     0.000 C 
BRANCH   8   9
ATOM      9  C   UNL     1     -15.369 -10.134  -4.906  1.00  0.00     0.000 C 
BRANCH   9  10
ATOM     10  C   UNL     1     -16.055 -10.468  -6.239  1.00  0.00     0.006 C 
BRANCH  10  11
ATOM     11  C   UNL     1     -17.196  -9.493  -6.563  1.00  0.00     0.053 C 
BRANCH  11  12
ATOM     12  C   UNL     1     -16.692  -8.256  -7.243  1.00  0.00     0.041 C 
ATOM     13  O   UNL     1     -16.287  -7.278  -6.559  1.00  0.00    -0.550 OA
ATOM     14  O   UNL     1     -16.635  -8.197  -8.629  1.00  0.00    -0.550 OA
ENDBRANCH  11  12
ENDBRANCH  10  11
ENDBRANCH   9  10
ENDBRANCH   8   9
ENDBRANCH   7   8
ENDBRANCH   6   7
ENDBRANCH   5   6
ENDBRANCH   4   5
ENDBRANCH   3   4
ENDBRANCH   2   3
ENDBRANCH   1   2
BRANCH   1  15
ATOM     15  C   UNL     1      -6.189  -8.324  -5.693  1.00  0.00     0.000 C 
BRANCH  15  16
ATOM     16  C   UNL     1      -6.595  -8.724  -7.117  1.00  0.00     0.000 C 
BRANCH  16  17
ATOM     17  C   UNL     1      -5.457  -9.476  -7.823  1.00  0.00     0.000 C 
BRANCH  17  18
ATOM     18  C   UNL     1      -4.868 -10.603  -6.957  1.00  0.00    -0.000 C 
BRANCH  18  19
ATOM     19  C   UNL     1      -3.378 -10.845  -7.242  1.00  0.00    -0.000 C 
BRANCH  19  20
ATOM     20  C   UNL     1      -2.603 -11.094  -5.941  1.00  0.00    -0.000 C 
BRANCH  20  21
ATOM     21  C   UNL     1      -2.779  -9.924  -4.965  1.00  0.00    -0.000 C 
BRANCH  21  22
ATOM     22  C   UNL     1      -1.497  -9.082  -4.876  1.00  0.00    -0.000 C 
BRANCH  22  23
ATOM     23  C   UNL     1      -1.692  -7.638  -5.373  1.00  0.00    -0.000 C 
BRANCH  23  24
ATOM     24  C   UNL     1      -3.150  -7.247  -5.678  1.00  0.00    -0.000 C 
BRANCH  24  25
ATOM     25  C   UNL     1      -3.263  -5.961  -6.508  1.00  0.00    -0.003 C 
ATOM     26  C   UNL     1      -3.691  -6.268  -7.942  1.00  0.00     0.004 C 
ENDBRANCH  24  25
ENDBRANCH  23  24
ENDBRANCH  22  23
ENDBRANCH  21  22
ENDBRANCH  20  21
ENDBRANCH  19  20
ENDBRANCH  18  19
ENDBRANCH  17  18
ENDBRANCH  16  17
ENDBRANCH  15  16
ENDBRANCH   1  15
TORSDOF 22
ENDMDL
MODEL 2
REMARK VINA RESULT:    -2.427      4.060     11.046
REMARK INTER + INTRA:          -7.145
REMARK INTER:                  -5.352
REMARK INTRA:                  -1.794
REMARK UNBOUND:                -1.596
REMARK SMILES CCCCCCCCCCCCCCCCCCCCCCCC(=O)[O-]
REMARK SMILES IDX 13 1 14 2 15 3 16 4 17 5 18 6 19 7 20 8 21 9 22 10 23 11
REMARK SMILES IDX 24 12 25 13 26 14 12 15 11 16 10 17 9 18 8 19 7 20 6 21 5 22
REMARK SMILES IDX 4 23 3 24 2 25 1 26
REMARK H PARENT
REMARK Flexibility Score: inf
ROOT
ATOM      1  C   UNL     1      -9.868  -8.321  -7.168  1.00  0.00     0.000 C 
ENDROOT
BRANCH   1   2
ATOM      2  C   UNL     1      -9.533  -9.822  -7.039  1.00  0.00     0.000 C 
BRANCH   2   3
ATOM      3  C   UNL     1      -8.040 -10.150  -7.243  1.00  0.00     0.000 C 
BRANCH   3   4
ATOM      4  C   UNL     1      -7.065  -9.315  -6.392  1.00  0.00     0.000 C 
BRANCH   4   5
ATOM      5  C   UNL     1      -5.620  -9.855  -6.336  1.00  0.00     0.000 C 
BRANCH   5   6
ATOM      6  C   UNL     1      -4.694  -9.355  -7.461  1.00  0.00     0.000 C 
BRANCH   6   7
ATOM      7  C   UNL     1      -3.440 -10.219  -7.707  1.00  0.00     0.000 C 
BRANCH   7   8
ATOM      8  C   UNL     1      -2.856 -10.887  -6.449  1.00  0.00     0.000 C 
BRANCH   8   9
ATOM      9  C   UNL     1      -1.787 -10.026  -5.757  1.00  0.00     0.000 C 
BRANCH   9  10
ATOM     10  C   UNL     1      -2.428  -8.833  -5.033  1.00  0.00     0.006 C 
BRANCH  10  11
ATOM     11  C   UNL     1      -1.519  -7.596  -5.037  1.00  0.00     0.053 C 
BRANCH  11  12
ATOM     12  C   UNL     1      -2.278  -6.351  -5.383  1.00  0.00     0.041 C 
ATOM     13  O   UNL     1      -1.716  -5.226  -5.311  1.00  0.00    -0.550 OA
ATOM     14  O   UNL     1      -3.594  -6.437  -5.816  1.00  0.00    -0.550 OA
ENDBRANCH  11  12
ENDBRANCH  10  11
ENDBRANCH   9  10
ENDBRANCH   8   9
ENDBRANCH   7   8
ENDBRANCH   6   7
ENDBRANCH   5   6
ENDBRANCH   4   5
ENDBRANCH   3   4
ENDBRANCH   2   3
ENDBRANCH   1   2
BRANCH   1  15
ATOM     15  C   UNL     1     -10.719  -7.800  -6.001  1.00  0.00     0.000 C 
BRANCH  15  16
ATOM     16  C   UNL     1     -11.385  -8.956  -5.246  1.00  0.00     0.000 C 
BRANCH  16  17
ATOM     17  C   UNL     1     -12.863  -9.093  -5.642  1.00  0.00     0.000 C 
BRANCH  17  18
ATOM     18  C   UNL     1     -13.235 -10.530  -6.048  1.00  0.00    -0.000 C 
BRANCH  18  19
ATOM     19  C   UNL     1     -14.341 -11.123  -5.162  1.00  0.00    -0.000 C 
BRANCH  19  20
ATOM     20  C   UNL     1     -15.432 -10.083  -4.875  1.00  0.00    -0.000 C 
BRANCH  20  21
ATOM     21  C   UNL     1     -16.762 -10.489  -5.525  1.00  0.00    -0.000 C 
BRANCH  21  22
ATOM     22  C   UNL     1     -17.360  -9.325  -6.330  1.00  0.00    -0.000 C 
BRANCH  22  23
ATOM     23  C   UNL     1     -16.550  -8.024  -6.195  1.00  0.00    -0.000 C 
BRANCH  23  24
ATOM     24  C   UNL     1     -16.144  -7.370  -7.530  1.00  0.00    -0.000 C 
BRANCH  24  25
ATOM     25  C   UNL     1     -14.668  -7.601  -7.884  1.00  0.00    -0.003 C 
ATOM     26  C   UNL     1     -14.180  -6.572  -8.902  1.00  0.00     0.004 C 
ENDBRANCH  24  25
ENDBRANCH  23  24
ENDBRANCH  22  23
ENDBRANCH  21  22
ENDBRANCH  20  21
ENDBRANCH  19  20
ENDBRANCH  18  19
ENDBRANCH  17  18
ENDBRANCH  16  17
ENDBRANCH  15  16
ENDBRANCH   1  15
TORSDOF 22
ENDMDL
MODEL 3
REMARK VINA RESULT:    -2.270      3.041     10.419
REMARK INTER + INTRA:          -6.786
REMARK INTER:                  -5.579
REMARK INTRA:                  -1.207
REMARK UNBOUND:                -1.596
REMARK SMILES CCCCCCCCCCCCCCCCCCCCCCCC(=O)[O-]
REMARK SMILES IDX 13 1 14 2 15 3 16 4 17 5 18 6 19 7 20 8 21 9 22 10 23 11
REMARK SMILES IDX 24 12 25 13 26 14 12 15 11 16 10 17 9 18 8 19 7 20 6 21 5 22
REMARK SMILES IDX 4 23 3 24 2 25 1 26
REMARK H PARENT
REMARK Flexibility Score: inf
ROOT
ATOM      1  C   UNL     1      -7.677  -9.899  -7.358  1.00  0.00     0.000 C 
ENDROOT
BRANCH   1   2
ATOM      2  C   UNL     1      -6.167 -10.219  -7.328  1.00  0.00     0.000 C 
BRANCH   2   3
ATOM      3  C   UNL     1      -5.522 -10.065  -5.936  1.00  0.00     0.000 C 
BRANCH   3   4
ATOM      4  C   UNL     1      -4.304 -10.972  -5.676  1.00  0.00     0.000 C 
BRANCH   4   5
ATOM      5  C   UNL     1      -3.151 -10.823  -6.691  1.00  0.00     0.000 C 
BRANCH   5   6
ATOM      6  C   UNL     1      -2.455  -9.448  -6.689  1.00  0.00     0.000 C 
BRANCH   6   7
ATOM      7  C   UNL     1      -1.649  -9.128  -5.413  1.00  0.00     0.000 C 
BRANCH   7   8
ATOM      8  C   UNL     1      -1.561  -7.633  -5.059  1.00  0.00     0.000 C 
BRANCH   8   9
ATOM      9  C   UNL     1      -2.643  -6.790  -5.752  1.00  0.00     0.000 C 
BRANCH   9  10
ATOM     10  C   UNL     1      -3.902  -6.687  -4.879  1.00  0.00     0.006 C 
BRANCH  10  11
ATOM     11  C   UNL     1      -5.143  -7.257  -5.581  1.00  0.00     0.053 C 
BRANCH  11  12
ATOM     12  C   UNL     1      -6.388  -6.521  -5.190  1.00  0.00     0.041 C 
ATOM     13  O   UNL     1      -7.433  -7.158  -4.891  1.00  0.00    -0.550 OA
ATOM     14  O   UNL     1      -6.384  -5.134  -5.122  1.00  0.00    -0.550 OA
ENDBRANCH  11  12
ENDBRANCH  10  11
ENDBRANCH   9  10
ENDBRANCH   8   9
ENDBRANCH   7   8
ENDBRANCH   6   7
ENDBRANCH   5   6
ENDBRANCH   4   5
ENDBRANCH   3   4
ENDBRANCH   2   3
ENDBRANCH   1   2
BRANCH   1  15
ATOM     15  C   UNL     1      -8.482 -10.740  -6.357  1.00  0.00     0.000 C 
BRANCH  15  16
ATOM     16  C   UNL     1      -8.951  -9.886  -5.173  1.00  0.00     0.000 C 
BRANCH  16  17
ATOM     17  C   UNL     1     -10.477  -9.962  -5.009  1.00  0.00     0.000 C 
BRANCH  17  18
ATOM     18  C   UNL     1     -11.129  -8.572  -4.902  1.00  0.00    -0.000 C 
BRANCH  18  19
ATOM     19  C   UNL     1     -11.540  -8.009  -6.270  1.00  0.00    -0.000 C 
BRANCH  19  20
ATOM     20  C   UNL     1     -12.972  -8.428  -6.630  1.00  0.00    -0.000 C 
BRANCH  20  21
ATOM     21  C   UNL     1     -13.874  -7.201  -6.812  1.00  0.00    -0.000 C 
BRANCH  21  22
ATOM     22  C   UNL     1     -15.286  -7.615  -7.251  1.00  0.00    -0.000 C 
BRANCH  22  23
ATOM     23  C   UNL     1     -15.992  -8.521  -6.226  1.00  0.00    -0.000 C 
BRANCH  23  24
ATOM     24  C   UNL     1     -17.362  -9.064  -6.674  1.00  0.00    -0.000 C 
BRANCH  24  25
ATOM     25  C   UNL     1     -17.277 -10.467  -7.292  1.00  0.00    -0.003 C 
ATOM     26  C   UNL     1     -17.110 -10.390  -8.808  1.00  0.00     0.004 C 
ENDBRANCH  24  25
ENDBRANCH  23  24
ENDBRANCH  22  23
ENDBRANCH  21  22
ENDBRANCH  20  21
ENDBRANCH  19  20
ENDBRANCH  18  19
ENDBRANCH  17  18
ENDBRANCH  16  17
ENDBRANCH  15  16
ENDBRANCH   1  15
TORSDOF 22
ENDMDL
MODEL 4
REMARK VINA RESULT:    -2.238      1.461      2.667
REMARK INTER + INTRA:          -6.712
REMARK INTER:                  -5.840
REMARK INTRA:                  -0.872
REMARK UNBOUND:                -1.596
REMARK SMILES CCCCCCCCCCCCCCCCCCCCCCCC(=O)[O-]
REMARK SMILES IDX 13 1 14 2 15 3 16 4 17 5 18 6 19 7 20 8 21 9 22 10 23 11
REMARK SMILES IDX 24 12 25 13 26 14 12 15 11 16 10 17 9 18 8 19 7 20 6 21 5 22
REMARK SMILES IDX 4 23 3 24 2 25 1 26
REMARK H PARENT
REMARK Flexibility Score: inf
ROOT
ATOM      1  C   UNL     1      -9.585  -8.082  -6.236  1.00  0.00     0.000 C 
ENDROOT
BRANCH   1   2
ATOM      2  C   UNL     1      -9.646  -9.471  -6.906  1.00  0.00     0.000 C 
BRANCH   2   3
ATOM      3  C   UNL     1      -9.398 -10.645  -5.937  1.00  0.00     0.000 C 
BRANCH   3   4
ATOM      4  C   UNL     1     -10.639 -11.125  -5.161  1.00  0.00     0.000 C 
BRANCH   4   5
ATOM      5  C   UNL     1     -11.993 -10.690  -5.761  1.00  0.00     0.000 C 
BRANCH   5   6
ATOM      6  C   UNL     1     -12.815  -9.727  -4.882  1.00  0.00     0.000 C 
BRANCH   6   7
ATOM      7  C   UNL     1     -13.116  -8.357  -5.522  1.00  0.00     0.000 C 
BRANCH   7   8
ATOM      8  C   UNL     1     -14.512  -8.229  -6.157  1.00  0.00     0.000 C 
BRANCH   8   9
ATOM      9  C   UNL     1     -14.579  -7.139  -7.239  1.00  0.00     0.000 C 
BRANCH   9  10
ATOM     10  C   UNL     1     -15.704  -7.431  -8.243  1.00  0.00     0.006 C 
BRANCH  10  11
ATOM     11  C   UNL     1     -16.946  -8.027  -7.566  1.00  0.00     0.053 C 
BRANCH  11  12
ATOM     12  C   UNL     1     -17.088  -9.490  -7.857  1.00  0.00     0.041 C 
ATOM     13  O   UNL     1     -17.280  -9.885  -9.038  1.00  0.00    -0.550 OA
ATOM     14  O   UNL     1     -16.974 -10.418  -6.830  1.00  0.00    -0.550 OA
ENDBRANCH  11  12
ENDBRANCH  10  11
ENDBRANCH   9  10
ENDBRANCH   8   9
ENDBRANCH   7   8
ENDBRANCH   6   7
ENDBRANCH   5   6
ENDBRANCH   4   5
ENDBRANCH   3   4
ENDBRANCH   2   3
ENDBRANCH   1   2
BRANCH   1  15
ATOM     15  C   UNL     1      -8.856  -8.104  -4.886  1.00  0.00     0.000 C 
BRANCH  15  16
ATOM     16  C   UNL     1      -7.363  -7.800  -5.061  1.00  0.00     0.000 C 
BRANCH  16  17
ATOM     17  C   UNL     1      -6.742  -8.698  -6.143  1.00  0.00     0.000 C 
BRANCH  17  18
ATOM     18  C   UNL     1      -6.020  -7.892  -7.236  1.00  0.00    -0.000 C 
BRANCH  18  19
ATOM     19  C   UNL     1      -5.185  -8.783  -8.168  1.00  0.00    -0.000 C 
BRANCH  19  20
ATOM     20  C   UNL     1      -4.763 -10.077  -7.460  1.00  0.00    -0.000 C 
BRANCH  20  21
ATOM     21  C   UNL     1      -3.240 -10.139  -7.291  1.00  0.00    -0.000 C 
BRANCH  21  22
ATOM     22  C   UNL     1      -2.857 -10.379  -5.823  1.00  0.00    -0.000 C 
BRANCH  22  23
ATOM     23  C   UNL     1      -3.371  -9.275  -4.880  1.00  0.00    -0.000 C 
BRANCH  23  24
ATOM     24  C   UNL     1      -2.672  -7.911  -5.036  1.00  0.00    -0.000 C 
BRANCH  24  25
ATOM     25  C   UNL     1      -3.250  -7.071  -6.184  1.00  0.00    -0.003 C 
ATOM     26  C   UNL     1      -2.772  -5.623  -6.099  1.00  0.00     0.004 C 
ENDBRANCH  24  25
ENDBRANCH  23  24
ENDBRANCH  22  23
ENDBRANCH  21  22
ENDBRANCH  20  21
ENDBRANCH  19  20
ENDBRANCH  18  19
ENDBRANCH  17  18
ENDBRANCH  16  17
ENDBRANCH  15  16
ENDBRANCH   1  15
TORSDOF 22
ENDMDL
MODEL 5
REMARK VINA RESULT:    -2.103      3.608     10.800
REMARK INTER + INTRA:          -6.404
REMARK INTER:                  -5.941
REMARK INTRA:                  -0.464
REMARK UNBOUND:                -1.596
REMARK SMILES CCCCCCCCCCCCCCCCCCCCCCCC(=O)[O-]
REMARK SMILES IDX 13 1 14 2 15 3 16 4 17 5 18 6 19 7 20 8 21 9 22 10 23 11
REMARK SMILES IDX 24 12 25 13 26 14 12 15 11 16 10 17 9 18 8 19 7 20 6 21 5 22
REMARK SMILES IDX 4 23 3 24 2 25 1 26
REMARK H PARENT
REMARK Flexibility Score: inf
ROOT
ATOM      1  C   UNL     1     -10.130  -8.407  -6.194  1.00  0.00     0.000 C 
ENDROOT
BRANCH   1   2
ATOM      2  C   UNL     1     -10.126  -9.950  -6.251  1.00  0.00     0.000 C 
BRANCH   2   3
ATOM      3  C   UNL     1      -8.737 -10.582  -6.032  1.00  0.00     0.000 C 
BRANCH   3   4
ATOM      4  C   UNL     1      -7.543  -9.645  -6.295  1.00  0.00     0.000 C 
BRANCH   4   5
ATOM      5  C   UNL     1      -6.475  -9.622  -5.181  1.00  0.00     0.000 C 
BRANCH   5   6
ATOM      6  C   UNL     1      -5.772 -10.970  -4.926  1.00  0.00     0.000 C 
BRANCH   6   7
ATOM      7  C   UNL     1      -4.232 -10.904  -4.883  1.00  0.00     0.000 C 
BRANCH   7   8
ATOM      8  C   UNL     1      -3.633  -9.516  -5.173  1.00  0.00     0.000 C 
BRANCH   8   9
ATOM      9  C   UNL     1      -3.008  -9.416  -6.573  1.00  0.00     0.000 C 
BRANCH   9  10
ATOM     10  C   UNL     1      -2.862 -10.806  -7.210  1.00  0.00     0.006 C 
BRANCH  10  11
ATOM     11  C   UNL     1      -3.425 -10.852  -8.638  1.00  0.00     0.053 C 
BRANCH  11  12
ATOM     12  C   UNL     1      -4.616  -9.956  -8.792  1.00  0.00     0.041 C 
ATOM     13  O   UNL     1      -5.773 -10.392  -8.547  1.00  0.00    -0.550 OA
ATOM     14  O   UNL     1      -4.446  -8.632  -9.174  1.00  0.00    -0.550 OA
ENDBRANCH  11  12
ENDBRANCH  10  11
ENDBRANCH   9  10
ENDBRANCH   8   9
ENDBRANCH   7   8
ENDBRANCH   6   7
ENDBRANCH   5   6
ENDBRANCH   4   5
ENDBRANCH   3   4
ENDBRANCH   2   3
ENDBRANCH   1   2
BRANCH   1  15
ATOM     15  C   UNL     1     -11.332  -7.843  -5.423  1.00  0.00     0.000 C 
BRANCH  15  16
ATOM     16  C   UNL     1     -12.228  -8.972  -4.898  1.00  0.00     0.000 C 
BRANCH  16  17
ATOM     17  C   UNL     1     -13.383  -9.255  -5.871  1.00  0.00     0.000 C 
BRANCH  17  18
ATOM     18  C   UNL     1     -13.818 -10.731  -5.857  1.00  0.00    -0.000 C 
BRANCH  18  19
ATOM     19  C   UNL     1     -15.146 -10.944  -5.113  1.00  0.00    -0.000 C 
BRANCH  19  20
ATOM     20  C   UNL     1     -16.058  -9.719  -5.255  1.00  0.00    -0.000 C 
BRANCH  20  21
ATOM     21  C   UNL     1     -16.897  -9.804  -6.537  1.00  0.00    -0.000 C 
BRANCH  21  22
ATOM     22  C   UNL     1     -16.536  -8.671  -7.509  1.00  0.00    -0.000 C 
BRANCH  22  23
ATOM     23  C   UNL     1     -15.567  -7.643  -6.898  1.00  0.00    -0.000 C 
BRANCH  23  24
ATOM     24  C   UNL     1     -16.183  -6.729  -5.821  1.00  0.00    -0.000 C 
BRANCH  24  25
ATOM     25  C   UNL     1     -17.695  -6.529  -6.001  1.00  0.00    -0.003 C 
ATOM     26  C   UNL     1     -18.273  -5.674  -4.875  1.00  0.00     0.004 C 
ENDBRANCH  24  25
ENDBRANCH  23  24
ENDBRANCH  22  23
ENDBRANCH  21  22
ENDBRANCH  20  21
ENDBRANCH  19  20
ENDBRANCH  18  19
ENDBRANCH  17  18
ENDBRANCH  16  17
ENDBRANCH  15  16
ENDBRANCH   1  15
TORSDOF 22
ENDMDL
MODEL 6
REMARK VINA RESULT:    -2.000      4.144     11.321
REMARK INTER + INTRA:          -6.170
REMARK INTER:                  -5.497
REMARK INTRA:                  -0.673
REMARK UNBOUND:                -1.596
REMARK SMILES CCCCCCCCCCCCCCCCCCCCCCCC(=O)[O-]
REMARK SMILES IDX 13 1 14 2 15 3 16 4 17 5 18 6 19 7 20 8 21 9 22 10 23 11
REMARK SMILES IDX 24 12 25 13 26 14 12 15 11 16 10 17 9 18 8 19 7 20 6 21 5 22
REMARK SMILES IDX 4 23 3 24 2 25 1 26
REMARK H PARENT
REMARK Flexibility Score: inf
ROOT
ATOM      1  C   UNL     1     -11.873  -7.819  -6.181  1.00  0.00     0.000 C 
ENDROOT
BRANCH   1   2
ATOM      2  C   UNL     1     -11.101  -8.490  -5.024  1.00  0.00     0.000 C 
BRANCH   2   3
ATOM      3  C   UNL     1      -9.811  -9.210  -5.467  1.00  0.00     0.000 C 
BRANCH   3   4
ATOM      4  C   UNL     1      -8.730  -8.298  -6.077  1.00  0.00     0.000 C 
BRANCH   4   5
ATOM      5  C   UNL     1      -7.775  -7.645  -5.055  1.00  0.00     0.000 C 
BRANCH   5   6
ATOM      6  C   UNL     1      -6.394  -8.318  -4.932  1.00  0.00     0.000 C 
BRANCH   6   7
ATOM      7  C   UNL     1      -5.190  -7.377  -5.136  1.00  0.00     0.000 C 
BRANCH   7   8
ATOM      8  C   UNL     1      -3.889  -8.073  -5.578  1.00  0.00     0.000 C 
BRANCH   8   9
ATOM      9  C   UNL     1      -3.528  -7.788  -7.044  1.00  0.00     0.000 C 
BRANCH   9  10
ATOM     10  C   UNL     1      -4.517  -8.477  -7.997  1.00  0.00     0.006 C 
BRANCH  10  11
ATOM     11  C   UNL     1      -4.619  -9.986  -7.733  1.00  0.00     0.053 C 
BRANCH  11  12
ATOM     12  C   UNL     1      -3.424 -10.722  -8.258  1.00  0.00     0.041 C 
ATOM     13  O   UNL     1      -2.530 -11.125  -7.467  1.00  0.00    -0.550 OA
ATOM     14  O   UNL     1      -3.315 -10.993  -9.616  1.00  0.00    -0.550 OA
ENDBRANCH  11  12
ENDBRANCH  10  11
ENDBRANCH   9  10
ENDBRANCH   8   9
ENDBRANCH   7   8
ENDBRANCH   6   7
ENDBRANCH   5   6
ENDBRANCH   4   5
ENDBRANCH   3   4
ENDBRANCH   2   3
ENDBRANCH   1   2
BRANCH   1  15
ATOM     15  C   UNL     1     -13.196  -7.188  -5.725  1.00  0.00     0.000 C 
BRANCH  15  16
ATOM     16  C   UNL     1     -14.013  -8.173  -4.879  1.00  0.00     0.000 C 
BRANCH  16  17
ATOM     17  C   UNL     1     -14.401  -9.413  -5.699  1.00  0.00     0.000 C 
BRANCH  17  18
ATOM     18  C   UNL     1     -15.412 -10.312  -4.966  1.00  0.00    -0.000 C 
BRANCH  18  19
ATOM     19  C   UNL     1     -16.851  -9.787  -5.076  1.00  0.00    -0.000 C 
BRANCH  19  20
ATOM     20  C   UNL     1     -16.895  -8.263  -4.903  1.00  0.00    -0.000 C 
BRANCH  20  21
ATOM     21  C   UNL     1     -17.618  -7.597  -6.082  1.00  0.00    -0.000 C 
BRANCH  21  22
ATOM     22  C   UNL     1     -16.637  -7.272  -7.218  1.00  0.00    -0.000 C 
BRANCH  22  23
ATOM     23  C   UNL     1     -16.516  -8.409  -8.250  1.00  0.00    -0.000 C 
BRANCH  23  24
ATOM     24  C   UNL     1     -17.445  -9.613  -8.002  1.00  0.00    -0.000 C 
BRANCH  24  25
ATOM     25  C   UNL     1     -16.838 -10.943  -8.470  1.00  0.00    -0.003 C 
ATOM     26  C   UNL     1     -16.919 -11.079  -9.989  1.00  0.00     0.004 C 
ENDBRANCH  24  25
ENDBRANCH  23  24
ENDBRANCH  22  23
ENDBRANCH  21  22
ENDBRANCH  20  21
ENDBRANCH  19  20
ENDBRANCH  18  19
ENDBRANCH  17  18
ENDBRANCH  16  17
ENDBRANCH  15  16
ENDBRANCH   1  15
TORSDOF 22
ENDMDL
MODEL 7
REMARK VINA RESULT:    -1.703      1.572      2.929
REMARK INTER + INTRA:          -5.489
REMARK INTER:                  -4.545
REMARK INTRA:                  -0.944
REMARK UNBOUND:                -1.596
REMARK SMILES CCCCCCCCCCCCCCCCCCCCCCCC(=O)[O-]
REMARK SMILES IDX 13 1 14 2 15 3 16 4 17 5 18 6 19 7 20 8 21 9 22 10 23 11
REMARK SMILES IDX 24 12 25 13 26 14 12 15 11 16 10 17 9 18 8 19 7 20 6 21 5 22
REMARK SMILES IDX 4 23 3 24 2 25 1 26
REMARK H PARENT
REMARK Flexibility Score: inf
ROOT
ATOM      1  C   UNL     1     -10.576  -8.158  -6.494  1.00  0.00     0.000 C 
ENDROOT
BRANCH   1   2
ATOM      2  C   UNL     1     -10.632  -9.613  -7.005  1.00  0.00     0.000 C 
BRANCH   2   3
ATOM      3  C   UNL     1     -10.295 -10.667  -5.932  1.00  0.00     0.000 C 
BRANCH   3   4
ATOM      4  C   UNL     1     -11.478 -11.099  -5.045  1.00  0.00     0.000 C 
BRANCH   4   5
ATOM      5  C   UNL     1     -12.864 -11.011  -5.717  1.00  0.00     0.000 C 
BRANCH   5   6
ATOM      6  C   UNL     1     -13.914 -10.195  -4.938  1.00  0.00     0.000 C 
BRANCH   6   7
ATOM      7  C   UNL     1     -13.779  -8.664  -5.069  1.00  0.00     0.000 C 
BRANCH   7   8
ATOM      8  C   UNL     1     -14.532  -8.046  -6.262  1.00  0.00     0.000 C 
BRANCH   8   9
ATOM      9  C   UNL     1     -16.054  -8.238  -6.172  1.00  0.00     0.000 C 
BRANCH   9  10
ATOM     10  C   UNL     1     -16.776  -7.408  -7.244  1.00  0.00     0.006 C 
BRANCH  10  11
ATOM     11  C   UNL     1     -17.032  -5.965  -6.784  1.00  0.00     0.053 C 
BRANCH  11  12
ATOM     12  C   UNL     1     -17.814  -5.922  -5.507  1.00  0.00     0.041 C 
ATOM     13  O   UNL     1     -18.076  -4.816  -4.961  1.00  0.00    -0.550 OA
ATOM     14  O   UNL     1     -18.283  -7.098  -4.938  1.00  0.00    -0.550 OA
ENDBRANCH  11  12
ENDBRANCH  10  11
ENDBRANCH   9  10
ENDBRANCH   8   9
ENDBRANCH   7   8
ENDBRANCH   6   7
ENDBRANCH   5   6
ENDBRANCH   4   5
ENDBRANCH   3   4
ENDBRANCH   2   3
ENDBRANCH   1   2
BRANCH   1  15
ATOM     15  C   UNL     1      -9.734  -8.007  -5.218  1.00  0.00     0.000 C 
BRANCH  15  16
ATOM     16  C   UNL     1      -8.344  -7.444  -5.540  1.00  0.00     0.000 C 
BRANCH  16  17
ATOM     17  C   UNL     1      -7.297  -8.566  -5.605  1.00  0.00     0.000 C 
BRANCH  17  18
ATOM     18  C   UNL     1      -7.519  -9.511  -6.799  1.00  0.00    -0.000 C 
BRANCH  18  19
ATOM     19  C   UNL     1      -6.302 -10.407  -7.073  1.00  0.00    -0.000 C 
BRANCH  19  20
ATOM     20  C   UNL     1      -5.228 -10.222  -5.992  1.00  0.00    -0.000 C 
BRANCH  20  21
ATOM     21  C   UNL     1      -3.825 -10.196  -6.611  1.00  0.00    -0.000 C 
BRANCH  21  22
ATOM     22  C   UNL     1      -2.742 -10.315  -5.528  1.00  0.00    -0.000 C 
BRANCH  22  23
ATOM     23  C   UNL     1      -2.396  -8.964  -4.875  1.00  0.00    -0.000 C 
BRANCH  23  24
ATOM     24  C   UNL     1      -2.242  -7.788  -5.858  1.00  0.00    -0.000 C 
BRANCH  24  25
ATOM     25  C   UNL     1      -3.261  -6.666  -5.612  1.00  0.00    -0.003 C 
ATOM     26  C   UNL     1      -4.422  -6.752  -6.602  1.00  0.00     0.004 C 
ENDBRANCH  24  25
ENDBRANCH  23  24
ENDBRANCH  22  23
ENDBRANCH  21  22
ENDBRANCH  20  21
ENDBRANCH  19  20
ENDBRANCH  18  19
ENDBRANCH  17  18
ENDBRANCH  16  17
ENDBRANCH  15  16
ENDBRANCH   1  15
TORSDOF 22
ENDMDL
