MODEL 1
REMARK VINA RESULT:    -3.827      0.000      0.000
REMARK INTER + INTRA:          -6.415
REMARK INTER:                  -5.393
REMARK INTRA:                  -1.022
REMARK UNBOUND:                -1.022
REMARK SMILES OC[C@@H]1O[C@@H](O[C@H]2OC=C[C@H]3[C@@H](O)[C@H]4O[C@@]4(CO)[C@@H]23)[C@H](O)[C@@H](O)[C@H]1O
REMARK SMILES IDX 6 1 7 2 10 3 9 4 11 5 8 6 19 7 12 8 16 9 14 10 15 11 13 12
REMARK SMILES IDX 17 14 18 15 5 17 20 18 4 19 22 20 3 21 24 22 21 23 23 25
REMARK SMILES IDX 2 27 1 28 25 30
REMARK H PARENT 13 13 18 16 21 24 23 26 1 29 25 31
REMARK Flexibility Score: inf
ROOT
ATOM      1  O   UNL     1       6.562  33.624   4.614  1.00  0.00    -0.310 OA
ENDROOT
BRANCH   1   2
ATOM      2  C   UNL     1       7.504  34.427   3.927  1.00  0.00     0.315 C 
ATOM      3  C   UNL     1       9.950  35.817   3.515  1.00  0.00     0.018 C 
ATOM      4  C   UNL     1       9.052  36.276   4.389  1.00  0.00     0.186 C 
ATOM      5  C   UNL     1       9.887  34.408   2.943  1.00  0.00     0.059 C 
ATOM      6  O   UNL     1       7.949  35.507   4.750  1.00  0.00    -0.472 OA
ATOM      7  C   UNL     1       8.705  33.568   3.489  1.00  0.00     0.105 C 
ATOM      8  C   UNL     1      11.145  33.583   3.318  1.00  0.00     0.154 C 
ATOM      9  C   UNL     1       9.294  32.722   4.620  1.00  0.00     0.130 C 
ATOM     10  C   UNL     1      10.763  32.719   4.512  1.00  0.00     0.183 C 
ATOM     11  O   UNL     1      10.101  33.427   5.541  1.00  0.00    -0.360 OA
BRANCH   8  12
ATOM     12  O   UNL     1      12.257  34.378   3.640  1.00  0.00    -0.390 OA
ATOM     13  H   UNL     1      12.043  35.298   3.332  1.00  0.00     0.211 HD
ENDBRANCH   8  12
BRANCH   9  14
ATOM     14  C   UNL     1       8.616  31.465   5.181  1.00  0.00     0.195 C 
BRANCH  14  15
ATOM     15  O   UNL     1       7.750  31.822   6.221  1.00  0.00    -0.393 OA
ATOM     16  H   UNL     1       6.938  31.261   6.111  1.00  0.00     0.210 HD
ENDBRANCH  14  15
ENDBRANCH   9  14
ENDBRANCH   1   2
BRANCH   1  17
ATOM     17  C   UNL     1       5.302  33.634   3.966  1.00  0.00     0.286 C 
ATOM     18  C   UNL     1       4.765  32.192   3.954  1.00  0.00     0.202 C 
ATOM     19  O   UNL     1       4.424  34.476   4.699  1.00  0.00    -0.341 OA
ATOM     20  C   UNL     1       3.383  32.156   3.276  1.00  0.00     0.179 C 
ATOM     21  C   UNL     1       3.138  34.575   4.106  1.00  0.00     0.178 C 
ATOM     22  C   UNL     1       2.444  33.198   3.918  1.00  0.00     0.177 C 
BRANCH  18  23
ATOM     23  O   UNL     1       5.664  31.330   3.301  1.00  0.00    -0.385 OA
ATOM     24  H   UNL     1       6.403  31.887   2.937  1.00  0.00     0.211 HD
ENDBRANCH  18  23
BRANCH  20  25
ATOM     25  O   UNL     1       2.817  30.875   3.394  1.00  0.00    -0.387 OA
ATOM     26  H   UNL     1       2.523  30.604   2.487  1.00  0.00     0.211 HD
ENDBRANCH  20  25
BRANCH  21  27
ATOM     27  C   UNL     1       3.114  35.514   2.875  1.00  0.00     0.191 C 
BRANCH  27  28
ATOM     28  O   UNL     1       4.028  36.576   2.976  1.00  0.00    -0.394 OA
ATOM     29  H   UNL     1       4.128  36.782   3.942  1.00  0.00     0.210 HD
ENDBRANCH  27  28
ENDBRANCH  21  27
BRANCH  22  30
ATOM     30  O   UNL     1       2.022  32.740   5.183  1.00  0.00    -0.387 OA
ATOM     31  H   UNL     1       2.835  32.641   5.745  1.00  0.00     0.211 HD
ENDBRANCH  22  30
ENDBRANCH   1  17
TORSDOF 10
ENDMDL
MODEL 2
REMARK VINA RESULT:    -3.766      2.449      7.197
REMARK INTER + INTRA:          -6.329
REMARK INTER:                  -5.216
REMARK INTRA:                  -1.113
REMARK UNBOUND:                -1.022
REMARK SMILES OC[C@@H]1O[C@@H](O[C@H]2OC=C[C@H]3[C@@H](O)[C@H]4O[C@@]4(CO)[C@@H]23)[C@H](O)[C@@H](O)[C@H]1O
REMARK SMILES IDX 6 1 7 2 10 3 9 4 11 5 8 6 19 7 12 8 16 9 14 10 15 11 13 12
REMARK SMILES IDX 17 14 18 15 5 17 20 18 4 19 22 20 3 21 24 22 21 23 23 25
REMARK SMILES IDX 2 27 1 28 25 30
REMARK H PARENT 13 13 18 16 21 24 23 26 1 29 25 31
REMARK Flexibility Score: inf
ROOT
ATOM      1  O   UNL     1       9.973  34.720   4.316  1.00  0.00    -0.310 OA
ENDROOT
BRANCH   1   2
ATOM      2  C   UNL     1       8.696  34.109   4.352  1.00  0.00     0.315 C 
ATOM      3  C   UNL     1       5.903  33.914   4.847  1.00  0.00     0.018 C 
ATOM      4  C   UNL     1       6.767  33.932   5.863  1.00  0.00     0.186 C 
ATOM      5  C   UNL     1       6.296  34.310   3.431  1.00  0.00     0.059 C 
ATOM      6  O   UNL     1       8.112  34.229   5.651  1.00  0.00    -0.472 OA
ATOM      7  C   UNL     1       7.776  34.752   3.299  1.00  0.00     0.105 C 
ATOM      8  C   UNL     1       5.487  35.536   2.936  1.00  0.00     0.154 C 
ATOM      9  C   UNL     1       7.752  36.280   3.361  1.00  0.00     0.130 C 
ATOM     10  C   UNL     1       6.377  36.757   3.130  1.00  0.00     0.183 C 
ATOM     11  O   UNL     1       6.977  36.828   4.409  1.00  0.00    -0.360 OA
BRANCH   8  12
ATOM     12  O   UNL     1       4.274  35.717   3.620  1.00  0.00    -0.390 OA
ATOM     13  H   UNL     1       3.552  35.599   2.946  1.00  0.00     0.211 HD
ENDBRANCH   8  12
BRANCH   9  14
ATOM     14  C   UNL     1       8.907  37.167   2.876  1.00  0.00     0.195 C 
BRANCH  14  15
ATOM     15  O   UNL     1       9.760  37.455   3.947  1.00  0.00    -0.393 OA
ATOM     16  H   UNL     1       9.178  37.555   4.746  1.00  0.00     0.210 HD
ENDBRANCH  14  15
ENDBRANCH   9  14
ENDBRANCH   1   2
BRANCH   1  17
ATOM     17  C   UNL     1      10.952  33.843   3.785  1.00  0.00     0.286 C 
ATOM     18  C   UNL     1      12.277  34.619   3.686  1.00  0.00     0.202 C 
ATOM     19  O   UNL     1      11.096  32.740   4.668  1.00  0.00    -0.341 OA
ATOM     20  C   UNL     1      13.379  33.698   3.133  1.00  0.00     0.179 C 
ATOM     21  C   UNL     1      12.038  31.786   4.204  1.00  0.00     0.178 C 
ATOM     22  C   UNL     1      13.446  32.391   3.950  1.00  0.00     0.177 C 
BRANCH  18  23
ATOM     23  O   UNL     1      12.128  35.761   2.878  1.00  0.00    -0.385 OA
ATOM     24  H   UNL     1      11.552  36.403   3.372  1.00  0.00     0.211 HD
ENDBRANCH  18  23
BRANCH  20  25
ATOM     25  O   UNL     1      14.624  34.348   3.180  1.00  0.00    -0.387 OA
ATOM     26  H   UNL     1      14.784  34.601   4.125  1.00  0.00     0.211 HD
ENDBRANCH  20  25
BRANCH  21  27
ATOM     27  C   UNL     1      11.478  30.889   3.073  1.00  0.00     0.191 C 
BRANCH  27  28
ATOM     28  O   UNL     1      10.076  30.919   2.992  1.00  0.00    -0.394 OA
ATOM     29  H   UNL     1       9.797  31.861   3.135  1.00  0.00     0.210 HD
ENDBRANCH  27  28
ENDBRANCH  21  27
BRANCH  22  30
ATOM     30  O   UNL     1      14.050  32.643   5.199  1.00  0.00    -0.387 OA
ATOM     31  H   UNL     1      14.961  32.251   5.168  1.00  0.00     0.211 HD
ENDBRANCH  22  30
ENDBRANCH   1  17
TORSDOF 10
ENDMDL
MODEL 3
REMARK VINA RESULT:    -2.968      1.752      6.462
REMARK INTER + INTRA:          -5.205
REMARK INTER:                  -4.663
REMARK INTRA:                  -0.542
REMARK UNBOUND:                -1.022
REMARK SMILES OC[C@@H]1O[C@@H](O[C@H]2OC=C[C@H]3[C@@H](O)[C@H]4O[C@@]4(CO)[C@@H]23)[C@H](O)[C@@H](O)[C@H]1O
REMARK SMILES IDX 6 1 7 2 10 3 9 4 11 5 8 6 19 7 12 8 16 9 14 10 15 11 13 12
REMARK SMILES IDX 17 14 18 15 5 17 20 18 4 19 22 20 3 21 24 22 21 23 23 25
REMARK SMILES IDX 2 27 1 28 25 30
REMARK H PARENT 13 13 18 16 21 24 23 26 1 29 25 31
REMARK Flexibility Score: inf
ROOT
ATOM      1  O   UNL     1       8.920  34.193   5.592  1.00  0.00    -0.310 OA
ENDROOT
BRANCH   1   2
ATOM      2  C   UNL     1       7.806  34.881   5.052  1.00  0.00     0.315 C 
ATOM      3  C   UNL     1       5.511  35.266   3.419  1.00  0.00     0.018 C 
ATOM      4  C   UNL     1       6.729  35.245   2.875  1.00  0.00     0.186 C 
ATOM      5  C   UNL     1       5.238  34.779   4.835  1.00  0.00     0.059 C 
ATOM      6  O   UNL     1       7.838  34.858   3.624  1.00  0.00    -0.472 OA
ATOM      7  C   UNL     1       6.499  34.244   5.560  1.00  0.00     0.105 C 
ATOM      8  C   UNL     1       4.255  33.581   4.847  1.00  0.00     0.154 C 
ATOM      9  C   UNL     1       6.454  32.724   5.388  1.00  0.00     0.130 C 
ATOM     10  C   UNL     1       5.100  32.320   4.971  1.00  0.00     0.183 C 
ATOM     11  O   UNL     1       6.192  32.275   4.073  1.00  0.00    -0.360 OA
BRANCH   8  12
ATOM     12  O   UNL     1       3.452  33.507   3.697  1.00  0.00    -0.390 OA
ATOM     13  H   UNL     1       3.019  32.613   3.715  1.00  0.00     0.211 HD
ENDBRANCH   8  12
BRANCH   9  14
ATOM     14  C   UNL     1       7.255  31.747   6.259  1.00  0.00     0.195 C 
BRANCH  14  15
ATOM     15  O   UNL     1       8.189  31.068   5.468  1.00  0.00    -0.393 OA
ATOM     16  H   UNL     1       9.083  31.299   5.836  1.00  0.00     0.210 HD
ENDBRANCH  14  15
ENDBRANCH   9  14
ENDBRANCH   1   2
BRANCH   1  17
ATOM     17  C   UNL     1       9.798  33.748   4.573  1.00  0.00     0.286 C 
ATOM     18  C   UNL     1      10.863  34.839   4.358  1.00  0.00     0.202 C 
ATOM     19  O   UNL     1      10.413  32.542   5.001  1.00  0.00    -0.341 OA
ATOM     20  C   UNL     1      11.856  34.390   3.271  1.00  0.00     0.179 C 
ATOM     21  C   UNL     1      11.293  32.000   4.028  1.00  0.00     0.178 C 
ATOM     22  C   UNL     1      12.412  32.988   3.598  1.00  0.00     0.177 C 
BRANCH  18  23
ATOM     23  O   UNL     1      10.262  36.062   4.013  1.00  0.00    -0.385 OA
ATOM     24  H   UNL     1       9.913  35.973   3.086  1.00  0.00     0.211 HD
ENDBRANCH  18  23
BRANCH  20  25
ATOM     25  O   UNL     1      12.916  35.307   3.173  1.00  0.00    -0.387 OA
ATOM     26  H   UNL     1      12.515  36.214   3.166  1.00  0.00     0.211 HD
ENDBRANCH  20  25
BRANCH  21  27
ATOM     27  C   UNL     1      10.546  31.286   2.875  1.00  0.00     0.191 C 
BRANCH  27  28
ATOM     28  O   UNL     1       9.172  31.134   3.120  1.00  0.00    -0.394 OA
ATOM     29  H   UNL     1       8.706  31.265   2.254  1.00  0.00     0.210 HD
ENDBRANCH  27  28
ENDBRANCH  21  27
BRANCH  22  30
ATOM     30  O   UNL     1      13.346  33.082   4.649  1.00  0.00    -0.387 OA
ATOM     31  H   UNL     1      13.884  32.247   4.638  1.00  0.00     0.211 HD
ENDBRANCH  22  30
ENDBRANCH   1  17
TORSDOF 10
ENDMDL
MODEL 4
REMARK VINA RESULT:    -2.710      2.169      7.247
REMARK INTER + INTRA:          -4.841
REMARK INTER:                  -4.850
REMARK INTRA:                   0.009
REMARK UNBOUND:                -1.022
REMARK SMILES OC[C@@H]1O[C@@H](O[C@H]2OC=C[C@H]3[C@@H](O)[C@H]4O[C@@]4(CO)[C@@H]23)[C@H](O)[C@@H](O)[C@H]1O
REMARK SMILES IDX 6 1 7 2 10 3 9 4 11 5 8 6 19 7 12 8 16 9 14 10 15 11 13 12
REMARK SMILES IDX 17 14 18 15 5 17 20 18 4 19 22 20 3 21 24 22 21 23 23 25
REMARK SMILES IDX 2 27 1 28 25 30
REMARK H PARENT 13 13 18 16 21 24 23 26 1 29 25 31
REMARK Flexibility Score: inf
ROOT
ATOM      1  O   UNL     1      10.250  34.571   4.145  1.00  0.00    -0.310 OA
ENDROOT
BRANCH   1   2
ATOM      2  C   UNL     1       9.472  33.545   3.554  1.00  0.00     0.315 C 
ATOM      3  C   UNL     1       7.593  31.414   3.458  1.00  0.00     0.018 C 
ATOM      4  C   UNL     1       8.789  31.233   4.021  1.00  0.00     0.186 C 
ATOM      5  C   UNL     1       7.041  32.795   3.136  1.00  0.00     0.059 C 
ATOM      6  O   UNL     1       9.637  32.312   4.257  1.00  0.00    -0.472 OA
ATOM      7  C   UNL     1       7.987  33.952   3.545  1.00  0.00     0.105 C 
ATOM      8  C   UNL     1       5.731  33.082   3.914  1.00  0.00     0.154 C 
ATOM      9  C   UNL     1       7.479  34.434   4.905  1.00  0.00     0.130 C 
ATOM     10  C   UNL     1       6.115  33.922   5.125  1.00  0.00     0.183 C 
ATOM     11  O   UNL     1       7.219  33.412   5.847  1.00  0.00    -0.360 OA
BRANCH   8  12
ATOM     12  O   UNL     1       5.065  31.918   4.332  1.00  0.00    -0.390 OA
ATOM     13  H   UNL     1       4.151  32.200   4.602  1.00  0.00     0.211 HD
ENDBRANCH   8  12
BRANCH   9  14
ATOM     14  C   UNL     1       7.836  35.798   5.511  1.00  0.00     0.195 C 
BRANCH  14  15
ATOM     15  O   UNL     1       8.416  36.611   4.530  1.00  0.00    -0.393 OA
ATOM     16  H   UNL     1       8.476  37.521   4.924  1.00  0.00     0.210 HD
ENDBRANCH  14  15
ENDBRANCH   9  14
ENDBRANCH   1   2
BRANCH   1  17
ATOM     17  C   UNL     1      11.617  34.204   4.224  1.00  0.00     0.286 C 
ATOM     18  C   UNL     1      11.741  33.060   5.245  1.00  0.00     0.202 C 
ATOM     19  O   UNL     1      12.041  33.763   2.943  1.00  0.00    -0.341 OA
ATOM     20  C   UNL     1      13.209  32.611   5.350  1.00  0.00     0.179 C 
ATOM     21  C   UNL     1      13.413  33.401   2.914  1.00  0.00     0.178 C 
ATOM     22  C   UNL     1      13.777  32.302   3.949  1.00  0.00     0.177 C 
BRANCH  18  23
ATOM     23  O   UNL     1      11.248  33.456   6.502  1.00  0.00    -0.385 OA
ATOM     24  H   UNL     1      10.743  34.302   6.372  1.00  0.00     0.211 HD
ENDBRANCH  18  23
BRANCH  20  25
ATOM     25  O   UNL     1      13.312  31.470   6.163  1.00  0.00    -0.387 OA
ATOM     26  H   UNL     1      13.272  31.780   7.104  1.00  0.00     0.211 HD
ENDBRANCH  20  25
BRANCH  21  27
ATOM     27  C   UNL     1      14.357  34.628   2.875  1.00  0.00     0.191 C 
BRANCH  27  28
ATOM     28  O   UNL     1      15.285  34.641   3.929  1.00  0.00    -0.394 OA
ATOM     29  H   UNL     1      15.726  35.530   3.916  1.00  0.00     0.210 HD
ENDBRANCH  27  28
ENDBRANCH  21  27
BRANCH  22  30
ATOM     30  O   UNL     1      13.260  31.074   3.488  1.00  0.00    -0.387 OA
ATOM     31  H   UNL     1      13.099  30.506   4.287  1.00  0.00     0.211 HD
ENDBRANCH  22  30
ENDBRANCH   1  17
TORSDOF 10
ENDMDL
MODEL 5
REMARK VINA RESULT:    -2.604      1.612      6.330
REMARK INTER + INTRA:          -4.691
REMARK INTER:                  -3.889
REMARK INTRA:                  -0.802
REMARK UNBOUND:                -1.022
REMARK SMILES OC[C@@H]1O[C@@H](O[C@H]2OC=C[C@H]3[C@@H](O)[C@H]4O[C@@]4(CO)[C@@H]23)[C@H](O)[C@@H](O)[C@H]1O
REMARK SMILES IDX 6 1 7 2 10 3 9 4 11 5 8 6 19 7 12 8 16 9 14 10 15 11 13 12
REMARK SMILES IDX 17 14 18 15 5 17 20 18 4 19 22 20 3 21 24 22 21 23 23 25
REMARK SMILES IDX 2 27 1 28 25 30
REMARK H PARENT 13 13 18 16 21 24 23 26 1 29 25 31
REMARK Flexibility Score: inf
ROOT
ATOM      1  O   UNL     1       7.707  33.210   2.875  1.00  0.00    -0.310 OA
ENDROOT
BRANCH   1   2
ATOM      2  C   UNL     1       6.542  32.474   3.202  1.00  0.00     0.315 C 
ATOM      3  C   UNL     1       4.191  31.808   4.655  1.00  0.00     0.018 C 
ATOM      4  C   UNL     1       5.395  31.605   5.192  1.00  0.00     0.186 C 
ATOM      5  C   UNL     1       3.981  32.674   3.421  1.00  0.00     0.059 C 
ATOM      6  O   UNL     1       6.542  32.109   4.583  1.00  0.00    -0.472 OA
ATOM      7  C   UNL     1       5.287  33.305   2.876  1.00  0.00     0.105 C 
ATOM      8  C   UNL     1       3.069  33.890   3.726  1.00  0.00     0.154 C 
ATOM      9  C   UNL     1       5.327  34.722   3.452  1.00  0.00     0.130 C 
ATOM     10  C   UNL     1       3.990  35.082   3.953  1.00  0.00     0.183 C 
ATOM     11  O   UNL     1       5.061  34.816   4.837  1.00  0.00    -0.360 OA
BRANCH   8  12
ATOM     12  O   UNL     1       2.246  33.703   4.848  1.00  0.00    -0.390 OA
ATOM     13  H   UNL     1       1.383  33.347   4.506  1.00  0.00     0.211 HD
ENDBRANCH   8  12
BRANCH   9  14
ATOM     14  C   UNL     1       6.204  35.845   2.882  1.00  0.00     0.195 C 
BRANCH  14  15
ATOM     15  O   UNL     1       6.688  36.639   3.927  1.00  0.00    -0.393 OA
ATOM     16  H   UNL     1       7.664  36.740   3.769  1.00  0.00     0.210 HD
ENDBRANCH  14  15
ENDBRANCH   9  14
ENDBRANCH   1   2
BRANCH   1  17
ATOM     17  C   UNL     1       8.559  33.356   3.997  1.00  0.00     0.286 C 
ATOM     18  C   UNL     1       9.680  32.308   3.879  1.00  0.00     0.202 C 
ATOM     19  O   UNL     1       9.110  34.665   3.979  1.00  0.00    -0.341 OA
ATOM     20  C   UNL     1      10.647  32.443   5.069  1.00  0.00     0.179 C 
ATOM     21  C   UNL     1       9.958  34.918   5.089  1.00  0.00     0.178 C 
ATOM     22  C   UNL     1      11.128  33.902   5.208  1.00  0.00     0.177 C 
BRANCH  18  23
ATOM     23  O   UNL     1       9.144  31.009   3.814  1.00  0.00    -0.385 OA
ATOM     24  H   UNL     1       9.881  30.395   3.554  1.00  0.00     0.211 HD
ENDBRANCH  18  23
BRANCH  20  25
ATOM     25  O   UNL     1      11.754  31.596   4.894  1.00  0.00    -0.387 OA
ATOM     26  H   UNL     1      12.370  31.762   5.653  1.00  0.00     0.211 HD
ENDBRANCH  20  25
BRANCH  21  27
ATOM     27  C   UNL     1       9.174  35.197   6.394  1.00  0.00     0.191 C 
BRANCH  27  28
ATOM     28  O   UNL     1       7.782  35.128   6.224  1.00  0.00    -0.394 OA
ATOM     29  H   UNL     1       7.527  34.172   6.301  1.00  0.00     0.210 HD
ENDBRANCH  27  28
ENDBRANCH  21  27
BRANCH  22  30
ATOM     30  O   UNL     1      12.067  34.190   4.196  1.00  0.00    -0.387 OA
ATOM     31  H   UNL     1      12.229  33.346   3.699  1.00  0.00     0.211 HD
ENDBRANCH  22  30
ENDBRANCH   1  17
TORSDOF 10
ENDMDL
MODEL 6
REMARK VINA RESULT:    -1.844      1.460      6.567
REMARK INTER + INTRA:          -3.621
REMARK INTER:                  -3.304
REMARK INTRA:                  -0.317
REMARK UNBOUND:                -1.022
REMARK SMILES OC[C@@H]1O[C@@H](O[C@H]2OC=C[C@H]3[C@@H](O)[C@H]4O[C@@]4(CO)[C@@H]23)[C@H](O)[C@@H](O)[C@H]1O
REMARK SMILES IDX 6 1 7 2 10 3 9 4 11 5 8 6 19 7 12 8 16 9 14 10 15 11 13 12
REMARK SMILES IDX 17 14 18 15 5 17 20 18 4 19 22 20 3 21 24 22 21 23 23 25
REMARK SMILES IDX 2 27 1 28 25 30
REMARK H PARENT 13 13 18 16 21 24 23 26 1 29 25 31
REMARK Flexibility Score: inf
ROOT
ATOM      1  O   UNL     1       7.278  34.690   3.348  1.00  0.00    -0.310 OA
ENDROOT
BRANCH   1   2
ATOM      2  C   UNL     1       6.865  33.350   3.543  1.00  0.00     0.315 C 
ATOM      3  C   UNL     1       5.522  31.185   4.805  1.00  0.00     0.018 C 
ATOM      4  C   UNL     1       6.587  31.745   5.382  1.00  0.00     0.186 C 
ATOM      5  C   UNL     1       4.778  31.840   3.650  1.00  0.00     0.059 C 
ATOM      6  O   UNL     1       7.130  32.927   4.882  1.00  0.00    -0.472 OA
ATOM      7  C   UNL     1       5.363  33.213   3.235  1.00  0.00     0.105 C 
ATOM      8  C   UNL     1       3.306  32.150   4.022  1.00  0.00     0.154 C 
ATOM      9  C   UNL     1       4.497  34.257   3.944  1.00  0.00     0.130 C 
ATOM     10  C   UNL     1       3.251  33.622   4.408  1.00  0.00     0.183 C 
ATOM     11  O   UNL     1       4.263  34.013   5.316  1.00  0.00    -0.360 OA
BRANCH   8  12
ATOM     12  O   UNL     1       2.819  31.362   5.078  1.00  0.00    -0.390 OA
ATOM     13  H   UNL     1       3.358  30.526   5.075  1.00  0.00     0.211 HD
ENDBRANCH   8  12
BRANCH   9  14
ATOM     14  C   UNL     1       4.436  35.732   3.528  1.00  0.00     0.195 C 
BRANCH  14  15
ATOM     15  O   UNL     1       5.439  36.450   4.192  1.00  0.00    -0.393 OA
ATOM     16  H   UNL     1       5.911  35.795   4.770  1.00  0.00     0.210 HD
ENDBRANCH  14  15
ENDBRANCH   9  14
ENDBRANCH   1   2
BRANCH   1  17
ATOM     17  C   UNL     1       8.602  34.897   3.809  1.00  0.00     0.286 C 
ATOM     18  C   UNL     1       8.572  34.899   5.347  1.00  0.00     0.202 C 
ATOM     19  O   UNL     1       9.416  33.833   3.337  1.00  0.00    -0.341 OA
ATOM     20  C   UNL     1       9.996  35.099   5.896  1.00  0.00     0.179 C 
ATOM     21  C   UNL     1      10.775  33.969   3.724  1.00  0.00     0.178 C 
ATOM     22  C   UNL     1      10.964  34.079   5.262  1.00  0.00     0.177 C 
BRANCH  18  23
ATOM     23  O   UNL     1       7.705  35.896   5.829  1.00  0.00    -0.385 OA
ATOM     24  H   UNL     1       6.884  35.445   6.160  1.00  0.00     0.211 HD
ENDBRANCH  18  23
BRANCH  20  25
ATOM     25  O   UNL     1      10.003  34.951   7.294  1.00  0.00    -0.387 OA
ATOM     26  H   UNL     1      10.308  34.027   7.486  1.00  0.00     0.211 HD
ENDBRANCH  20  25
BRANCH  21  27
ATOM     27  C   UNL     1      11.539  35.015   2.876  1.00  0.00     0.191 C 
BRANCH  27  28
ATOM     28  O   UNL     1      12.878  35.170   3.271  1.00  0.00    -0.394 OA
ATOM     29  H   UNL     1      13.181  36.051   2.928  1.00  0.00     0.210 HD
ENDBRANCH  27  28
ENDBRANCH  21  27
BRANCH  22  30
ATOM     30  O   UNL     1      10.745  32.805   5.825  1.00  0.00    -0.387 OA
ATOM     31  H   UNL     1       9.796  32.772   6.115  1.00  0.00     0.211 HD
ENDBRANCH  22  30
ENDBRANCH   1  17
TORSDOF 10
ENDMDL
MODEL 7
REMARK VINA RESULT:    -1.522      1.645      2.103
REMARK INTER + INTRA:          -3.166
REMARK INTER:                  -2.157
REMARK INTRA:                  -1.009
REMARK UNBOUND:                -1.022
REMARK SMILES OC[C@@H]1O[C@@H](O[C@H]2OC=C[C@H]3[C@@H](O)[C@H]4O[C@@]4(CO)[C@@H]23)[C@H](O)[C@@H](O)[C@H]1O
REMARK SMILES IDX 6 1 7 2 10 3 9 4 11 5 8 6 19 7 12 8 16 9 14 10 15 11 13 12
REMARK SMILES IDX 17 14 18 15 5 17 20 18 4 19 22 20 3 21 24 22 21 23 23 25
REMARK SMILES IDX 2 27 1 28 25 30
REMARK H PARENT 13 13 18 16 21 24 23 26 1 29 25 31
REMARK Flexibility Score: inf
ROOT
ATOM      1  O   UNL     1       7.873  33.666   4.580  1.00  0.00    -0.310 OA
ENDROOT
BRANCH   1   2
ATOM      2  C   UNL     1       9.050  33.843   3.813  1.00  0.00     0.315 C 
ATOM      3  C   UNL     1      11.840  33.857   3.269  1.00  0.00     0.018 C 
ATOM      4  C   UNL     1      11.304  34.784   4.065  1.00  0.00     0.186 C 
ATOM      5  C   UNL     1      11.098  32.588   2.876  1.00  0.00     0.059 C 
ATOM      6  O   UNL     1       9.986  34.674   4.502  1.00  0.00    -0.472 OA
ATOM      7  C   UNL     1       9.686  32.475   3.504  1.00  0.00     0.105 C 
ATOM      8  C   UNL     1      11.837  31.318   3.370  1.00  0.00     0.154 C 
ATOM      9  C   UNL     1       9.859  31.590   4.740  1.00  0.00     0.130 C 
ATOM     10  C   UNL     1      11.149  30.882   4.656  1.00  0.00     0.183 C 
ATOM     11  O   UNL     1      10.944  31.934   5.579  1.00  0.00    -0.360 OA
BRANCH   8  12
ATOM     12  O   UNL     1      13.206  31.527   3.608  1.00  0.00    -0.390 OA
ATOM     13  H   UNL     1      13.439  30.976   4.401  1.00  0.00     0.211 HD
ENDBRANCH   8  12
BRANCH   9  14
ATOM     14  C   UNL     1       8.697  30.877   5.443  1.00  0.00     0.195 C 
BRANCH  14  15
ATOM     15  O   UNL     1       8.130  31.730   6.397  1.00  0.00    -0.393 OA
ATOM     16  H   UNL     1       8.890  32.142   6.887  1.00  0.00     0.210 HD
ENDBRANCH  14  15
ENDBRANCH   9  14
ENDBRANCH   1   2
BRANCH   1  17
ATOM     17  C   UNL     1       6.752  34.265   3.955  1.00  0.00     0.286 C 
ATOM     18  C   UNL     1       5.598  33.246   3.975  1.00  0.00     0.202 C 
ATOM     19  O   UNL     1       6.392  35.425   4.690  1.00  0.00    -0.341 OA
ATOM     20  C   UNL     1       4.347  33.862   3.324  1.00  0.00     0.179 C 
ATOM     21  C   UNL     1       5.290  36.116   4.120  1.00  0.00     0.178 C 
ATOM     22  C   UNL     1       4.025  35.228   3.966  1.00  0.00     0.177 C 
BRANCH  18  23
ATOM     23  O   UNL     1       5.970  32.058   3.320  1.00  0.00    -0.385 OA
ATOM     24  H   UNL     1       5.694  32.142   2.369  1.00  0.00     0.211 HD
ENDBRANCH  18  23
BRANCH  20  25
ATOM     25  O   UNL     1       3.248  33.000   3.472  1.00  0.00    -0.387 OA
ATOM     26  H   UNL     1       2.650  33.407   4.151  1.00  0.00     0.211 HD
ENDBRANCH  20  25
BRANCH  21  27
ATOM     27  C   UNL     1       5.683  36.948   2.875  1.00  0.00     0.191 C 
BRANCH  27  28
ATOM     28  O   UNL     1       6.458  38.076   3.190  1.00  0.00    -0.394 OA
ATOM     29  H   UNL     1       7.380  37.892   2.871  1.00  0.00     0.210 HD
ENDBRANCH  27  28
ENDBRANCH  21  27
BRANCH  22  30
ATOM     30  O   UNL     1       3.467  35.030   5.246  1.00  0.00    -0.387 OA
ATOM     31  H   UNL     1       2.528  35.351   5.209  1.00  0.00     0.211 HD
ENDBRANCH  22  30
ENDBRANCH   1  17
TORSDOF 10
ENDMDL
MODEL 8
REMARK VINA RESULT:    -0.926     22.720     25.058
REMARK INTER + INTRA:          -2.327
REMARK INTER:                  -1.202
REMARK INTRA:                  -1.125
REMARK UNBOUND:                -1.022
REMARK SMILES OC[C@@H]1O[C@@H](O[C@H]2OC=C[C@H]3[C@@H](O)[C@H]4O[C@@]4(CO)[C@@H]23)[C@H](O)[C@@H](O)[C@H]1O
REMARK SMILES IDX 6 1 7 2 10 3 9 4 11 5 8 6 19 7 12 8 16 9 14 10 15 11 13 12
REMARK SMILES IDX 17 14 18 15 5 17 20 18 4 19 22 20 3 21 24 22 21 23 23 25
REMARK SMILES IDX 2 27 1 28 25 30
REMARK H PARENT 13 13 18 16 21 24 23 26 1 29 25 31
REMARK Flexibility Score: inf
ROOT
ATOM      1  O   UNL     1      13.774  47.728  21.985  1.00  0.00    -0.310 OA
ENDROOT
BRANCH   1   2
ATOM      2  C   UNL     1      13.175  48.963  22.333  1.00  0.00     0.315 C 
ATOM      3  C   UNL     1      11.337  51.124  22.146  1.00  0.00     0.018 C 
ATOM      4  C   UNL     1      12.296  50.974  21.230  1.00  0.00     0.186 C 
ATOM      5  C   UNL     1      10.961  50.021  23.125  1.00  0.00     0.059 C 
ATOM      6  O   UNL     1      13.072  49.818  21.192  1.00  0.00    -0.472 OA
ATOM      7  C   UNL     1      11.780  48.719  22.937  1.00  0.00     0.105 C 
ATOM      8  C   UNL     1       9.488  49.573  22.943  1.00  0.00     0.154 C 
ATOM      9  C   UNL     1      10.899  47.802  22.086  1.00  0.00     0.130 C 
ATOM     10  C   UNL     1       9.515  48.307  22.098  1.00  0.00     0.183 C 
ATOM     11  O   UNL     1      10.327  48.408  20.944  1.00  0.00    -0.360 OA
BRANCH   8  12
ATOM     12  O   UNL     1       8.683  50.544  22.324  1.00  0.00    -0.390 OA
ATOM     13  H   UNL     1       7.875  50.643  22.894  1.00  0.00     0.211 HD
ENDBRANCH   8  12
BRANCH   9  14
ATOM     14  C   UNL     1      11.106  46.286  21.980  1.00  0.00     0.195 C 
BRANCH  14  15
ATOM     15  O   UNL     1      11.845  45.834  23.079  1.00  0.00    -0.393 OA
ATOM     16  H   UNL     1      11.863  46.585  23.729  1.00  0.00     0.210 HD
ENDBRANCH  14  15
ENDBRANCH   9  14
ENDBRANCH   1   2
BRANCH   1  17
ATOM     17  C   UNL     1      15.123  47.668  22.411  1.00  0.00     0.286 C 
ATOM     18  C   UNL     1      15.579  46.200  22.331  1.00  0.00     0.202 C 
ATOM     19  O   UNL     1      15.908  48.471  21.543  1.00  0.00    -0.341 OA
ATOM     20  C   UNL     1      17.052  46.088  22.766  1.00  0.00     0.179 C 
ATOM     21  C   UNL     1      17.279  48.499  21.910  1.00  0.00     0.178 C 
ATOM     22  C   UNL     1      17.922  47.087  21.977  1.00  0.00     0.177 C 
BRANCH  18  23
ATOM     23  O   UNL     1      14.759  45.378  23.125  1.00  0.00    -0.385 OA
ATOM     24  H   UNL     1      15.063  45.471  24.067  1.00  0.00     0.211 HD
ENDBRANCH  18  23
BRANCH  20  25
ATOM     25  O   UNL     1      17.522  44.781  22.553  1.00  0.00    -0.387 OA
ATOM     26  H   UNL     1      16.739  44.227  22.304  1.00  0.00     0.211 HD
ENDBRANCH  20  25
BRANCH  21  27
ATOM     27  C   UNL     1      17.557  49.423  23.121  1.00  0.00     0.191 C 
BRANCH  27  28
ATOM     28  O   UNL     1      18.535  50.396  22.856  1.00  0.00    -0.394 OA
ATOM     29  H   UNL     1      18.468  51.078  23.575  1.00  0.00     0.210 HD
ENDBRANCH  27  28
ENDBRANCH  21  27
BRANCH  22  30
ATOM     30  O   UNL     1      18.101  46.621  20.658  1.00  0.00    -0.387 OA
ATOM     31  H   UNL     1      18.522  45.723  20.719  1.00  0.00     0.211 HD
ENDBRANCH  22  30
ENDBRANCH   1  17
TORSDOF 10
ENDMDL
