MODEL 1
REMARK VINA RESULT:    -4.215      0.000      0.000
REMARK INTER + INTRA:          -9.455
REMARK INTER:                  -7.664
REMARK INTRA:                  -1.791
REMARK UNBOUND:                -1.791
REMARK SMILES CCCCCCCCCCCCCC[C@@H](C)C(=O)[O-]
REMARK SMILES IDX 9 1 10 2 11 3 12 4 13 5 14 6 15 7 16 8 17 9 18 10 19 11 8 12
REMARK SMILES IDX 7 13 6 14 5 15 4 16 3 17 2 18 1 19
REMARK H PARENT
REMARK Flexibility Score: inf
ROOT
ATOM      1  C   UNL     1      17.452 -10.276  13.732  1.00  0.00     0.000 C 
ENDROOT
BRANCH   1   2
ATOM      2  C   UNL     1      18.341  -9.059  13.436  1.00  0.00     0.000 C 
BRANCH   2   3
ATOM      3  C   UNL     1      17.821  -8.282  12.221  1.00  0.00     0.000 C 
BRANCH   3   4
ATOM      4  C   UNL     1      18.578  -6.958  12.045  1.00  0.00     0.000 C 
BRANCH   4   5
ATOM      5  C   UNL     1      18.065  -5.860  13.002  1.00  0.00     0.001 C 
BRANCH   5   6
ATOM      6  C   UNL     1      16.534  -5.687  12.978  1.00  0.00     0.009 C 
BRANCH   6   7
ATOM      7  C   UNL     1      15.821  -6.189  14.252  1.00  0.00     0.032 C 
ATOM      8  C   UNL     1      16.799  -6.231  15.431  1.00  0.00     0.014 C 
BRANCH   7   9
ATOM      9  C   UNL     1      14.638  -5.328  14.610  1.00  0.00     0.044 C 
ATOM     10  O   UNL     1      14.258  -5.226  15.807  1.00  0.00    -0.550 OA
ATOM     11  O   UNL     1      13.931  -4.673  13.610  1.00  0.00    -0.550 OA
ENDBRANCH   7   9
ENDBRANCH   6   7
ENDBRANCH   5   6
ENDBRANCH   4   5
ENDBRANCH   3   4
ENDBRANCH   2   3
ENDBRANCH   1   2
BRANCH   1  12
ATOM     12  C   UNL     1      16.380 -10.503  12.655  1.00  0.00     0.000 C 
BRANCH  12  13
ATOM     13  C   UNL     1      16.513 -11.870  11.967  1.00  0.00    -0.000 C 
BRANCH  13  14
ATOM     14  C   UNL     1      15.455 -12.852  12.489  1.00  0.00    -0.000 C 
BRANCH  14  15
ATOM     15  C   UNL     1      14.068 -12.520  11.919  1.00  0.00    -0.000 C 
BRANCH  15  16
ATOM     16  C   UNL     1      13.028 -12.222  13.013  1.00  0.00    -0.000 C 
BRANCH  16  17
ATOM     17  C   UNL     1      12.244 -10.906  12.830  1.00  0.00    -0.000 C 
BRANCH  17  18
ATOM     18  C   UNL     1      12.998  -9.803  12.066  1.00  0.00    -0.003 C 
ATOM     19  C   UNL     1      13.252  -8.558  12.916  1.00  0.00     0.004 C 
ENDBRANCH  17  18
ENDBRANCH  16  17
ENDBRANCH  15  16
ENDBRANCH  14  15
ENDBRANCH  13  14
ENDBRANCH  12  13
ENDBRANCH   1  12
TORSDOF 14
ENDMDL
MODEL 2
REMARK VINA RESULT:    -4.018      1.440      3.979
REMARK INTER + INTRA:          -9.098
REMARK INTER:                  -7.405
REMARK INTRA:                  -1.693
REMARK UNBOUND:                -1.791
REMARK SMILES CCCCCCCCCCCCCC[C@@H](C)C(=O)[O-]
REMARK SMILES IDX 9 1 10 2 11 3 12 4 13 5 14 6 15 7 16 8 17 9 18 10 19 11 8 12
REMARK SMILES IDX 7 13 6 14 5 15 4 16 3 17 2 18 1 19
REMARK H PARENT
REMARK Flexibility Score: inf
ROOT
ATOM      1  C   UNL     1      12.715 -11.376  13.220  1.00  0.00     0.000 C 
ENDROOT
BRANCH   1   2
ATOM      2  C   UNL     1      12.790 -10.637  11.876  1.00  0.00     0.000 C 
BRANCH   2   3
ATOM      3  C   UNL     1      12.627  -9.125  12.070  1.00  0.00     0.000 C 
BRANCH   3   4
ATOM      4  C   UNL     1      13.707  -8.568  13.009  1.00  0.00     0.000 C 
BRANCH   4   5
ATOM      5  C   UNL     1      14.489  -7.399  12.372  1.00  0.00     0.001 C 
BRANCH   5   6
ATOM      6  C   UNL     1      13.917  -6.011  12.723  1.00  0.00     0.009 C 
BRANCH   6   7
ATOM      7  C   UNL     1      14.733  -5.242  13.784  1.00  0.00     0.032 C 
ATOM      8  C   UNL     1      14.056  -5.339  15.155  1.00  0.00     0.014 C 
BRANCH   7   9
ATOM      9  C   UNL     1      16.147  -5.752  13.883  1.00  0.00     0.044 C 
ATOM     10  O   UNL     1      16.518  -6.423  14.883  1.00  0.00    -0.550 OA
ATOM     11  O   UNL     1      17.065  -5.447  12.886  1.00  0.00    -0.550 OA
ENDBRANCH   7   9
ENDBRANCH   6   7
ENDBRANCH   5   6
ENDBRANCH   4   5
ENDBRANCH   3   4
ENDBRANCH   2   3
ENDBRANCH   1   2
BRANCH   1  12
ATOM     12  C   UNL     1      12.891 -12.895  13.073  1.00  0.00     0.000 C 
BRANCH  12  13
ATOM     13  C   UNL     1      13.964 -13.269  12.038  1.00  0.00    -0.000 C 
BRANCH  13  14
ATOM     14  C   UNL     1      15.369 -13.166  12.644  1.00  0.00    -0.000 C 
BRANCH  14  15
ATOM     15  C   UNL     1      16.181 -12.053  11.965  1.00  0.00    -0.000 C 
BRANCH  15  16
ATOM     16  C   UNL     1      16.643 -10.964  12.949  1.00  0.00    -0.000 C 
BRANCH  16  17
ATOM     17  C   UNL     1      17.202  -9.685  12.295  1.00  0.00    -0.000 C 
BRANCH  17  18
ATOM     18  C   UNL     1      18.193  -8.890  13.164  1.00  0.00    -0.003 C 
ATOM     19  C   UNL     1      18.422  -9.523  14.535  1.00  0.00     0.004 C 
ENDBRANCH  17  18
ENDBRANCH  16  17
ENDBRANCH  15  16
ENDBRANCH  14  15
ENDBRANCH  13  14
ENDBRANCH  12  13
ENDBRANCH   1  12
TORSDOF 14
ENDMDL
MODEL 3
REMARK VINA RESULT:    -3.927      1.214      1.616
REMARK INTER + INTRA:          -8.932
REMARK INTER:                  -7.468
REMARK INTRA:                  -1.464
REMARK UNBOUND:                -1.791
REMARK SMILES CCCCCCCCCCCCCC[C@@H](C)C(=O)[O-]
REMARK SMILES IDX 9 1 10 2 11 3 12 4 13 5 14 6 15 7 16 8 17 9 18 10 19 11 8 12
REMARK SMILES IDX 7 13 6 14 5 15 4 16 3 17 2 18 1 19
REMARK H PARENT
REMARK Flexibility Score: inf
ROOT
ATOM      1  C   UNL     1      17.604 -10.157  13.547  1.00  0.00     0.000 C 
ENDROOT
BRANCH   1   2
ATOM      2  C   UNL     1      18.164  -8.732  13.427  1.00  0.00     0.000 C 
BRANCH   2   3
ATOM      3  C   UNL     1      17.820  -8.121  12.063  1.00  0.00     0.000 C 
BRANCH   3   4
ATOM      4  C   UNL     1      17.449  -6.637  12.198  1.00  0.00     0.000 C 
BRANCH   4   5
ATOM      5  C   UNL     1      15.923  -6.410  12.154  1.00  0.00     0.001 C 
BRANCH   5   6
ATOM      6  C   UNL     1      15.219  -6.698  13.495  1.00  0.00     0.009 C 
BRANCH   6   7
ATOM      7  C   UNL     1      15.306  -5.541  14.515  1.00  0.00     0.032 C 
ATOM      8  C   UNL     1      13.909  -5.173  15.027  1.00  0.00     0.014 C 
BRANCH   7   9
ATOM      9  C   UNL     1      16.195  -5.886  15.681  1.00  0.00     0.044 C 
ATOM     10  O   UNL     1      15.745  -5.867  16.858  1.00  0.00    -0.550 OA
ATOM     11  O   UNL     1      17.534  -6.186  15.466  1.00  0.00    -0.550 OA
ENDBRANCH   7   9
ENDBRANCH   6   7
ENDBRANCH   5   6
ENDBRANCH   4   5
ENDBRANCH   3   4
ENDBRANCH   2   3
ENDBRANCH   1   2
BRANCH   1  12
ATOM     12  C   UNL     1      16.447 -10.424  12.572  1.00  0.00     0.000 C 
BRANCH  12  13
ATOM     13  C   UNL     1      16.563 -11.788  11.875  1.00  0.00    -0.000 C 
BRANCH  13  14
ATOM     14  C   UNL     1      15.545 -12.784  12.446  1.00  0.00    -0.000 C 
BRANCH  14  15
ATOM     15  C   UNL     1      14.143 -12.523  11.877  1.00  0.00    -0.000 C 
BRANCH  15  16
ATOM     16  C   UNL     1      13.025 -12.765  12.906  1.00  0.00    -0.000 C 
BRANCH  16  17
ATOM     17  C   UNL     1      12.031 -11.599  13.080  1.00  0.00    -0.000 C 
BRANCH  17  18
ATOM     18  C   UNL     1      12.199 -10.447  12.073  1.00  0.00    -0.003 C 
ATOM     19  C   UNL     1      12.864  -9.214  12.683  1.00  0.00     0.004 C 
ENDBRANCH  17  18
ENDBRANCH  16  17
ENDBRANCH  15  16
ENDBRANCH  14  15
ENDBRANCH  13  14
ENDBRANCH  12  13
ENDBRANCH   1  12
TORSDOF 14
ENDMDL
MODEL 4
REMARK VINA RESULT:    -3.821      1.344      2.241
REMARK INTER + INTRA:          -8.740
REMARK INTER:                  -7.304
REMARK INTRA:                  -1.436
REMARK UNBOUND:                -1.791
REMARK SMILES CCCCCCCCCCCCCC[C@@H](C)C(=O)[O-]
REMARK SMILES IDX 9 1 10 2 11 3 12 4 13 5 14 6 15 7 16 8 17 9 18 10 19 11 8 12
REMARK SMILES IDX 7 13 6 14 5 15 4 16 3 17 2 18 1 19
REMARK H PARENT
REMARK Flexibility Score: inf
ROOT
ATOM      1  C   UNL     1      18.132  -9.279  14.055  1.00  0.00     0.000 C 
ENDROOT
BRANCH   1   2
ATOM      2  C   UNL     1      17.831  -7.782  14.223  1.00  0.00     0.000 C 
BRANCH   2   3
ATOM      3  C   UNL     1      18.401  -6.973  13.052  1.00  0.00     0.000 C 
BRANCH   3   4
ATOM      4  C   UNL     1      17.603  -5.679  12.832  1.00  0.00     0.000 C 
BRANCH   4   5
ATOM      5  C   UNL     1      16.241  -5.942  12.156  1.00  0.00     0.001 C 
BRANCH   5   6
ATOM      6  C   UNL     1      15.144  -4.940  12.570  1.00  0.00     0.009 C 
BRANCH   6   7
ATOM      7  C   UNL     1      14.000  -5.564  13.398  1.00  0.00     0.032 C 
ATOM      8  C   UNL     1      13.908  -7.071  13.137  1.00  0.00     0.014 C 
BRANCH   7   9
ATOM      9  C   UNL     1      14.177  -5.319  14.874  1.00  0.00     0.044 C 
ATOM     10  O   UNL     1      13.302  -4.693  15.530  1.00  0.00    -0.550 OA
ATOM     11  O   UNL     1      15.334  -5.747  15.513  1.00  0.00    -0.550 OA
ENDBRANCH   7   9
ENDBRANCH   6   7
ENDBRANCH   5   6
ENDBRANCH   4   5
ENDBRANCH   3   4
ENDBRANCH   2   3
ENDBRANCH   1   2
BRANCH   1  12
ATOM     12  C   UNL     1      17.727  -9.814  12.672  1.00  0.00     0.000 C 
BRANCH  12  13
ATOM     13  C   UNL     1      16.229  -9.633  12.383  1.00  0.00    -0.000 C 
BRANCH  13  14
ATOM     14  C   UNL     1      15.607 -10.940  11.875  1.00  0.00    -0.000 C 
BRANCH  14  15
ATOM     15  C   UNL     1      15.666 -12.032  12.954  1.00  0.00    -0.000 C 
BRANCH  15  16
ATOM     16  C   UNL     1      15.153 -13.394  12.455  1.00  0.00    -0.000 C 
BRANCH  16  17
ATOM     17  C   UNL     1      13.636 -13.622  12.618  1.00  0.00    -0.000 C 
BRANCH  17  18
ATOM     18  C   UNL     1      12.891 -12.512  13.381  1.00  0.00    -0.003 C 
ATOM     19  C   UNL     1      11.978 -11.681  12.481  1.00  0.00     0.004 C 
ENDBRANCH  17  18
ENDBRANCH  16  17
ENDBRANCH  15  16
ENDBRANCH  14  15
ENDBRANCH  13  14
ENDBRANCH  12  13
ENDBRANCH   1  12
TORSDOF 14
ENDMDL
MODEL 5
REMARK VINA RESULT:    -3.673      2.806      5.807
REMARK INTER + INTRA:          -8.470
REMARK INTER:                  -6.987
REMARK INTRA:                  -1.482
REMARK UNBOUND:                -1.791
REMARK SMILES CCCCCCCCCCCCCC[C@@H](C)C(=O)[O-]
REMARK SMILES IDX 9 1 10 2 11 3 12 4 13 5 14 6 15 7 16 8 17 9 18 10 19 11 8 12
REMARK SMILES IDX 7 13 6 14 5 15 4 16 3 17 2 18 1 19
REMARK H PARENT
REMARK Flexibility Score: inf
ROOT
ATOM      1  C   UNL     1      17.914  -8.249  15.355  1.00  0.00     0.000 C 
ENDROOT
BRANCH   1   2
ATOM      2  C   UNL     1      18.114  -9.316  14.269  1.00  0.00     0.000 C 
BRANCH   2   3
ATOM      3  C   UNL     1      18.246  -8.672  12.883  1.00  0.00     0.000 C 
BRANCH   3   4
ATOM      4  C   UNL     1      17.127  -9.144  11.944  1.00  0.00     0.000 C 
BRANCH   4   5
ATOM      5  C   UNL     1      16.412 -10.405  12.474  1.00  0.00     0.001 C 
BRANCH   5   6
ATOM      6  C   UNL     1      14.889 -10.395  12.236  1.00  0.00     0.009 C 
BRANCH   6   7
ATOM      7  C   UNL     1      14.263 -11.800  12.096  1.00  0.00     0.032 C 
ATOM      8  C   UNL     1      15.305 -12.883  12.395  1.00  0.00     0.014 C 
BRANCH   7   9
ATOM      9  C   UNL     1      13.076 -11.979  13.007  1.00  0.00     0.044 C 
ATOM     10  O   UNL     1      12.364 -10.992  13.332  1.00  0.00    -0.550 OA
ATOM     11  O   UNL     1      12.787 -13.233  13.530  1.00  0.00    -0.550 OA
ENDBRANCH   7   9
ENDBRANCH   6   7
ENDBRANCH   5   6
ENDBRANCH   4   5
ENDBRANCH   3   4
ENDBRANCH   2   3
ENDBRANCH   1   2
BRANCH   1  12
ATOM     12  C   UNL     1      17.751  -6.835  14.774  1.00  0.00     0.000 C 
BRANCH  12  13
ATOM     13  C   UNL     1      16.296  -6.512  14.402  1.00  0.00    -0.000 C 
BRANCH  13  14
ATOM     14  C   UNL     1      16.236  -5.511  13.241  1.00  0.00    -0.000 C 
BRANCH  14  15
ATOM     15  C   UNL     1      15.329  -6.030  12.115  1.00  0.00    -0.000 C 
BRANCH  15  16
ATOM     16  C   UNL     1      14.044  -5.200  11.952  1.00  0.00    -0.000 C 
BRANCH  16  17
ATOM     17  C   UNL     1      13.883  -4.038  12.953  1.00  0.00    -0.000 C 
BRANCH  17  18
ATOM     18  C   UNL     1      12.809  -4.256  14.034  1.00  0.00    -0.003 C 
ATOM     19  C   UNL     1      13.366  -4.164  15.454  1.00  0.00     0.004 C 
ENDBRANCH  17  18
ENDBRANCH  16  17
ENDBRANCH  15  16
ENDBRANCH  14  15
ENDBRANCH  13  14
ENDBRANCH  12  13
ENDBRANCH   1  12
TORSDOF 14
ENDMDL
MODEL 6
REMARK VINA RESULT:    -3.388      1.899      4.003
REMARK INTER + INTRA:          -7.951
REMARK INTER:                  -6.961
REMARK INTRA:                  -0.990
REMARK UNBOUND:                -1.791
REMARK SMILES CCCCCCCCCCCCCC[C@@H](C)C(=O)[O-]
REMARK SMILES IDX 9 1 10 2 11 3 12 4 13 5 14 6 15 7 16 8 17 9 18 10 19 11 8 12
REMARK SMILES IDX 7 13 6 14 5 15 4 16 3 17 2 18 1 19
REMARK H PARENT
REMARK Flexibility Score: inf
ROOT
ATOM      1  C   UNL     1      14.700 -11.926  12.944  1.00  0.00     0.000 C 
ENDROOT
BRANCH   1   2
ATOM      2  C   UNL     1      15.981 -12.424  12.259  1.00  0.00     0.000 C 
BRANCH   2   3
ATOM      3  C   UNL     1      16.890 -11.251  11.876  1.00  0.00     0.000 C 
BRANCH   3   4
ATOM      4  C   UNL     1      16.763 -10.099  12.883  1.00  0.00     0.000 C 
BRANCH   4   5
ATOM      5  C   UNL     1      18.138  -9.527  13.293  1.00  0.00     0.001 C 
BRANCH   5   6
ATOM      6  C   UNL     1      18.091  -8.670  14.574  1.00  0.00     0.009 C 
BRANCH   6   7
ATOM      7  C   UNL     1      17.362  -7.320  14.403  1.00  0.00     0.032 C 
ATOM      8  C   UNL     1      17.274  -6.585  15.745  1.00  0.00     0.014 C 
BRANCH   7   9
ATOM      9  C   UNL     1      18.043  -6.438  13.390  1.00  0.00     0.044 C 
ATOM     10  O   UNL     1      18.926  -6.906  12.624  1.00  0.00    -0.550 OA
ATOM     11  O   UNL     1      17.729  -5.086  13.326  1.00  0.00    -0.550 OA
ENDBRANCH   7   9
ENDBRANCH   6   7
ENDBRANCH   5   6
ENDBRANCH   4   5
ENDBRANCH   3   4
ENDBRANCH   2   3
ENDBRANCH   1   2
BRANCH   1  12
ATOM     12  C   UNL     1      13.752 -11.203  11.974  1.00  0.00     0.000 C 
BRANCH  12  13
ATOM     13  C   UNL     1      12.480 -10.686  12.665  1.00  0.00    -0.000 C 
BRANCH  13  14
ATOM     14  C   UNL     1      12.440  -9.152  12.661  1.00  0.00    -0.000 C 
BRANCH  14  15
ATOM     15  C   UNL     1      13.839  -8.565  12.894  1.00  0.00    -0.000 C 
BRANCH  15  16
ATOM     16  C   UNL     1      14.180  -7.427  11.915  1.00  0.00    -0.000 C 
BRANCH  16  17
ATOM     17  C   UNL     1      14.366  -6.040  12.564  1.00  0.00    -0.000 C 
BRANCH  17  18
ATOM     18  C   UNL     1      14.028  -5.974  14.064  1.00  0.00    -0.003 C 
ATOM     19  C   UNL     1      13.302  -4.688  14.454  1.00  0.00     0.004 C 
ENDBRANCH  17  18
ENDBRANCH  16  17
ENDBRANCH  15  16
ENDBRANCH  14  15
ENDBRANCH  13  14
ENDBRANCH  12  13
ENDBRANCH   1  12
TORSDOF 14
ENDMDL
MODEL 7
REMARK VINA RESULT:    -3.351      1.963      5.902
REMARK INTER + INTRA:          -7.885
REMARK INTER:                  -6.781
REMARK INTRA:                  -1.104
REMARK UNBOUND:                -1.791
REMARK SMILES CCCCCCCCCCCCCC[C@@H](C)C(=O)[O-]
REMARK SMILES IDX 9 1 10 2 11 3 12 4 13 5 14 6 15 7 16 8 17 9 18 10 19 11 8 12
REMARK SMILES IDX 7 13 6 14 5 15 4 16 3 17 2 18 1 19
REMARK H PARENT
REMARK Flexibility Score: inf
ROOT
ATOM      1  C   UNL     1      16.899  -9.579  12.003  1.00  0.00     0.000 C 
ENDROOT
BRANCH   1   2
ATOM      2  C   UNL     1      17.099 -11.099  11.919  1.00  0.00     0.000 C 
BRANCH   2   3
ATOM      3  C   UNL     1      16.109 -11.834  12.831  1.00  0.00     0.000 C 
BRANCH   3   4
ATOM      4  C   UNL     1      15.770 -13.224  12.274  1.00  0.00     0.000 C 
BRANCH   4   5
ATOM      5  C   UNL     1      14.280 -13.581  12.461  1.00  0.00     0.001 C 
BRANCH   5   6
ATOM      6  C   UNL     1      13.455 -12.455  13.117  1.00  0.00     0.009 C 
BRANCH   6   7
ATOM      7  C   UNL     1      12.776 -11.501  12.111  1.00  0.00     0.032 C 
ATOM      8  C   UNL     1      11.321 -11.919  11.875  1.00  0.00     0.014 C 
BRANCH   7   9
ATOM      9  C   UNL     1      12.819 -10.070  12.578  1.00  0.00     0.044 C 
ATOM     10  O   UNL     1      12.150  -9.702  13.581  1.00  0.00    -0.550 OA
ATOM     11  O   UNL     1      13.567  -9.134  11.875  1.00  0.00    -0.550 OA
ENDBRANCH   7   9
ENDBRANCH   6   7
ENDBRANCH   5   6
ENDBRANCH   4   5
ENDBRANCH   3   4
ENDBRANCH   2   3
ENDBRANCH   1   2
BRANCH   1  12
ATOM     12  C   UNL     1      17.645  -8.947  13.189  1.00  0.00     0.000 C 
BRANCH  12  13
ATOM     13  C   UNL     1      18.155  -7.531  12.881  1.00  0.00    -0.000 C 
BRANCH  13  14
ATOM     14  C   UNL     1      17.674  -6.533  13.942  1.00  0.00    -0.000 C 
BRANCH  14  15
ATOM     15  C   UNL     1      16.779  -5.453  13.315  1.00  0.00    -0.000 C 
BRANCH  15  16
ATOM     16  C   UNL     1      15.563  -6.039  12.576  1.00  0.00    -0.000 C 
BRANCH  16  17
ATOM     17  C   UNL     1      14.191  -5.667  13.175  1.00  0.00    -0.000 C 
BRANCH  17  18
ATOM     18  C   UNL     1      14.163  -5.553  14.710  1.00  0.00    -0.003 C 
ATOM     19  C   UNL     1      13.279  -4.410  15.206  1.00  0.00     0.004 C 
ENDBRANCH  17  18
ENDBRANCH  16  17
ENDBRANCH  15  16
ENDBRANCH  14  15
ENDBRANCH  13  14
ENDBRANCH  12  13
ENDBRANCH   1  12
TORSDOF 14
ENDMDL
MODEL 8
REMARK VINA RESULT:    -3.253      2.259      4.425
REMARK INTER + INTRA:          -7.707
REMARK INTER:                  -5.870
REMARK INTRA:                  -1.837
REMARK UNBOUND:                -1.791
REMARK SMILES CCCCCCCCCCCCCC[C@@H](C)C(=O)[O-]
REMARK SMILES IDX 9 1 10 2 11 3 12 4 13 5 14 6 15 7 16 8 17 9 18 10 19 11 8 12
REMARK SMILES IDX 7 13 6 14 5 15 4 16 3 17 2 18 1 19
REMARK H PARENT
REMARK Flexibility Score: inf
ROOT
ATOM      1  C   UNL     1      15.584  -5.814  15.188  1.00  0.00     0.000 C 
ENDROOT
BRANCH   1   2
ATOM      2  C   UNL     1      17.084  -6.056  14.962  1.00  0.00     0.000 C 
BRANCH   2   3
ATOM      3  C   UNL     1      17.579  -5.312  13.717  1.00  0.00     0.000 C 
BRANCH   3   4
ATOM      4  C   UNL     1      18.498  -6.202  12.868  1.00  0.00     0.000 C 
BRANCH   4   5
ATOM      5  C   UNL     1      17.711  -7.265  12.072  1.00  0.00     0.001 C 
BRANCH   5   6
ATOM      6  C   UNL     1      18.207  -8.705  12.308  1.00  0.00     0.009 C 
BRANCH   6   7
ATOM      7  C   UNL     1      17.336  -9.520  13.290  1.00  0.00     0.032 C 
ATOM      8  C   UNL     1      16.930 -10.857  12.661  1.00  0.00     0.014 C 
BRANCH   7   9
ATOM      9  C   UNL     1      18.047  -9.772  14.594  1.00  0.00     0.044 C 
ATOM     10  O   UNL     1      18.100 -10.932  15.081  1.00  0.00    -0.550 OA
ATOM     11  O   UNL     1      18.613  -8.711  15.290  1.00  0.00    -0.550 OA
ENDBRANCH   7   9
ENDBRANCH   6   7
ENDBRANCH   5   6
ENDBRANCH   4   5
ENDBRANCH   3   4
ENDBRANCH   2   3
ENDBRANCH   1   2
BRANCH   1  12
ATOM     12  C   UNL     1      14.812  -5.613  13.874  1.00  0.00     0.000 C 
BRANCH  12  13
ATOM     13  C   UNL     1      13.920  -6.814  13.522  1.00  0.00    -0.000 C 
BRANCH  13  14
ATOM     14  C   UNL     1      14.261  -7.359  12.129  1.00  0.00    -0.000 C 
BRANCH  14  15
ATOM     15  C   UNL     1      13.838  -8.829  11.995  1.00  0.00    -0.000 C 
BRANCH  15  16
ATOM     16  C   UNL     1      12.666  -9.201  12.921  1.00  0.00    -0.000 C 
BRANCH  16  17
ATOM     17  C   UNL     1      12.341 -10.707  12.993  1.00  0.00    -0.000 C 
BRANCH  17  18
ATOM     18  C   UNL     1      13.534 -11.642  12.725  1.00  0.00    -0.003 C 
ATOM     19  C   UNL     1      13.184 -13.119  12.902  1.00  0.00     0.004 C 
ENDBRANCH  17  18
ENDBRANCH  16  17
ENDBRANCH  15  16
ENDBRANCH  14  15
ENDBRANCH  13  14
ENDBRANCH  12  13
ENDBRANCH   1  12
TORSDOF 14
ENDMDL
MODEL 9
REMARK VINA RESULT:    -3.168      2.561      5.266
REMARK INTER + INTRA:          -7.552
REMARK INTER:                  -6.153
REMARK INTRA:                  -1.399
REMARK UNBOUND:                -1.791
REMARK SMILES CCCCCCCCCCCCCC[C@@H](C)C(=O)[O-]
REMARK SMILES IDX 9 1 10 2 11 3 12 4 13 5 14 6 15 7 16 8 17 9 18 10 19 11 8 12
REMARK SMILES IDX 7 13 6 14 5 15 4 16 3 17 2 18 1 19
REMARK H PARENT
REMARK Flexibility Score: inf
ROOT
ATOM      1  C   UNL     1      14.093  -5.446  15.942  1.00  0.00     0.000 C 
ENDROOT
BRANCH   1   2
ATOM      2  C   UNL     1      15.136  -4.987  16.973  1.00  0.00     0.000 C 
BRANCH   2   3
ATOM      3  C   UNL     1      16.103  -6.125  17.319  1.00  0.00     0.000 C 
BRANCH   3   4
ATOM      4  C   UNL     1      17.346  -6.090  16.418  1.00  0.00     0.000 C 
BRANCH   4   5
ATOM      5  C   UNL     1      17.113  -6.811  15.073  1.00  0.00     0.001 C 
BRANCH   5   6
ATOM      6  C   UNL     1      17.750  -6.089  13.869  1.00  0.00     0.009 C 
BRANCH   6   7
ATOM      7  C   UNL     1      17.915  -6.976  12.616  1.00  0.00     0.032 C 
ATOM      8  C   UNL     1      19.209  -6.621  11.875  1.00  0.00     0.014 C 
BRANCH   7   9
ATOM      9  C   UNL     1      17.920  -8.442  12.963  1.00  0.00     0.044 C 
ATOM     10  O   UNL     1      18.773  -8.908  13.764  1.00  0.00    -0.550 OA
ATOM     11  O   UNL     1      17.005  -9.298  12.364  1.00  0.00    -0.550 OA
ENDBRANCH   7   9
ENDBRANCH   6   7
ENDBRANCH   5   6
ENDBRANCH   4   5
ENDBRANCH   3   4
ENDBRANCH   2   3
ENDBRANCH   1   2
BRANCH   1  12
ATOM     12  C   UNL     1      13.422  -4.271  15.215  1.00  0.00     0.000 C 
BRANCH  12  13
ATOM     13  C   UNL     1      13.148  -4.571  13.733  1.00  0.00    -0.000 C 
BRANCH  13  14
ATOM     14  C   UNL     1      14.450  -4.901  12.991  1.00  0.00    -0.000 C 
BRANCH  14  15
ATOM     15  C   UNL     1      14.295  -6.178  12.151  1.00  0.00    -0.000 C 
BRANCH  15  16
ATOM     16  C   UNL     1      14.236  -7.454  13.008  1.00  0.00    -0.000 C 
BRANCH  16  17
ATOM     17  C   UNL     1      13.155  -8.472  12.593  1.00  0.00    -0.000 C 
BRANCH  17  18
ATOM     18  C   UNL     1      13.568  -9.949  12.723  1.00  0.00    -0.003 C 
ATOM     19  C   UNL     1      12.380 -10.883  12.947  1.00  0.00     0.004 C 
ENDBRANCH  17  18
ENDBRANCH  16  17
ENDBRANCH  15  16
ENDBRANCH  14  15
ENDBRANCH  13  14
ENDBRANCH  12  13
ENDBRANCH   1  12
TORSDOF 14
ENDMDL
