MODEL 1
REMARK VINA RESULT:    -4.421      0.000      0.000
REMARK INTER + INTRA:         -11.341
REMARK INTER:                  -8.298
REMARK INTRA:                  -3.044
REMARK UNBOUND:                -3.044
REMARK SMILES CCCCCC=CCC=CCCCCCCCC(=O)OC
REMARK SMILES IDX 11 1 10 2 9 3 8 4 7 5 6 6 5 7 4 8 3 9 2 10 1 11 12 12 13 13
REMARK SMILES IDX 14 14 15 15 16 16 17 17 18 18 19 19 20 20 21 21
REMARK H PARENT
REMARK Flexibility Score: inf
ROOT
ATOM      1  C   UNL     1     -21.496  -4.394 -11.017  1.00  0.00     0.027 C 
ENDROOT
BRANCH   1   2
ATOM      2  C   UNL     1     -21.721  -2.950 -10.648  1.00  0.00    -0.031 C 
ATOM      3  C   UNL     1     -20.781  -2.128 -10.144  1.00  0.00    -0.027 C 
BRANCH   3   4
ATOM      4  C   UNL     1     -19.365  -2.528  -9.812  1.00  0.00     0.054 C 
BRANCH   4   5
ATOM      5  C   UNL     1     -19.304  -3.113  -8.431  1.00  0.00    -0.027 C 
ATOM      6  C   UNL     1     -19.031  -4.410  -8.233  1.00  0.00    -0.031 C 
BRANCH   6   7
ATOM      7  C   UNL     1     -19.023  -5.018  -6.856  1.00  0.00     0.027 C 
BRANCH   7   8
ATOM      8  C   UNL     1     -19.063  -6.551  -6.914  1.00  0.00     0.004 C 
BRANCH   8   9
ATOM      9  C   UNL     1     -19.344  -7.129  -8.316  1.00  0.00     0.000 C 
BRANCH   9  10
ATOM     10  C   UNL     1     -20.628  -7.972  -8.424  1.00  0.00    -0.003 C 
ATOM     11  C   UNL     1     -21.007  -8.653  -7.109  1.00  0.00     0.004 C 
ENDBRANCH   9  10
ENDBRANCH   8   9
ENDBRANCH   7   8
ENDBRANCH   6   7
ENDBRANCH   4   5
ENDBRANCH   3   4
ENDBRANCH   1   2
BRANCH   1  12
ATOM     12  C   UNL     1     -22.207  -5.332 -10.034  1.00  0.00     0.004 C 
BRANCH  12  13
ATOM     13  C   UNL     1     -23.055  -4.536  -9.031  1.00  0.00     0.000 C 
BRANCH  13  14
ATOM     14  C   UNL     1     -22.676  -4.823  -7.570  1.00  0.00     0.000 C 
BRANCH  14  15
ATOM     15  C   UNL     1     -22.630  -3.550  -6.706  1.00  0.00     0.001 C 
BRANCH  15  16
ATOM     16  C   UNL     1     -22.050  -3.811  -5.307  1.00  0.00     0.012 C 
BRANCH  16  17
ATOM     17  C   UNL     1     -22.318  -5.238  -4.813  1.00  0.00     0.123 C 
BRANCH  17  18
ATOM     18  C   UNL     1     -22.522  -5.247  -3.332  1.00  0.00     0.305 C 
ATOM     19  O   UNL     1     -21.858  -4.462  -2.602  1.00  0.00    -0.252 OA
BRANCH  18  20
ATOM     20  O   UNL     1     -23.478  -6.103  -2.774  1.00  0.00    -0.469 OA
ATOM     21  C   UNL     1     -24.581  -6.609  -3.517  1.00  0.00     0.282 C 
ENDBRANCH  18  20
ENDBRANCH  17  18
ENDBRANCH  16  17
ENDBRANCH  15  16
ENDBRANCH  14  15
ENDBRANCH  13  14
ENDBRANCH  12  13
ENDBRANCH   1  12
TORSDOF 15
ENDMDL
MODEL 2
REMARK VINA RESULT:    -4.350      1.417      2.810
REMARK INTER + INTRA:         -11.209
REMARK INTER:                  -8.470
REMARK INTRA:                  -2.738
REMARK UNBOUND:                -3.044
REMARK SMILES CCCCCC=CCC=CCCCCCCCC(=O)OC
REMARK SMILES IDX 11 1 10 2 9 3 8 4 7 5 6 6 5 7 4 8 3 9 2 10 1 11 12 12 13 13
REMARK SMILES IDX 14 14 15 15 16 16 17 17 18 18 19 19 20 20 21 21
REMARK H PARENT
REMARK Flexibility Score: inf
ROOT
ATOM      1  C   UNL     1     -20.627  -2.094  -9.237  1.00  0.00     0.027 C 
ENDROOT
BRANCH   1   2
ATOM      2  C   UNL     1     -21.197  -2.257 -10.623  1.00  0.00    -0.031 C 
ATOM      3  C   UNL     1     -22.092  -3.197 -10.983  1.00  0.00    -0.027 C 
BRANCH   3   4
ATOM      4  C   UNL     1     -22.630  -4.276 -10.076  1.00  0.00     0.054 C 
BRANCH   4   5
ATOM      5  C   UNL     1     -21.864  -5.550 -10.278  1.00  0.00    -0.027 C 
ATOM      6  C   UNL     1     -21.551  -6.349  -9.248  1.00  0.00    -0.031 C 
BRANCH   6   7
ATOM      7  C   UNL     1     -20.734  -7.600  -9.434  1.00  0.00     0.027 C 
BRANCH   7   8
ATOM      8  C   UNL     1     -19.475  -7.589  -8.556  1.00  0.00     0.004 C 
BRANCH   8   9
ATOM      9  C   UNL     1     -19.574  -8.463  -7.289  1.00  0.00     0.000 C 
BRANCH   9  10
ATOM     10  C   UNL     1     -20.949  -8.449  -6.598  1.00  0.00    -0.003 C 
ATOM     11  C   UNL     1     -21.635  -9.815  -6.603  1.00  0.00     0.004 C 
ENDBRANCH   9  10
ENDBRANCH   8   9
ENDBRANCH   7   8
ENDBRANCH   6   7
ENDBRANCH   4   5
ENDBRANCH   3   4
ENDBRANCH   1   2
BRANCH   1  12
ATOM     12  C   UNL     1     -19.252  -2.763  -9.123  1.00  0.00     0.004 C 
BRANCH  12  13
ATOM     13  C   UNL     1     -19.271  -3.880  -8.069  1.00  0.00     0.000 C 
BRANCH  13  14
ATOM     14  C   UNL     1     -20.491  -3.803  -7.139  1.00  0.00     0.000 C 
BRANCH  14  15
ATOM     15  C   UNL     1     -20.461  -4.868  -6.029  1.00  0.00     0.001 C 
BRANCH  15  16
ATOM     16  C   UNL     1     -21.736  -4.856  -5.171  1.00  0.00     0.012 C 
BRANCH  16  17
ATOM     17  C   UNL     1     -22.973  -5.329  -5.945  1.00  0.00     0.123 C 
BRANCH  17  18
ATOM     18  C   UNL     1     -23.719  -6.359  -5.157  1.00  0.00     0.305 C 
ATOM     19  O   UNL     1     -24.845  -6.761  -5.557  1.00  0.00    -0.252 OA
BRANCH  18  20
ATOM     20  O   UNL     1     -23.139  -6.893  -4.001  1.00  0.00    -0.469 OA
ATOM     21  C   UNL     1     -23.438  -8.200  -3.527  1.00  0.00     0.282 C 
ENDBRANCH  18  20
ENDBRANCH  17  18
ENDBRANCH  16  17
ENDBRANCH  15  16
ENDBRANCH  14  15
ENDBRANCH  13  14
ENDBRANCH  12  13
ENDBRANCH   1  12
TORSDOF 15
ENDMDL
MODEL 3
REMARK VINA RESULT:    -4.318      1.603      3.198
REMARK INTER + INTRA:         -11.147
REMARK INTER:                  -8.352
REMARK INTRA:                  -2.795
REMARK UNBOUND:                -3.044
REMARK SMILES CCCCCC=CCC=CCCCCCCCC(=O)OC
REMARK SMILES IDX 11 1 10 2 9 3 8 4 7 5 6 6 5 7 4 8 3 9 2 10 1 11 12 12 13 13
REMARK SMILES IDX 14 14 15 15 16 16 17 17 18 18 19 19 20 20 21 21
REMARK H PARENT
REMARK Flexibility Score: inf
ROOT
ATOM      1  C   UNL     1     -20.839  -3.688 -10.635  1.00  0.00     0.027 C 
ENDROOT
BRANCH   1   2
ATOM      2  C   UNL     1     -22.118  -4.339 -10.176  1.00  0.00    -0.031 C 
ATOM      3  C   UNL     1     -22.284  -5.662  -9.985  1.00  0.00    -0.027 C 
BRANCH   3   4
ATOM      4  C   UNL     1     -21.239  -6.716 -10.252  1.00  0.00     0.054 C 
BRANCH   4   5
ATOM      5  C   UNL     1     -20.743  -7.291  -8.958  1.00  0.00    -0.027 C 
ATOM      6  C   UNL     1     -19.476  -7.706  -8.818  1.00  0.00    -0.031 C 
BRANCH   6   7
ATOM      7  C   UNL     1     -18.985  -8.335  -7.541  1.00  0.00     0.027 C 
BRANCH   7   8
ATOM      8  C   UNL     1     -20.120  -8.504  -6.521  1.00  0.00     0.004 C 
BRANCH   8   9
ATOM      9  C   UNL     1     -20.635  -9.951  -6.372  1.00  0.00     0.000 C 
BRANCH   9  10
ATOM     10  C   UNL     1     -22.130 -10.073  -6.029  1.00  0.00    -0.003 C 
ATOM     11  C   UNL     1     -22.774  -8.733  -5.675  1.00  0.00     0.004 C 
ENDBRANCH   9  10
ENDBRANCH   8   9
ENDBRANCH   7   8
ENDBRANCH   6   7
ENDBRANCH   4   5
ENDBRANCH   3   4
ENDBRANCH   1   2
BRANCH   1  12
ATOM     12  C   UNL     1     -20.652  -2.313  -9.981  1.00  0.00     0.004 C 
BRANCH  12  13
ATOM     13  C   UNL     1     -19.595  -2.374  -8.868  1.00  0.00     0.000 C 
BRANCH  13  14
ATOM     14  C   UNL     1     -19.029  -3.787  -8.660  1.00  0.00     0.000 C 
BRANCH  14  15
ATOM     15  C   UNL     1     -19.387  -4.373  -7.283  1.00  0.00     0.001 C 
BRANCH  15  16
ATOM     16  C   UNL     1     -20.849  -4.102  -6.892  1.00  0.00     0.012 C 
BRANCH  16  17
ATOM     17  C   UNL     1     -21.399  -5.141  -5.907  1.00  0.00     0.123 C 
BRANCH  17  18
ATOM     18  C   UNL     1     -22.890  -5.050  -5.835  1.00  0.00     0.305 C 
ATOM     19  O   UNL     1     -23.549  -4.707  -6.854  1.00  0.00    -0.252 OA
BRANCH  18  20
ATOM     20  O   UNL     1     -23.542  -5.385  -4.643  1.00  0.00    -0.469 OA
ATOM     21  C   UNL     1     -22.840  -5.761  -3.464  1.00  0.00     0.282 C 
ENDBRANCH  18  20
ENDBRANCH  17  18
ENDBRANCH  16  17
ENDBRANCH  15  16
ENDBRANCH  14  15
ENDBRANCH  13  14
ENDBRANCH  12  13
ENDBRANCH   1  12
TORSDOF 15
ENDMDL
MODEL 4
REMARK VINA RESULT:    -4.270      1.569      3.052
REMARK INTER + INTRA:         -11.059
REMARK INTER:                  -8.231
REMARK INTRA:                  -2.828
REMARK UNBOUND:                -3.044
REMARK SMILES CCCCCC=CCC=CCCCCCCCC(=O)OC
REMARK SMILES IDX 11 1 10 2 9 3 8 4 7 5 6 6 5 7 4 8 3 9 2 10 1 11 12 12 13 13
REMARK SMILES IDX 14 14 15 15 16 16 17 17 18 18 19 19 20 20 21 21
REMARK H PARENT
REMARK Flexibility Score: inf
ROOT
ATOM      1  C   UNL     1     -20.771  -3.641 -10.409  1.00  0.00     0.027 C 
ENDROOT
BRANCH   1   2
ATOM      2  C   UNL     1     -22.094  -4.353 -10.291  1.00  0.00    -0.031 C 
ATOM      3  C   UNL     1     -22.254  -5.690 -10.310  1.00  0.00    -0.027 C 
BRANCH   3   4
ATOM      4  C   UNL     1     -21.146  -6.695 -10.509  1.00  0.00     0.054 C 
BRANCH   4   5
ATOM      5  C   UNL     1     -20.779  -7.323  -9.196  1.00  0.00    -0.027 C 
ATOM      6  C   UNL     1     -19.510  -7.640  -8.904  1.00  0.00    -0.031 C 
BRANCH   6   7
ATOM      7  C   UNL     1     -19.140  -8.322  -7.614  1.00  0.00     0.027 C 
BRANCH   7   8
ATOM      8  C   UNL     1     -20.256  -8.195  -6.568  1.00  0.00     0.004 C 
BRANCH   8   9
ATOM      9  C   UNL     1     -20.865  -9.540  -6.118  1.00  0.00     0.000 C 
BRANCH   9  10
ATOM     10  C   UNL     1     -22.365  -9.490  -5.778  1.00  0.00    -0.003 C 
ATOM     11  C   UNL     1     -22.672  -9.952  -4.354  1.00  0.00     0.004 C 
ENDBRANCH   9  10
ENDBRANCH   8   9
ENDBRANCH   7   8
ENDBRANCH   6   7
ENDBRANCH   4   5
ENDBRANCH   3   4
ENDBRANCH   1   2
BRANCH   1  12
ATOM     12  C   UNL     1     -20.408  -2.930  -9.100  1.00  0.00     0.004 C 
BRANCH  12  13
ATOM     13  C   UNL     1     -19.631  -3.867  -8.163  1.00  0.00     0.000 C 
BRANCH  13  14
ATOM     14  C   UNL     1     -20.475  -4.360  -6.978  1.00  0.00     0.000 C 
BRANCH  14  15
ATOM     15  C   UNL     1     -21.745  -3.518  -6.762  1.00  0.00     0.001 C 
BRANCH  15  16
ATOM     16  C   UNL     1     -23.021  -4.375  -6.738  1.00  0.00     0.012 C 
BRANCH  16  17
ATOM     17  C   UNL     1     -22.770  -5.792  -6.205  1.00  0.00     0.123 C 
BRANCH  17  18
ATOM     18  C   UNL     1     -23.791  -6.147  -5.171  1.00  0.00     0.305 C 
ATOM     19  O   UNL     1     -24.864  -6.713  -5.517  1.00  0.00    -0.252 OA
BRANCH  18  20
ATOM     20  O   UNL     1     -23.526  -5.881  -3.824  1.00  0.00    -0.469 OA
ATOM     21  C   UNL     1     -22.390  -5.138  -3.398  1.00  0.00     0.282 C 
ENDBRANCH  18  20
ENDBRANCH  17  18
ENDBRANCH  16  17
ENDBRANCH  15  16
ENDBRANCH  14  15
ENDBRANCH  13  14
ENDBRANCH  12  13
ENDBRANCH   1  12
TORSDOF 15
ENDMDL
MODEL 5
REMARK VINA RESULT:    -4.208      2.084      4.201
REMARK INTER + INTRA:         -10.941
REMARK INTER:                  -8.134
REMARK INTRA:                  -2.807
REMARK UNBOUND:                -3.044
REMARK SMILES CCCCCC=CCC=CCCCCCCCC(=O)OC
REMARK SMILES IDX 11 1 10 2 9 3 8 4 7 5 6 6 5 7 4 8 3 9 2 10 1 11 12 12 13 13
REMARK SMILES IDX 14 14 15 15 16 16 17 17 18 18 19 19 20 20 21 21
REMARK H PARENT
REMARK Flexibility Score: inf
ROOT
ATOM      1  C   UNL     1     -20.902  -3.925 -10.670  1.00  0.00     0.027 C 
ENDROOT
BRANCH   1   2
ATOM      2  C   UNL     1     -20.401  -2.761  -9.854  1.00  0.00    -0.031 C 
ATOM      3  C   UNL     1     -19.611  -2.865  -8.768  1.00  0.00    -0.027 C 
BRANCH   3   4
ATOM      4  C   UNL     1     -19.141  -4.161  -8.156  1.00  0.00     0.054 C 
BRANCH   4   5
ATOM      5  C   UNL     1     -19.908  -4.444  -6.898  1.00  0.00    -0.027 C 
ATOM      6  C   UNL     1     -21.088  -3.859  -6.652  1.00  0.00    -0.031 C 
BRANCH   6   7
ATOM      7  C   UNL     1     -21.838  -4.094  -5.367  1.00  0.00     0.027 C 
BRANCH   7   8
ATOM      8  C   UNL     1     -22.283  -5.556  -5.232  1.00  0.00     0.004 C 
BRANCH   8   9
ATOM      9  C   UNL     1     -23.547  -5.916  -6.041  1.00  0.00     0.000 C 
BRANCH   9  10
ATOM     10  C   UNL     1     -24.571  -6.786  -5.289  1.00  0.00    -0.003 C 
ATOM     11  C   UNL     1     -24.571  -6.539  -3.781  1.00  0.00     0.004 C 
ENDBRANCH   9  10
ENDBRANCH   8   9
ENDBRANCH   7   8
ENDBRANCH   6   7
ENDBRANCH   4   5
ENDBRANCH   3   4
ENDBRANCH   1   2
BRANCH   1  12
ATOM     12  C   UNL     1     -22.271  -4.402 -10.169  1.00  0.00     0.004 C 
BRANCH  12  13
ATOM     13  C   UNL     1     -22.161  -5.783  -9.504  1.00  0.00     0.000 C 
BRANCH  13  14
ATOM     14  C   UNL     1     -21.130  -6.694 -10.187  1.00  0.00     0.000 C 
BRANCH  14  15
ATOM     15  C   UNL     1     -20.294  -7.505  -9.181  1.00  0.00     0.001 C 
BRANCH  15  16
ATOM     16  C   UNL     1     -21.090  -7.871  -7.918  1.00  0.00     0.012 C 
BRANCH  16  17
ATOM     17  C   UNL     1     -20.227  -8.564  -6.856  1.00  0.00     0.123 C 
BRANCH  17  18
ATOM     18  C   UNL     1     -21.050  -9.533  -6.068  1.00  0.00     0.305 C 
ATOM     19  O   UNL     1     -22.304  -9.406  -6.030  1.00  0.00    -0.252 OA
BRANCH  18  20
ATOM     20  O   UNL     1     -20.420 -10.594  -5.410  1.00  0.00    -0.469 OA
ATOM     21  C   UNL     1     -19.078 -10.979  -5.685  1.00  0.00     0.282 C 
ENDBRANCH  18  20
ENDBRANCH  17  18
ENDBRANCH  16  17
ENDBRANCH  15  16
ENDBRANCH  14  15
ENDBRANCH  13  14
ENDBRANCH  12  13
ENDBRANCH   1  12
TORSDOF 15
ENDMDL
MODEL 6
REMARK VINA RESULT:    -4.202      1.429      2.664
REMARK INTER + INTRA:         -10.931
REMARK INTER:                  -8.166
REMARK INTRA:                  -2.765
REMARK UNBOUND:                -3.044
REMARK SMILES CCCCCC=CCC=CCCCCCCCC(=O)OC
REMARK SMILES IDX 11 1 10 2 9 3 8 4 7 5 6 6 5 7 4 8 3 9 2 10 1 11 12 12 13 13
REMARK SMILES IDX 14 14 15 15 16 16 17 17 18 18 19 19 20 20 21 21
REMARK H PARENT
REMARK Flexibility Score: inf
ROOT
ATOM      1  C   UNL     1     -21.289  -2.671  -9.192  1.00  0.00     0.027 C 
ENDROOT
BRANCH   1   2
ATOM      2  C   UNL     1     -20.844  -3.334 -10.471  1.00  0.00    -0.031 C 
ATOM      3  C   UNL     1     -21.180  -4.583 -10.848  1.00  0.00    -0.027 C 
BRANCH   3   4
ATOM      4  C   UNL     1     -22.009  -5.543 -10.032  1.00  0.00     0.054 C 
BRANCH   4   5
ATOM      5  C   UNL     1     -21.216  -6.781  -9.730  1.00  0.00    -0.027 C 
ATOM      6  C   UNL     1     -20.111  -6.734  -8.972  1.00  0.00    -0.031 C 
BRANCH   6   7
ATOM      7  C   UNL     1     -19.278  -7.961  -8.709  1.00  0.00     0.027 C 
BRANCH   7   8
ATOM      8  C   UNL     1     -18.988  -8.137  -7.212  1.00  0.00     0.004 C 
BRANCH   8   9
ATOM      9  C   UNL     1     -20.244  -8.317  -6.335  1.00  0.00     0.000 C 
BRANCH   9  10
ATOM     10  C   UNL     1     -21.267  -9.336  -6.871  1.00  0.00    -0.003 C 
ATOM     11  C   UNL     1     -21.335 -10.611  -6.032  1.00  0.00     0.004 C 
ENDBRANCH   9  10
ENDBRANCH   8   9
ENDBRANCH   7   8
ENDBRANCH   6   7
ENDBRANCH   4   5
ENDBRANCH   3   4
ENDBRANCH   1   2
BRANCH   1  12
ATOM     12  C   UNL     1     -20.430  -3.125  -8.006  1.00  0.00     0.004 C 
BRANCH  12  13
ATOM     13  C   UNL     1     -21.305  -3.703  -6.884  1.00  0.00     0.000 C 
BRANCH  13  14
ATOM     14  C   UNL     1     -22.805  -3.462  -7.114  1.00  0.00     0.000 C 
BRANCH  14  15
ATOM     15  C   UNL     1     -23.656  -4.717  -6.852  1.00  0.00     0.001 C 
BRANCH  15  16
ATOM     16  C   UNL     1     -22.808  -5.917  -6.400  1.00  0.00     0.012 C 
BRANCH  16  17
ATOM     17  C   UNL     1     -23.506  -6.764  -5.329  1.00  0.00     0.123 C 
BRANCH  17  18
ATOM     18  C   UNL     1     -22.919  -6.487  -3.982  1.00  0.00     0.305 C 
ATOM     19  O   UNL     1     -22.491  -7.441  -3.276  1.00  0.00    -0.252 OA
BRANCH  18  20
ATOM     20  O   UNL     1     -22.816  -5.166  -3.535  1.00  0.00    -0.469 OA
ATOM     21  C   UNL     1     -21.575  -4.575  -3.168  1.00  0.00     0.282 C 
ENDBRANCH  18  20
ENDBRANCH  17  18
ENDBRANCH  16  17
ENDBRANCH  15  16
ENDBRANCH  14  15
ENDBRANCH  13  14
ENDBRANCH  12  13
ENDBRANCH   1  12
TORSDOF 15
ENDMDL
MODEL 7
REMARK VINA RESULT:    -4.196      2.147      3.803
REMARK INTER + INTRA:         -10.918
REMARK INTER:                  -7.951
REMARK INTRA:                  -2.967
REMARK UNBOUND:                -3.044
REMARK SMILES CCCCCC=CCC=CCCCCCCCC(=O)OC
REMARK SMILES IDX 11 1 10 2 9 3 8 4 7 5 6 6 5 7 4 8 3 9 2 10 1 11 12 12 13 13
REMARK SMILES IDX 14 14 15 15 16 16 17 17 18 18 19 19 20 20 21 21
REMARK H PARENT
REMARK Flexibility Score: inf
ROOT
ATOM      1  C   UNL     1     -21.499  -4.601 -11.026  1.00  0.00     0.027 C 
ENDROOT
BRANCH   1   2
ATOM      2  C   UNL     1     -22.067  -3.266 -10.619  1.00  0.00    -0.031 C 
ATOM      3  C   UNL     1     -21.395  -2.319  -9.936  1.00  0.00    -0.027 C 
BRANCH   3   4
ATOM      4  C   UNL     1     -19.986  -2.458  -9.415  1.00  0.00     0.054 C 
BRANCH   4   5
ATOM      5  C   UNL     1     -20.000  -3.073  -8.047  1.00  0.00    -0.027 C 
ATOM      6  C   UNL     1     -19.453  -4.276  -7.816  1.00  0.00    -0.031 C 
BRANCH   6   7
ATOM      7  C   UNL     1     -19.512  -4.925  -6.459  1.00  0.00     0.027 C 
BRANCH   7   8
ATOM      8  C   UNL     1     -20.871  -4.699  -5.782  1.00  0.00     0.004 C 
BRANCH   8   9
ATOM      9  C   UNL     1     -21.934  -5.768  -6.111  1.00  0.00     0.000 C 
BRANCH   9  10
ATOM     10  C   UNL     1     -23.278  -5.212  -6.612  1.00  0.00    -0.003 C 
ATOM     11  C   UNL     1     -23.218  -3.724  -6.958  1.00  0.00     0.004 C 
ENDBRANCH   9  10
ENDBRANCH   8   9
ENDBRANCH   7   8
ENDBRANCH   6   7
ENDBRANCH   4   5
ENDBRANCH   3   4
ENDBRANCH   1   2
BRANCH   1  12
ATOM     12  C   UNL     1     -21.981  -5.715 -10.089  1.00  0.00     0.004 C 
BRANCH  12  13
ATOM     13  C   UNL     1     -21.061  -6.942 -10.176  1.00  0.00     0.000 C 
BRANCH  13  14
ATOM     14  C   UNL     1     -20.753  -7.556  -8.802  1.00  0.00     0.000 C 
BRANCH  14  15
ATOM     15  C   UNL     1     -19.268  -7.922  -8.634  1.00  0.00     0.001 C 
BRANCH  15  16
ATOM     16  C   UNL     1     -18.970  -8.546  -7.261  1.00  0.00     0.012 C 
BRANCH  16  17
ATOM     17  C   UNL     1     -20.221  -9.129  -6.592  1.00  0.00     0.123 C 
BRANCH  17  18
ATOM     18  C   UNL     1     -19.972  -9.363  -5.136  1.00  0.00     0.305 C 
ATOM     19  O   UNL     1     -18.941  -8.883  -4.590  1.00  0.00    -0.252 OA
BRANCH  18  20
ATOM     20  O   UNL     1     -20.907 -10.083  -4.386  1.00  0.00    -0.469 OA
ATOM     21  C   UNL     1     -21.582 -11.228  -4.895  1.00  0.00     0.282 C 
ENDBRANCH  18  20
ENDBRANCH  17  18
ENDBRANCH  16  17
ENDBRANCH  15  16
ENDBRANCH  14  15
ENDBRANCH  13  14
ENDBRANCH  12  13
ENDBRANCH   1  12
TORSDOF 15
ENDMDL
MODEL 8
REMARK VINA RESULT:    -4.193      1.332      2.851
REMARK INTER + INTRA:         -10.914
REMARK INTER:                  -8.172
REMARK INTRA:                  -2.742
REMARK UNBOUND:                -3.044
REMARK SMILES CCCCCC=CCC=CCCCCCCCC(=O)OC
REMARK SMILES IDX 11 1 10 2 9 3 8 4 7 5 6 6 5 7 4 8 3 9 2 10 1 11 12 12 13 13
REMARK SMILES IDX 14 14 15 15 16 16 17 17 18 18 19 19 20 20 21 21
REMARK H PARENT
REMARK Flexibility Score: inf
ROOT
ATOM      1  C   UNL     1     -21.537  -3.083 -10.581  1.00  0.00     0.027 C 
ENDROOT
BRANCH   1   2
ATOM      2  C   UNL     1     -22.522  -3.875  -9.759  1.00  0.00    -0.031 C 
ATOM      3  C   UNL     1     -22.649  -5.216  -9.791  1.00  0.00    -0.027 C 
BRANCH   3   4
ATOM      4  C   UNL     1     -21.868  -6.141 -10.691  1.00  0.00     0.054 C 
BRANCH   4   5
ATOM      5  C   UNL     1     -20.656  -6.657  -9.974  1.00  0.00    -0.027 C 
ATOM      6  C   UNL     1     -20.763  -7.507  -8.942  1.00  0.00    -0.031 C 
BRANCH   6   7
ATOM      7  C   UNL     1     -19.556  -7.986  -8.180  1.00  0.00     0.027 C 
BRANCH   7   8
ATOM      8  C   UNL     1     -19.949  -8.620  -6.839  1.00  0.00     0.004 C 
BRANCH   8   9
ATOM      9  C   UNL     1     -21.469  -8.780  -6.630  1.00  0.00     0.000 C 
BRANCH   9  10
ATOM     10  C   UNL     1     -21.965 -10.237  -6.579  1.00  0.00    -0.003 C 
ATOM     11  C   UNL     1     -20.981 -11.179  -5.888  1.00  0.00     0.004 C 
ENDBRANCH   9  10
ENDBRANCH   8   9
ENDBRANCH   7   8
ENDBRANCH   6   7
ENDBRANCH   4   5
ENDBRANCH   3   4
ENDBRANCH   1   2
BRANCH   1  12
ATOM     12  C   UNL     1     -20.476  -2.427  -9.688  1.00  0.00     0.004 C 
BRANCH  12  13
ATOM     13  C   UNL     1     -19.272  -3.360  -9.490  1.00  0.00     0.000 C 
BRANCH  13  14
ATOM     14  C   UNL     1     -19.170  -3.905  -8.057  1.00  0.00     0.000 C 
BRANCH  14  15
ATOM     15  C   UNL     1     -20.421  -3.599  -7.214  1.00  0.00     0.001 C 
BRANCH  15  16
ATOM     16  C   UNL     1     -20.937  -4.835  -6.460  1.00  0.00     0.012 C 
BRANCH  16  17
ATOM     17  C   UNL     1     -22.418  -4.719  -6.079  1.00  0.00     0.123 C 
BRANCH  17  18
ATOM     18  C   UNL     1     -22.601  -4.978  -4.617  1.00  0.00     0.305 C 
ATOM     19  O   UNL     1     -22.022  -4.243  -3.772  1.00  0.00    -0.252 OA
BRANCH  18  20
ATOM     20  O   UNL     1     -23.447  -6.012  -4.203  1.00  0.00    -0.469 OA
ATOM     21  C   UNL     1     -24.368  -6.648  -5.082  1.00  0.00     0.282 C 
ENDBRANCH  18  20
ENDBRANCH  17  18
ENDBRANCH  16  17
ENDBRANCH  15  16
ENDBRANCH  14  15
ENDBRANCH  13  14
ENDBRANCH  12  13
ENDBRANCH   1  12
TORSDOF 15
ENDMDL
MODEL 9
REMARK VINA RESULT:    -4.007      1.236      2.642
REMARK INTER + INTRA:         -10.564
REMARK INTER:                  -7.696
REMARK INTRA:                  -2.867
REMARK UNBOUND:                -3.044
REMARK SMILES CCCCCC=CCC=CCCCCCCCC(=O)OC
REMARK SMILES IDX 11 1 10 2 9 3 8 4 7 5 6 6 5 7 4 8 3 9 2 10 1 11 12 12 13 13
REMARK SMILES IDX 14 14 15 15 16 16 17 17 18 18 19 19 20 20 21 21
REMARK H PARENT
REMARK Flexibility Score: inf
ROOT
ATOM      1  C   UNL     1     -20.319  -3.058 -10.570  1.00  0.00     0.027 C 
ENDROOT
BRANCH   1   2
ATOM      2  C   UNL     1     -21.787  -3.236 -10.278  1.00  0.00    -0.031 C 
ATOM      3  C   UNL     1     -22.445  -4.411 -10.327  1.00  0.00    -0.027 C 
BRANCH   3   4
ATOM      4  C   UNL     1     -21.837  -5.730 -10.737  1.00  0.00     0.054 C 
BRANCH   4   5
ATOM      5  C   UNL     1     -21.460  -6.524  -9.521  1.00  0.00    -0.027 C 
ATOM      6  C   UNL     1     -20.255  -7.101  -9.409  1.00  0.00    -0.031 C 
BRANCH   6   7
ATOM      7  C   UNL     1     -19.888  -7.946  -8.218  1.00  0.00     0.027 C 
BRANCH   7   8
ATOM      8  C   UNL     1     -21.125  -8.329  -7.394  1.00  0.00     0.004 C 
BRANCH   8   9
ATOM      9  C   UNL     1     -20.982  -8.084  -5.877  1.00  0.00     0.000 C 
BRANCH   9  10
ATOM     10  C   UNL     1     -19.533  -8.076  -5.356  1.00  0.00    -0.003 C 
ATOM     11  C   UNL     1     -19.144  -6.756  -4.692  1.00  0.00     0.004 C 
ENDBRANCH   9  10
ENDBRANCH   8   9
ENDBRANCH   7   8
ENDBRANCH   6   7
ENDBRANCH   4   5
ENDBRANCH   3   4
ENDBRANCH   1   2
BRANCH   1  12
ATOM     12  C   UNL     1     -19.466  -3.392  -9.340  1.00  0.00     0.004 C 
BRANCH  12  13
ATOM     13  C   UNL     1     -20.198  -3.011  -8.045  1.00  0.00     0.000 C 
BRANCH  13  14
ATOM     14  C   UNL     1     -20.267  -4.167  -7.035  1.00  0.00     0.000 C 
BRANCH  14  15
ATOM     15  C   UNL     1     -21.711  -4.562  -6.680  1.00  0.00     0.001 C 
BRANCH  15  16
ATOM     16  C   UNL     1     -22.277  -3.732  -5.517  1.00  0.00     0.012 C 
BRANCH  16  17
ATOM     17  C   UNL     1     -21.710  -4.159  -4.157  1.00  0.00     0.123 C 
BRANCH  17  18
ATOM     18  C   UNL     1     -22.484  -5.316  -3.611  1.00  0.00     0.305 C 
ATOM     19  O   UNL     1     -22.037  -5.960  -2.622  1.00  0.00    -0.252 OA
BRANCH  18  20
ATOM     20  O   UNL     1     -23.717  -5.650  -4.181  1.00  0.00    -0.469 OA
ATOM     21  C   UNL     1     -24.532  -6.705  -3.685  1.00  0.00     0.282 C 
ENDBRANCH  18  20
ENDBRANCH  17  18
ENDBRANCH  16  17
ENDBRANCH  15  16
ENDBRANCH  14  15
ENDBRANCH  13  14
ENDBRANCH  12  13
ENDBRANCH   1  12
TORSDOF 15
ENDMDL
