MODEL 1
REMARK VINA RESULT:    -3.843      0.000      0.000
REMARK INTER + INTRA:          -5.876
REMARK INTER:                  -5.641
REMARK INTRA:                  -0.235
REMARK UNBOUND:                -0.235
REMARK SMILES O=C([O-])CCCCCCCC(=O)[O-]
REMARK SMILES IDX 7 1 6 2 5 3 4 4 2 5 1 6 3 7 8 8 9 9 10 10 11 11 12 12 13 13
REMARK H PARENT
REMARK Flexibility Score: inf
ROOT
ATOM      1  C   UNL     1     153.499 132.751 164.408  1.00  0.00     0.000 C 
ENDROOT
BRANCH   1   2
ATOM      2  C   UNL     1     152.675 131.907 163.421  1.00  0.00     0.000 C 
BRANCH   2   3
ATOM      3  C   UNL     1     151.165 131.980 163.694  1.00  0.00     0.006 C 
BRANCH   3   4
ATOM      4  C   UNL     1     150.746 133.406 164.068  1.00  0.00     0.053 C 
BRANCH   4   5
ATOM      5  C   UNL     1     149.420 133.739 163.462  1.00  0.00     0.041 C 
ATOM      6  O   UNL     1     149.024 133.132 162.433  1.00  0.00    -0.550 OA
ATOM      7  O   UNL     1     148.643 134.755 164.005  1.00  0.00    -0.550 OA
ENDBRANCH   4   5
ENDBRANCH   3   4
ENDBRANCH   2   3
ENDBRANCH   1   2
BRANCH   1   8
ATOM      8  C   UNL     1     153.975 131.939 165.625  1.00  0.00     0.000 C 
BRANCH   8   9
ATOM      9  C   UNL     1     155.457 132.187 165.964  1.00  0.00     0.006 C 
BRANCH   9  10
ATOM     10  C   UNL     1     155.746 132.352 167.465  1.00  0.00     0.053 C 
BRANCH  10  11
ATOM     11  C   UNL     1     157.019 133.101 167.712  1.00  0.00     0.041 C 
ATOM     12  O   UNL     1     158.122 132.495 167.704  1.00  0.00    -0.550 OA
ATOM     13  O   UNL     1     156.984 134.463 167.982  1.00  0.00    -0.550 OA
ENDBRANCH  10  11
ENDBRANCH   9  10
ENDBRANCH   8   9
ENDBRANCH   1   8
TORSDOF 8
ENDMDL
MODEL 2
REMARK VINA RESULT:    -3.719      3.271      8.647
REMARK INTER + INTRA:          -5.694
REMARK INTER:                  -5.362
REMARK INTRA:                  -0.332
REMARK UNBOUND:                -0.235
REMARK SMILES O=C([O-])CCCCCCCC(=O)[O-]
REMARK SMILES IDX 7 1 6 2 5 3 4 4 2 5 1 6 3 7 8 8 9 9 10 10 11 11 12 12 13 13
REMARK H PARENT
REMARK Flexibility Score: inf
ROOT
ATOM      1  C   UNL     1     148.909 132.489 164.027  1.00  0.00     0.000 C 
ENDROOT
BRANCH   1   2
ATOM      2  C   UNL     1     150.197 132.787 163.243  1.00  0.00     0.000 C 
BRANCH   2   3
ATOM      3  C   UNL     1     151.379 131.911 163.687  1.00  0.00     0.006 C 
BRANCH   3   4
ATOM      4  C   UNL     1     151.761 132.206 165.142  1.00  0.00     0.053 C 
BRANCH   4   5
ATOM      5  C   UNL     1     153.153 132.746 165.219  1.00  0.00     0.041 C 
ATOM      6  O   UNL     1     153.354 133.988 165.189  1.00  0.00    -0.550 OA
ATOM      7  O   UNL     1     154.235 131.875 165.272  1.00  0.00    -0.550 OA
ENDBRANCH   4   5
ENDBRANCH   3   4
ENDBRANCH   2   3
ENDBRANCH   1   2
BRANCH   1   8
ATOM      8  C   UNL     1     147.670 132.402 163.118  1.00  0.00     0.000 C 
BRANCH   8   9
ATOM      9  C   UNL     1     147.730 133.387 161.936  1.00  0.00     0.006 C 
BRANCH   9  10
ATOM     10  C   UNL     1     146.845 132.998 160.740  1.00  0.00     0.053 C 
BRANCH  10  11
ATOM     11  C   UNL     1     145.387 133.072 161.074  1.00  0.00     0.041 C 
ATOM     12  O   UNL     1     144.913 134.104 161.618  1.00  0.00    -0.550 OA
ATOM     13  O   UNL     1     144.557 131.989 160.815  1.00  0.00    -0.550 OA
ENDBRANCH  10  11
ENDBRANCH   9  10
ENDBRANCH   8   9
ENDBRANCH   1   8
TORSDOF 8
ENDMDL
MODEL 3
REMARK VINA RESULT:    -3.674      2.357      3.596
REMARK INTER + INTRA:          -5.627
REMARK INTER:                  -5.274
REMARK INTRA:                  -0.353
REMARK UNBOUND:                -0.235
REMARK SMILES O=C([O-])CCCCCCCC(=O)[O-]
REMARK SMILES IDX 7 1 6 2 5 3 4 4 2 5 1 6 3 7 8 8 9 9 10 10 11 11 12 12 13 13
REMARK H PARENT
REMARK Flexibility Score: inf
ROOT
ATOM      1  C   UNL     1     150.662 133.227 164.361  1.00  0.00     0.000 C 
ENDROOT
BRANCH   1   2
ATOM      2  C   UNL     1     149.135 133.075 164.453  1.00  0.00     0.000 C 
BRANCH   2   3
ATOM      3  C   UNL     1     148.520 132.479 163.178  1.00  0.00     0.006 C 
BRANCH   3   4
ATOM      4  C   UNL     1     146.989 132.539 163.229  1.00  0.00     0.053 C 
BRANCH   4   5
ATOM      5  C   UNL     1     146.439 133.001 161.918  1.00  0.00     0.041 C 
ATOM      6  O   UNL     1     147.197 133.125 160.920  1.00  0.00    -0.550 OA
ATOM      7  O   UNL     1     145.097 133.344 161.809  1.00  0.00    -0.550 OA
ENDBRANCH   4   5
ENDBRANCH   3   4
ENDBRANCH   2   3
ENDBRANCH   1   2
BRANCH   1   8
ATOM      8  C   UNL     1     151.292 132.257 163.346  1.00  0.00     0.000 C 
BRANCH   8   9
ATOM      9  C   UNL     1     152.740 131.875 163.707  1.00  0.00     0.006 C 
BRANCH   9  10
ATOM     10  C   UNL     1     153.085 132.033 165.198  1.00  0.00     0.053 C 
BRANCH  10  11
ATOM     11  C   UNL     1     154.363 132.788 165.401  1.00  0.00     0.041 C 
ATOM     12  O   UNL     1     154.398 134.034 165.226  1.00  0.00    -0.550 OA
ATOM     13  O   UNL     1     155.523 132.108 165.752  1.00  0.00    -0.550 OA
ENDBRANCH  10  11
ENDBRANCH   9  10
ENDBRANCH   8   9
ENDBRANCH   1   8
TORSDOF 8
ENDMDL
MODEL 4
REMARK VINA RESULT:    -3.641      2.019      7.785
REMARK INTER + INTRA:          -5.579
REMARK INTER:                  -5.382
REMARK INTRA:                  -0.196
REMARK UNBOUND:                -0.235
REMARK SMILES O=C([O-])CCCCCCCC(=O)[O-]
REMARK SMILES IDX 7 1 6 2 5 3 4 4 2 5 1 6 3 7 8 8 9 9 10 10 11 11 12 12 13 13
REMARK H PARENT
REMARK Flexibility Score: inf
ROOT
ATOM      1  C   UNL     1     151.557 132.734 163.879  1.00  0.00     0.000 C 
ENDROOT
BRANCH   1   2
ATOM      2  C   UNL     1     152.765 131.913 164.361  1.00  0.00     0.000 C 
BRANCH   2   3
ATOM      3  C   UNL     1     153.904 132.793 164.897  1.00  0.00     0.006 C 
BRANCH   3   4
ATOM      4  C   UNL     1     154.821 131.993 165.829  1.00  0.00     0.053 C 
BRANCH   4   5
ATOM      5  C   UNL     1     154.653 132.446 167.244  1.00  0.00     0.041 C 
ATOM      6  O   UNL     1     155.634 132.434 168.034  1.00  0.00    -0.550 OA
ATOM      7  O   UNL     1     153.402 132.834 167.707  1.00  0.00    -0.550 OA
ENDBRANCH   4   5
ENDBRANCH   3   4
ENDBRANCH   2   3
ENDBRANCH   1   2
BRANCH   1   8
ATOM      8  C   UNL     1     150.285 131.880 163.729  1.00  0.00     0.000 C 
BRANCH   8   9
ATOM      9  C   UNL     1     148.999 132.727 163.710  1.00  0.00     0.006 C 
BRANCH   9  10
ATOM     10  C   UNL     1     148.615 133.267 162.322  1.00  0.00     0.053 C 
BRANCH  10  11
ATOM     11  C   UNL     1     147.197 132.943 161.967  1.00  0.00     0.041 C 
ATOM     12  O   UNL     1     146.421 132.458 162.832  1.00  0.00    -0.550 OA
ATOM     13  O   UNL     1     146.741 133.147 160.670  1.00  0.00    -0.550 OA
ENDBRANCH  10  11
ENDBRANCH   9  10
ENDBRANCH   8   9
ENDBRANCH   1   8
TORSDOF 8
ENDMDL
MODEL 5
REMARK VINA RESULT:    -3.635      0.979      7.504
REMARK INTER + INTRA:          -5.571
REMARK INTER:                  -5.379
REMARK INTRA:                  -0.191
REMARK UNBOUND:                -0.235
REMARK SMILES O=C([O-])CCCCCCCC(=O)[O-]
REMARK SMILES IDX 7 1 6 2 5 3 4 4 2 5 1 6 3 7 8 8 9 9 10 10 11 11 12 12 13 13
REMARK H PARENT
REMARK Flexibility Score: inf
ROOT
ATOM      1  C   UNL     1     153.221 131.875 164.643  1.00  0.00     0.000 C 
ENDROOT
BRANCH   1   2
ATOM      2  C   UNL     1     154.308 132.853 165.119  1.00  0.00     0.000 C 
BRANCH   2   3
ATOM      3  C   UNL     1     155.417 132.160 165.925  1.00  0.00     0.006 C 
BRANCH   3   4
ATOM      4  C   UNL     1     155.344 132.552 167.405  1.00  0.00     0.053 C 
BRANCH   4   5
ATOM      5  C   UNL     1     156.711 132.576 168.009  1.00  0.00     0.041 C 
ATOM      6  O   UNL     1     156.884 133.037 169.168  1.00  0.00    -0.550 OA
ATOM      7  O   UNL     1     157.805 132.135 167.274  1.00  0.00    -0.550 OA
ENDBRANCH   4   5
ENDBRANCH   3   4
ENDBRANCH   2   3
ENDBRANCH   1   2
BRANCH   1   8
ATOM      8  C   UNL     1     152.109 132.574 163.841  1.00  0.00     0.000 C 
BRANCH   8   9
ATOM      9  C   UNL     1     150.750 132.553 164.564  1.00  0.00     0.006 C 
BRANCH   9  10
ATOM     10  C   UNL     1     149.559 132.172 163.668  1.00  0.00     0.053 C 
BRANCH  10  11
ATOM     11  C   UNL     1     148.860 133.379 163.122  1.00  0.00     0.041 C 
ATOM     12  O   UNL     1     148.305 133.333 161.993  1.00  0.00    -0.550 OA
ATOM     13  O   UNL     1     148.851 134.564 163.846  1.00  0.00    -0.550 OA
ENDBRANCH  10  11
ENDBRANCH   9  10
ENDBRANCH   8   9
ENDBRANCH   1   8
TORSDOF 8
ENDMDL
MODEL 6
REMARK VINA RESULT:    -3.621      1.566      2.448
REMARK INTER + INTRA:          -5.549
REMARK INTER:                  -5.197
REMARK INTRA:                  -0.352
REMARK UNBOUND:                -0.235
REMARK SMILES O=C([O-])CCCCCCCC(=O)[O-]
REMARK SMILES IDX 7 1 6 2 5 3 4 4 2 5 1 6 3 7 8 8 9 9 10 10 11 11 12 12 13 13
REMARK H PARENT
REMARK Flexibility Score: inf
ROOT
ATOM      1  C   UNL     1     154.515 133.665 166.310  1.00  0.00     0.000 C 
ENDROOT
BRANCH   1   2
ATOM      2  C   UNL     1     154.210 133.203 164.875  1.00  0.00     0.000 C 
BRANCH   2   3
ATOM      3  C   UNL     1     153.440 131.875 164.830  1.00  0.00     0.006 C 
BRANCH   3   4
ATOM      4  C   UNL     1     152.417 131.875 163.688  1.00  0.00     0.053 C 
BRANCH   4   5
ATOM      5  C   UNL     1     151.063 132.253 164.197  1.00  0.00     0.041 C 
ATOM      6  O   UNL     1     150.852 132.335 165.436  1.00  0.00    -0.550 OA
ATOM      7  O   UNL     1     150.019 132.466 163.305  1.00  0.00    -0.550 OA
ENDBRANCH   4   5
ENDBRANCH   3   4
ENDBRANCH   2   3
ENDBRANCH   1   2
BRANCH   1   8
ATOM      8  C   UNL     1     155.165 132.559 167.161  1.00  0.00     0.000 C 
BRANCH   8   9
ATOM      9  C   UNL     1     156.634 132.299 166.776  1.00  0.00     0.006 C 
BRANCH   9  10
ATOM     10  C   UNL     1     157.655 133.127 167.575  1.00  0.00     0.053 C 
BRANCH  10  11
ATOM     11  C   UNL     1     157.147 133.479 168.939  1.00  0.00     0.041 C 
ATOM     12  O   UNL     1     156.773 134.654 169.192  1.00  0.00    -0.550 OA
ATOM     13  O   UNL     1     157.117 132.516 169.940  1.00  0.00    -0.550 OA
ENDBRANCH  10  11
ENDBRANCH   9  10
ENDBRANCH   8   9
ENDBRANCH   1   8
TORSDOF 8
ENDMDL
MODEL 7
REMARK VINA RESULT:    -3.618      1.510      2.354
REMARK INTER + INTRA:          -5.544
REMARK INTER:                  -5.301
REMARK INTRA:                  -0.244
REMARK UNBOUND:                -0.235
REMARK SMILES O=C([O-])CCCCCCCC(=O)[O-]
REMARK SMILES IDX 7 1 6 2 5 3 4 4 2 5 1 6 3 7 8 8 9 9 10 10 11 11 12 12 13 13
REMARK H PARENT
REMARK Flexibility Score: inf
ROOT
ATOM      1  C   UNL     1     151.443 132.172 164.848  1.00  0.00     0.000 C 
ENDROOT
BRANCH   1   2
ATOM      2  C   UNL     1     150.532 133.305 164.347  1.00  0.00     0.000 C 
BRANCH   2   3
ATOM      3  C   UNL     1     149.911 133.004 162.974  1.00  0.00     0.006 C 
BRANCH   3   4
ATOM      4  C   UNL     1     148.411 132.721 163.103  1.00  0.00     0.053 C 
BRANCH   4   5
ATOM      5  C   UNL     1     147.635 133.546 162.127  1.00  0.00     0.041 C 
ATOM      6  O   UNL     1     147.216 134.687 162.455  1.00  0.00    -0.550 OA
ATOM      7  O   UNL     1     147.331 133.036 160.871  1.00  0.00    -0.550 OA
ENDBRANCH   4   5
ENDBRANCH   3   4
ENDBRANCH   2   3
ENDBRANCH   1   2
BRANCH   1   8
ATOM      8  C   UNL     1     152.726 132.031 164.011  1.00  0.00     0.000 C 
BRANCH   8   9
ATOM      9  C   UNL     1     153.975 132.553 164.745  1.00  0.00     0.006 C 
BRANCH   9  10
ATOM     10  C   UNL     1     154.246 131.875 166.099  1.00  0.00     0.053 C 
BRANCH  10  11
ATOM     11  C   UNL     1     155.297 132.595 166.886  1.00  0.00     0.041 C 
ATOM     12  O   UNL     1     156.504 132.253 166.793  1.00  0.00    -0.550 OA
ATOM     13  O   UNL     1     154.937 133.624 167.748  1.00  0.00    -0.550 OA
ENDBRANCH  10  11
ENDBRANCH   9  10
ENDBRANCH   8   9
ENDBRANCH   1   8
TORSDOF 8
ENDMDL
MODEL 8
REMARK VINA RESULT:    -3.603      3.399      6.790
REMARK INTER + INTRA:          -5.524
REMARK INTER:                  -5.075
REMARK INTRA:                  -0.449
REMARK UNBOUND:                -0.235
REMARK SMILES O=C([O-])CCCCCCCC(=O)[O-]
REMARK SMILES IDX 7 1 6 2 5 3 4 4 2 5 1 6 3 7 8 8 9 9 10 10 11 11 12 12 13 13
REMARK H PARENT
REMARK Flexibility Score: inf
ROOT
ATOM      1  C   UNL     1     157.326 133.896 168.189  1.00  0.00     0.000 C 
ENDROOT
BRANCH   1   2
ATOM      2  C   UNL     1     156.224 134.966 168.103  1.00  0.00     0.000 C 
BRANCH   2   3
ATOM      3  C   UNL     1     156.588 136.116 167.151  1.00  0.00     0.006 C 
BRANCH   3   4
ATOM      4  C   UNL     1     156.811 137.418 167.928  1.00  0.00     0.053 C 
BRANCH   4   5
ATOM      5  C   UNL     1     157.016 138.561 166.986  1.00  0.00     0.041 C 
ATOM      6  O   UNL     1     158.008 139.325 167.122  1.00  0.00    -0.550 OA
ATOM      7  O   UNL     1     156.085 138.816 165.987  1.00  0.00    -0.550 OA
ENDBRANCH   4   5
ENDBRANCH   3   4
ENDBRANCH   2   3
ENDBRANCH   1   2
BRANCH   1   8
ATOM      8  C   UNL     1     156.888 132.548 167.589  1.00  0.00     0.000 C 
BRANCH   8   9
ATOM      9  C   UNL     1     155.394 132.519 167.217  1.00  0.00     0.006 C 
BRANCH   9  10
ATOM     10  C   UNL     1     155.110 132.112 165.761  1.00  0.00     0.053 C 
BRANCH  10  11
ATOM     11  C   UNL     1     154.173 133.064 165.085  1.00  0.00     0.041 C 
ATOM     12  O   UNL     1     154.266 134.302 165.294  1.00  0.00    -0.550 OA
ATOM     13  O   UNL     1     153.175 132.581 164.248  1.00  0.00    -0.550 OA
ENDBRANCH  10  11
ENDBRANCH   9  10
ENDBRANCH   8   9
ENDBRANCH   1   8
TORSDOF 8
ENDMDL
MODEL 9
REMARK VINA RESULT:    -3.601      1.484      6.983
REMARK INTER + INTRA:          -5.520
REMARK INTER:                  -5.147
REMARK INTRA:                  -0.372
REMARK UNBOUND:                -0.235
REMARK SMILES O=C([O-])CCCCCCCC(=O)[O-]
REMARK SMILES IDX 7 1 6 2 5 3 4 4 2 5 1 6 3 7 8 8 9 9 10 10 11 11 12 12 13 13
REMARK H PARENT
REMARK Flexibility Score: inf
ROOT
ATOM      1  C   UNL     1     154.476 133.374 166.239  1.00  0.00     0.000 C 
ENDROOT
BRANCH   1   2
ATOM      2  C   UNL     1     155.303 132.250 166.886  1.00  0.00     0.000 C 
BRANCH   2   3
ATOM      3  C   UNL     1     156.741 132.187 166.349  1.00  0.00     0.006 C 
BRANCH   3   4
ATOM      4  C   UNL     1     157.755 132.249 167.496  1.00  0.00     0.053 C 
BRANCH   4   5
ATOM      5  C   UNL     1     157.421 133.367 168.431  1.00  0.00     0.041 C 
ATOM      6  O   UNL     1     157.375 134.553 168.011  1.00  0.00    -0.550 OA
ATOM      7  O   UNL     1     157.209 133.107 169.780  1.00  0.00    -0.550 OA
ENDBRANCH   4   5
ENDBRANCH   3   4
ENDBRANCH   2   3
ENDBRANCH   1   2
BRANCH   1   8
ATOM      8  C   UNL     1     154.167 133.101 164.756  1.00  0.00     0.000 C 
BRANCH   8   9
ATOM      9  C   UNL     1     153.257 131.875 164.554  1.00  0.00     0.006 C 
BRANCH   9  10
ATOM     10  C   UNL     1     151.951 131.913 165.365  1.00  0.00     0.053 C 
BRANCH  10  11
ATOM     11  C   UNL     1     150.843 132.584 164.612  1.00  0.00     0.041 C 
ATOM     12  O   UNL     1     150.940 132.767 163.371  1.00  0.00    -0.550 OA
ATOM     13  O   UNL     1     149.717 133.035 165.289  1.00  0.00    -0.550 OA
ENDBRANCH  10  11
ENDBRANCH   9  10
ENDBRANCH   8   9
ENDBRANCH   1   8
TORSDOF 8
ENDMDL
