MODEL 1
REMARK VINA RESULT:    -2.098      0.000      0.000
REMARK INTER + INTRA:          -2.941
REMARK INTER:                  -2.589
REMARK INTRA:                  -0.352
REMARK UNBOUND:                -0.352
REMARK SMILES Oc1cc(O)c2cc(O)c(-c3cc(O)c(O)c(O)c3)[o+]c2c1
REMARK SMILES IDX 10 1 20 2 21 3 22 4 2 5 3 6 4 7 6 8 7 9 8 10 11 11 12 12
REMARK SMILES IDX 13 13 19 14 15 15 17 16 14 17 16 19 18 21 9 23 1 25 5 27
REMARK H PARENT 14 18 16 20 18 22 9 24 1 26 5 28
REMARK Flexibility Score: inf
ROOT
ATOM      1  C   UNL     1      29.010  -9.413  17.086  1.00  0.00     0.402 A 
ATOM      2  O   UNL     1      29.872  -9.539  16.079  1.00  0.00    -0.202 OA
ATOM      3  C   UNL     1      29.508  -9.871  14.845  1.00  0.00     0.368 A 
ATOM      4  C   UNL     1      30.487  -9.977  13.853  1.00  0.00     0.162 A 
ATOM      5  C   UNL     1      30.134 -10.321  12.548  1.00  0.00     0.128 A 
ATOM      6  C   UNL     1      28.793 -10.560  12.229  1.00  0.00     0.093 A 
ATOM      7  C   UNL     1      27.793 -10.461  13.205  1.00  0.00     0.136 A 
ATOM      8  C   UNL     1      28.148 -10.114  14.534  1.00  0.00     0.125 A 
ATOM      9  C   UNL     1      27.217 -10.003  15.578  1.00  0.00     0.078 A 
ATOM     10  C   UNL     1      27.643  -9.663  16.866  1.00  0.00     0.223 A 
ENDROOT
BRANCH   1  11
ATOM     11  C   UNL     1      29.537  -9.028  18.415  1.00  0.00     0.091 A 
ATOM     12  C   UNL     1      29.794 -10.024  19.370  1.00  0.00     0.068 A 
ATOM     13  C   UNL     1      30.310  -9.692  20.627  1.00  0.00     0.162 A 
ATOM     14  C   UNL     1      29.842  -7.692  18.723  1.00  0.00     0.068 A 
ATOM     15  C   UNL     1      30.592  -8.351  20.937  1.00  0.00     0.200 A 
ATOM     16  C   UNL     1      30.361  -7.350  19.979  1.00  0.00     0.162 A 
BRANCH  13  17
ATOM     17  O   UNL     1      30.536 -10.709  21.553  1.00  0.00    -0.504 OA
ATOM     18  H   UNL     1      31.209 -11.448  21.389  1.00  0.00     0.293 HD
ENDBRANCH  13  17
BRANCH  15  19
ATOM     19  O   UNL     1      31.105  -8.029  22.195  1.00  0.00    -0.502 OA
ATOM     20  H   UNL     1      31.319  -7.075  22.462  1.00  0.00     0.293 HD
ENDBRANCH  15  19
BRANCH  16  21
ATOM     21  O   UNL     1      30.653  -6.019  20.276  1.00  0.00    -0.504 OA
ATOM     22  H   UNL     1      30.313  -5.259  19.697  1.00  0.00     0.293 HD
ENDBRANCH  16  21
ENDBRANCH   1  11
BRANCH  10  23
ATOM     23  O   UNL     1      26.725  -9.602  17.914  1.00  0.00    -0.500 OA
ATOM     24  H   UNL     1      26.775  -8.881  18.624  1.00  0.00     0.294 HD
ENDBRANCH  10  23
BRANCH   5  25
ATOM     25  O   UNL     1      31.125 -10.421  11.573  1.00  0.00    -0.507 OA
ATOM     26  H   UNL     1      31.456 -11.321  11.246  1.00  0.00     0.293 HD
ENDBRANCH   5  25
BRANCH   7  27
ATOM     27  O   UNL     1      26.478 -10.712  12.805  1.00  0.00    -0.507 OA
ATOM     28  H   UNL     1      25.959 -11.546  13.043  1.00  0.00     0.293 HD
ENDBRANCH   7  27
TORSDOF 7
ENDMDL
MODEL 2
REMARK VINA RESULT:    -2.056      1.963      3.175
REMARK INTER + INTRA:          -2.888
REMARK INTER:                  -2.566
REMARK INTRA:                  -0.322
REMARK UNBOUND:                -0.352
REMARK SMILES Oc1cc(O)c2cc(O)c(-c3cc(O)c(O)c(O)c3)[o+]c2c1
REMARK SMILES IDX 10 1 20 2 21 3 22 4 2 5 3 6 4 7 6 8 7 9 8 10 11 11 12 12
REMARK SMILES IDX 13 13 19 14 15 15 17 16 14 17 16 19 18 21 9 23 1 25 5 27
REMARK H PARENT 14 18 16 20 18 22 9 24 1 26 5 28
REMARK Flexibility Score: inf
ROOT
ATOM      1  C   UNL     1      29.809  -8.817  16.377  1.00  0.00     0.402 A 
ATOM      2  O   UNL     1      29.895  -9.649  15.341  1.00  0.00    -0.202 OA
ATOM      3  C   UNL     1      30.181  -9.249  14.107  1.00  0.00     0.368 A 
ATOM      4  C   UNL     1      30.251 -10.199  13.083  1.00  0.00     0.162 A 
ATOM      5  C   UNL     1      30.553  -9.809  11.779  1.00  0.00     0.128 A 
ATOM      6  C   UNL     1      30.788  -8.460  11.492  1.00  0.00     0.093 A 
ATOM      7  C   UNL     1      30.724  -7.489  12.499  1.00  0.00     0.136 A 
ATOM      8  C   UNL     1      30.415  -7.880  13.826  1.00  0.00     0.125 A 
ATOM      9  C   UNL     1      30.317  -6.976  14.896  1.00  0.00     0.078 A 
ATOM     10  C   UNL     1      30.002  -7.437  16.178  1.00  0.00     0.223 A 
ENDROOT
BRANCH   1  11
ATOM     11  C   UNL     1      29.493  -9.385  17.707  1.00  0.00     0.091 A 
ATOM     12  C   UNL     1      28.212  -9.903  17.949  1.00  0.00     0.068 A 
ATOM     13  C   UNL     1      27.890 -10.464  19.189  1.00  0.00     0.162 A 
ATOM     14  C   UNL     1      30.466  -9.470  18.717  1.00  0.00     0.068 A 
ATOM     15  C   UNL     1      28.861 -10.526  20.203  1.00  0.00     0.200 A 
ATOM     16  C   UNL     1      30.154 -10.031  19.963  1.00  0.00     0.162 A 
BRANCH  13  17
ATOM     17  O   UNL     1      26.601 -10.954  19.395  1.00  0.00    -0.504 OA
ATOM     18  H   UNL     1      26.398 -11.660  20.091  1.00  0.00     0.293 HD
ENDBRANCH  13  17
BRANCH  15  19
ATOM     19  O   UNL     1      28.530 -11.085  21.440  1.00  0.00    -0.502 OA
ATOM     20  H   UNL     1      29.105 -11.792  21.882  1.00  0.00     0.293 HD
ENDBRANCH  15  19
BRANCH  16  21
ATOM     21  O   UNL     1      31.125 -10.104  20.960  1.00  0.00    -0.504 OA
ATOM     22  H   UNL     1      31.132  -9.459  21.742  1.00  0.00     0.293 HD
ENDBRANCH  16  21
ENDBRANCH   1  11
BRANCH  10  23
ATOM     23  O   UNL     1      29.856  -6.533  17.230  1.00  0.00    -0.500 OA
ATOM     24  H   UNL     1      30.579  -5.863  17.460  1.00  0.00     0.294 HD
ENDBRANCH  10  23
BRANCH   5  25
ATOM     25  O   UNL     1      30.618 -10.771  10.773  1.00  0.00    -0.507 OA
ATOM     26  H   UNL     1      31.490 -10.990  10.306  1.00  0.00     0.293 HD
ENDBRANCH   5  25
BRANCH   7  27
ATOM     27  O   UNL     1      30.974  -6.163  12.131  1.00  0.00    -0.507 OA
ATOM     28  H   UNL     1      30.803  -5.365  12.725  1.00  0.00     0.293 HD
ENDBRANCH   7  27
TORSDOF 7
ENDMDL
MODEL 3
REMARK VINA RESULT:    -1.974      2.196      7.042
REMARK INTER + INTRA:          -2.787
REMARK INTER:                  -2.414
REMARK INTRA:                  -0.374
REMARK UNBOUND:                -0.352
REMARK SMILES Oc1cc(O)c2cc(O)c(-c3cc(O)c(O)c(O)c3)[o+]c2c1
REMARK SMILES IDX 10 1 20 2 21 3 22 4 2 5 3 6 4 7 6 8 7 9 8 10 11 11 12 12
REMARK SMILES IDX 13 13 19 14 15 15 17 16 14 17 16 19 18 21 9 23 1 25 5 27
REMARK H PARENT 14 18 16 20 18 22 9 24 1 26 5 28
REMARK Flexibility Score: inf
ROOT
ATOM      1  C   UNL     1      28.553  -9.480  14.003  1.00  0.00     0.402 A 
ATOM      2  O   UNL     1      29.299  -9.704  15.083  1.00  0.00    -0.202 OA
ATOM      3  C   UNL     1      28.787  -9.971  16.279  1.00  0.00     0.368 A 
ATOM      4  C   UNL     1      29.653 -10.194  17.354  1.00  0.00     0.162 A 
ATOM      5  C   UNL     1      29.145 -10.479  18.622  1.00  0.00     0.128 A 
ATOM      6  C   UNL     1      27.762 -10.544  18.819  1.00  0.00     0.093 A 
ATOM      7  C   UNL     1      26.873 -10.325  17.759  1.00  0.00     0.136 A 
ATOM      8  C   UNL     1      27.385 -10.031  16.469  1.00  0.00     0.125 A 
ATOM      9  C   UNL     1      26.571  -9.785  15.352  1.00  0.00     0.078 A 
ATOM     10  C   UNL     1      27.150  -9.497  14.112  1.00  0.00     0.223 A 
ENDROOT
BRANCH   1  11
ATOM     11  C   UNL     1      29.241  -9.202  12.722  1.00  0.00     0.091 A 
ATOM     12  C   UNL     1      29.443 -10.247  11.806  1.00  0.00     0.068 A 
ATOM     13  C   UNL     1      30.072 -10.010  10.580  1.00  0.00     0.162 A 
ATOM     14  C   UNL     1      29.646  -7.902  12.375  1.00  0.00     0.068 A 
ATOM     15  C   UNL     1      30.495  -8.711  10.248  1.00  0.00     0.200 A 
ATOM     16  C   UNL     1      30.275  -7.655  11.148  1.00  0.00     0.162 A 
BRANCH  13  17
ATOM     17  O   UNL     1      30.268 -11.077   9.705  1.00  0.00    -0.504 OA
ATOM     18  H   UNL     1      29.769 -11.953   9.802  1.00  0.00     0.293 HD
ENDBRANCH  13  17
BRANCH  15  19
ATOM     19  O   UNL     1      31.125  -8.485   9.023  1.00  0.00    -0.502 OA
ATOM     20  H   UNL     1      31.420  -9.244   8.420  1.00  0.00     0.293 HD
ENDBRANCH  15  19
BRANCH  16  21
ATOM     21  O   UNL     1      30.679  -6.362  10.817  1.00  0.00    -0.504 OA
ATOM     22  H   UNL     1      31.657  -6.130  10.682  1.00  0.00     0.293 HD
ENDBRANCH  16  21
ENDBRANCH   1  11
BRANCH  10  23
ATOM     23  O   UNL     1      26.342  -9.203  13.014  1.00  0.00    -0.500 OA
ATOM     24  H   UNL     1      25.838  -9.927  12.515  1.00  0.00     0.294 HD
ENDBRANCH  10  23
BRANCH   5  25
ATOM     25  O   UNL     1      30.025 -10.699  19.680  1.00  0.00    -0.507 OA
ATOM     26  H   UNL     1      30.003 -11.558  20.216  1.00  0.00     0.293 HD
ENDBRANCH   5  25
BRANCH   7  27
ATOM     27  O   UNL     1      25.506 -10.411  18.037  1.00  0.00    -0.507 OA
ATOM     28  H   UNL     1      24.965 -11.261  17.980  1.00  0.00     0.293 HD
ENDBRANCH   7  27
TORSDOF 7
ENDMDL
MODEL 4
REMARK VINA RESULT:    -1.967      1.983      7.071
REMARK INTER + INTRA:          -2.779
REMARK INTER:                  -2.399
REMARK INTRA:                  -0.380
REMARK UNBOUND:                -0.352
REMARK SMILES Oc1cc(O)c2cc(O)c(-c3cc(O)c(O)c(O)c3)[o+]c2c1
REMARK SMILES IDX 10 1 20 2 21 3 22 4 2 5 3 6 4 7 6 8 7 9 8 10 11 11 12 12
REMARK SMILES IDX 13 13 19 14 15 15 17 16 14 17 16 19 18 21 9 23 1 25 5 27
REMARK H PARENT 14 18 16 20 18 22 9 24 1 26 5 28
REMARK Flexibility Score: inf
ROOT
ATOM      1  C   UNL     1      27.909  -9.753  15.281  1.00  0.00     0.402 A 
ATOM      2  O   UNL     1      28.884  -9.728  16.188  1.00  0.00    -0.202 OA
ATOM      3  C   UNL     1      28.689  -9.998  17.474  1.00  0.00     0.368 A 
ATOM      4  C   UNL     1      29.778  -9.948  18.351  1.00  0.00     0.162 A 
ATOM      5  C   UNL     1      29.605 -10.230  19.706  1.00  0.00     0.128 A 
ATOM      6  C   UNL     1      28.336 -10.566  20.191  1.00  0.00     0.093 A 
ATOM      7  C   UNL     1      27.230 -10.623  19.334  1.00  0.00     0.136 A 
ATOM      8  C   UNL     1      27.401 -10.334  17.956  1.00  0.00     0.125 A 
ATOM      9  C   UNL     1      26.349 -10.354  17.026  1.00  0.00     0.078 A 
ATOM     10  C   UNL     1      26.594 -10.052  15.683  1.00  0.00     0.223 A 
ENDROOT
BRANCH   1  11
ATOM     11  C   UNL     1      28.253  -9.442  13.875  1.00  0.00     0.091 A 
ATOM     12  C   UNL     1      28.196  -8.113  13.428  1.00  0.00     0.068 A 
ATOM     13  C   UNL     1      28.533  -7.786  12.111  1.00  0.00     0.162 A 
ATOM     14  C   UNL     1      28.691 -10.441  12.990  1.00  0.00     0.068 A 
ATOM     15  C   UNL     1      28.950  -8.794  11.224  1.00  0.00     0.200 A 
ATOM     16  C   UNL     1      29.033 -10.124  11.669  1.00  0.00     0.162 A 
BRANCH  13  17
ATOM     17  O   UNL     1      28.449  -6.456  11.702  1.00  0.00    -0.504 OA
ATOM     18  H   UNL     1      28.649  -5.686  12.329  1.00  0.00     0.293 HD
ENDBRANCH  13  17
BRANCH  15  19
ATOM     19  O   UNL     1      29.283  -8.459   9.910  1.00  0.00    -0.502 OA
ATOM     20  H   UNL     1      29.414  -9.162   9.192  1.00  0.00     0.293 HD
ENDBRANCH  15  19
BRANCH  16  21
ATOM     21  O   UNL     1      29.461 -11.125  10.798  1.00  0.00    -0.504 OA
ATOM     22  H   UNL     1      29.015 -12.035  10.776  1.00  0.00     0.293 HD
ENDBRANCH  16  21
ENDBRANCH   1  11
BRANCH  10  23
ATOM     23  O   UNL     1      25.541 -10.024  14.769  1.00  0.00    -0.500 OA
ATOM     24  H   UNL     1      25.625 -10.436  13.847  1.00  0.00     0.294 HD
ENDBRANCH  10  23
BRANCH   5  25
ATOM     25  O   UNL     1      30.701 -10.175  20.564  1.00  0.00    -0.507 OA
ATOM     26  H   UNL     1      31.633 -10.419  20.248  1.00  0.00     0.293 HD
ENDBRANCH   5  25
BRANCH   7  27
ATOM     27  O   UNL     1      25.998 -10.969  19.896  1.00  0.00    -0.507 OA
ATOM     28  H   UNL     1      25.178 -10.380  19.878  1.00  0.00     0.293 HD
ENDBRANCH   7  27
TORSDOF 7
ENDMDL
MODEL 5
REMARK VINA RESULT:    -1.934      2.579      6.855
REMARK INTER + INTRA:          -2.738
REMARK INTER:                  -2.413
REMARK INTRA:                  -0.326
REMARK UNBOUND:                -0.352
REMARK SMILES Oc1cc(O)c2cc(O)c(-c3cc(O)c(O)c(O)c3)[o+]c2c1
REMARK SMILES IDX 10 1 20 2 21 3 22 4 2 5 3 6 4 7 6 8 7 9 8 10 11 11 12 12
REMARK SMILES IDX 13 13 19 14 15 15 17 16 14 17 16 19 18 21 9 23 1 25 5 27
REMARK H PARENT 14 18 16 20 18 22 9 24 1 26 5 28
REMARK Flexibility Score: inf
ROOT
ATOM      1  C   UNL     1      28.805  -9.658  18.689  1.00  0.00     0.402 A 
ATOM      2  O   UNL     1      29.635  -9.818  19.717  1.00  0.00    -0.202 OA
ATOM      3  C   UNL     1      29.226 -10.119  20.945  1.00  0.00     0.368 A 
ATOM      4  C   UNL     1      30.175 -10.268  21.961  1.00  0.00     0.162 A 
ATOM      5  C   UNL     1      29.774 -10.587  23.258  1.00  0.00     0.128 A 
ATOM      6  C   UNL     1      28.416 -10.759  23.546  1.00  0.00     0.093 A 
ATOM      7  C   UNL     1      27.446 -10.616  22.546  1.00  0.00     0.136 A 
ATOM      8  C   UNL     1      27.848 -10.289  21.226  1.00  0.00     0.125 A 
ATOM      9  C   UNL     1      26.946 -10.113  20.164  1.00  0.00     0.078 A 
ATOM     10  C   UNL     1      27.418  -9.785  18.890  1.00  0.00     0.223 A 
ENDROOT
BRANCH   1  11
ATOM     11  C   UNL     1      29.384  -9.333  17.366  1.00  0.00     0.091 A 
ATOM     12  C   UNL     1      29.951 -10.356  16.590  1.00  0.00     0.068 A 
ATOM     13  C   UNL     1      30.487 -10.082  15.328  1.00  0.00     0.162 A 
ATOM     14  C   UNL     1      29.328  -8.030  16.842  1.00  0.00     0.068 A 
ATOM     15  C   UNL     1      30.448  -8.772  14.819  1.00  0.00     0.200 A 
ATOM     16  C   UNL     1      29.861  -7.746  15.578  1.00  0.00     0.162 A 
BRANCH  13  17
ATOM     17  O   UNL     1      31.055 -11.123  14.595  1.00  0.00    -0.504 OA
ATOM     18  H   UNL     1      32.057 -11.252  14.528  1.00  0.00     0.293 HD
ENDBRANCH  13  17
BRANCH  15  19
ATOM     19  O   UNL     1      30.989  -8.507  13.559  1.00  0.00    -0.502 OA
ATOM     20  H   UNL     1      31.621  -7.733  13.396  1.00  0.00     0.293 HD
ENDBRANCH  15  19
BRANCH  16  21
ATOM     21  O   UNL     1      29.806  -6.448  15.072  1.00  0.00    -0.504 OA
ATOM     22  H   UNL     1      30.502  -5.753  15.317  1.00  0.00     0.293 HD
ENDBRANCH  16  21
ENDBRANCH   1  11
BRANCH  10  23
ATOM     23  O   UNL     1      26.519  -9.561  17.847  1.00  0.00    -0.500 OA
ATOM     24  H   UNL     1      25.558  -9.877  17.895  1.00  0.00     0.294 HD
ENDBRANCH  10  23
BRANCH   5  25
ATOM     25  O   UNL     1      30.736 -10.731  24.257  1.00  0.00    -0.507 OA
ATOM     26  H   UNL     1      30.508 -11.141  25.155  1.00  0.00     0.293 HD
ENDBRANCH   5  25
BRANCH   7  27
ATOM     27  O   UNL     1      26.111 -10.808  22.913  1.00  0.00    -0.507 OA
ATOM     28  H   UNL     1      25.644 -10.302  23.652  1.00  0.00     0.293 HD
ENDBRANCH   7  27
TORSDOF 7
ENDMDL
MODEL 6
REMARK VINA RESULT:    -1.891      3.378      6.828
REMARK INTER + INTRA:          -2.685
REMARK INTER:                  -2.301
REMARK INTRA:                  -0.385
REMARK UNBOUND:                -0.352
REMARK SMILES Oc1cc(O)c2cc(O)c(-c3cc(O)c(O)c(O)c3)[o+]c2c1
REMARK SMILES IDX 10 1 20 2 21 3 22 4 2 5 3 6 4 7 6 8 7 9 8 10 11 11 12 12
REMARK SMILES IDX 13 13 19 14 15 15 17 16 14 17 16 19 18 21 9 23 1 25 5 27
REMARK H PARENT 14 18 16 20 18 22 9 24 1 26 5 28
REMARK Flexibility Score: inf
ROOT
ATOM      1  C   UNL     1      26.176  -9.735  15.089  1.00  0.00     0.402 A 
ATOM      2  O   UNL     1      26.786  -9.781  16.271  1.00  0.00    -0.202 OA
ATOM      3  C   UNL     1      28.073 -10.076  16.417  1.00  0.00     0.368 A 
ATOM      4  C   UNL     1      28.625 -10.097  17.702  1.00  0.00     0.162 A 
ATOM      5  C   UNL     1      29.974 -10.399  17.885  1.00  0.00     0.128 A 
ATOM      6  C   UNL     1      30.781 -10.682  16.777  1.00  0.00     0.093 A 
ATOM      7  C   UNL     1      30.253 -10.668  15.480  1.00  0.00     0.136 A 
ATOM      8  C   UNL     1      28.881 -10.363  15.290  1.00  0.00     0.125 A 
ATOM      9  C   UNL     1      28.262 -10.338  14.029  1.00  0.00     0.078 A 
ATOM     10  C   UNL     1      26.902 -10.034  13.921  1.00  0.00     0.223 A 
ENDROOT
BRANCH   1  11
ATOM     11  C   UNL     1      24.738  -9.386  15.056  1.00  0.00     0.091 A 
ATOM     12  C   UNL     1      23.778 -10.395  15.226  1.00  0.00     0.068 A 
ATOM     13  C   UNL     1      22.413 -10.091  15.219  1.00  0.00     0.162 A 
ATOM     14  C   UNL     1      24.311  -8.054  14.914  1.00  0.00     0.068 A 
ATOM     15  C   UNL     1      21.991  -8.761  15.055  1.00  0.00     0.200 A 
ATOM     16  C   UNL     1      22.946  -7.740  14.907  1.00  0.00     0.162 A 
BRANCH  13  17
ATOM     17  O   UNL     1      21.491 -11.125  15.376  1.00  0.00    -0.504 OA
ATOM     18  H   UNL     1      20.583 -10.977  15.800  1.00  0.00     0.293 HD
ENDBRANCH  13  17
BRANCH  15  19
ATOM     19  O   UNL     1      20.626  -8.467  15.046  1.00  0.00    -0.502 OA
ATOM     20  H   UNL     1      20.064  -8.493  15.888  1.00  0.00     0.293 HD
ENDBRANCH  15  19
BRANCH  16  21
ATOM     21  O   UNL     1      22.534  -6.416  14.759  1.00  0.00    -0.504 OA
ATOM     22  H   UNL     1      22.484  -5.975  13.848  1.00  0.00     0.293 HD
ENDBRANCH  16  21
ENDBRANCH   1  11
BRANCH  10  23
ATOM     23  O   UNL     1      26.277 -10.058  12.674  1.00  0.00    -0.500 OA
ATOM     24  H   UNL     1      25.284  -9.881  12.573  1.00  0.00     0.294 HD
ENDBRANCH  10  23
BRANCH   5  25
ATOM     25  O   UNL     1      30.505 -10.415  19.173  1.00  0.00    -0.507 OA
ATOM     26  H   UNL     1      30.136 -11.029  19.890  1.00  0.00     0.293 HD
ENDBRANCH   5  25
BRANCH   7  27
ATOM     27  O   UNL     1      31.125 -10.958  14.427  1.00  0.00    -0.507 OA
ATOM     28  H   UNL     1      30.832 -11.293  13.521  1.00  0.00     0.293 HD
ENDBRANCH   7  27
TORSDOF 7
ENDMDL
MODEL 7
REMARK VINA RESULT:    -1.887      1.917      6.608
REMARK INTER + INTRA:          -2.680
REMARK INTER:                  -2.407
REMARK INTRA:                  -0.273
REMARK UNBOUND:                -0.352
REMARK SMILES Oc1cc(O)c2cc(O)c(-c3cc(O)c(O)c(O)c3)[o+]c2c1
REMARK SMILES IDX 10 1 20 2 21 3 22 4 2 5 3 6 4 7 6 8 7 9 8 10 11 11 12 12
REMARK SMILES IDX 13 13 19 14 15 15 17 16 14 17 16 19 18 21 9 23 1 25 5 27
REMARK H PARENT 14 18 16 20 18 22 9 24 1 26 5 28
REMARK Flexibility Score: inf
ROOT
ATOM      1  C   UNL     1      28.485  -9.730  16.263  1.00  0.00     0.402 A 
ATOM      2  O   UNL     1      29.294  -9.733  17.320  1.00  0.00    -0.202 OA
ATOM      3  C   UNL     1      28.885 -10.024  18.550  1.00  0.00     0.368 A 
ATOM      4  C   UNL     1      29.812 -10.003  19.597  1.00  0.00     0.162 A 
ATOM      5  C   UNL     1      29.412 -10.307  20.898  1.00  0.00     0.128 A 
ATOM      6  C   UNL     1      28.077 -10.635  21.158  1.00  0.00     0.093 A 
ATOM      7  C   UNL     1      27.129 -10.663  20.127  1.00  0.00     0.136 A 
ATOM      8  C   UNL     1      27.531 -10.352  18.803  1.00  0.00     0.125 A 
ATOM      9  C   UNL     1      26.649 -10.342  17.710  1.00  0.00     0.078 A 
ATOM     10  C   UNL     1      27.118 -10.020  16.433  1.00  0.00     0.223 A 
ENDROOT
BRANCH   1  11
ATOM     11  C   UNL     1      29.061  -9.399  14.940  1.00  0.00     0.091 A 
ATOM     12  C   UNL     1      29.138 -10.392  13.952  1.00  0.00     0.068 A 
ATOM     13  C   UNL     1      29.660 -10.104  12.687  1.00  0.00     0.162 A 
ATOM     14  C   UNL     1      29.483  -8.094  14.631  1.00  0.00     0.068 A 
ATOM     15  C   UNL     1      30.100  -8.802  12.391  1.00  0.00     0.200 A 
ATOM     16  C   UNL     1      30.005  -7.795  13.366  1.00  0.00     0.162 A 
BRANCH  13  17
ATOM     17  O   UNL     1      29.733 -11.123  11.738  1.00  0.00    -0.504 OA
ATOM     18  H   UNL     1      29.953 -12.079  11.990  1.00  0.00     0.293 HD
ENDBRANCH  13  17
BRANCH  15  19
ATOM     19  O   UNL     1      30.622  -8.524  11.126  1.00  0.00    -0.502 OA
ATOM     20  H   UNL     1      30.031  -8.286  10.339  1.00  0.00     0.293 HD
ENDBRANCH  15  19
BRANCH  16  21
ATOM     21  O   UNL     1      30.427  -6.499  13.072  1.00  0.00    -0.504 OA
ATOM     22  H   UNL     1      30.549  -6.184  12.116  1.00  0.00     0.293 HD
ENDBRANCH  16  21
ENDBRANCH   1  11
BRANCH  10  23
ATOM     23  O   UNL     1      26.233  -9.962  15.357  1.00  0.00    -0.500 OA
ATOM     24  H   UNL     1      26.182 -10.703  14.668  1.00  0.00     0.294 HD
ENDBRANCH  10  23
BRANCH   5  25
ATOM     25  O   UNL     1      30.350 -10.281  21.928  1.00  0.00    -0.507 OA
ATOM     26  H   UNL     1      30.893  -9.449  22.128  1.00  0.00     0.293 HD
ENDBRANCH   5  25
BRANCH   7  27
ATOM     27  O   UNL     1      25.817 -11.003  20.468  1.00  0.00    -0.507 OA
ATOM     28  H   UNL     1      25.569 -11.713  21.143  1.00  0.00     0.293 HD
ENDBRANCH   7  27
TORSDOF 7
ENDMDL
MODEL 8
REMARK VINA RESULT:    -1.775      2.220      3.382
REMARK INTER + INTRA:          -2.542
REMARK INTER:                  -2.164
REMARK INTRA:                  -0.378
REMARK UNBOUND:                -0.352
REMARK SMILES Oc1cc(O)c2cc(O)c(-c3cc(O)c(O)c(O)c3)[o+]c2c1
REMARK SMILES IDX 10 1 20 2 21 3 22 4 2 5 3 6 4 7 6 8 7 9 8 10 11 11 12 12
REMARK SMILES IDX 13 13 19 14 15 15 17 16 14 17 16 19 18 21 9 23 1 25 5 27
REMARK H PARENT 14 18 16 20 18 22 9 24 1 26 5 28
REMARK Flexibility Score: inf
ROOT
ATOM      1  C   UNL     1      28.676  -9.048  18.713  1.00  0.00     0.402 A 
ATOM      2  O   UNL     1      27.553  -9.652  18.331  1.00  0.00    -0.202 OA
ATOM      3  C   UNL     1      27.141  -9.695  17.069  1.00  0.00     0.368 A 
ATOM      4  C   UNL     1      25.946 -10.356  16.766  1.00  0.00     0.162 A 
ATOM      5  C   UNL     1      25.491 -10.421  15.449  1.00  0.00     0.128 A 
ATOM      6  C   UNL     1      26.233  -9.823  14.425  1.00  0.00     0.093 A 
ATOM      7  C   UNL     1      27.433  -9.156  14.702  1.00  0.00     0.136 A 
ATOM      8  C   UNL     1      27.899  -9.085  16.040  1.00  0.00     0.125 A 
ATOM      9  C   UNL     1      29.082  -8.427  16.413  1.00  0.00     0.078 A 
ATOM     10  C   UNL     1      29.474  -8.395  17.754  1.00  0.00     0.223 A 
ENDROOT
BRANCH   1  11
ATOM     11  C   UNL     1      29.033  -9.076  20.149  1.00  0.00     0.091 A 
ATOM     12  C   UNL     1      29.902 -10.070  20.626  1.00  0.00     0.068 A 
ATOM     13  C   UNL     1      30.272 -10.109  21.974  1.00  0.00     0.162 A 
ATOM     14  C   UNL     1      28.567  -8.093  21.038  1.00  0.00     0.068 A 
ATOM     15  C   UNL     1      29.785  -9.136  22.863  1.00  0.00     0.200 A 
ATOM     16  C   UNL     1      28.934  -8.123  22.390  1.00  0.00     0.162 A 
BRANCH  13  17
ATOM     17  O   UNL     1      31.125 -11.122  22.410  1.00  0.00    -0.504 OA
ATOM     18  H   UNL     1      31.249 -11.983  21.892  1.00  0.00     0.293 HD
ENDBRANCH  13  17
BRANCH  15  19
ATOM     19  O   UNL     1      30.158  -9.184  24.208  1.00  0.00    -0.502 OA
ATOM     20  H   UNL     1      29.482  -9.100  24.957  1.00  0.00     0.293 HD
ENDBRANCH  15  19
BRANCH  16  21
ATOM     21  O   UNL     1      28.460  -7.146  23.265  1.00  0.00    -0.504 OA
ATOM     22  H   UNL     1      28.247  -7.359  24.233  1.00  0.00     0.293 HD
ENDBRANCH  16  21
ENDBRANCH   1  11
BRANCH  10  23
ATOM     23  O   UNL     1      30.622  -7.699  18.131  1.00  0.00    -0.500 OA
ATOM     24  H   UNL     1      31.288  -8.087  18.790  1.00  0.00     0.294 HD
ENDBRANCH  10  23
BRANCH   5  25
ATOM     25  O   UNL     1      24.298 -11.083  15.168  1.00  0.00    -0.507 OA
ATOM     26  H   UNL     1      24.291 -12.026  14.797  1.00  0.00     0.293 HD
ENDBRANCH   5  25
BRANCH   7  27
ATOM     27  O   UNL     1      28.118  -8.588  13.623  1.00  0.00    -0.507 OA
ATOM     28  H   UNL     1      28.953  -8.028  13.710  1.00  0.00     0.293 HD
ENDBRANCH   7  27
TORSDOF 7
ENDMDL
