MODEL 1
REMARK VINA RESULT:    -4.210      0.000      0.000
REMARK INTER + INTRA:          -9.641
REMARK INTER:                  -7.655
REMARK INTRA:                  -1.986
REMARK UNBOUND:                -1.986
REMARK SMILES CCCCCCCCCCCCCC[C@@H](C)C(=O)[O-]
REMARK SMILES IDX 9 1 10 2 11 3 12 4 13 5 14 6 15 7 16 8 17 9 18 10 19 11 8 12
REMARK SMILES IDX 7 13 6 14 5 15 4 16 3 17 2 18 1 19
REMARK H PARENT
REMARK Flexibility Score: inf
ROOT
ATOM      1  C   UNL     1     -31.663  14.403  13.188  1.00  0.00     0.000 C 
ENDROOT
BRANCH   1   2
ATOM      2  C   UNL     1     -33.096  13.996  13.562  1.00  0.00     0.000 C 
BRANCH   2   3
ATOM      3  C   UNL     1     -33.394  12.561  13.106  1.00  0.00     0.000 C 
BRANCH   3   4
ATOM      4  C   UNL     1     -32.532  11.514  13.831  1.00  0.00     0.000 C 
BRANCH   4   5
ATOM      5  C   UNL     1     -31.802  10.574  12.856  1.00  0.00     0.001 C 
BRANCH   5   6
ATOM      6  C   UNL     1     -30.733   9.708  13.550  1.00  0.00     0.009 C 
BRANCH   6   7
ATOM      7  C   UNL     1     -29.615  10.515  14.249  1.00  0.00     0.032 C 
ATOM      8  C   UNL     1     -28.745   9.591  15.108  1.00  0.00     0.014 C 
BRANCH   7   9
ATOM      9  C   UNL     1     -28.754  11.247  13.255  1.00  0.00     0.044 C 
ATOM     10  O   UNL     1     -28.345  10.670  12.213  1.00  0.00    -0.550 OA
ATOM     11  O   UNL     1     -28.410  12.574  13.481  1.00  0.00    -0.550 OA
ENDBRANCH   7   9
ENDBRANCH   6   7
ENDBRANCH   5   6
ENDBRANCH   4   5
ENDBRANCH   3   4
ENDBRANCH   2   3
ENDBRANCH   1   2
BRANCH   1  12
ATOM     12  C   UNL     1     -30.828  14.842  14.405  1.00  0.00     0.000 C 
BRANCH  12  13
ATOM     13  C   UNL     1     -31.458  14.530  15.778  1.00  0.00    -0.000 C 
BRANCH  13  14
ATOM     14  C   UNL     1     -31.031  13.189  16.403  1.00  0.00    -0.000 C 
BRANCH  14  15
ATOM     15  C   UNL     1     -29.586  13.207  16.923  1.00  0.00    -0.000 C 
BRANCH  15  16
ATOM     16  C   UNL     1     -29.532  13.679  18.380  1.00  0.00    -0.000 C 
BRANCH  16  17
ATOM     17  C   UNL     1     -28.255  14.483  18.652  1.00  0.00    -0.000 C 
BRANCH  17  18
ATOM     18  C   UNL     1     -28.124  15.656  17.675  1.00  0.00    -0.003 C 
ATOM     19  C   UNL     1     -29.066  16.795  18.050  1.00  0.00     0.004 C 
ENDBRANCH  17  18
ENDBRANCH  16  17
ENDBRANCH  15  16
ENDBRANCH  14  15
ENDBRANCH  13  14
ENDBRANCH  12  13
ENDBRANCH   1  12
TORSDOF 14
ENDMDL
MODEL 2
REMARK VINA RESULT:    -4.149      1.393      2.608
REMARK INTER + INTRA:          -9.530
REMARK INTER:                  -7.406
REMARK INTRA:                  -2.124
REMARK UNBOUND:                -1.986
REMARK SMILES CCCCCCCCCCCCCC[C@@H](C)C(=O)[O-]
REMARK SMILES IDX 9 1 10 2 11 3 12 4 13 5 14 6 15 7 16 8 17 9 18 10 19 11 8 12
REMARK SMILES IDX 7 13 6 14 5 15 4 16 3 17 2 18 1 19
REMARK H PARENT
REMARK Flexibility Score: inf
ROOT
ATOM      1  C   UNL     1     -32.903  13.598  16.161  1.00  0.00     0.000 C 
ENDROOT
BRANCH   1   2
ATOM      2  C   UNL     1     -33.207  13.168  14.719  1.00  0.00     0.000 C 
BRANCH   2   3
ATOM      3  C   UNL     1     -32.973  14.328  13.741  1.00  0.00     0.000 C 
BRANCH   3   4
ATOM      4  C   UNL     1     -31.482  14.591  13.472  1.00  0.00     0.000 C 
BRANCH   4   5
ATOM      5  C   UNL     1     -30.793  13.410  12.767  1.00  0.00     0.001 C 
BRANCH   5   6
ATOM      6  C   UNL     1     -29.760  12.700  13.664  1.00  0.00     0.009 C 
BRANCH   6   7
ATOM      7  C   UNL     1     -30.076  11.213  13.946  1.00  0.00     0.032 C 
ATOM      8  C   UNL     1     -31.058  10.668  12.902  1.00  0.00     0.014 C 
BRANCH   7   9
ATOM      9  C   UNL     1     -28.828  10.373  13.961  1.00  0.00     0.044 C 
ATOM     10  O   UNL     1     -28.447   9.809  15.021  1.00  0.00    -0.550 OA
ATOM     11  O   UNL     1     -28.089  10.210  12.796  1.00  0.00    -0.550 OA
ENDBRANCH   7   9
ENDBRANCH   6   7
ENDBRANCH   5   6
ENDBRANCH   4   5
ENDBRANCH   3   4
ENDBRANCH   2   3
ENDBRANCH   1   2
BRANCH   1  12
ATOM     12  C   UNL     1     -31.789  12.760  16.815  1.00  0.00     0.000 C 
BRANCH  12  13
ATOM     13  C   UNL     1     -30.516  13.544  17.191  1.00  0.00    -0.000 C 
BRANCH  13  14
ATOM     14  C   UNL     1     -30.563  15.052  16.882  1.00  0.00    -0.000 C 
BRANCH  14  15
ATOM     15  C   UNL     1     -29.394  15.826  17.510  1.00  0.00    -0.000 C 
BRANCH  15  16
ATOM     16  C   UNL     1     -28.065  15.444  16.850  1.00  0.00    -0.000 C 
BRANCH  16  17
ATOM     17  C   UNL     1     -26.932  15.389  17.882  1.00  0.00    -0.000 C 
BRANCH  17  18
ATOM     18  C   UNL     1     -27.373  14.638  19.143  1.00  0.00    -0.003 C 
ATOM     19  C   UNL     1     -26.651  15.166  20.379  1.00  0.00     0.004 C 
ENDBRANCH  17  18
ENDBRANCH  16  17
ENDBRANCH  15  16
ENDBRANCH  14  15
ENDBRANCH  13  14
ENDBRANCH  12  13
ENDBRANCH   1  12
TORSDOF 14
ENDMDL
MODEL 3
REMARK VINA RESULT:    -4.098      2.680      5.491
REMARK INTER + INTRA:          -9.437
REMARK INTER:                  -6.701
REMARK INTRA:                  -2.736
REMARK UNBOUND:                -1.986
REMARK SMILES CCCCCCCCCCCCCC[C@@H](C)C(=O)[O-]
REMARK SMILES IDX 9 1 10 2 11 3 12 4 13 5 14 6 15 7 16 8 17 9 18 10 19 11 8 12
REMARK SMILES IDX 7 13 6 14 5 15 4 16 3 17 2 18 1 19
REMARK H PARENT
REMARK Flexibility Score: inf
ROOT
ATOM      1  C   UNL     1     -33.358  12.996  13.925  1.00  0.00     0.000 C 
ENDROOT
BRANCH   1   2
ATOM      2  C   UNL     1     -33.339  12.476  15.370  1.00  0.00     0.000 C 
BRANCH   2   3
ATOM      3  C   UNL     1     -32.824  13.555  16.334  1.00  0.00     0.000 C 
BRANCH   3   4
ATOM      4  C   UNL     1     -31.795  13.013  17.339  1.00  0.00     0.000 C 
BRANCH   4   5
ATOM      5  C   UNL     1     -30.896  14.120  17.917  1.00  0.00     0.001 C 
BRANCH   5   6
ATOM      6  C   UNL     1     -29.424  13.683  18.051  1.00  0.00     0.009 C 
BRANCH   6   7
ATOM      7  C   UNL     1     -28.399  14.808  17.778  1.00  0.00     0.032 C 
ATOM      8  C   UNL     1     -29.118  16.140  17.539  1.00  0.00     0.014 C 
BRANCH   7   9
ATOM      9  C   UNL     1     -27.418  14.952  18.909  1.00  0.00     0.044 C 
ATOM     10  O   UNL     1     -26.692  15.978  19.002  1.00  0.00    -0.550 OA
ATOM     11  O   UNL     1     -27.312  13.951  19.866  1.00  0.00    -0.550 OA
ENDBRANCH   7   9
ENDBRANCH   6   7
ENDBRANCH   5   6
ENDBRANCH   4   5
ENDBRANCH   3   4
ENDBRANCH   2   3
ENDBRANCH   1   2
BRANCH   1  12
ATOM     12  C   UNL     1     -32.720  14.390  13.782  1.00  0.00     0.000 C 
BRANCH  12  13
ATOM     13  C   UNL     1     -31.307  14.402  13.164  1.00  0.00    -0.000 C 
BRANCH  13  14
ATOM     14  C   UNL     1     -30.179  14.834  14.120  1.00  0.00    -0.000 C 
BRANCH  14  15
ATOM     15  C   UNL     1     -29.272  13.667  14.537  1.00  0.00    -0.000 C 
BRANCH  15  16
ATOM     16  C   UNL     1     -29.505  12.444  13.644  1.00  0.00    -0.000 C 
BRANCH  16  17
ATOM     17  C   UNL     1     -29.814  11.198  14.483  1.00  0.00    -0.000 C 
BRANCH  17  18
ATOM     18  C   UNL     1     -30.816  10.287  13.766  1.00  0.00    -0.003 C 
ATOM     19  C   UNL     1     -30.687  10.409  12.251  1.00  0.00     0.004 C 
ENDBRANCH  17  18
ENDBRANCH  16  17
ENDBRANCH  15  16
ENDBRANCH  14  15
ENDBRANCH  13  14
ENDBRANCH  12  13
ENDBRANCH   1  12
TORSDOF 14
ENDMDL
MODEL 4
REMARK VINA RESULT:    -4.050      1.551      2.398
REMARK INTER + INTRA:          -9.351
REMARK INTER:                  -7.842
REMARK INTRA:                  -1.509
REMARK UNBOUND:                -1.986
REMARK SMILES CCCCCCCCCCCCCC[C@@H](C)C(=O)[O-]
REMARK SMILES IDX 9 1 10 2 11 3 12 4 13 5 14 6 15 7 16 8 17 9 18 10 19 11 8 12
REMARK SMILES IDX 7 13 6 14 5 15 4 16 3 17 2 18 1 19
REMARK H PARENT
REMARK Flexibility Score: inf
ROOT
ATOM      1  C   UNL     1     -30.752  14.651  15.065  1.00  0.00     0.000 C 
ENDROOT
BRANCH   1   2
ATOM      2  C   UNL     1     -31.463  15.105  13.781  1.00  0.00     0.000 C 
BRANCH   2   3
ATOM      3  C   UNL     1     -32.687  14.224  13.492  1.00  0.00     0.000 C 
BRANCH   3   4
ATOM      4  C   UNL     1     -32.307  12.840  12.939  1.00  0.00     0.000 C 
BRANCH   4   5
ATOM      5  C   UNL     1     -32.683  11.698  13.899  1.00  0.00     0.001 C 
BRANCH   5   6
ATOM      6  C   UNL     1     -31.623  10.581  13.940  1.00  0.00     0.009 C 
BRANCH   6   7
ATOM      7  C   UNL     1     -30.163  11.084  13.868  1.00  0.00     0.032 C 
ATOM      8  C   UNL     1     -29.440  10.819  15.193  1.00  0.00     0.014 C 
BRANCH   7   9
ATOM      9  C   UNL     1     -29.408  10.441  12.736  1.00  0.00     0.044 C 
ATOM     10  O   UNL     1     -29.958   9.568  12.013  1.00  0.00    -0.550 OA
ATOM     11  O   UNL     1     -28.095  10.814  12.479  1.00  0.00    -0.550 OA
ENDBRANCH   7   9
ENDBRANCH   6   7
ENDBRANCH   5   6
ENDBRANCH   4   5
ENDBRANCH   3   4
ENDBRANCH   2   3
ENDBRANCH   1   2
BRANCH   1  12
ATOM     12  C   UNL     1     -29.218  14.680  14.942  1.00  0.00     0.000 C 
BRANCH  12  13
ATOM     13  C   UNL     1     -28.468  15.116  16.217  1.00  0.00    -0.000 C 
BRANCH  13  14
ATOM     14  C   UNL     1     -28.947  14.445  17.518  1.00  0.00    -0.000 C 
BRANCH  14  15
ATOM     15  C   UNL     1     -29.022  15.423  18.700  1.00  0.00    -0.000 C 
BRANCH  15  16
ATOM     16  C   UNL     1     -28.880  16.872  18.224  1.00  0.00    -0.000 C 
BRANCH  16  17
ATOM     17  C   UNL     1     -28.985  17.852  19.398  1.00  0.00    -0.000 C 
BRANCH  17  18
ATOM     18  C   UNL     1     -28.306  17.286  20.650  1.00  0.00    -0.003 C 
ATOM     19  C   UNL     1     -27.258  18.252  21.194  1.00  0.00     0.004 C 
ENDBRANCH  17  18
ENDBRANCH  16  17
ENDBRANCH  15  16
ENDBRANCH  14  15
ENDBRANCH  13  14
ENDBRANCH  12  13
ENDBRANCH   1  12
TORSDOF 14
ENDMDL
MODEL 5
REMARK VINA RESULT:    -4.022      1.482      2.421
REMARK INTER + INTRA:          -9.299
REMARK INTER:                  -7.082
REMARK INTRA:                  -2.217
REMARK UNBOUND:                -1.986
REMARK SMILES CCCCCCCCCCCCCC[C@@H](C)C(=O)[O-]
REMARK SMILES IDX 9 1 10 2 11 3 12 4 13 5 14 6 15 7 16 8 17 9 18 10 19 11 8 12
REMARK SMILES IDX 7 13 6 14 5 15 4 16 3 17 2 18 1 19
REMARK H PARENT
REMARK Flexibility Score: inf
ROOT
ATOM      1  C   UNL     1     -33.500  12.166  15.068  1.00  0.00     0.000 C 
ENDROOT
BRANCH   1   2
ATOM      2  C   UNL     1     -33.293  12.468  13.576  1.00  0.00     0.000 C 
BRANCH   2   3
ATOM      3  C   UNL     1     -32.929  13.944  13.362  1.00  0.00     0.000 C 
BRANCH   3   4
ATOM      4  C   UNL     1     -31.445  14.148  13.018  1.00  0.00     0.000 C 
BRANCH   4   5
ATOM      5  C   UNL     1     -30.767  12.854  12.536  1.00  0.00     0.001 C 
BRANCH   5   6
ATOM      6  C   UNL     1     -29.541  12.469  13.386  1.00  0.00     0.009 C 
BRANCH   6   7
ATOM      7  C   UNL     1     -29.073  11.007  13.203  1.00  0.00     0.032 C 
ATOM      8  C   UNL     1     -28.959  10.308  14.563  1.00  0.00     0.014 C 
BRANCH   7   9
ATOM      9  C   UNL     1     -30.002  10.234  12.308  1.00  0.00     0.044 C 
ATOM     10  O   UNL     1     -29.732  10.072  11.088  1.00  0.00    -0.550 OA
ATOM     11  O   UNL     1     -31.168   9.685  12.828  1.00  0.00    -0.550 OA
ENDBRANCH   7   9
ENDBRANCH   6   7
ENDBRANCH   5   6
ENDBRANCH   4   5
ENDBRANCH   3   4
ENDBRANCH   2   3
ENDBRANCH   1   2
BRANCH   1  12
ATOM     12  C   UNL     1     -32.362  11.323  15.672  1.00  0.00     0.000 C 
BRANCH  12  13
ATOM     13  C   UNL     1     -31.771  11.869  16.987  1.00  0.00    -0.000 C 
BRANCH  13  14
ATOM     14  C   UNL     1     -30.584  12.836  16.818  1.00  0.00    -0.000 C 
BRANCH  14  15
ATOM     15  C   UNL     1     -31.019  14.308  16.756  1.00  0.00    -0.000 C 
BRANCH  15  16
ATOM     16  C   UNL     1     -29.982  15.155  16.009  1.00  0.00    -0.000 C 
BRANCH  16  17
ATOM     17  C   UNL     1     -28.721  15.358  16.858  1.00  0.00    -0.000 C 
BRANCH  17  18
ATOM     18  C   UNL     1     -28.908  16.506  17.856  1.00  0.00    -0.003 C 
ATOM     19  C   UNL     1     -27.993  16.341  19.064  1.00  0.00     0.004 C 
ENDBRANCH  17  18
ENDBRANCH  16  17
ENDBRANCH  15  16
ENDBRANCH  14  15
ENDBRANCH  13  14
ENDBRANCH  12  13
ENDBRANCH   1  12
TORSDOF 14
ENDMDL
MODEL 6
REMARK VINA RESULT:    -3.994      1.556      2.131
REMARK INTER + INTRA:          -9.249
REMARK INTER:                  -7.640
REMARK INTRA:                  -1.608
REMARK UNBOUND:                -1.986
REMARK SMILES CCCCCCCCCCCCCC[C@@H](C)C(=O)[O-]
REMARK SMILES IDX 9 1 10 2 11 3 12 4 13 5 14 6 15 7 16 8 17 9 18 10 19 11 8 12
REMARK SMILES IDX 7 13 6 14 5 15 4 16 3 17 2 18 1 19
REMARK H PARENT
REMARK Flexibility Score: inf
ROOT
ATOM      1  C   UNL     1     -31.874  14.276  13.032  1.00  0.00     0.000 C 
ENDROOT
BRANCH   1   2
ATOM      2  C   UNL     1     -33.355  14.373  13.430  1.00  0.00     0.000 C 
BRANCH   2   3
ATOM      3  C   UNL     1     -34.070  13.033  13.206  1.00  0.00     0.000 C 
BRANCH   3   4
ATOM      4  C   UNL     1     -33.094  11.868  12.972  1.00  0.00     0.000 C 
BRANCH   4   5
ATOM      5  C   UNL     1     -32.781  11.092  14.263  1.00  0.00     0.001 C 
BRANCH   5   6
ATOM      6  C   UNL     1     -31.406  10.398  14.223  1.00  0.00     0.009 C 
BRANCH   6   7
ATOM      7  C   UNL     1     -30.505  10.837  13.046  1.00  0.00     0.032 C 
ATOM      8  C   UNL     1     -29.169  11.377  13.569  1.00  0.00     0.014 C 
BRANCH   7   9
ATOM      9  C   UNL     1     -30.257   9.708  12.084  1.00  0.00     0.044 C 
ATOM     10  O   UNL     1     -29.618   9.903  11.016  1.00  0.00    -0.550 OA
ATOM     11  O   UNL     1     -30.731   8.434  12.374  1.00  0.00    -0.550 OA
ENDBRANCH   7   9
ENDBRANCH   6   7
ENDBRANCH   5   6
ENDBRANCH   4   5
ENDBRANCH   3   4
ENDBRANCH   2   3
ENDBRANCH   1   2
BRANCH   1  12
ATOM     12  C   UNL     1     -30.920  14.608  14.193  1.00  0.00     0.000 C 
BRANCH  12  13
ATOM     13  C   UNL     1     -31.422  14.195  15.592  1.00  0.00    -0.000 C 
BRANCH  13  14
ATOM     14  C   UNL     1     -30.660  14.825  16.772  1.00  0.00    -0.000 C 
BRANCH  14  15
ATOM     15  C   UNL     1     -29.311  15.430  16.356  1.00  0.00    -0.000 C 
BRANCH  15  16
ATOM     16  C   UNL     1     -28.545  15.954  17.576  1.00  0.00    -0.000 C 
BRANCH  16  17
ATOM     17  C   UNL     1     -27.093  15.459  17.570  1.00  0.00    -0.000 C 
BRANCH  17  18
ATOM     18  C   UNL     1     -26.618  15.131  18.989  1.00  0.00    -0.003 C 
ATOM     19  C   UNL     1     -25.527  16.097  19.442  1.00  0.00     0.004 C 
ENDBRANCH  17  18
ENDBRANCH  16  17
ENDBRANCH  15  16
ENDBRANCH  14  15
ENDBRANCH  13  14
ENDBRANCH  12  13
ENDBRANCH   1  12
TORSDOF 14
ENDMDL
MODEL 7
REMARK VINA RESULT:    -3.982      2.451      5.504
REMARK INTER + INTRA:          -9.227
REMARK INTER:                  -6.674
REMARK INTRA:                  -2.553
REMARK UNBOUND:                -1.986
REMARK SMILES CCCCCCCCCCCCCC[C@@H](C)C(=O)[O-]
REMARK SMILES IDX 9 1 10 2 11 3 12 4 13 5 14 6 15 7 16 8 17 9 18 10 19 11 8 12
REMARK SMILES IDX 7 13 6 14 5 15 4 16 3 17 2 18 1 19
REMARK H PARENT
REMARK Flexibility Score: inf
ROOT
ATOM      1  C   UNL     1     -29.589  12.322  13.306  1.00  0.00     0.000 C 
ENDROOT
BRANCH   1   2
ATOM      2  C   UNL     1     -30.762  12.941  12.530  1.00  0.00     0.000 C 
BRANCH   2   3
ATOM      3  C   UNL     1     -31.275  14.206  13.232  1.00  0.00     0.000 C 
BRANCH   3   4
ATOM      4  C   UNL     1     -32.403  13.914  14.236  1.00  0.00     0.000 C 
BRANCH   4   5
ATOM      5  C   UNL     1     -31.893  13.816  15.684  1.00  0.00     0.001 C 
BRANCH   5   6
ATOM      6  C   UNL     1     -30.855  14.902  16.027  1.00  0.00     0.009 C 
BRANCH   6   7
ATOM      7  C   UNL     1     -29.437  14.359  16.317  1.00  0.00     0.032 C 
ATOM      8  C   UNL     1     -28.399  15.085  15.454  1.00  0.00     0.014 C 
BRANCH   7   9
ATOM      9  C   UNL     1     -29.077  14.497  17.772  1.00  0.00     0.044 C 
ATOM     10  O   UNL     1     -29.955  14.367  18.665  1.00  0.00    -0.550 OA
ATOM     11  O   UNL     1     -27.763  14.763  18.137  1.00  0.00    -0.550 OA
ENDBRANCH   7   9
ENDBRANCH   6   7
ENDBRANCH   5   6
ENDBRANCH   4   5
ENDBRANCH   3   4
ENDBRANCH   2   3
ENDBRANCH   1   2
BRANCH   1  12
ATOM     12  C   UNL     1     -29.163  10.949  12.753  1.00  0.00     0.000 C 
BRANCH  12  13
ATOM     13  C   UNL     1     -30.041  10.405  11.607  1.00  0.00    -0.000 C 
BRANCH  13  14
ATOM     14  C   UNL     1     -30.855   9.144  11.950  1.00  0.00    -0.000 C 
BRANCH  14  15
ATOM     15  C   UNL     1     -32.134   9.457  12.741  1.00  0.00    -0.000 C 
BRANCH  15  16
ATOM     16  C   UNL     1     -32.023   8.955  14.185  1.00  0.00    -0.000 C 
BRANCH  16  17
ATOM     17  C   UNL     1     -32.149  10.113  15.182  1.00  0.00    -0.000 C 
BRANCH  17  18
ATOM     18  C   UNL     1     -30.872  10.263  16.015  1.00  0.00    -0.003 C 
ATOM     19  C   UNL     1     -29.994   9.020  15.908  1.00  0.00     0.004 C 
ENDBRANCH  17  18
ENDBRANCH  16  17
ENDBRANCH  15  16
ENDBRANCH  14  15
ENDBRANCH  13  14
ENDBRANCH  12  13
ENDBRANCH   1  12
TORSDOF 14
ENDMDL
MODEL 8
REMARK VINA RESULT:    -3.969      1.546      2.501
REMARK INTER + INTRA:          -9.203
REMARK INTER:                  -6.574
REMARK INTRA:                  -2.629
REMARK UNBOUND:                -1.986
REMARK SMILES CCCCCCCCCCCCCC[C@@H](C)C(=O)[O-]
REMARK SMILES IDX 9 1 10 2 11 3 12 4 13 5 14 6 15 7 16 8 17 9 18 10 19 11 8 12
REMARK SMILES IDX 7 13 6 14 5 15 4 16 3 17 2 18 1 19
REMARK H PARENT
REMARK Flexibility Score: inf
ROOT
ATOM      1  C   UNL     1     -32.998  14.357  13.660  1.00  0.00     0.000 C 
ENDROOT
BRANCH   1   2
ATOM      2  C   UNL     1     -33.719  13.118  13.111  1.00  0.00     0.000 C 
BRANCH   2   3
ATOM      3  C   UNL     1     -34.038  12.125  14.237  1.00  0.00     0.000 C 
BRANCH   3   4
ATOM      4  C   UNL     1     -33.443  10.729  13.987  1.00  0.00     0.000 C 
BRANCH   4   5
ATOM      5  C   UNL     1     -32.299  10.750  12.958  1.00  0.00     0.001 C 
BRANCH   5   6
ATOM      6  C   UNL     1     -31.030  10.038  13.463  1.00  0.00     0.009 C 
BRANCH   6   7
ATOM      7  C   UNL     1     -30.063  10.945  14.258  1.00  0.00     0.032 C 
ATOM      8  C   UNL     1     -29.678  10.283  15.586  1.00  0.00     0.014 C 
BRANCH   7   9
ATOM      9  C   UNL     1     -28.823  11.264  13.468  1.00  0.00     0.044 C 
ATOM     10  O   UNL     1     -28.449  12.456  13.314  1.00  0.00    -0.550 OA
ATOM     11  O   UNL     1     -28.077  10.235  12.906  1.00  0.00    -0.550 OA
ENDBRANCH   7   9
ENDBRANCH   6   7
ENDBRANCH   5   6
ENDBRANCH   4   5
ENDBRANCH   3   4
ENDBRANCH   2   3
ENDBRANCH   1   2
BRANCH   1  12
ATOM     12  C   UNL     1     -31.479  14.327  13.410  1.00  0.00     0.000 C 
BRANCH  12  13
ATOM     13  C   UNL     1     -30.624  15.015  14.493  1.00  0.00    -0.000 C 
BRANCH  13  14
ATOM     14  C   UNL     1     -30.375  14.176  15.760  1.00  0.00    -0.000 C 
BRANCH  14  15
ATOM     15  C   UNL     1     -31.029  14.779  17.012  1.00  0.00    -0.000 C 
BRANCH  15  16
ATOM     16  C   UNL     1     -32.288  13.997  17.404  1.00  0.00    -0.000 C 
BRANCH  16  17
ATOM     17  C   UNL     1     -32.121  12.501  17.111  1.00  0.00    -0.000 C 
BRANCH  17  18
ATOM     18  C   UNL     1     -31.972  11.699  18.409  1.00  0.00    -0.003 C 
ATOM     19  C   UNL     1     -30.565  11.834  18.982  1.00  0.00     0.004 C 
ENDBRANCH  17  18
ENDBRANCH  16  17
ENDBRANCH  15  16
ENDBRANCH  14  15
ENDBRANCH  13  14
ENDBRANCH  12  13
ENDBRANCH   1  12
TORSDOF 14
ENDMDL
MODEL 9
REMARK VINA RESULT:    -3.919      3.156      6.574
REMARK INTER + INTRA:          -9.112
REMARK INTER:                  -6.808
REMARK INTRA:                  -2.304
REMARK UNBOUND:                -1.986
REMARK SMILES CCCCCCCCCCCCCC[C@@H](C)C(=O)[O-]
REMARK SMILES IDX 9 1 10 2 11 3 12 4 13 5 14 6 15 7 16 8 17 9 18 10 19 11 8 12
REMARK SMILES IDX 7 13 6 14 5 15 4 16 3 17 2 18 1 19
REMARK H PARENT
REMARK Flexibility Score: inf
ROOT
ATOM      1  C   UNL     1     -31.389  12.841  17.074  1.00  0.00     0.000 C 
ENDROOT
BRANCH   1   2
ATOM      2  C   UNL     1     -31.685  14.342  16.936  1.00  0.00     0.000 C 
BRANCH   2   3
ATOM      3  C   UNL     1     -30.397  15.131  16.662  1.00  0.00     0.000 C 
BRANCH   3   4
ATOM      4  C   UNL     1     -29.134  14.395  17.138  1.00  0.00     0.000 C 
BRANCH   4   5
ATOM      5  C   UNL     1     -28.012  15.359  17.560  1.00  0.00     0.001 C 
BRANCH   5   6
ATOM      6  C   UNL     1     -28.548  16.653  18.203  1.00  0.00     0.009 C 
BRANCH   6   7
ATOM      7  C   UNL     1     -27.999  16.934  19.620  1.00  0.00     0.032 C 
ATOM      8  C   UNL     1     -28.926  17.896  20.372  1.00  0.00     0.014 C 
BRANCH   7   9
ATOM      9  C   UNL     1     -27.829  15.666  20.412  1.00  0.00     0.044 C 
ATOM     10  O   UNL     1     -26.681  15.203  20.644  1.00  0.00    -0.550 OA
ATOM     11  O   UNL     1     -28.947  14.999  20.899  1.00  0.00    -0.550 OA
ENDBRANCH   7   9
ENDBRANCH   6   7
ENDBRANCH   5   6
ENDBRANCH   4   5
ENDBRANCH   3   4
ENDBRANCH   2   3
ENDBRANCH   1   2
BRANCH   1  12
ATOM     12  C   UNL     1     -32.311  11.966  16.205  1.00  0.00     0.000 C 
BRANCH  12  13
ATOM     13  C   UNL     1     -33.406  12.733  15.435  1.00  0.00    -0.000 C 
BRANCH  13  14
ATOM     14  C   UNL     1     -33.265  12.709  13.902  1.00  0.00    -0.000 C 
BRANCH  14  15
ATOM     15  C   UNL     1     -33.030  14.104  13.303  1.00  0.00    -0.000 C 
BRANCH  15  16
ATOM     16  C   UNL     1     -31.531  14.400  13.174  1.00  0.00    -0.000 C 
BRANCH  16  17
ATOM     17  C   UNL     1     -30.747  13.131  12.820  1.00  0.00    -0.000 C 
BRANCH  17  18
ATOM     18  C   UNL     1     -29.537  12.956  13.744  1.00  0.00    -0.003 C 
ATOM     19  C   UNL     1     -29.314  11.487  14.088  1.00  0.00     0.004 C 
ENDBRANCH  17  18
ENDBRANCH  16  17
ENDBRANCH  15  16
ENDBRANCH  14  15
ENDBRANCH  13  14
ENDBRANCH  12  13
ENDBRANCH   1  12
TORSDOF 14
ENDMDL
