MODEL 1
REMARK VINA RESULT:    -2.703      0.000      0.000
REMARK INTER + INTRA:          -4.183
REMARK INTER:                  -3.967
REMARK INTRA:                  -0.216
REMARK UNBOUND:                -0.216
REMARK SMILES O=C([O-])CCCCCCCC(=O)[O-]
REMARK SMILES IDX 7 1 6 2 5 3 4 4 2 5 1 6 3 7 8 8 9 9 10 10 11 11 12 12 13 13
REMARK H PARENT
REMARK Flexibility Score: inf
ROOT
ATOM      1  C   UNL     1     -20.491   4.263   0.528  1.00  0.00     0.000 C 
ENDROOT
BRANCH   1   2
ATOM      2  C   UNL     1     -20.193   3.084  -0.414  1.00  0.00     0.000 C 
BRANCH   2   3
ATOM      3  C   UNL     1     -20.703   3.322  -1.847  1.00  0.00     0.006 C 
BRANCH   3   4
ATOM      4  C   UNL     1     -21.101   4.777  -2.147  1.00  0.00     0.053 C 
BRANCH   4   5
ATOM      5  C   UNL     1     -21.116   5.064  -3.616  1.00  0.00     0.041 C 
ATOM      6  O   UNL     1     -21.125   4.118  -4.447  1.00  0.00    -0.550 OA
ATOM      7  O   UNL     1     -21.085   6.377  -4.069  1.00  0.00    -0.550 OA
ENDBRANCH   4   5
ENDBRANCH   3   4
ENDBRANCH   2   3
ENDBRANCH   1   2
BRANCH   1   8
ATOM      8  C   UNL     1     -20.396   3.873   2.012  1.00  0.00     0.000 C 
BRANCH   8   9
ATOM      9  C   UNL     1     -21.125   4.867   2.934  1.00  0.00     0.006 C 
BRANCH   9  10
ATOM     10  C   UNL     1     -20.742   4.676   4.407  1.00  0.00     0.053 C 
BRANCH  10  11
ATOM     11  C   UNL     1     -20.489   5.986   5.090  1.00  0.00     0.041 C 
ATOM     12  O   UNL     1     -20.332   7.035   4.411  1.00  0.00    -0.550 OA
ATOM     13  O   UNL     1     -20.456   6.052   6.477  1.00  0.00    -0.550 OA
ENDBRANCH  10  11
ENDBRANCH   9  10
ENDBRANCH   8   9
ENDBRANCH   1   8
TORSDOF 8
ENDMDL
MODEL 2
REMARK VINA RESULT:    -2.578     16.731     19.512
REMARK INTER + INTRA:          -4.000
REMARK INTER:                  -3.537
REMARK INTRA:                  -0.462
REMARK UNBOUND:                -0.216
REMARK SMILES O=C([O-])CCCCCCCC(=O)[O-]
REMARK SMILES IDX 7 1 6 2 5 3 4 4 2 5 1 6 3 7 8 8 9 9 10 10 11 11 12 12 13 13
REMARK H PARENT
REMARK Flexibility Score: inf
ROOT
ATOM      1  C   UNL     1     -12.823  -8.570 -10.837  1.00  0.00     0.000 C 
ENDROOT
BRANCH   1   2
ATOM      2  C   UNL     1     -12.196  -9.948 -11.113  1.00  0.00     0.000 C 
BRANCH   2   3
ATOM      3  C   UNL     1     -13.099 -11.113 -10.670  1.00  0.00     0.006 C 
BRANCH   3   4
ATOM      4  C   UNL     1     -14.312 -11.360 -11.583  1.00  0.00     0.053 C 
BRANCH   4   5
ATOM      5  C   UNL     1     -15.607 -11.086 -10.884  1.00  0.00     0.041 C 
ATOM      6  O   UNL     1     -16.317 -10.104 -11.226  1.00  0.00    -0.550 OA
ATOM      7  O   UNL     1     -16.015 -11.896  -9.832  1.00  0.00    -0.550 OA
ENDBRANCH   4   5
ENDBRANCH   3   4
ENDBRANCH   2   3
ENDBRANCH   1   2
BRANCH   1   8
ATOM      8  C   UNL     1     -13.258  -7.851 -12.125  1.00  0.00     0.000 C 
BRANCH   8   9
ATOM      9  C   UNL     1     -14.625  -7.159 -11.982  1.00  0.00     0.006 C 
BRANCH   9  10
ATOM     10  C   UNL     1     -14.491  -5.702 -11.520  1.00  0.00     0.053 C 
BRANCH  10  11
ATOM     11  C   UNL     1     -15.778  -4.949 -11.672  1.00  0.00     0.041 C 
ATOM     12  O   UNL     1     -15.808  -3.703 -11.497  1.00  0.00    -0.550 OA
ATOM     13  O   UNL     1     -16.938  -5.622 -12.033  1.00  0.00    -0.550 OA
ENDBRANCH  10  11
ENDBRANCH   9  10
ENDBRANCH   8   9
ENDBRANCH   1   8
TORSDOF 8
ENDMDL
MODEL 3
REMARK VINA RESULT:    -2.517     16.720     19.826
REMARK INTER + INTRA:          -3.910
REMARK INTER:                  -3.554
REMARK INTRA:                  -0.356
REMARK UNBOUND:                -0.216
REMARK SMILES O=C([O-])CCCCCCCC(=O)[O-]
REMARK SMILES IDX 7 1 6 2 5 3 4 4 2 5 1 6 3 7 8 8 9 9 10 10 11 11 12 12 13 13
REMARK H PARENT
REMARK Flexibility Score: inf
ROOT
ATOM      1  C   UNL     1     -13.074  -8.145 -11.758  1.00  0.00     0.000 C 
ENDROOT
BRANCH   1   2
ATOM      2  C   UNL     1     -14.574  -8.223 -12.094  1.00  0.00     0.000 C 
BRANCH   2   3
ATOM      3  C   UNL     1     -15.251  -6.841 -12.122  1.00  0.00     0.006 C 
BRANCH   3   4
ATOM      4  C   UNL     1     -14.346  -5.680 -11.677  1.00  0.00     0.053 C 
BRANCH   4   5
ATOM      5  C   UNL     1     -15.106  -4.399 -11.531  1.00  0.00     0.041 C 
ATOM      6  O   UNL     1     -14.518  -3.293 -11.668  1.00  0.00    -0.550 OA
ATOM      7  O   UNL     1     -16.457  -4.423 -11.210  1.00  0.00    -0.550 OA
ENDBRANCH   4   5
ENDBRANCH   3   4
ENDBRANCH   2   3
ENDBRANCH   1   2
BRANCH   1   8
ATOM      8  C   UNL     1     -12.577  -9.376 -10.982  1.00  0.00     0.000 C 
BRANCH   8   9
ATOM      9  C   UNL     1     -12.151 -10.527 -11.910  1.00  0.00     0.006 C 
BRANCH   9  10
ATOM     10  C   UNL     1     -13.235 -11.606 -12.028  1.00  0.00     0.053 C 
BRANCH  10  11
ATOM     11  C   UNL     1     -13.688 -12.089 -10.683  1.00  0.00     0.041 C 
ATOM     12  O   UNL     1     -14.859 -11.855 -10.286  1.00  0.00    -0.550 OA
ATOM     13  O   UNL     1     -12.823 -12.823  -9.881  1.00  0.00    -0.550 OA
ENDBRANCH  10  11
ENDBRANCH   9  10
ENDBRANCH   8   9
ENDBRANCH   1   8
TORSDOF 8
ENDMDL
MODEL 4
REMARK VINA RESULT:    -2.502     17.597     19.563
REMARK INTER + INTRA:          -3.888
REMARK INTER:                  -3.693
REMARK INTRA:                  -0.195
REMARK UNBOUND:                -0.216
REMARK SMILES O=C([O-])CCCCCCCC(=O)[O-]
REMARK SMILES IDX 7 1 6 2 5 3 4 4 2 5 1 6 3 7 8 8 9 9 10 10 11 11 12 12 13 13
REMARK H PARENT
REMARK Flexibility Score: inf
ROOT
ATOM      1  C   UNL     1     -16.569 -11.228  -9.972  1.00  0.00     0.000 C 
ENDROOT
BRANCH   1   2
ATOM      2  C   UNL     1     -15.135 -11.748 -10.178  1.00  0.00     0.000 C 
BRANCH   2   3
ATOM      3  C   UNL     1     -14.268 -10.789 -11.014  1.00  0.00     0.006 C 
BRANCH   3   4
ATOM      4  C   UNL     1     -12.923 -10.421 -10.367  1.00  0.00     0.053 C 
BRANCH   4   5
ATOM      5  C   UNL     1     -12.282  -9.243 -11.033  1.00  0.00     0.041 C 
ATOM      6  O   UNL     1     -11.098  -9.318 -11.456  1.00  0.00    -0.550 OA
ATOM      7  O   UNL     1     -12.981  -8.048 -11.157  1.00  0.00    -0.550 OA
ENDBRANCH   4   5
ENDBRANCH   3   4
ENDBRANCH   2   3
ENDBRANCH   1   2
BRANCH   1   8
ATOM      8  C   UNL     1     -17.600 -12.364  -9.870  1.00  0.00     0.000 C 
BRANCH   8   9
ATOM      9  C   UNL     1     -18.955 -11.885  -9.320  1.00  0.00     0.006 C 
BRANCH   9  10
ATOM     10  C   UNL     1     -18.795 -10.770  -8.278  1.00  0.00     0.053 C 
BRANCH  10  11
ATOM     11  C   UNL     1     -20.012 -10.638  -7.414  1.00  0.00     0.041 C 
ATOM     12  O   UNL     1     -20.417 -11.617  -6.734  1.00  0.00    -0.550 OA
ATOM     13  O   UNL     1     -20.683  -9.423  -7.339  1.00  0.00    -0.550 OA
ENDBRANCH  10  11
ENDBRANCH   9  10
ENDBRANCH   8   9
ENDBRANCH   1   8
TORSDOF 8
ENDMDL
MODEL 5
REMARK VINA RESULT:    -2.427     17.461     19.883
REMARK INTER + INTRA:          -3.778
REMARK INTER:                  -3.572
REMARK INTRA:                  -0.206
REMARK UNBOUND:                -0.216
REMARK SMILES O=C([O-])CCCCCCCC(=O)[O-]
REMARK SMILES IDX 7 1 6 2 5 3 4 4 2 5 1 6 3 7 8 8 9 9 10 10 11 11 12 12 13 13
REMARK H PARENT
REMARK Flexibility Score: inf
ROOT
ATOM      1  C   UNL     1     -16.979 -10.871 -10.025  1.00  0.00     0.000 C 
ENDROOT
BRANCH   1   2
ATOM      2  C   UNL     1     -18.117 -11.876 -10.274  1.00  0.00     0.000 C 
BRANCH   2   3
ATOM      3  C   UNL     1     -19.338 -11.629  -9.370  1.00  0.00     0.006 C 
BRANCH   3   4
ATOM      4  C   UNL     1     -19.017 -10.907  -8.051  1.00  0.00     0.053 C 
BRANCH   4   5
ATOM      5  C   UNL     1     -20.255 -10.568  -7.280  1.00  0.00     0.041 C 
ATOM      6  O   UNL     1     -20.865 -11.460  -6.634  1.00  0.00    -0.550 OA
ATOM      7  O   UNL     1     -20.755  -9.272  -7.301  1.00  0.00    -0.550 OA
ENDBRANCH   4   5
ENDBRANCH   3   4
ENDBRANCH   2   3
ENDBRANCH   1   2
BRANCH   1   8
ATOM      8  C   UNL     1     -15.587 -11.498 -10.208  1.00  0.00     0.000 C 
BRANCH   8   9
ATOM      9  C   UNL     1     -14.671 -10.653 -11.110  1.00  0.00     0.006 C 
BRANCH   9  10
ATOM     10  C   UNL     1     -13.244 -10.551 -10.553  1.00  0.00     0.053 C 
BRANCH  10  11
ATOM     11  C   UNL     1     -12.524  -9.349 -11.084  1.00  0.00     0.041 C 
ATOM     12  O   UNL     1     -11.289  -9.404 -11.322  1.00  0.00    -0.550 OA
ATOM     13  O   UNL     1     -13.224  -8.178 -11.342  1.00  0.00    -0.550 OA
ENDBRANCH  10  11
ENDBRANCH   9  10
ENDBRANCH   8   9
ENDBRANCH   1   8
TORSDOF 8
ENDMDL
MODEL 6
REMARK VINA RESULT:    -2.364     18.435     20.047
REMARK INTER + INTRA:          -3.685
REMARK INTER:                  -3.222
REMARK INTRA:                  -0.463
REMARK UNBOUND:                -0.216
REMARK SMILES O=C([O-])CCCCCCCC(=O)[O-]
REMARK SMILES IDX 7 1 6 2 5 3 4 4 2 5 1 6 3 7 8 8 9 9 10 10 11 11 12 12 13 13
REMARK H PARENT
REMARK Flexibility Score: inf
ROOT
ATOM      1  C   UNL     1     -15.909 -11.240 -10.279  1.00  0.00     0.000 C 
ENDROOT
BRANCH   1   2
ATOM      2  C   UNL     1     -16.768 -12.489 -10.017  1.00  0.00     0.000 C 
BRANCH   2   3
ATOM      3  C   UNL     1     -18.270 -12.167  -9.910  1.00  0.00     0.006 C 
BRANCH   3   4
ATOM      4  C   UNL     1     -18.892 -12.482  -8.539  1.00  0.00     0.053 C 
BRANCH   4   5
ATOM      5  C   UNL     1     -19.276 -11.240  -7.797  1.00  0.00     0.041 C 
ATOM      6  O   UNL     1     -18.640 -10.169  -7.982  1.00  0.00    -0.550 OA
ATOM      7  O   UNL     1     -20.314 -11.273  -6.874  1.00  0.00    -0.550 OA
ENDBRANCH   4   5
ENDBRANCH   3   4
ENDBRANCH   2   3
ENDBRANCH   1   2
BRANCH   1   8
ATOM      8  C   UNL     1     -16.631 -10.199 -11.150  1.00  0.00     0.000 C 
BRANCH   8   9
ATOM      9  C   UNL     1     -15.661  -9.376 -12.016  1.00  0.00     0.006 C 
BRANCH   9  10
ATOM     10  C   UNL     1     -14.194  -9.719 -11.725  1.00  0.00     0.053 C 
BRANCH  10  11
ATOM     11  C   UNL     1     -13.336  -8.491 -11.674  1.00  0.00     0.041 C 
ATOM     12  O   UNL     1     -13.865  -7.350 -11.617  1.00  0.00    -0.550 OA
ATOM     13  O   UNL     1     -11.952  -8.610 -11.661  1.00  0.00    -0.550 OA
ENDBRANCH  10  11
ENDBRANCH   9  10
ENDBRANCH   8   9
ENDBRANCH   1   8
TORSDOF 8
ENDMDL
MODEL 7
REMARK VINA RESULT:    -2.222     18.503     20.175
REMARK INTER + INTRA:          -3.477
REMARK INTER:                  -3.195
REMARK INTRA:                  -0.282
REMARK UNBOUND:                -0.216
REMARK SMILES O=C([O-])CCCCCCCC(=O)[O-]
REMARK SMILES IDX 7 1 6 2 5 3 4 4 2 5 1 6 3 7 8 8 9 9 10 10 11 11 12 12 13 13
REMARK H PARENT
REMARK Flexibility Score: inf
ROOT
ATOM      1  C   UNL     1     -15.231 -11.511 -10.398  1.00  0.00     0.000 C 
ENDROOT
BRANCH   1   2
ATOM      2  C   UNL     1     -14.135 -12.325 -11.109  1.00  0.00     0.000 C 
BRANCH   2   3
ATOM      3  C   UNL     1     -12.774 -11.604 -11.124  1.00  0.00     0.006 C 
BRANCH   3   4
ATOM      4  C   UNL     1     -12.719 -10.332 -10.262  1.00  0.00     0.053 C 
BRANCH   4   5
ATOM      5  C   UNL     1     -12.240  -9.146 -11.041  1.00  0.00     0.041 C 
ATOM      6  O   UNL     1     -11.088  -9.145 -11.550  1.00  0.00    -0.550 OA
ATOM      7  O   UNL     1     -13.052  -8.027 -11.175  1.00  0.00    -0.550 OA
ENDBRANCH   4   5
ENDBRANCH   3   4
ENDBRANCH   2   3
ENDBRANCH   1   2
BRANCH   1   8
ATOM      8  C   UNL     1     -16.380 -12.393  -9.882  1.00  0.00     0.000 C 
BRANCH   8   9
ATOM      9  C   UNL     1     -17.761 -11.744 -10.083  1.00  0.00     0.006 C 
BRANCH   9  10
ATOM     10  C   UNL     1     -18.110 -10.767  -8.952  1.00  0.00     0.053 C 
BRANCH  10  11
ATOM     11  C   UNL     1     -19.305 -11.223  -8.172  1.00  0.00     0.041 C 
ATOM     12  O   UNL     1     -19.829 -10.466  -7.314  1.00  0.00    -0.550 OA
ATOM     13  O   UNL     1     -19.856 -12.475  -8.414  1.00  0.00    -0.550 OA
ENDBRANCH  10  11
ENDBRANCH   9  10
ENDBRANCH   8   9
ENDBRANCH   1   8
TORSDOF 8
ENDMDL
MODEL 8
REMARK VINA RESULT:    -1.777      1.644      7.459
REMARK INTER + INTRA:          -2.824
REMARK INTER:                  -2.548
REMARK INTRA:                  -0.276
REMARK UNBOUND:                -0.216
REMARK SMILES O=C([O-])CCCCCCCC(=O)[O-]
REMARK SMILES IDX 7 1 6 2 5 3 4 4 2 5 1 6 3 7 8 8 9 9 10 10 11 11 12 12 13 13
REMARK H PARENT
REMARK Flexibility Score: inf
ROOT
ATOM      1  C   UNL     1     -20.116   4.681   2.336  1.00  0.00     0.000 C 
ENDROOT
BRANCH   1   2
ATOM      2  C   UNL     1     -21.070   5.537   3.188  1.00  0.00     0.000 C 
BRANCH   2   3
ATOM      3  C   UNL     1     -20.910   5.282   4.698  1.00  0.00     0.006 C 
BRANCH   3   4
ATOM      4  C   UNL     1     -20.235   6.428   5.469  1.00  0.00     0.053 C 
BRANCH   4   5
ATOM      5  C   UNL     1     -19.376   5.925   6.587  1.00  0.00     0.041 C 
ATOM      6  O   UNL     1     -18.166   5.645   6.380  1.00  0.00    -0.550 OA
ATOM      7  O   UNL     1     -19.920   5.732   7.850  1.00  0.00    -0.550 OA
ENDBRANCH   4   5
ENDBRANCH   3   4
ENDBRANCH   2   3
ENDBRANCH   1   2
BRANCH   1   8
ATOM      8  C   UNL     1     -20.613   3.235   2.166  1.00  0.00     0.000 C 
BRANCH   8   9
ATOM      9  C   UNL     1     -20.979   2.903   0.708  1.00  0.00     0.006 C 
BRANCH   9  10
ATOM     10  C   UNL     1     -21.125   4.165  -0.153  1.00  0.00     0.053 C 
BRANCH  10  11
ATOM     11  C   UNL     1     -20.407   4.031  -1.462  1.00  0.00     0.041 C 
ATOM     12  O   UNL     1     -19.534   3.138  -1.617  1.00  0.00    -0.550 OA
ATOM     13  O   UNL     1     -20.725   4.875  -2.518  1.00  0.00    -0.550 OA
ENDBRANCH  10  11
ENDBRANCH   9  10
ENDBRANCH   8   9
ENDBRANCH   1   8
TORSDOF 8
ENDMDL
