MODEL 1
REMARK VINA RESULT:    -3.362      0.000      0.000
REMARK INTER + INTRA:          -6.727
REMARK INTER:                  -5.720
REMARK INTRA:                  -1.008
REMARK UNBOUND:                -1.008
REMARK SMILES CCCCCCCCCCCCCC(=O)[O-]
REMARK SMILES IDX 8 1 9 2 10 3 11 4 12 5 13 6 14 7 15 8 16 9 7 10 6 11 5 12
REMARK SMILES IDX 4 13 3 14 2 15 1 16
REMARK H PARENT
REMARK Flexibility Score: inf
ROOT
ATOM      1  C   UNL     1      15.636  16.038   7.192  1.00  0.00     0.000 C 
ENDROOT
BRANCH   1   2
ATOM      2  C   UNL     1      16.830  15.100   7.444  1.00  0.00     0.000 C 
BRANCH   2   3
ATOM      3  C   UNL     1      16.426  13.620   7.491  1.00  0.00     0.000 C 
BRANCH   3   4
ATOM      4  C   UNL     1      14.924  13.453   7.219  1.00  0.00     0.000 C 
BRANCH   4   5
ATOM      5  C   UNL     1      14.169  12.844   8.411  1.00  0.00     0.006 C 
BRANCH   5   6
ATOM      6  C   UNL     1      14.597  13.450   9.753  1.00  0.00     0.053 C 
BRANCH   6   7
ATOM      7  C   UNL     1      14.270  12.517  10.876  1.00  0.00     0.041 C 
ATOM      8  O   UNL     1      13.668  12.942  11.898  1.00  0.00    -0.550 OA
ATOM      9  O   UNL     1      14.674  11.190  10.818  1.00  0.00    -0.550 OA
ENDBRANCH   6   7
ENDBRANCH   5   6
ENDBRANCH   4   5
ENDBRANCH   3   4
ENDBRANCH   2   3
ENDBRANCH   1   2
BRANCH   1  10
ATOM     10  C   UNL     1      15.298  16.989   8.358  1.00  0.00     0.000 C 
BRANCH  10  11
ATOM     11  C   UNL     1      16.197  16.844   9.601  1.00  0.00    -0.000 C 
BRANCH  11  12
ATOM     12  C   UNL     1      16.757  18.168  10.155  1.00  0.00    -0.000 C 
BRANCH  12  13
ATOM     13  C   UNL     1      15.914  18.818  11.271  1.00  0.00    -0.000 C 
BRANCH  13  14
ATOM     14  C   UNL     1      14.996  19.963  10.808  1.00  0.00    -0.000 C 
BRANCH  14  15
ATOM     15  C   UNL     1      13.741  20.110  11.682  1.00  0.00    -0.003 C 
ATOM     16  C   UNL     1      13.336  21.575  11.819  1.00  0.00     0.004 C 
ENDBRANCH  14  15
ENDBRANCH  13  14
ENDBRANCH  12  13
ENDBRANCH  11  12
ENDBRANCH  10  11
ENDBRANCH   1  10
TORSDOF 12
ENDMDL
MODEL 2
REMARK VINA RESULT:    -3.264      2.981      6.391
REMARK INTER + INTRA:          -6.561
REMARK INTER:                  -5.257
REMARK INTRA:                  -1.304
REMARK UNBOUND:                -1.008
REMARK SMILES CCCCCCCCCCCCCC(=O)[O-]
REMARK SMILES IDX 8 1 9 2 10 3 11 4 12 5 13 6 14 7 15 8 16 9 7 10 6 11 5 12
REMARK SMILES IDX 4 13 3 14 2 15 1 16
REMARK H PARENT
REMARK Flexibility Score: inf
ROOT
ATOM      1  C   UNL     1      16.882  14.841   7.496  1.00  0.00     0.000 C 
ENDROOT
BRANCH   1   2
ATOM      2  C   UNL     1      15.886  15.955   7.127  1.00  0.00     0.000 C 
BRANCH   2   3
ATOM      3  C   UNL     1      15.349  16.706   8.353  1.00  0.00     0.000 C 
BRANCH   3   4
ATOM      4  C   UNL     1      16.240  16.460   9.580  1.00  0.00     0.000 C 
BRANCH   4   5
ATOM      5  C   UNL     1      16.337  17.687  10.499  1.00  0.00     0.006 C 
BRANCH   5   6
ATOM      6  C   UNL     1      15.454  18.849  10.028  1.00  0.00     0.053 C 
BRANCH   6   7
ATOM      7  C   UNL     1      15.524  19.985  10.998  1.00  0.00     0.041 C 
ATOM      8  O   UNL     1      16.103  21.057  10.678  1.00  0.00    -0.550 OA
ATOM      9  O   UNL     1      14.996  19.844  12.275  1.00  0.00    -0.550 OA
ENDBRANCH   6   7
ENDBRANCH   5   6
ENDBRANCH   4   5
ENDBRANCH   3   4
ENDBRANCH   2   3
ENDBRANCH   1   2
BRANCH   1  10
ATOM     10  C   UNL     1      16.370  13.405   7.263  1.00  0.00     0.000 C 
BRANCH  10  11
ATOM     11  C   UNL     1      14.881  13.298   6.880  1.00  0.00    -0.000 C 
BRANCH  11  12
ATOM     12  C   UNL     1      13.956  12.794   8.004  1.00  0.00    -0.000 C 
BRANCH  12  13
ATOM     13  C   UNL     1      14.436  13.106   9.435  1.00  0.00    -0.000 C 
BRANCH  13  14
ATOM     14  C   UNL     1      14.079  12.041  10.488  1.00  0.00    -0.000 C 
BRANCH  14  15
ATOM     15  C   UNL     1      15.288  11.605  11.328  1.00  0.00    -0.003 C 
ATOM     16  C   UNL     1      16.542  12.377  10.928  1.00  0.00     0.004 C 
ENDBRANCH  14  15
ENDBRANCH  13  14
ENDBRANCH  12  13
ENDBRANCH  11  12
ENDBRANCH  10  11
ENDBRANCH   1  10
TORSDOF 12
ENDMDL
MODEL 3
REMARK VINA RESULT:    -3.250      1.683      2.875
REMARK INTER + INTRA:          -6.538
REMARK INTER:                  -5.744
REMARK INTRA:                  -0.794
REMARK UNBOUND:                -1.008
REMARK SMILES CCCCCCCCCCCCCC(=O)[O-]
REMARK SMILES IDX 8 1 9 2 10 3 11 4 12 5 13 6 14 7 15 8 16 9 7 10 6 11 5 12
REMARK SMILES IDX 4 13 3 14 2 15 1 16
REMARK H PARENT
REMARK Flexibility Score: inf
ROOT
ATOM      1  C   UNL     1      15.866  18.014   9.416  1.00  0.00     0.000 C 
ENDROOT
BRANCH   1   2
ATOM      2  C   UNL     1      15.208  17.184   8.299  1.00  0.00     0.000 C 
BRANCH   2   3
ATOM      3  C   UNL     1      16.210  16.296   7.547  1.00  0.00     0.000 C 
BRANCH   3   4
ATOM      4  C   UNL     1      16.851  15.270   8.494  1.00  0.00     0.000 C 
BRANCH   4   5
ATOM      5  C   UNL     1      16.508  13.821   8.118  1.00  0.00     0.006 C 
BRANCH   5   6
ATOM      6  C   UNL     1      15.299  13.724   7.179  1.00  0.00     0.053 C 
BRANCH   6   7
ATOM      7  C   UNL     1      14.199  12.942   7.822  1.00  0.00     0.041 C 
ATOM      8  O   UNL     1      13.249  12.494   7.126  1.00  0.00    -0.550 OA
ATOM      9  O   UNL     1      14.194  12.749   9.198  1.00  0.00    -0.550 OA
ENDBRANCH   6   7
ENDBRANCH   5   6
ENDBRANCH   4   5
ENDBRANCH   3   4
ENDBRANCH   2   3
ENDBRANCH   1   2
BRANCH   1  10
ATOM     10  C   UNL     1      16.964  18.988   8.944  1.00  0.00     0.000 C 
BRANCH  10  11
ATOM     11  C   UNL     1      16.748  20.460   9.345  1.00  0.00    -0.000 C 
BRANCH  11  12
ATOM     12  C   UNL     1      16.593  20.705  10.858  1.00  0.00    -0.000 C 
BRANCH  12  13
ATOM     13  C   UNL     1      15.846  21.998  11.238  1.00  0.00    -0.000 C 
BRANCH  13  14
ATOM     14  C   UNL     1      14.726  21.821  12.280  1.00  0.00    -0.000 C 
BRANCH  14  15
ATOM     15  C   UNL     1      13.463  21.175  11.692  1.00  0.00    -0.003 C 
ATOM     16  C   UNL     1      13.411  19.683  12.010  1.00  0.00     0.004 C 
ENDBRANCH  14  15
ENDBRANCH  13  14
ENDBRANCH  12  13
ENDBRANCH  11  12
ENDBRANCH  10  11
ENDBRANCH   1  10
TORSDOF 12
ENDMDL
MODEL 4
REMARK VINA RESULT:    -3.165      2.031      2.716
REMARK INTER + INTRA:          -6.393
REMARK INTER:                  -5.336
REMARK INTRA:                  -1.057
REMARK UNBOUND:                -1.008
REMARK SMILES CCCCCCCCCCCCCC(=O)[O-]
REMARK SMILES IDX 8 1 9 2 10 3 11 4 12 5 13 6 14 7 15 8 16 9 7 10 6 11 5 12
REMARK SMILES IDX 4 13 3 14 2 15 1 16
REMARK H PARENT
REMARK Flexibility Score: inf
ROOT
ATOM      1  C   UNL     1      15.762  16.665   8.546  1.00  0.00     0.000 C 
ENDROOT
BRANCH   1   2
ATOM      2  C   UNL     1      16.904  15.854   9.185  1.00  0.00     0.000 C 
BRANCH   2   3
ATOM      3  C   UNL     1      16.689  15.600  10.684  1.00  0.00     0.000 C 
BRANCH   3   4
ATOM      4  C   UNL     1      15.949  14.274  10.915  1.00  0.00     0.000 C 
BRANCH   4   5
ATOM      5  C   UNL     1      15.921  13.384   9.663  1.00  0.00     0.006 C 
BRANCH   5   6
ATOM      6  C   UNL     1      14.496  13.031   9.220  1.00  0.00     0.053 C 
BRANCH   6   7
ATOM      7  C   UNL     1      14.400  13.021   7.727  1.00  0.00     0.041 C 
ATOM      8  O   UNL     1      15.363  13.435   7.028  1.00  0.00    -0.550 OA
ATOM      9  O   UNL     1      13.230  12.601   7.108  1.00  0.00    -0.550 OA
ENDBRANCH   6   7
ENDBRANCH   5   6
ENDBRANCH   4   5
ENDBRANCH   3   4
ENDBRANCH   2   3
ENDBRANCH   1   2
BRANCH   1  10
ATOM     10  C   UNL     1      15.561  18.078   9.128  1.00  0.00     0.000 C 
BRANCH  10  11
ATOM     11  C   UNL     1      16.749  19.041   8.929  1.00  0.00    -0.000 C 
BRANCH  11  12
ATOM     12  C   UNL     1      16.671  20.345   9.746  1.00  0.00    -0.000 C 
BRANCH  12  13
ATOM     13  C   UNL     1      16.464  20.155  11.262  1.00  0.00    -0.000 C 
BRANCH  13  14
ATOM     14  C   UNL     1      15.557  21.204  11.931  1.00  0.00    -0.000 C 
BRANCH  14  15
ATOM     15  C   UNL     1      14.073  21.013  11.586  1.00  0.00    -0.003 C 
ATOM     16  C   UNL     1      13.583  19.633  12.014  1.00  0.00     0.004 C 
ENDBRANCH  14  15
ENDBRANCH  13  14
ENDBRANCH  12  13
ENDBRANCH  11  12
ENDBRANCH  10  11
ENDBRANCH   1  10
TORSDOF 12
ENDMDL
MODEL 5
REMARK VINA RESULT:    -3.070      2.817      5.559
REMARK INTER + INTRA:          -6.232
REMARK INTER:                  -4.918
REMARK INTRA:                  -1.314
REMARK UNBOUND:                -1.008
REMARK SMILES CCCCCCCCCCCCCC(=O)[O-]
REMARK SMILES IDX 8 1 9 2 10 3 11 4 12 5 13 6 14 7 15 8 16 9 7 10 6 11 5 12
REMARK SMILES IDX 4 13 3 14 2 15 1 16
REMARK H PARENT
REMARK Flexibility Score: inf
ROOT
ATOM      1  C   UNL     1      14.116  12.972   7.971  1.00  0.00     0.000 C 
ENDROOT
BRANCH   1   2
ATOM      2  C   UNL     1      15.256  13.254   6.976  1.00  0.00     0.000 C 
BRANCH   2   3
ATOM      3  C   UNL     1      16.445  13.978   7.621  1.00  0.00     0.000 C 
BRANCH   3   4
ATOM      4  C   UNL     1      16.488  15.452   7.191  1.00  0.00     0.000 C 
BRANCH   4   5
ATOM      5  C   UNL     1      16.726  16.409   8.370  1.00  0.00     0.006 C 
BRANCH   5   6
ATOM      6  C   UNL     1      15.492  17.257   8.700  1.00  0.00     0.053 C 
BRANCH   6   7
ATOM      7  C   UNL     1      15.849  18.346   9.661  1.00  0.00     0.041 C 
ATOM      8  O   UNL     1      16.178  19.485   9.234  1.00  0.00    -0.550 OA
ATOM      9  O   UNL     1      15.867  18.092  11.026  1.00  0.00    -0.550 OA
ENDBRANCH   6   7
ENDBRANCH   5   6
ENDBRANCH   4   5
ENDBRANCH   3   4
ENDBRANCH   2   3
ENDBRANCH   1   2
BRANCH   1  10
ATOM     10  C   UNL     1      14.446  13.281   9.445  1.00  0.00     0.000 C 
BRANCH  10  11
ATOM     11  C   UNL     1      14.069  12.171  10.446  1.00  0.00    -0.000 C 
BRANCH  11  12
ATOM     12  C   UNL     1      13.728  12.664  11.865  1.00  0.00    -0.000 C 
BRANCH  12  13
ATOM     13  C   UNL     1      14.669  12.160  12.977  1.00  0.00    -0.000 C 
BRANCH  13  14
ATOM     14  C   UNL     1      16.060  12.819  12.999  1.00  0.00    -0.000 C 
BRANCH  14  15
ATOM     15  C   UNL     1      16.006  14.334  12.756  1.00  0.00    -0.003 C 
ATOM     16  C   UNL     1      17.010  14.754  11.687  1.00  0.00     0.004 C 
ENDBRANCH  14  15
ENDBRANCH  13  14
ENDBRANCH  12  13
ENDBRANCH  11  12
ENDBRANCH  10  11
ENDBRANCH   1  10
TORSDOF 12
ENDMDL
MODEL 6
REMARK VINA RESULT:    -3.051      2.924      5.904
REMARK INTER + INTRA:          -6.198
REMARK INTER:                  -5.045
REMARK INTRA:                  -1.154
REMARK UNBOUND:                -1.008
REMARK SMILES CCCCCCCCCCCCCC(=O)[O-]
REMARK SMILES IDX 8 1 9 2 10 3 11 4 12 5 13 6 14 7 15 8 16 9 7 10 6 11 5 12
REMARK SMILES IDX 4 13 3 14 2 15 1 16
REMARK H PARENT
REMARK Flexibility Score: inf
ROOT
ATOM      1  C   UNL     1      15.671  13.495   7.186  1.00  0.00     0.000 C 
ENDROOT
BRANCH   1   2
ATOM      2  C   UNL     1      16.424  14.693   7.791  1.00  0.00     0.000 C 
BRANCH   2   3
ATOM      3  C   UNL     1      15.936  16.042   7.245  1.00  0.00     0.000 C 
BRANCH   3   4
ATOM      4  C   UNL     1      15.173  16.826   8.324  1.00  0.00     0.000 C 
BRANCH   4   5
ATOM      5  C   UNL     1      15.964  18.032   8.852  1.00  0.00     0.006 C 
BRANCH   5   6
ATOM      6  C   UNL     1      15.903  18.157  10.380  1.00  0.00     0.053 C 
BRANCH   6   7
ATOM      7  C   UNL     1      15.235  19.437  10.773  1.00  0.00     0.041 C 
ATOM      8  O   UNL     1      15.729  20.542  10.425  1.00  0.00    -0.550 OA
ATOM      9  O   UNL     1      14.095  19.412  11.565  1.00  0.00    -0.550 OA
ENDBRANCH   6   7
ENDBRANCH   5   6
ENDBRANCH   4   5
ENDBRANCH   3   4
ENDBRANCH   2   3
ENDBRANCH   1   2
BRANCH   1  10
ATOM     10  C   UNL     1      14.400  13.072   7.949  1.00  0.00     0.000 C 
BRANCH  10  11
ATOM     11  C   UNL     1      14.421  13.361   9.463  1.00  0.00    -0.000 C 
BRANCH  11  12
ATOM     12  C   UNL     1      14.030  12.169  10.357  1.00  0.00    -0.000 C 
BRANCH  12  13
ATOM     13  C   UNL     1      15.177  11.582  11.203  1.00  0.00    -0.000 C 
BRANCH  13  14
ATOM     14  C   UNL     1      16.442  12.456  11.279  1.00  0.00    -0.000 C 
BRANCH  14  15
ATOM     15  C   UNL     1      16.501  13.307  12.556  1.00  0.00    -0.003 C 
ATOM     16  C   UNL     1      16.144  14.761  12.263  1.00  0.00     0.004 C 
ENDBRANCH  14  15
ENDBRANCH  13  14
ENDBRANCH  12  13
ENDBRANCH  11  12
ENDBRANCH  10  11
ENDBRANCH   1  10
TORSDOF 12
ENDMDL
MODEL 7
REMARK VINA RESULT:    -3.039      2.969      6.626
REMARK INTER + INTRA:          -6.178
REMARK INTER:                  -5.018
REMARK INTRA:                  -1.161
REMARK UNBOUND:                -1.008
REMARK SMILES CCCCCCCCCCCCCC(=O)[O-]
REMARK SMILES IDX 8 1 9 2 10 3 11 4 12 5 13 6 14 7 15 8 16 9 7 10 6 11 5 12
REMARK SMILES IDX 4 13 3 14 2 15 1 16
REMARK H PARENT
REMARK Flexibility Score: inf
ROOT
ATOM      1  C   UNL     1      15.891  16.650   8.166  1.00  0.00     0.000 C 
ENDROOT
BRANCH   1   2
ATOM      2  C   UNL     1      15.385  17.659   9.212  1.00  0.00     0.000 C 
BRANCH   2   3
ATOM      3  C   UNL     1      16.339  18.846   9.406  1.00  0.00     0.000 C 
BRANCH   3   4
ATOM      4  C   UNL     1      16.915  18.859  10.830  1.00  0.00     0.000 C 
BRANCH   4   5
ATOM      5  C   UNL     1      16.211  19.872  11.746  1.00  0.00     0.006 C 
BRANCH   5   6
ATOM      6  C   UNL     1      15.238  20.781  10.984  1.00  0.00     0.053 C 
BRANCH   6   7
ATOM      7  C   UNL     1      13.872  20.705  11.587  1.00  0.00     0.041 C 
ATOM      8  O   UNL     1      13.206  21.756  11.782  1.00  0.00    -0.550 OA
ATOM      9  O   UNL     1      13.352  19.478  11.981  1.00  0.00    -0.550 OA
ENDBRANCH   6   7
ENDBRANCH   5   6
ENDBRANCH   4   5
ENDBRANCH   3   4
ENDBRANCH   2   3
ENDBRANCH   1   2
BRANCH   1  10
ATOM     10  C   UNL     1      17.125  15.831   8.594  1.00  0.00     0.000 C 
BRANCH  10  11
ATOM     11  C   UNL     1      17.066  15.262  10.025  1.00  0.00    -0.000 C 
BRANCH  11  12
ATOM     12  C   UNL     1      16.556  13.811  10.126  1.00  0.00    -0.000 C 
BRANCH  12  13
ATOM     13  C   UNL     1      15.043  13.666  10.384  1.00  0.00    -0.000 C 
BRANCH  13  14
ATOM     14  C   UNL     1      14.294  12.776   9.377  1.00  0.00    -0.000 C 
BRANCH  14  15
ATOM     15  C   UNL     1      14.542  13.187   7.918  1.00  0.00    -0.003 C 
ATOM     16  C   UNL     1      13.423  12.689   7.009  1.00  0.00     0.004 C 
ENDBRANCH  14  15
ENDBRANCH  13  14
ENDBRANCH  12  13
ENDBRANCH  11  12
ENDBRANCH  10  11
ENDBRANCH   1  10
TORSDOF 12
ENDMDL
MODEL 8
REMARK VINA RESULT:    -2.957      2.109      3.097
REMARK INTER + INTRA:          -6.039
REMARK INTER:                  -5.262
REMARK INTRA:                  -0.777
REMARK UNBOUND:                -1.008
REMARK SMILES CCCCCCCCCCCCCC(=O)[O-]
REMARK SMILES IDX 8 1 9 2 10 3 11 4 12 5 13 6 14 7 15 8 16 9 7 10 6 11 5 12
REMARK SMILES IDX 4 13 3 14 2 15 1 16
REMARK H PARENT
REMARK Flexibility Score: inf
ROOT
ATOM      1  C   UNL     1      16.490  15.627  11.868  1.00  0.00     0.000 C 
ENDROOT
BRANCH   1   2
ATOM      2  C   UNL     1      16.480  14.112  12.142  1.00  0.00     0.000 C 
BRANCH   2   3
ATOM      3  C   UNL     1      15.067  13.514  12.141  1.00  0.00     0.000 C 
BRANCH   3   4
ATOM      4  C   UNL     1      15.002  12.261  11.255  1.00  0.00     0.000 C 
BRANCH   4   5
ATOM      5  C   UNL     1      14.089  12.445  10.033  1.00  0.00     0.006 C 
BRANCH   5   6
ATOM      6  C   UNL     1      14.617  13.501   9.054  1.00  0.00     0.053 C 
BRANCH   6   7
ATOM      7  C   UNL     1      14.449  13.035   7.643  1.00  0.00     0.041 C 
ATOM      8  O   UNL     1      13.336  12.597   7.248  1.00  0.00    -0.550 OA
ATOM      9  O   UNL     1      15.535  13.037   6.776  1.00  0.00    -0.550 OA
ENDBRANCH   6   7
ENDBRANCH   5   6
ENDBRANCH   4   5
ENDBRANCH   3   4
ENDBRANCH   2   3
ENDBRANCH   1   2
BRANCH   1  10
ATOM     10  C   UNL     1      17.011  16.034  10.475  1.00  0.00     0.000 C 
BRANCH  10  11
ATOM     11  C   UNL     1      16.498  17.392   9.958  1.00  0.00    -0.000 C 
BRANCH  11  12
ATOM     12  C   UNL     1      17.122  18.624  10.640  1.00  0.00    -0.000 C 
BRANCH  12  13
ATOM     13  C   UNL     1      16.157  19.443  11.520  1.00  0.00    -0.000 C 
BRANCH  13  14
ATOM     14  C   UNL     1      14.897  19.957  10.799  1.00  0.00    -0.000 C 
BRANCH  14  15
ATOM     15  C   UNL     1      13.726  20.217  11.758  1.00  0.00    -0.003 C 
ATOM     16  C   UNL     1      13.392  21.704  11.824  1.00  0.00     0.004 C 
ENDBRANCH  14  15
ENDBRANCH  13  14
ENDBRANCH  12  13
ENDBRANCH  11  12
ENDBRANCH  10  11
ENDBRANCH   1  10
TORSDOF 12
ENDMDL
MODEL 9
REMARK VINA RESULT:    -2.948      3.055      6.512
REMARK INTER + INTRA:          -6.024
REMARK INTER:                  -5.172
REMARK INTRA:                  -0.852
REMARK UNBOUND:                -1.008
REMARK SMILES CCCCCCCCCCCCCC(=O)[O-]
REMARK SMILES IDX 8 1 9 2 10 3 11 4 12 5 13 6 14 7 15 8 16 9 7 10 6 11 5 12
REMARK SMILES IDX 4 13 3 14 2 15 1 16
REMARK H PARENT
REMARK Flexibility Score: inf
ROOT
ATOM      1  C   UNL     1      14.122  12.771   8.200  1.00  0.00     0.000 C 
ENDROOT
BRANCH   1   2
ATOM      2  C   UNL     1      14.923  13.524   7.123  1.00  0.00     0.000 C 
BRANCH   2   3
ATOM      3  C   UNL     1      16.384  13.767   7.526  1.00  0.00     0.000 C 
BRANCH   3   4
ATOM      4  C   UNL     1      16.749  15.253   7.395  1.00  0.00     0.000 C 
BRANCH   4   5
ATOM      5  C   UNL     1      16.486  16.045   8.685  1.00  0.00     0.006 C 
BRANCH   5   6
ATOM      6  C   UNL     1      15.456  17.165   8.491  1.00  0.00     0.053 C 
BRANCH   6   7
ATOM      7  C   UNL     1      15.864  18.387   9.251  1.00  0.00     0.041 C 
ATOM      8  O   UNL     1      16.904  19.018   8.926  1.00  0.00    -0.550 OA
ATOM      9  O   UNL     1      15.123  18.801  10.351  1.00  0.00    -0.550 OA
ENDBRANCH   6   7
ENDBRANCH   5   6
ENDBRANCH   4   5
ENDBRANCH   3   4
ENDBRANCH   2   3
ENDBRANCH   1   2
BRANCH   1  10
ATOM     10  C   UNL     1      14.494  13.124   9.655  1.00  0.00     0.000 C 
BRANCH  10  11
ATOM     11  C   UNL     1      14.031  12.103  10.713  1.00  0.00    -0.000 C 
BRANCH  11  12
ATOM     12  C   UNL     1      14.152  12.581  12.172  1.00  0.00    -0.000 C 
BRANCH  12  13
ATOM     13  C   UNL     1      15.390  12.061  12.930  1.00  0.00    -0.000 C 
BRANCH  13  14
ATOM     14  C   UNL     1      16.667  11.934  12.079  1.00  0.00    -0.000 C 
BRANCH  14  15
ATOM     15  C   UNL     1      17.113  10.477  11.888  1.00  0.00    -0.003 C 
ATOM     16  C   UNL     1      16.794   9.639  13.123  1.00  0.00     0.004 C 
ENDBRANCH  14  15
ENDBRANCH  13  14
ENDBRANCH  12  13
ENDBRANCH  11  12
ENDBRANCH  10  11
ENDBRANCH   1  10
TORSDOF 12
ENDMDL
