MODEL 1
REMARK VINA RESULT:    -8.394      0.000      0.000
REMARK INTER + INTRA:         -15.125
REMARK INTER:                 -13.302
REMARK INTRA:                  -1.823
REMARK UNBOUND:                -1.823
REMARK SMILES C[C@@H]1O[C@@H](O[C@@H]2[C@H](Oc3cc(O)c4c(c3)O[C@H](c3ccc(O)cc3)CC4=O)O[C@H](CO)[C@H](O)[C@H]2O)[C@@H](O)[C@@H](O)[C@@H]1O
REMARK SMILES IDX 6 1 34 2 32 3 29 4 28 5 7 6 5 7 4 8 1 9 2 10 40 11 3 12
REMARK SMILES IDX 38 13 36 14 41 15 39 17 37 19 35 21 8 23 9 24 10 25 15 26
REMARK SMILES IDX 11 27 14 28 13 29 16 30 26 31 17 32 27 33 25 34 12 35 18 37
REMARK SMILES IDX 19 38 24 39 20 40 23 41 21 42 22 43 33 45 30 47 31 48
REMARK H PARENT 41 16 39 18 37 20 35 22 12 36 22 44 33 46 31 49
REMARK Flexibility Score: inf
ROOT
ATOM      1  C   UNL     1     168.945 143.985 152.087  1.00  0.00     0.221 C 
ATOM      2  C   UNL     1     168.137 142.706 151.815  1.00  0.00     0.181 C 
ATOM      3  C   UNL     1     168.747 141.906 150.635  1.00  0.00     0.177 C 
ATOM      4  C   UNL     1     169.038 142.806 149.399  1.00  0.00     0.179 C 
ATOM      5  O   UNL     1     169.658 144.048 149.730  1.00  0.00    -0.332 OA
ATOM      6  C   UNL     1     169.001 144.775 150.756  1.00  0.00     0.339 C 
ENDROOT
BRANCH   1   7
ATOM      7  O   UNL     1     168.306 144.708 153.132  1.00  0.00    -0.337 OA
BRANCH   7   8
ATOM      8  C   UNL     1     169.033 145.629 153.966  1.00  0.00     0.282 C 
ATOM      9  C   UNL     1     171.087 143.233 155.835  1.00  0.00     0.041 C 
ATOM     10  C   UNL     1     169.953 144.222 155.588  1.00  0.00     0.150 C 
ATOM     11  C   UNL     1     169.840 145.193 156.758  1.00  0.00     0.174 C 
ATOM     12  O   UNL     1     170.210 144.957 154.415  1.00  0.00    -0.344 OA
ATOM     13  C   UNL     1     168.634 146.150 156.557  1.00  0.00     0.179 C 
ATOM     14  C   UNL     1     168.409 146.580 155.066  1.00  0.00     0.202 C 
BRANCH  11  15
ATOM     15  O   UNL     1     171.045 145.921 156.843  1.00  0.00    -0.388 OA
ATOM     16  H   UNL     1     171.628 145.457 157.491  1.00  0.00     0.211 HD
ENDBRANCH  11  15
BRANCH  13  17
ATOM     17  O   UNL     1     167.423 145.702 157.157  1.00  0.00    -0.387 OA
ATOM     18  H   UNL     1     167.240 144.755 156.903  1.00  0.00     0.211 HD
ENDBRANCH  13  17
BRANCH  14  19
ATOM     19  O   UNL     1     167.071 146.890 154.823  1.00  0.00    -0.385 OA
ATOM     20  H   UNL     1     166.563 146.454 155.543  1.00  0.00     0.211 HD
ENDBRANCH  14  19
ENDBRANCH   7   8
ENDBRANCH   1   7
BRANCH   2  21
ATOM     21  O   UNL     1     168.102 141.900 152.976  1.00  0.00    -0.387 OA
ATOM     22  H   UNL     1     168.878 142.173 153.533  1.00  0.00     0.211 HD
ENDBRANCH   2  21
BRANCH   6  23
ATOM     23  O   UNL     1     167.716 145.231 150.322  1.00  0.00    -0.462 OA
BRANCH  23  24
ATOM     24  C   UNL     1     167.501 146.500 149.753  1.00  0.00     0.130 A 
ATOM     25  C   UNL     1     166.899 146.649 148.486  1.00  0.00     0.093 A 
ATOM     26  C   UNL     1     167.980 147.630 150.414  1.00  0.00     0.094 A 
ATOM     27  C   UNL     1     167.050 147.821 147.755  1.00  0.00     0.133 A 
ATOM     28  C   UNL     1     168.146 148.823 149.700  1.00  0.00     0.138 A 
ATOM     29  C   UNL     1     167.767 148.901 148.345  1.00  0.00     0.102 A 
ATOM     30  O   UNL     1     168.719 149.927 150.353  1.00  0.00    -0.484 OA
ATOM     31  C   UNL     1     168.267 150.079 147.599  1.00  0.00     0.174 C 
ATOM     32  C   UNL     1     169.078 151.146 149.691  1.00  0.00     0.211 C 
ATOM     33  O   UNL     1     167.891 150.344 146.421  1.00  0.00    -0.294 OA
ATOM     34  C   UNL     1     169.344 150.919 148.202  1.00  0.00     0.131 C 
BRANCH  27  35
ATOM     35  O   UNL     1     166.478 147.844 146.477  1.00  0.00    -0.507 OA
ATOM     36  H   UNL     1     166.061 148.645 146.020  1.00  0.00     0.293 HD
ENDBRANCH  27  35
BRANCH  32  37
ATOM     37  C   UNL     1     168.032 152.227 149.885  1.00  0.00    -0.007 A 
ATOM     38  C   UNL     1     166.716 151.864 150.191  1.00  0.00     0.011 A 
ATOM     39  C   UNL     1     168.359 153.592 149.878  1.00  0.00     0.011 A 
ATOM     40  C   UNL     1     165.766 152.817 150.505  1.00  0.00     0.046 A 
ATOM     41  C   UNL     1     167.379 154.561 150.171  1.00  0.00     0.046 A 
ATOM     42  C   UNL     1     166.092 154.164 150.504  1.00  0.00     0.115 A 
BRANCH  42  43
ATOM     43  O   UNL     1     165.118 155.121 150.846  1.00  0.00    -0.508 OA
ATOM     44  H   UNL     1     165.309 156.088 150.626  1.00  0.00     0.293 HD
ENDBRANCH  42  43
ENDBRANCH  32  37
ENDBRANCH  23  24
ENDBRANCH   6  23
BRANCH   3  45
ATOM     45  O   UNL     1     167.881 140.875 150.253  1.00  0.00    -0.387 OA
ATOM     46  H   UNL     1     168.399 140.289 149.629  1.00  0.00     0.211 HD
ENDBRANCH   3  45
BRANCH   4  47
ATOM     47  C   UNL     1     167.862 142.965 148.405  1.00  0.00     0.191 C 
BRANCH  47  48
ATOM     48  O   UNL     1     167.740 141.865 147.564  1.00  0.00    -0.394 OA
ATOM     49  H   UNL     1     166.967 142.068 146.951  1.00  0.00     0.210 HD
ENDBRANCH  47  48
ENDBRANCH   4  47
TORSDOF 14
ENDMDL
MODEL 2
REMARK VINA RESULT:    -8.250      2.145      3.414
REMARK INTER + INTRA:         -14.896
REMARK INTER:                 -13.647
REMARK INTRA:                  -1.249
REMARK UNBOUND:                -1.823
REMARK SMILES C[C@@H]1O[C@@H](O[C@@H]2[C@H](Oc3cc(O)c4c(c3)O[C@H](c3ccc(O)cc3)CC4=O)O[C@H](CO)[C@H](O)[C@H]2O)[C@@H](O)[C@@H](O)[C@@H]1O
REMARK SMILES IDX 6 1 34 2 32 3 29 4 28 5 7 6 5 7 4 8 1 9 2 10 40 11 3 12
REMARK SMILES IDX 38 13 36 14 41 15 39 17 37 19 35 21 8 23 9 24 10 25 15 26
REMARK SMILES IDX 11 27 14 28 13 29 16 30 26 31 17 32 27 33 25 34 12 35 18 37
REMARK SMILES IDX 19 38 24 39 20 40 23 41 21 42 22 43 33 45 30 47 31 48
REMARK H PARENT 41 16 39 18 37 20 35 22 12 36 22 44 33 46 31 49
REMARK Flexibility Score: inf
ROOT
ATOM      1  C   UNL     1     169.495 145.130 151.086  1.00  0.00     0.221 C 
ATOM      2  C   UNL     1     169.773 144.402 149.762  1.00  0.00     0.181 C 
ATOM      3  C   UNL     1     170.732 145.229 148.866  1.00  0.00     0.177 C 
ATOM      4  C   UNL     1     170.294 146.717 148.747  1.00  0.00     0.179 C 
ATOM      5  O   UNL     1     169.905 147.299 149.991  1.00  0.00    -0.332 OA
ATOM      6  C   UNL     1     168.958 146.537 150.723  1.00  0.00     0.339 C 
ENDROOT
BRANCH   1   7
ATOM      7  O   UNL     1     168.564 144.361 151.837  1.00  0.00    -0.337 OA
BRANCH   7   8
ATOM      8  C   UNL     1     168.861 143.912 153.173  1.00  0.00     0.282 C 
ATOM      9  C   UNL     1     167.793 146.883 155.040  1.00  0.00     0.041 C 
ATOM     10  C   UNL     1     168.765 145.895 154.403  1.00  0.00     0.150 C 
ATOM     11  C   UNL     1     169.886 145.560 155.380  1.00  0.00     0.174 C 
ATOM     12  O   UNL     1     168.086 144.708 154.070  1.00  0.00    -0.344 OA
ATOM     13  C   UNL     1     170.928 144.622 154.711  1.00  0.00     0.179 C 
ATOM     14  C   UNL     1     170.297 143.565 153.740  1.00  0.00     0.202 C 
BRANCH  11  15
ATOM     15  O   UNL     1     169.314 144.942 156.511  1.00  0.00    -0.388 OA
ATOM     16  H   UNL     1     168.440 145.372 156.675  1.00  0.00     0.211 HD
ENDBRANCH  11  15
BRANCH  13  17
ATOM     17  O   UNL     1     172.022 145.301 154.102  1.00  0.00    -0.387 OA
ATOM     18  H   UNL     1     172.176 144.952 153.180  1.00  0.00     0.211 HD
ENDBRANCH  13  17
BRANCH  14  19
ATOM     19  O   UNL     1     171.199 143.188 152.746  1.00  0.00    -0.385 OA
ATOM     20  H   UNL     1     171.098 143.853 152.029  1.00  0.00     0.211 HD
ENDBRANCH  14  19
ENDBRANCH   7   8
ENDBRANCH   1   7
BRANCH   2  21
ATOM     21  O   UNL     1     170.332 143.129 150.018  1.00  0.00    -0.387 OA
ATOM     22  H   UNL     1     171.297 143.276 150.204  1.00  0.00     0.211 HD
ENDBRANCH   2  21
BRANCH   6  23
ATOM     23  O   UNL     1     167.697 146.498 150.048  1.00  0.00    -0.462 OA
BRANCH  23  24
ATOM     24  C   UNL     1     166.815 147.592 149.999  1.00  0.00     0.130 A 
ATOM     25  C   UNL     1     165.487 147.451 149.547  1.00  0.00     0.093 A 
ATOM     26  C   UNL     1     167.293 148.864 150.315  1.00  0.00     0.094 A 
ATOM     27  C   UNL     1     164.756 148.552 149.116  1.00  0.00     0.133 A 
ATOM     28  C   UNL     1     166.578 149.990 149.889  1.00  0.00     0.138 A 
ATOM     29  C   UNL     1     165.352 149.841 149.208  1.00  0.00     0.102 A 
ATOM     30  O   UNL     1     167.118 151.264 150.129  1.00  0.00    -0.484 OA
ATOM     31  C   UNL     1     164.839 151.052 148.526  1.00  0.00     0.174 C 
ATOM     32  C   UNL     1     166.561 152.477 149.610  1.00  0.00     0.211 C 
ATOM     33  O   UNL     1     163.691 151.095 147.999  1.00  0.00    -0.294 OA
ATOM     34  C   UNL     1     165.746 152.222 148.340  1.00  0.00     0.131 C 
BRANCH  27  35
ATOM     35  O   UNL     1     163.472 148.298 148.615  1.00  0.00    -0.507 OA
ATOM     36  H   UNL     1     163.182 148.363 147.648  1.00  0.00     0.293 HD
ENDBRANCH  27  35
BRANCH  32  37
ATOM     37  C   UNL     1     165.721 153.204 150.643  1.00  0.00    -0.007 A 
ATOM     38  C   UNL     1     165.980 154.552 150.916  1.00  0.00     0.011 A 
ATOM     39  C   UNL     1     164.614 152.603 151.261  1.00  0.00     0.011 A 
ATOM     40  C   UNL     1     165.157 155.284 151.750  1.00  0.00     0.046 A 
ATOM     41  C   UNL     1     163.794 153.346 152.134  1.00  0.00     0.046 A 
ATOM     42  C   UNL     1     164.060 154.690 152.355  1.00  0.00     0.115 A 
BRANCH  42  43
ATOM     43  O   UNL     1     163.219 155.455 153.185  1.00  0.00    -0.508 OA
ATOM     44  H   UNL     1     162.817 155.004 153.994  1.00  0.00     0.293 HD
ENDBRANCH  42  43
ENDBRANCH  32  37
ENDBRANCH  23  24
ENDBRANCH   6  23
BRANCH   3  45
ATOM     45  O   UNL     1     170.795 144.670 147.584  1.00  0.00    -0.387 OA
ATOM     46  H   UNL     1     170.874 145.437 146.946  1.00  0.00     0.211 HD
ENDBRANCH   3  45
BRANCH   4  47
ATOM     47  C   UNL     1     169.300 147.025 147.601  1.00  0.00     0.191 C 
BRANCH  47  48
ATOM     48  O   UNL     1     169.951 147.249 146.394  1.00  0.00    -0.394 OA
ATOM     49  H   UNL     1     170.493 148.088 146.522  1.00  0.00     0.210 HD
ENDBRANCH  47  48
ENDBRANCH   4  47
TORSDOF 14
ENDMDL
MODEL 3
REMARK VINA RESULT:    -8.180      4.179      9.017
REMARK INTER + INTRA:         -14.785
REMARK INTER:                 -13.114
REMARK INTRA:                  -1.671
REMARK UNBOUND:                -1.823
REMARK SMILES C[C@@H]1O[C@@H](O[C@@H]2[C@H](Oc3cc(O)c4c(c3)O[C@H](c3ccc(O)cc3)CC4=O)O[C@H](CO)[C@H](O)[C@H]2O)[C@@H](O)[C@@H](O)[C@@H]1O
REMARK SMILES IDX 6 1 34 2 32 3 29 4 28 5 7 6 5 7 4 8 1 9 2 10 40 11 3 12
REMARK SMILES IDX 38 13 36 14 41 15 39 17 37 19 35 21 8 23 9 24 10 25 15 26
REMARK SMILES IDX 11 27 14 28 13 29 16 30 26 31 17 32 27 33 25 34 12 35 18 37
REMARK SMILES IDX 19 38 24 39 20 40 23 41 21 42 22 43 33 45 30 47 31 48
REMARK H PARENT 41 16 39 18 37 20 35 22 12 36 22 44 33 46 31 49
REMARK Flexibility Score: inf
ROOT
ATOM      1  C   UNL     1     173.911 143.748 159.121  1.00  0.00     0.221 C 
ATOM      2  C   UNL     1     173.392 143.446 160.536  1.00  0.00     0.181 C 
ATOM      3  C   UNL     1     173.302 141.917 160.778  1.00  0.00     0.177 C 
ATOM      4  C   UNL     1     172.584 141.175 159.613  1.00  0.00     0.179 C 
ATOM      5  O   UNL     1     173.005 141.603 158.318  1.00  0.00    -0.332 OA
ATOM      6  C   UNL     1     172.979 143.009 158.130  1.00  0.00     0.339 C 
ENDROOT
BRANCH   1   7
ATOM      7  O   UNL     1     173.912 145.158 158.933  1.00  0.00    -0.337 OA
BRANCH   7   8
ATOM      8  C   UNL     1     175.101 145.945 159.133  1.00  0.00     0.282 C 
ATOM      9  C   UNL     1     173.575 149.276 159.318  1.00  0.00     0.041 C 
ATOM     10  C   UNL     1     174.347 148.113 158.702  1.00  0.00     0.150 C 
ATOM     11  C   UNL     1     175.623 148.624 158.044  1.00  0.00     0.174 C 
ATOM     12  O   UNL     1     174.695 147.190 159.705  1.00  0.00    -0.344 OA
ATOM     13  C   UNL     1     176.374 147.462 157.338  1.00  0.00     0.179 C 
ATOM     14  C   UNL     1     176.297 146.099 158.109  1.00  0.00     0.202 C 
BRANCH  11  15
ATOM     15  O   UNL     1     176.432 149.205 159.042  1.00  0.00    -0.388 OA
ATOM     16  H   UNL     1     177.066 149.815 158.593  1.00  0.00     0.211 HD
ENDBRANCH  11  15
BRANCH  13  17
ATOM     17  O   UNL     1     176.045 147.301 155.962  1.00  0.00    -0.387 OA
ATOM     18  H   UNL     1     175.336 147.951 155.697  1.00  0.00     0.211 HD
ENDBRANCH  13  17
BRANCH  14  19
ATOM     19  O   UNL     1     176.412 145.016 157.238  1.00  0.00    -0.385 OA
ATOM     20  H   UNL     1     176.158 145.360 156.353  1.00  0.00     0.211 HD
ENDBRANCH  14  19
ENDBRANCH   7   8
ENDBRANCH   1   7
BRANCH   2  21
ATOM     21  O   UNL     1     174.240 144.037 161.500  1.00  0.00    -0.387 OA
ATOM     22  H   UNL     1     173.659 144.310 162.258  1.00  0.00     0.211 HD
ENDBRANCH   2  21
BRANCH   6  23
ATOM     23  O   UNL     1     171.637 143.506 158.148  1.00  0.00    -0.462 OA
BRANCH  23  24
ATOM     24  C   UNL     1     171.073 144.240 157.088  1.00  0.00     0.130 A 
ATOM     25  C   UNL     1     170.789 145.615 157.212  1.00  0.00     0.093 A 
ATOM     26  C   UNL     1     170.700 143.571 155.922  1.00  0.00     0.094 A 
ATOM     27  C   UNL     1     169.886 146.239 156.358  1.00  0.00     0.133 A 
ATOM     28  C   UNL     1     169.789 144.176 155.048  1.00  0.00     0.138 A 
ATOM     29  C   UNL     1     169.307 145.475 155.306  1.00  0.00     0.102 A 
ATOM     30  O   UNL     1     169.348 143.453 153.927  1.00  0.00    -0.484 OA
ATOM     31  C   UNL     1     168.127 145.897 154.517  1.00  0.00     0.174 C 
ATOM     32  C   UNL     1     168.309 143.901 153.048  1.00  0.00     0.211 C 
ATOM     33  O   UNL     1     167.680 147.079 154.547  1.00  0.00    -0.294 OA
ATOM     34  C   UNL     1     167.358 144.871 153.753  1.00  0.00     0.131 C 
BRANCH  27  35
ATOM     35  O   UNL     1     169.613 147.590 156.609  1.00  0.00    -0.507 OA
ATOM     36  H   UNL     1     170.293 148.313 156.807  1.00  0.00     0.293 HD
ENDBRANCH  27  35
BRANCH  32  37
ATOM     37  C   UNL     1     168.865 144.526 151.783  1.00  0.00    -0.007 A 
ATOM     38  C   UNL     1     169.906 143.888 151.100  1.00  0.00     0.011 A 
ATOM     39  C   UNL     1     168.296 145.671 151.205  1.00  0.00     0.011 A 
ATOM     40  C   UNL     1     170.350 144.352 149.878  1.00  0.00     0.046 A 
ATOM     41  C   UNL     1     168.772 146.158 149.971  1.00  0.00     0.046 A 
ATOM     42  C   UNL     1     169.783 145.481 149.305  1.00  0.00     0.115 A 
BRANCH  42  43
ATOM     43  O   UNL     1     170.232 145.930 148.049  1.00  0.00    -0.508 OA
ATOM     44  H   UNL     1     171.052 145.489 147.655  1.00  0.00     0.293 HD
ENDBRANCH  42  43
ENDBRANCH  32  37
ENDBRANCH  23  24
ENDBRANCH   6  23
BRANCH   3  45
ATOM     45  O   UNL     1     172.620 141.657 161.972  1.00  0.00    -0.387 OA
ATOM     46  H   UNL     1     172.445 142.547 162.395  1.00  0.00     0.211 HD
ENDBRANCH   3  45
BRANCH   4  47
ATOM     47  C   UNL     1     171.046 141.070 159.744  1.00  0.00     0.191 C 
BRANCH  47  48
ATOM     48  O   UNL     1     170.431 140.875 158.513  1.00  0.00    -0.394 OA
ATOM     49  H   UNL     1     169.785 141.640 158.400  1.00  0.00     0.210 HD
ENDBRANCH  47  48
ENDBRANCH   4  47
TORSDOF 14
ENDMDL
MODEL 4
REMARK VINA RESULT:    -8.094      1.891      5.307
REMARK INTER + INTRA:         -14.649
REMARK INTER:                 -12.731
REMARK INTRA:                  -1.919
REMARK UNBOUND:                -1.823
REMARK SMILES C[C@@H]1O[C@@H](O[C@@H]2[C@H](Oc3cc(O)c4c(c3)O[C@H](c3ccc(O)cc3)CC4=O)O[C@H](CO)[C@H](O)[C@H]2O)[C@@H](O)[C@@H](O)[C@@H]1O
REMARK SMILES IDX 6 1 34 2 32 3 29 4 28 5 7 6 5 7 4 8 1 9 2 10 40 11 3 12
REMARK SMILES IDX 38 13 36 14 41 15 39 17 37 19 35 21 8 23 9 24 10 25 15 26
REMARK SMILES IDX 11 27 14 28 13 29 16 30 26 31 17 32 27 33 25 34 12 35 18 37
REMARK SMILES IDX 19 38 24 39 20 40 23 41 21 42 22 43 33 45 30 47 31 48
REMARK H PARENT 41 16 39 18 37 20 35 22 12 36 22 44 33 46 31 49
REMARK Flexibility Score: inf
ROOT
ATOM      1  C   UNL     1     169.142 143.409 151.273  1.00  0.00     0.221 C 
ATOM      2  C   UNL     1     170.372 143.429 152.194  1.00  0.00     0.181 C 
ATOM      3  C   UNL     1     169.950 143.330 153.684  1.00  0.00     0.177 C 
ATOM      4  C   UNL     1     168.811 144.327 154.043  1.00  0.00     0.179 C 
ATOM      5  O   UNL     1     167.764 144.372 153.074  1.00  0.00    -0.332 OA
ATOM      6  C   UNL     1     168.210 144.555 151.739  1.00  0.00     0.339 C 
ENDROOT
BRANCH   1   7
ATOM      7  O   UNL     1     169.583 143.567 149.930  1.00  0.00    -0.337 OA
BRANCH   7   8
ATOM      8  C   UNL     1     168.866 144.392 148.993  1.00  0.00     0.282 C 
ATOM      9  C   UNL     1     167.375 141.761 146.916  1.00  0.00     0.041 C 
ATOM     10  C   UNL     1     168.341 142.881 147.291  1.00  0.00     0.150 C 
ATOM     11  C   UNL     1     168.488 143.856 146.128  1.00  0.00     0.174 C 
ATOM     12  O   UNL     1     167.846 143.581 148.407  1.00  0.00    -0.344 OA
ATOM     13  C   UNL     1     169.536 144.953 146.467  1.00  0.00     0.179 C 
ATOM     14  C   UNL     1     169.511 145.409 147.966  1.00  0.00     0.202 C 
BRANCH  11  15
ATOM     15  O   UNL     1     167.227 144.433 145.875  1.00  0.00    -0.388 OA
ATOM     16  H   UNL     1     167.094 145.158 146.533  1.00  0.00     0.211 HD
ENDBRANCH  11  15
BRANCH  13  17
ATOM     17  O   UNL     1     170.859 144.653 146.036  1.00  0.00    -0.387 OA
ATOM     18  H   UNL     1     171.389 145.492 145.937  1.00  0.00     0.211 HD
ENDBRANCH  13  17
BRANCH  14  19
ATOM     19  O   UNL     1     170.758 145.878 148.375  1.00  0.00    -0.385 OA
ATOM     20  H   UNL     1     170.752 146.844 148.191  1.00  0.00     0.211 HD
ENDBRANCH  14  19
ENDBRANCH   7   8
ENDBRANCH   1   7
BRANCH   2  21
ATOM     21  O   UNL     1     171.239 142.361 151.867  1.00  0.00    -0.387 OA
ATOM     22  H   UNL     1     171.237 142.290 150.876  1.00  0.00     0.211 HD
ENDBRANCH   2  21
BRANCH   6  23
ATOM     23  O   UNL     1     168.787 145.852 151.562  1.00  0.00    -0.462 OA
BRANCH  23  24
ATOM     24  C   UNL     1     168.073 146.948 151.045  1.00  0.00     0.130 A 
ATOM     25  C   UNL     1     166.673 146.906 150.878  1.00  0.00     0.093 A 
ATOM     26  C   UNL     1     168.777 148.067 150.599  1.00  0.00     0.094 A 
ATOM     27  C   UNL     1     166.028 147.786 150.016  1.00  0.00     0.133 A 
ATOM     28  C   UNL     1     168.151 148.967 149.727  1.00  0.00     0.138 A 
ATOM     29  C   UNL     1     166.803 148.783 149.359  1.00  0.00     0.102 A 
ATOM     30  O   UNL     1     168.900 150.037 149.209  1.00  0.00    -0.484 OA
ATOM     31  C   UNL     1     166.332 149.584 148.206  1.00  0.00     0.174 C 
ATOM     32  C   UNL     1     168.420 150.929 148.197  1.00  0.00     0.211 C 
ATOM     33  O   UNL     1     165.117 149.621 147.859  1.00  0.00    -0.294 OA
ATOM     34  C   UNL     1     167.333 150.275 147.342  1.00  0.00     0.131 C 
BRANCH  27  35
ATOM     35  O   UNL     1     164.647 147.615 149.861  1.00  0.00    -0.507 OA
ATOM     36  H   UNL     1     164.189 146.929 149.275  1.00  0.00     0.293 HD
ENDBRANCH  27  35
BRANCH  32  37
ATOM     37  C   UNL     1     167.921 152.237 148.783  1.00  0.00    -0.007 A 
ATOM     38  C   UNL     1     166.895 152.933 148.135  1.00  0.00     0.011 A 
ATOM     39  C   UNL     1     168.375 152.722 150.019  1.00  0.00     0.011 A 
ATOM     40  C   UNL     1     166.323 154.055 148.704  1.00  0.00     0.046 A 
ATOM     41  C   UNL     1     167.808 153.883 150.581  1.00  0.00     0.046 A 
ATOM     42  C   UNL     1     166.768 154.529 149.928  1.00  0.00     0.115 A 
BRANCH  42  43
ATOM     43  O   UNL     1     166.161 155.661 150.503  1.00  0.00    -0.508 OA
ATOM     44  H   UNL     1     166.081 155.694 151.509  1.00  0.00     0.293 HD
ENDBRANCH  42  43
ENDBRANCH  32  37
ENDBRANCH  23  24
ENDBRANCH   6  23
BRANCH   3  45
ATOM     45  O   UNL     1     171.050 143.577 154.513  1.00  0.00    -0.387 OA
ATOM     46  H   UNL     1     171.827 143.749 153.907  1.00  0.00     0.211 HD
ENDBRANCH   3  45
BRANCH   4  47
ATOM     47  C   UNL     1     169.279 145.732 154.490  1.00  0.00     0.191 C 
BRANCH  47  48
ATOM     48  O   UNL     1     168.229 146.642 154.534  1.00  0.00    -0.394 OA
ATOM     49  H   UNL     1     168.565 147.476 154.081  1.00  0.00     0.210 HD
ENDBRANCH  47  48
ENDBRANCH   4  47
TORSDOF 14
ENDMDL
MODEL 5
REMARK VINA RESULT:    -8.067      3.453      6.111
REMARK INTER + INTRA:         -14.607
REMARK INTER:                 -12.373
REMARK INTRA:                  -2.233
REMARK UNBOUND:                -1.823
REMARK SMILES C[C@@H]1O[C@@H](O[C@@H]2[C@H](Oc3cc(O)c4c(c3)O[C@H](c3ccc(O)cc3)CC4=O)O[C@H](CO)[C@H](O)[C@H]2O)[C@@H](O)[C@@H](O)[C@@H]1O
REMARK SMILES IDX 6 1 34 2 32 3 29 4 28 5 7 6 5 7 4 8 1 9 2 10 40 11 3 12
REMARK SMILES IDX 38 13 36 14 41 15 39 17 37 19 35 21 8 23 9 24 10 25 15 26
REMARK SMILES IDX 11 27 14 28 13 29 16 30 26 31 17 32 27 33 25 34 12 35 18 37
REMARK SMILES IDX 19 38 24 39 20 40 23 41 21 42 22 43 33 45 30 47 31 48
REMARK H PARENT 41 16 39 18 37 20 35 22 12 36 22 44 33 46 31 49
REMARK Flexibility Score: inf
ROOT
ATOM      1  C   UNL     1     172.489 144.836 155.423  1.00  0.00     0.221 C 
ATOM      2  C   UNL     1     172.503 143.927 156.662  1.00  0.00     0.181 C 
ATOM      3  C   UNL     1     173.500 142.753 156.478  1.00  0.00     0.177 C 
ATOM      4  C   UNL     1     173.325 142.037 155.108  1.00  0.00     0.179 C 
ATOM      5  O   UNL     1     173.170 142.936 154.010  1.00  0.00    -0.332 OA
ATOM      6  C   UNL     1     172.178 143.932 154.204  1.00  0.00     0.339 C 
ENDROOT
BRANCH   1   7
ATOM      7  O   UNL     1     171.515 145.852 155.620  1.00  0.00    -0.337 OA
BRANCH   7   8
ATOM      8  C   UNL     1     170.433 145.689 156.557  1.00  0.00     0.282 C 
ATOM      9  C   UNL     1     167.607 146.302 154.301  1.00  0.00     0.041 C 
ATOM     10  C   UNL     1     168.623 146.603 155.398  1.00  0.00     0.150 C 
ATOM     11  C   UNL     1     167.923 147.216 156.606  1.00  0.00     0.174 C 
ATOM     12  O   UNL     1     169.254 145.411 155.800  1.00  0.00    -0.344 OA
ATOM     13  C   UNL     1     168.959 147.606 157.696  1.00  0.00     0.179 C 
ATOM     14  C   UNL     1     170.154 146.599 157.821  1.00  0.00     0.202 C 
BRANCH  11  15
ATOM     15  O   UNL     1     167.003 146.272 157.108  1.00  0.00    -0.388 OA
ATOM     16  H   UNL     1     166.295 146.156 156.429  1.00  0.00     0.211 HD
ENDBRANCH  11  15
BRANCH  13  17
ATOM     17  O   UNL     1     169.418 148.951 157.613  1.00  0.00    -0.387 OA
ATOM     18  H   UNL     1     170.164 149.022 156.954  1.00  0.00     0.211 HD
ENDBRANCH  13  17
BRANCH  14  19
ATOM     19  O   UNL     1     171.300 147.228 158.304  1.00  0.00    -0.385 OA
ATOM     20  H   UNL     1     170.981 148.017 158.798  1.00  0.00     0.211 HD
ENDBRANCH  14  19
ENDBRANCH   7   8
ENDBRANCH   1   7
BRANCH   2  21
ATOM     21  O   UNL     1     172.848 144.677 157.809  1.00  0.00    -0.387 OA
ATOM     22  H   UNL     1     172.485 144.182 158.591  1.00  0.00     0.211 HD
ENDBRANCH   2  21
BRANCH   6  23
ATOM     23  O   UNL     1     170.871 143.353 154.255  1.00  0.00    -0.462 OA
BRANCH  23  24
ATOM     24  C   UNL     1     169.956 143.422 153.189  1.00  0.00     0.130 A 
ATOM     25  C   UNL     1     169.117 142.336 152.864  1.00  0.00     0.093 A 
ATOM     26  C   UNL     1     169.945 144.556 152.376  1.00  0.00     0.094 A 
ATOM     27  C   UNL     1     168.528 142.237 151.609  1.00  0.00     0.133 A 
ATOM     28  C   UNL     1     169.361 144.481 151.105  1.00  0.00     0.138 A 
ATOM     29  C   UNL     1     168.729 143.296 150.679  1.00  0.00     0.102 A 
ATOM     30  O   UNL     1     169.441 145.600 150.259  1.00  0.00    -0.484 OA
ATOM     31  C   UNL     1     168.430 143.206 149.231  1.00  0.00     0.174 C 
ATOM     32  C   UNL     1     169.020 145.595 148.890  1.00  0.00     0.211 C 
ATOM     33  O   UNL     1     167.745 142.264 148.739  1.00  0.00    -0.294 OA
ATOM     34  C   UNL     1     169.057 144.185 148.296  1.00  0.00     0.131 C 
BRANCH  27  35
ATOM     35  O   UNL     1     167.773 141.084 151.357  1.00  0.00    -0.507 OA
ATOM     36  H   UNL     1     167.598 140.327 152.006  1.00  0.00     0.293 HD
ENDBRANCH  27  35
BRANCH  32  37
ATOM     37  C   UNL     1     167.643 146.208 148.717  1.00  0.00    -0.007 A 
ATOM     38  C   UNL     1     166.950 146.015 147.517  1.00  0.00     0.011 A 
ATOM     39  C   UNL     1     166.985 146.871 149.764  1.00  0.00     0.011 A 
ATOM     40  C   UNL     1     165.644 146.442 147.369  1.00  0.00     0.046 A 
ATOM     41  C   UNL     1     165.663 147.331 149.598  1.00  0.00     0.046 A 
ATOM     42  C   UNL     1     164.994 147.093 148.406  1.00  0.00     0.115 A 
BRANCH  42  43
ATOM     43  O   UNL     1     163.657 147.504 148.247  1.00  0.00    -0.508 OA
ATOM     44  H   UNL     1     163.481 148.347 147.720  1.00  0.00     0.293 HD
ENDBRANCH  42  43
ENDBRANCH  32  37
ENDBRANCH  23  24
ENDBRANCH   6  23
BRANCH   3  45
ATOM     45  O   UNL     1     173.337 141.817 157.505  1.00  0.00    -0.387 OA
ATOM     46  H   UNL     1     173.071 140.959 157.064  1.00  0.00     0.211 HD
ENDBRANCH   3  45
BRANCH   4  47
ATOM     47  C   UNL     1     172.294 140.883 155.092  1.00  0.00     0.191 C 
BRANCH  47  48
ATOM     48  O   UNL     1     171.208 141.144 155.918  1.00  0.00    -0.394 OA
ATOM     49  H   UNL     1     171.433 141.991 156.416  1.00  0.00     0.210 HD
ENDBRANCH  47  48
ENDBRANCH   4  47
TORSDOF 14
ENDMDL
MODEL 6
REMARK VINA RESULT:    -7.857      4.067      6.732
REMARK INTER + INTRA:         -14.274
REMARK INTER:                 -12.718
REMARK INTRA:                  -1.556
REMARK UNBOUND:                -1.823
REMARK SMILES C[C@@H]1O[C@@H](O[C@@H]2[C@H](Oc3cc(O)c4c(c3)O[C@H](c3ccc(O)cc3)CC4=O)O[C@H](CO)[C@H](O)[C@H]2O)[C@@H](O)[C@@H](O)[C@@H]1O
REMARK SMILES IDX 6 1 34 2 32 3 29 4 28 5 7 6 5 7 4 8 1 9 2 10 40 11 3 12
REMARK SMILES IDX 38 13 36 14 41 15 39 17 37 19 35 21 8 23 9 24 10 25 15 26
REMARK SMILES IDX 11 27 14 28 13 29 16 30 26 31 17 32 27 33 25 34 12 35 18 37
REMARK SMILES IDX 19 38 24 39 20 40 23 41 21 42 22 43 33 45 30 47 31 48
REMARK H PARENT 41 16 39 18 37 20 35 22 12 36 22 44 33 46 31 49
REMARK Flexibility Score: inf
ROOT
ATOM      1  C   UNL     1     171.347 144.582 155.346  1.00  0.00     0.221 C 
ATOM      2  C   UNL     1     171.166 146.053 155.757  1.00  0.00     0.181 C 
ATOM      3  C   UNL     1     169.833 146.254 156.523  1.00  0.00     0.177 C 
ATOM      4  C   UNL     1     168.626 145.595 155.794  1.00  0.00     0.179 C 
ATOM      5  O   UNL     1     168.902 144.283 155.305  1.00  0.00    -0.332 OA
ATOM      6  C   UNL     1     170.089 144.183 154.535  1.00  0.00     0.339 C 
ENDROOT
BRANCH   1   7
ATOM      7  O   UNL     1     172.549 144.468 154.594  1.00  0.00    -0.337 OA
BRANCH   7   8
ATOM      8  C   UNL     1     173.703 143.785 155.117  1.00  0.00     0.282 C 
ATOM      9  C   UNL     1     172.022 141.462 157.404  1.00  0.00     0.041 C 
ATOM     10  C   UNL     1     172.833 142.684 156.984  1.00  0.00     0.150 C 
ATOM     11  C   UNL     1     174.064 142.826 157.871  1.00  0.00     0.174 C 
ATOM     12  O   UNL     1     173.253 142.538 155.649  1.00  0.00    -0.344 OA
ATOM     13  C   UNL     1     174.850 144.115 157.508  1.00  0.00     0.179 C 
ATOM     14  C   UNL     1     174.862 144.438 155.974  1.00  0.00     0.202 C 
BRANCH  11  15
ATOM     15  O   UNL     1     174.870 141.683 157.691  1.00  0.00    -0.388 OA
ATOM     16  H   UNL     1     175.543 141.677 158.415  1.00  0.00     0.211 HD
ENDBRANCH  11  15
BRANCH  13  17
ATOM     17  O   UNL     1     174.491 145.257 158.278  1.00  0.00    -0.387 OA
ATOM     18  H   UNL     1     175.074 145.328 159.085  1.00  0.00     0.211 HD
ENDBRANCH  13  17
BRANCH  14  19
ATOM     19  O   UNL     1     175.004 145.806 155.745  1.00  0.00    -0.385 OA
ATOM     20  H   UNL     1     174.327 146.241 156.308  1.00  0.00     0.211 HD
ENDBRANCH  14  19
ENDBRANCH   7   8
ENDBRANCH   1   7
BRANCH   2  21
ATOM     21  O   UNL     1     172.252 146.467 156.561  1.00  0.00    -0.387 OA
ATOM     22  H   UNL     1     172.437 147.413 156.320  1.00  0.00     0.211 HD
ENDBRANCH   2  21
BRANCH   6  23
ATOM     23  O   UNL     1     169.966 144.900 153.303  1.00  0.00    -0.462 OA
BRANCH  23  24
ATOM     24  C   UNL     1     169.217 144.430 152.209  1.00  0.00     0.130 A 
ATOM     25  C   UNL     1     168.847 143.075 152.095  1.00  0.00     0.093 A 
ATOM     26  C   UNL     1     168.915 145.307 151.167  1.00  0.00     0.094 A 
ATOM     27  C   UNL     1     168.480 142.533 150.869  1.00  0.00     0.133 A 
ATOM     28  C   UNL     1     168.547 144.787 149.920  1.00  0.00     0.138 A 
ATOM     29  C   UNL     1     168.415 143.396 149.738  1.00  0.00     0.102 A 
ATOM     30  O   UNL     1     168.339 145.677 148.853  1.00  0.00    -0.484 OA
ATOM     31  C   UNL     1     168.340 142.931 148.334  1.00  0.00     0.174 C 
ATOM     32  C   UNL     1     168.111 145.260 147.501  1.00  0.00     0.211 C 
ATOM     33  O   UNL     1     168.083 141.730 148.032  1.00  0.00    -0.294 OA
ATOM     34  C   UNL     1     168.700 143.874 147.234  1.00  0.00     0.131 C 
BRANCH  27  35
ATOM     35  O   UNL     1     168.203 141.160 150.844  1.00  0.00    -0.507 OA
ATOM     36  H   UNL     1     168.201 140.534 151.639  1.00  0.00     0.293 HD
ENDBRANCH  27  35
BRANCH  32  37
ATOM     37  C   UNL     1     166.638 145.291 147.138  1.00  0.00    -0.007 A 
ATOM     38  C   UNL     1     165.842 146.352 147.583  1.00  0.00     0.011 A 
ATOM     39  C   UNL     1     166.063 144.346 146.274  1.00  0.00     0.011 A 
ATOM     40  C   UNL     1     164.532 146.486 147.166  1.00  0.00     0.046 A 
ATOM     41  C   UNL     1     164.718 144.471 145.875  1.00  0.00     0.046 A 
ATOM     42  C   UNL     1     163.967 145.555 146.307  1.00  0.00     0.115 A 
BRANCH  42  43
ATOM     43  O   UNL     1     162.637 145.717 145.875  1.00  0.00    -0.508 OA
ATOM     44  H   UNL     1     162.315 145.141 145.110  1.00  0.00     0.293 HD
ENDBRANCH  42  43
ENDBRANCH  32  37
ENDBRANCH  23  24
ENDBRANCH   6  23
BRANCH   3  45
ATOM     45  O   UNL     1     169.574 147.619 156.689  1.00  0.00    -0.387 OA
ATOM     46  H   UNL     1     170.464 148.078 156.675  1.00  0.00     0.211 HD
ENDBRANCH   3  45
BRANCH   4  47
ATOM     47  C   UNL     1     167.915 146.491 154.751  1.00  0.00     0.191 C 
BRANCH  47  48
ATOM     48  O   UNL     1     166.907 145.809 154.081  1.00  0.00    -0.394 OA
ATOM     49  H   UNL     1     166.096 146.405 154.117  1.00  0.00     0.210 HD
ENDBRANCH  47  48
ENDBRANCH   4  47
TORSDOF 14
ENDMDL
MODEL 7
REMARK VINA RESULT:    -7.720      2.649      9.137
REMARK INTER + INTRA:         -14.056
REMARK INTER:                 -11.687
REMARK INTRA:                  -2.368
REMARK UNBOUND:                -1.823
REMARK SMILES C[C@@H]1O[C@@H](O[C@@H]2[C@H](Oc3cc(O)c4c(c3)O[C@H](c3ccc(O)cc3)CC4=O)O[C@H](CO)[C@H](O)[C@H]2O)[C@@H](O)[C@@H](O)[C@@H]1O
REMARK SMILES IDX 6 1 34 2 32 3 29 4 28 5 7 6 5 7 4 8 1 9 2 10 40 11 3 12
REMARK SMILES IDX 38 13 36 14 41 15 39 17 37 19 35 21 8 23 9 24 10 25 15 26
REMARK SMILES IDX 11 27 14 28 13 29 16 30 26 31 17 32 27 33 25 34 12 35 18 37
REMARK SMILES IDX 19 38 24 39 20 40 23 41 21 42 22 43 33 45 30 47 31 48
REMARK H PARENT 41 16 39 18 37 20 35 22 12 36 22 44 33 46 31 49
REMARK Flexibility Score: inf
ROOT
ATOM      1  C   UNL     1     165.902 150.997 148.341  1.00  0.00     0.221 C 
ATOM      2  C   UNL     1     165.415 151.791 149.564  1.00  0.00     0.181 C 
ATOM      3  C   UNL     1     165.920 153.256 149.511  1.00  0.00     0.177 C 
ATOM      4  C   UNL     1     167.442 153.346 149.200  1.00  0.00     0.179 C 
ATOM      5  O   UNL     1     167.863 152.477 148.149  1.00  0.00    -0.332 OA
ATOM      6  C   UNL     1     167.445 151.129 148.303  1.00  0.00     0.339 C 
ENDROOT
BRANCH   1   7
ATOM      7  O   UNL     1     165.466 149.650 148.474  1.00  0.00    -0.337 OA
BRANCH   7   8
ATOM      8  C   UNL     1     164.770 148.974 147.411  1.00  0.00     0.282 C 
ATOM      9  C   UNL     1     162.933 146.496 149.396  1.00  0.00     0.041 C 
ATOM     10  C   UNL     1     164.014 147.030 148.461  1.00  0.00     0.150 C 
ATOM     11  C   UNL     1     164.177 146.099 147.265  1.00  0.00     0.174 C 
ATOM     12  O   UNL     1     163.650 148.306 147.994  1.00  0.00    -0.344 OA
ATOM     13  C   UNL     1     165.335 146.586 146.351  1.00  0.00     0.179 C 
ATOM     14  C   UNL     1     165.439 148.146 146.240  1.00  0.00     0.202 C 
BRANCH  11  15
ATOM     15  O   UNL     1     162.958 146.076 146.556  1.00  0.00    -0.388 OA
ATOM     16  H   UNL     1     163.169 145.892 145.608  1.00  0.00     0.211 HD
ENDBRANCH  11  15
BRANCH  13  17
ATOM     17  O   UNL     1     166.599 145.999 146.643  1.00  0.00    -0.387 OA
ATOM     18  H   UNL     1     166.476 145.093 147.042  1.00  0.00     0.211 HD
ENDBRANCH  13  17
BRANCH  14  19
ATOM     19  O   UNL     1     166.745 148.549 145.966  1.00  0.00    -0.385 OA
ATOM     20  H   UNL     1     166.730 148.890 145.044  1.00  0.00     0.211 HD
ENDBRANCH  14  19
ENDBRANCH   7   8
ENDBRANCH   1   7
BRANCH   2  21
ATOM     21  O   UNL     1     164.003 151.769 149.624  1.00  0.00    -0.387 OA
ATOM     22  H   UNL     1     163.690 152.620 149.216  1.00  0.00     0.211 HD
ENDBRANCH   2  21
BRANCH   6  23
ATOM     23  O   UNL     1     168.088 150.515 149.424  1.00  0.00    -0.462 OA
BRANCH  23  24
ATOM     24  C   UNL     1     168.701 149.251 149.363  1.00  0.00     0.130 A 
ATOM     25  C   UNL     1     169.459 148.850 148.244  1.00  0.00     0.093 A 
ATOM     26  C   UNL     1     168.476 148.338 150.394  1.00  0.00     0.094 A 
ATOM     27  C   UNL     1     169.714 147.507 147.996  1.00  0.00     0.133 A 
ATOM     28  C   UNL     1     168.722 146.978 150.168  1.00  0.00     0.138 A 
ATOM     29  C   UNL     1     169.256 146.543 148.939  1.00  0.00     0.102 A 
ATOM     30  O   UNL     1     168.401 146.057 151.180  1.00  0.00    -0.484 OA
ATOM     31  C   UNL     1     169.181 145.087 148.678  1.00  0.00     0.174 C 
ATOM     32  C   UNL     1     168.462 144.636 151.013  1.00  0.00     0.211 C 
ATOM     33  O   UNL     1     169.744 144.548 147.683  1.00  0.00    -0.294 OA
ATOM     34  C   UNL     1     168.312 144.236 149.543  1.00  0.00     0.131 C 
BRANCH  27  35
ATOM     35  O   UNL     1     170.410 147.205 146.818  1.00  0.00    -0.507 OA
ATOM     36  H   UNL     1     171.027 147.826 146.310  1.00  0.00     0.293 HD
ENDBRANCH  27  35
BRANCH  32  37
ATOM     37  C   UNL     1     169.734 144.050 151.596  1.00  0.00    -0.007 A 
ATOM     38  C   UNL     1     170.305 144.636 152.731  1.00  0.00     0.011 A 
ATOM     39  C   UNL     1     170.304 142.866 151.103  1.00  0.00     0.011 A 
ATOM     40  C   UNL     1     171.384 144.057 153.369  1.00  0.00     0.046 A 
ATOM     41  C   UNL     1     171.423 142.294 151.740  1.00  0.00     0.046 A 
ATOM     42  C   UNL     1     171.942 142.884 152.884  1.00  0.00     0.115 A 
BRANCH  42  43
ATOM     43  O   UNL     1     173.029 142.295 153.558  1.00  0.00    -0.508 OA
ATOM     44  H   UNL     1     173.218 141.318 153.385  1.00  0.00     0.293 HD
ENDBRANCH  42  43
ENDBRANCH  32  37
ENDBRANCH  23  24
ENDBRANCH   6  23
BRANCH   3  45
ATOM     45  O   UNL     1     165.665 153.898 150.728  1.00  0.00    -0.387 OA
ATOM     46  H   UNL     1     166.434 153.676 151.329  1.00  0.00     0.211 HD
ENDBRANCH   3  45
BRANCH   4  47
ATOM     47  C   UNL     1     168.373 153.295 150.435  1.00  0.00     0.191 C 
BRANCH  47  48
ATOM     48  O   UNL     1     169.638 152.817 150.113  1.00  0.00    -0.394 OA
ATOM     49  H   UNL     1     169.507 151.866 149.809  1.00  0.00     0.210 HD
ENDBRANCH  47  48
ENDBRANCH   4  47
TORSDOF 14
ENDMDL
MODEL 8
REMARK VINA RESULT:    -7.606      2.834      9.853
REMARK INTER + INTRA:         -13.876
REMARK INTER:                 -12.312
REMARK INTRA:                  -1.563
REMARK UNBOUND:                -1.823
REMARK SMILES C[C@@H]1O[C@@H](O[C@@H]2[C@H](Oc3cc(O)c4c(c3)O[C@H](c3ccc(O)cc3)CC4=O)O[C@H](CO)[C@H](O)[C@H]2O)[C@@H](O)[C@@H](O)[C@@H]1O
REMARK SMILES IDX 6 1 34 2 32 3 29 4 28 5 7 6 5 7 4 8 1 9 2 10 40 11 3 12
REMARK SMILES IDX 38 13 36 14 41 15 39 17 37 19 35 21 8 23 9 24 10 25 15 26
REMARK SMILES IDX 11 27 14 28 13 29 16 30 26 31 17 32 27 33 25 34 12 35 18 37
REMARK SMILES IDX 19 38 24 39 20 40 23 41 21 42 22 43 33 45 30 47 31 48
REMARK H PARENT 41 16 39 18 37 20 35 22 12 36 22 44 33 46 31 49
REMARK Flexibility Score: inf
ROOT
ATOM      1  C   UNL     1     168.627 144.942 150.781  1.00  0.00     0.221 C 
ATOM      2  C   UNL     1     169.128 143.672 150.073  1.00  0.00     0.181 C 
ATOM      3  C   UNL     1     168.293 142.436 150.498  1.00  0.00     0.177 C 
ATOM      4  C   UNL     1     168.125 142.336 152.041  1.00  0.00     0.179 C 
ATOM      5  O   UNL     1     167.803 143.581 152.662  1.00  0.00    -0.332 OA
ATOM      6  C   UNL     1     168.659 144.653 152.302  1.00  0.00     0.339 C 
ENDROOT
BRANCH   1   7
ATOM      7  O   UNL     1     169.466 146.027 150.406  1.00  0.00    -0.337 OA
BRANCH   7   8
ATOM      8  C   UNL     1     168.933 147.342 150.161  1.00  0.00     0.282 C 
ATOM      9  C   UNL     1     166.336 146.476 147.718  1.00  0.00     0.041 C 
ATOM     10  C   UNL     1     167.669 147.019 148.223  1.00  0.00     0.150 C 
ATOM     11  C   UNL     1     167.954 148.377 147.590  1.00  0.00     0.174 C 
ATOM     12  O   UNL     1     167.621 147.174 149.621  1.00  0.00    -0.344 OA
ATOM     13  C   UNL     1     169.349 148.900 148.029  1.00  0.00     0.179 C 
ATOM     14  C   UNL     1     169.715 148.557 149.515  1.00  0.00     0.202 C 
BRANCH  11  15
ATOM     15  O   UNL     1     166.939 149.270 147.989  1.00  0.00    -0.388 OA
ATOM     16  H   UNL     1     166.072 148.820 147.843  1.00  0.00     0.211 HD
ENDBRANCH  11  15
BRANCH  13  17
ATOM     17  O   UNL     1     170.409 148.561 147.141  1.00  0.00    -0.387 OA
ATOM     18  H   UNL     1     171.292 148.745 147.569  1.00  0.00     0.211 HD
ENDBRANCH  13  17
BRANCH  14  19
ATOM     19  O   UNL     1     171.095 148.472 149.692  1.00  0.00    -0.385 OA
ATOM     20  H   UNL     1     171.312 147.515 149.630  1.00  0.00     0.211 HD
ENDBRANCH  14  19
ENDBRANCH   7   8
ENDBRANCH   1   7
BRANCH   2  21
ATOM     21  O   UNL     1     169.061 143.841 148.671  1.00  0.00    -0.387 OA
ATOM     22  H   UNL     1     169.986 144.036 148.366  1.00  0.00     0.211 HD
ENDBRANCH   2  21
BRANCH   6  23
ATOM     23  O   UNL     1     169.983 144.446 152.804  1.00  0.00    -0.462 OA
BRANCH  23  24
ATOM     24  C   UNL     1     170.311 144.526 154.170  1.00  0.00     0.130 A 
ATOM     25  C   UNL     1     169.794 145.546 154.994  1.00  0.00     0.093 A 
ATOM     26  C   UNL     1     171.243 143.633 154.698  1.00  0.00     0.094 A 
ATOM     27  C   UNL     1     170.407 145.874 156.198  1.00  0.00     0.133 A 
ATOM     28  C   UNL     1     171.878 143.941 155.907  1.00  0.00     0.138 A 
ATOM     29  C   UNL     1     171.531 145.107 156.618  1.00  0.00     0.102 A 
ATOM     30  O   UNL     1     172.884 143.082 156.380  1.00  0.00    -0.484 OA
ATOM     31  C   UNL     1     172.462 145.510 157.697  1.00  0.00     0.174 C 
ATOM     32  C   UNL     1     173.707 143.368 157.516  1.00  0.00     0.211 C 
ATOM     33  O   UNL     1     172.201 146.451 158.500  1.00  0.00    -0.294 OA
ATOM     34  C   UNL     1     173.810 144.873 157.770  1.00  0.00     0.131 C 
BRANCH  27  35
ATOM     35  O   UNL     1     169.863 146.952 156.909  1.00  0.00    -0.507 OA
ATOM     36  H   UNL     1     168.988 147.420 156.712  1.00  0.00     0.293 HD
ENDBRANCH  27  35
BRANCH  32  37
ATOM     37  C   UNL     1     173.224 142.650 158.763  1.00  0.00    -0.007 A 
ATOM     38  C   UNL     1     173.903 142.839 159.972  1.00  0.00     0.011 A 
ATOM     39  C   UNL     1     172.047 141.886 158.775  1.00  0.00     0.011 A 
ATOM     40  C   UNL     1     173.420 142.311 161.153  1.00  0.00     0.046 A 
ATOM     41  C   UNL     1     171.574 141.325 159.978  1.00  0.00     0.046 A 
ATOM     42  C   UNL     1     172.254 141.561 161.164  1.00  0.00     0.115 A 
BRANCH  42  43
ATOM     43  O   UNL     1     171.763 141.047 162.380  1.00  0.00    -0.508 OA
ATOM     44  H   UNL     1     172.434 140.731 163.064  1.00  0.00     0.293 HD
ENDBRANCH  42  43
ENDBRANCH  32  37
ENDBRANCH  23  24
ENDBRANCH   6  23
BRANCH   3  45
ATOM     45  O   UNL     1     168.896 141.263 150.029  1.00  0.00    -0.387 OA
ATOM     46  H   UNL     1     168.204 140.544 150.098  1.00  0.00     0.211 HD
ENDBRANCH   3  45
BRANCH   4  47
ATOM     47  C   UNL     1     169.246 141.567 152.780  1.00  0.00     0.191 C 
BRANCH  47  48
ATOM     48  O   UNL     1     168.861 141.189 154.061  1.00  0.00    -0.394 OA
ATOM     49  H   UNL     1     168.524 142.026 154.509  1.00  0.00     0.210 HD
ENDBRANCH  47  48
ENDBRANCH   4  47
TORSDOF 14
ENDMDL
MODEL 9
REMARK VINA RESULT:    -7.561      1.986      8.741
REMARK INTER + INTRA:         -13.804
REMARK INTER:                 -12.306
REMARK INTRA:                  -1.498
REMARK UNBOUND:                -1.823
REMARK SMILES C[C@@H]1O[C@@H](O[C@@H]2[C@H](Oc3cc(O)c4c(c3)O[C@H](c3ccc(O)cc3)CC4=O)O[C@H](CO)[C@H](O)[C@H]2O)[C@@H](O)[C@@H](O)[C@@H]1O
REMARK SMILES IDX 6 1 34 2 32 3 29 4 28 5 7 6 5 7 4 8 1 9 2 10 40 11 3 12
REMARK SMILES IDX 38 13 36 14 41 15 39 17 37 19 35 21 8 23 9 24 10 25 15 26
REMARK SMILES IDX 11 27 14 28 13 29 16 30 26 31 17 32 27 33 25 34 12 35 18 37
REMARK SMILES IDX 19 38 24 39 20 40 23 41 21 42 22 43 33 45 30 47 31 48
REMARK H PARENT 41 16 39 18 37 20 35 22 12 36 22 44 33 46 31 49
REMARK Flexibility Score: inf
ROOT
ATOM      1  C   UNL     1     166.274 150.006 148.886  1.00  0.00     0.221 C 
ATOM      2  C   UNL     1     166.143 149.644 147.398  1.00  0.00     0.181 C 
ATOM      3  C   UNL     1     165.080 148.534 147.190  1.00  0.00     0.177 C 
ATOM      4  C   UNL     1     165.271 147.340 148.170  1.00  0.00     0.179 C 
ATOM      5  O   UNL     1     165.536 147.741 149.513  1.00  0.00    -0.332 OA
ATOM      6  C   UNL     1     166.581 148.692 149.645  1.00  0.00     0.339 C 
ENDROOT
BRANCH   1   7
ATOM      7  O   UNL     1     167.303 150.978 149.024  1.00  0.00    -0.337 OA
BRANCH   7   8
ATOM      8  C   UNL     1     167.259 151.982 150.054  1.00  0.00     0.282 C 
ATOM      9  C   UNL     1     163.623 152.241 150.463  1.00  0.00     0.041 C 
ATOM     10  C   UNL     1     165.021 152.650 150.010  1.00  0.00     0.150 C 
ATOM     11  C   UNL     1     165.262 154.122 150.320  1.00  0.00     0.174 C 
ATOM     12  O   UNL     1     165.984 151.881 150.690  1.00  0.00    -0.344 OA
ATOM     13  C   UNL     1     166.650 154.571 149.784  1.00  0.00     0.179 C 
ATOM     14  C   UNL     1     167.764 153.476 149.919  1.00  0.00     0.202 C 
BRANCH  11  15
ATOM     15  O   UNL     1     165.188 154.296 151.717  1.00  0.00    -0.388 OA
ATOM     16  H   UNL     1     165.264 153.403 152.133  1.00  0.00     0.211 HD
ENDBRANCH  11  15
BRANCH  13  17
ATOM     17  O   UNL     1     166.621 155.125 148.473  1.00  0.00    -0.387 OA
ATOM     18  H   UNL     1     165.700 155.068 148.093  1.00  0.00     0.211 HD
ENDBRANCH  13  17
BRANCH  14  19
ATOM     19  O   UNL     1     168.750 153.632 148.946  1.00  0.00    -0.385 OA
ATOM     20  H   UNL     1     168.645 152.867 148.338  1.00  0.00     0.211 HD
ENDBRANCH  14  19
ENDBRANCH   7   8
ENDBRANCH   1   7
BRANCH   2  21
ATOM     21  O   UNL     1     165.794 150.791 146.649  1.00  0.00    -0.387 OA
ATOM     22  H   UNL     1     166.339 151.540 147.011  1.00  0.00     0.211 HD
ENDBRANCH   2  21
BRANCH   6  23
ATOM     23  O   UNL     1     167.844 148.121 149.289  1.00  0.00    -0.462 OA
BRANCH  23  24
ATOM     24  C   UNL     1     168.533 147.204 150.103  1.00  0.00     0.130 A 
ATOM     25  C   UNL     1     169.486 146.313 149.569  1.00  0.00     0.093 A 
ATOM     26  C   UNL     1     168.196 147.109 151.453  1.00  0.00     0.094 A 
ATOM     27  C   UNL     1     169.858 145.165 150.258  1.00  0.00     0.133 A 
ATOM     28  C   UNL     1     168.555 145.961 152.169  1.00  0.00     0.138 A 
ATOM     29  C   UNL     1     169.309 144.942 151.553  1.00  0.00     0.102 A 
ATOM     30  O   UNL     1     168.127 145.834 153.501  1.00  0.00    -0.484 OA
ATOM     31  C   UNL     1     169.364 143.650 152.274  1.00  0.00     0.174 C 
ATOM     32  C   UNL     1     168.299 144.648 154.285  1.00  0.00     0.211 C 
ATOM     33  O   UNL     1     170.114 142.701 151.906  1.00  0.00    -0.294 OA
ATOM     34  C   UNL     1     168.416 143.404 153.401  1.00  0.00     0.131 C 
BRANCH  27  35
ATOM     35  O   UNL     1     170.755 144.305 149.611  1.00  0.00    -0.507 OA
ATOM     36  H   UNL     1     170.560 143.366 149.289  1.00  0.00     0.293 HD
ENDBRANCH  27  35
BRANCH  32  37
ATOM     37  C   UNL     1     169.490 144.750 155.218  1.00  0.00    -0.007 A 
ATOM     38  C   UNL     1     169.816 145.988 155.783  1.00  0.00     0.011 A 
ATOM     39  C   UNL     1     170.216 143.622 155.628  1.00  0.00     0.011 A 
ATOM     40  C   UNL     1     170.809 146.099 156.738  1.00  0.00     0.046 A 
ATOM     41  C   UNL     1     171.247 143.745 156.581  1.00  0.00     0.046 A 
ATOM     42  C   UNL     1     171.521 144.982 157.146  1.00  0.00     0.115 A 
BRANCH  42  43
ATOM     43  O   UNL     1     172.515 145.108 158.135  1.00  0.00    -0.508 OA
ATOM     44  H   UNL     1     172.759 146.038 158.444  1.00  0.00     0.293 HD
ENDBRANCH  42  43
ENDBRANCH  32  37
ENDBRANCH  23  24
ENDBRANCH   6  23
BRANCH   3  45
ATOM     45  O   UNL     1     165.132 148.057 145.876  1.00  0.00    -0.387 OA
ATOM     46  H   UNL     1     165.662 147.208 145.905  1.00  0.00     0.211 HD
ENDBRANCH   3  45
BRANCH   4  47
ATOM     47  C   UNL     1     166.223 146.225 147.674  1.00  0.00     0.191 C 
BRANCH  47  48
ATOM     48  O   UNL     1     167.248 146.729 146.883  1.00  0.00    -0.394 OA
ATOM     49  H   UNL     1     167.473 147.635 147.262  1.00  0.00     0.210 HD
ENDBRANCH  47  48
ENDBRANCH   4  47
TORSDOF 14
ENDMDL
