MODEL 1
REMARK VINA RESULT:    -3.993      0.000      0.000
REMARK INTER + INTRA:          -4.370
REMARK INTER:                  -4.343
REMARK INTRA:                  -0.027
REMARK UNBOUND:                -0.027
REMARK SMILES O=C([O-])c1ccc(O)cc1
REMARK SMILES IDX 7 1 6 2 9 3 5 4 10 5 4 6 8 7 2 9 1 10 3 11
REMARK H PARENT 8 8
REMARK Flexibility Score: inf
ROOT
ATOM      1  C   UNL     1      14.019  17.010   7.937  1.00  0.00     0.115 A 
ATOM      2  C   UNL     1      12.624  17.021   7.859  1.00  0.00     0.047 A 
ATOM      3  C   UNL     1      14.645  17.011   9.190  1.00  0.00     0.047 A 
ATOM      4  C   UNL     1      11.853  17.034   9.026  1.00  0.00     0.014 A 
ATOM      5  C   UNL     1      13.878  17.024  10.358  1.00  0.00     0.014 A 
ATOM      6  C   UNL     1      12.472  17.035  10.288  1.00  0.00    -0.003 A 
ENDROOT
BRANCH   1   7
ATOM      7  O   UNL     1      14.773  16.997   6.765  1.00  0.00    -0.508 OA
ATOM      8  H   UNL     1      15.065  17.857   6.313  1.00  0.00     0.293 HD
ENDBRANCH   1   7
BRANCH   6   9
ATOM      9  C   UNL     1      11.655  17.049  11.522  1.00  0.00     0.071 C 
ATOM     10  O   UNL     1      11.153  18.124  11.945  1.00  0.00    -0.545 OA
ATOM     11  O   UNL     1      11.430  15.875  12.232  1.00  0.00    -0.545 OA
ENDBRANCH   6   9
TORSDOF 2
ENDMDL
MODEL 2
REMARK VINA RESULT:    -3.983      2.516      4.891
REMARK INTER + INTRA:          -4.360
REMARK INTER:                  -4.332
REMARK INTRA:                  -0.027
REMARK UNBOUND:                -0.027
REMARK SMILES O=C([O-])c1ccc(O)cc1
REMARK SMILES IDX 7 1 6 2 9 3 5 4 10 5 4 6 8 7 2 9 1 10 3 11
REMARK H PARENT 8 8
REMARK Flexibility Score: inf
ROOT
ATOM      1  C   UNL     1      13.429  17.087   8.707  1.00  0.00     0.115 A 
ATOM      2  C   UNL     1      14.119  17.457   7.550  1.00  0.00     0.047 A 
ATOM      3  C   UNL     1      13.982  16.132   9.570  1.00  0.00     0.047 A 
ATOM      4  C   UNL     1      15.358  16.879   7.253  1.00  0.00     0.014 A 
ATOM      5  C   UNL     1      15.219  15.552   9.276  1.00  0.00     0.014 A 
ATOM      6  C   UNL     1      15.921  15.920   8.113  1.00  0.00    -0.003 A 
ENDROOT
BRANCH   1   7
ATOM      7  O   UNL     1      12.197  17.672   8.990  1.00  0.00    -0.508 OA
ATOM      8  H   UNL     1      11.333  17.144   8.929  1.00  0.00     0.293 HD
ENDBRANCH   1   7
BRANCH   6   9
ATOM      9  C   UNL     1      17.231  15.309   7.796  1.00  0.00     0.071 C 
ATOM     10  O   UNL     1      18.264  15.642   8.434  1.00  0.00    -0.545 OA
ATOM     11  O   UNL     1      17.339  14.358   6.787  1.00  0.00    -0.545 OA
ENDBRANCH   6   9
TORSDOF 2
ENDMDL
MODEL 3
REMARK VINA RESULT:    -3.958      1.205      4.349
REMARK INTER + INTRA:          -4.333
REMARK INTER:                  -4.297
REMARK INTRA:                  -0.035
REMARK UNBOUND:                -0.027
REMARK SMILES O=C([O-])c1ccc(O)cc1
REMARK SMILES IDX 7 1 6 2 9 3 5 4 10 5 4 6 8 7 2 9 1 10 3 11
REMARK H PARENT 8 8
REMARK Flexibility Score: inf
ROOT
ATOM      1  C   UNL     1      11.204  16.748  10.869  1.00  0.00     0.115 A 
ATOM      2  C   UNL     1      12.443  16.773  11.515  1.00  0.00     0.047 A 
ATOM      3  C   UNL     1      11.144  16.873   9.476  1.00  0.00     0.047 A 
ATOM      4  C   UNL     1      13.620  16.923  10.775  1.00  0.00     0.014 A 
ATOM      5  C   UNL     1      12.319  17.023   8.732  1.00  0.00     0.014 A 
ATOM      6  C   UNL     1      13.571  17.049   9.375  1.00  0.00    -0.003 A 
ENDROOT
BRANCH   1   7
ATOM      7  O   UNL     1      10.040  16.598  11.620  1.00  0.00    -0.508 OA
ATOM      8  H   UNL     1       9.990  15.944  12.394  1.00  0.00     0.293 HD
ENDBRANCH   1   7
BRANCH   6   9
ATOM      9  C   UNL     1      14.818  17.208   8.594  1.00  0.00     0.071 C 
ATOM     10  O   UNL     1      15.904  17.477   9.171  1.00  0.00    -0.545 OA
ATOM     11  O   UNL     1      14.806  17.064   7.211  1.00  0.00    -0.545 OA
ENDBRANCH   6   9
TORSDOF 2
ENDMDL
MODEL 4
REMARK VINA RESULT:    -3.872      2.447      4.945
REMARK INTER + INTRA:          -4.238
REMARK INTER:                  -4.209
REMARK INTRA:                  -0.030
REMARK UNBOUND:                -0.027
REMARK SMILES O=C([O-])c1ccc(O)cc1
REMARK SMILES IDX 7 1 6 2 9 3 5 4 10 5 4 6 8 7 2 9 1 10 3 11
REMARK H PARENT 8 8
REMARK Flexibility Score: inf
ROOT
ATOM      1  C   UNL     1      13.397  17.269   8.805  1.00  0.00     0.115 A 
ATOM      2  C   UNL     1      14.153  16.873   9.910  1.00  0.00     0.047 A 
ATOM      3  C   UNL     1      13.992  17.316   7.537  1.00  0.00     0.047 A 
ATOM      4  C   UNL     1      15.499  16.524   9.756  1.00  0.00     0.014 A 
ATOM      5  C   UNL     1      15.336  16.969   7.379  1.00  0.00     0.014 A 
ATOM      6  C   UNL     1      16.105  16.569   8.487  1.00  0.00    -0.003 A 
ENDROOT
BRANCH   1   7
ATOM      7  O   UNL     1      12.058  17.613   8.975  1.00  0.00    -0.508 OA
ATOM      8  H   UNL     1      11.613  17.575   9.885  1.00  0.00     0.293 HD
ENDBRANCH   1   7
BRANCH   6   9
ATOM      9  C   UNL     1      17.529  16.200   8.326  1.00  0.00     0.071 C 
ATOM     10  O   UNL     1      17.873  15.323   7.492  1.00  0.00    -0.545 OA
ATOM     11  O   UNL     1      18.508  16.819   9.096  1.00  0.00    -0.545 OA
ENDBRANCH   6   9
TORSDOF 2
ENDMDL
MODEL 5
REMARK VINA RESULT:    -3.870      1.813      4.327
REMARK INTER + INTRA:          -4.237
REMARK INTER:                  -4.203
REMARK INTRA:                  -0.033
REMARK UNBOUND:                -0.027
REMARK SMILES O=C([O-])c1ccc(O)cc1
REMARK SMILES IDX 7 1 6 2 9 3 5 4 10 5 4 6 8 7 2 9 1 10 3 11
REMARK H PARENT 8 8
REMARK Flexibility Score: inf
ROOT
ATOM      1  C   UNL     1      12.130  17.238   9.247  1.00  0.00     0.115 A 
ATOM      2  C   UNL     1      12.915  17.121  10.397  1.00  0.00     0.047 A 
ATOM      3  C   UNL     1      12.736  17.195   7.985  1.00  0.00     0.047 A 
ATOM      4  C   UNL     1      14.300  16.962  10.292  1.00  0.00     0.014 A 
ATOM      5  C   UNL     1      14.121  17.037   7.875  1.00  0.00     0.014 A 
ATOM      6  C   UNL     1      14.918  16.918   9.029  1.00  0.00    -0.003 A 
ENDROOT
BRANCH   1   7
ATOM      7  O   UNL     1      10.751  17.396   9.368  1.00  0.00    -0.508 OA
ATOM      8  H   UNL     1      10.132  17.272   8.574  1.00  0.00     0.293 HD
ENDBRANCH   1   7
BRANCH   6   9
ATOM      9  C   UNL     1      16.385  16.751   8.920  1.00  0.00     0.071 C 
ATOM     10  O   UNL     1      17.016  16.067   9.768  1.00  0.00    -0.545 OA
ATOM     11  O   UNL     1      17.087  17.348   7.879  1.00  0.00    -0.545 OA
ENDBRANCH   6   9
TORSDOF 2
ENDMDL
MODEL 6
REMARK VINA RESULT:    -3.790      2.812      4.769
REMARK INTER + INTRA:          -4.149
REMARK INTER:                  -4.122
REMARK INTRA:                  -0.027
REMARK UNBOUND:                -0.027
REMARK SMILES O=C([O-])c1ccc(O)cc1
REMARK SMILES IDX 7 1 6 2 9 3 5 4 10 5 4 6 8 7 2 9 1 10 3 11
REMARK H PARENT 8 8
REMARK Flexibility Score: inf
ROOT
ATOM      1  C   UNL     1      13.998  17.358   8.207  1.00  0.00     0.115 A 
ATOM      2  C   UNL     1      14.937  17.081   7.211  1.00  0.00     0.047 A 
ATOM      3  C   UNL     1      14.376  17.296   9.554  1.00  0.00     0.047 A 
ATOM      4  C   UNL     1      16.250  16.742   7.553  1.00  0.00     0.014 A 
ATOM      5  C   UNL     1      15.687  16.957   9.902  1.00  0.00     0.014 A 
ATOM      6  C   UNL     1      16.639  16.677   8.904  1.00  0.00    -0.003 A 
ENDROOT
BRANCH   1   7
ATOM      7  O   UNL     1      12.694  17.694   7.849  1.00  0.00    -0.508 OA
ATOM      8  H   UNL     1      12.139  18.332   8.409  1.00  0.00     0.293 HD
ENDBRANCH   1   7
BRANCH   6   9
ATOM      9  C   UNL     1      18.028  16.318   9.265  1.00  0.00     0.071 C 
ATOM     10  O   UNL     1      18.870  17.213   9.539  1.00  0.00    -0.545 OA
ATOM     11  O   UNL     1      18.424  14.985   9.304  1.00  0.00    -0.545 OA
ENDBRANCH   6   9
TORSDOF 2
ENDMDL
MODEL 7
REMARK VINA RESULT:    -3.784      3.154      4.444
REMARK INTER + INTRA:          -4.143
REMARK INTER:                  -4.113
REMARK INTRA:                  -0.030
REMARK UNBOUND:                -0.027
REMARK SMILES O=C([O-])c1ccc(O)cc1
REMARK SMILES IDX 7 1 6 2 9 3 5 4 10 5 4 6 8 7 2 9 1 10 3 11
REMARK H PARENT 8 8
REMARK Flexibility Score: inf
ROOT
ATOM      1  C   UNL     1      11.368  16.734  11.864  1.00  0.00     0.115 A 
ATOM      2  C   UNL     1      11.951  17.999  11.971  1.00  0.00     0.047 A 
ATOM      3  C   UNL     1      12.162  15.589  12.001  1.00  0.00     0.047 A 
ATOM      4  C   UNL     1      13.322  18.125  12.212  1.00  0.00     0.014 A 
ATOM      5  C   UNL     1      13.534  15.710  12.242  1.00  0.00     0.014 A 
ATOM      6  C   UNL     1      14.129  16.981  12.351  1.00  0.00    -0.003 A 
ENDROOT
BRANCH   1   7
ATOM      7  O   UNL     1      10.000  16.625  11.624  1.00  0.00    -0.508 OA
ATOM      8  H   UNL     1       9.324  16.662  12.380  1.00  0.00     0.293 HD
ENDBRANCH   1   7
BRANCH   6   9
ATOM      9  C   UNL     1      15.580  17.117  12.605  1.00  0.00     0.071 C 
ATOM     10  O   UNL     1      16.301  17.815  11.846  1.00  0.00    -0.545 OA
ATOM     11  O   UNL     1      16.169  16.472  13.688  1.00  0.00    -0.545 OA
ENDBRANCH   6   9
TORSDOF 2
ENDMDL
MODEL 8
REMARK VINA RESULT:    -3.746      1.675      2.491
REMARK INTER + INTRA:          -4.102
REMARK INTER:                  -4.074
REMARK INTRA:                  -0.028
REMARK UNBOUND:                -0.027
REMARK SMILES O=C([O-])c1ccc(O)cc1
REMARK SMILES IDX 7 1 6 2 9 3 5 4 10 5 4 6 8 7 2 9 1 10 3 11
REMARK H PARENT 8 8
REMARK Flexibility Score: inf
ROOT
ATOM      1  C   UNL     1      16.117  17.334   8.250  1.00  0.00     0.115 A 
ATOM      2  C   UNL     1      15.834  17.346   9.618  1.00  0.00     0.047 A 
ATOM      3  C   UNL     1      15.077  17.167   7.327  1.00  0.00     0.047 A 
ATOM      4  C   UNL     1      14.519  17.194  10.067  1.00  0.00     0.014 A 
ATOM      5  C   UNL     1      13.760  17.014   7.772  1.00  0.00     0.014 A 
ATOM      6  C   UNL     1      13.467  17.026   9.148  1.00  0.00    -0.003 A 
ENDROOT
BRANCH   1   7
ATOM      7  O   UNL     1      17.433  17.487   7.818  1.00  0.00    -0.508 OA
ATOM      8  H   UNL     1      17.778  18.378   7.479  1.00  0.00     0.293 HD
ENDBRANCH   1   7
BRANCH   6   9
ATOM      9  C   UNL     1      12.076  16.864   9.626  1.00  0.00     0.071 C 
ATOM     10  O   UNL     1      11.448  17.841  10.113  1.00  0.00    -0.545 OA
ATOM     11  O   UNL     1      11.442  15.629   9.544  1.00  0.00    -0.545 OA
ENDBRANCH   6   9
TORSDOF 2
ENDMDL
MODEL 9
REMARK VINA RESULT:    -3.740      2.156      3.109
REMARK INTER + INTRA:          -4.095
REMARK INTER:                  -4.060
REMARK INTRA:                  -0.036
REMARK UNBOUND:                -0.027
REMARK SMILES O=C([O-])c1ccc(O)cc1
REMARK SMILES IDX 7 1 6 2 9 3 5 4 10 5 4 6 8 7 2 9 1 10 3 11
REMARK H PARENT 8 8
REMARK Flexibility Score: inf
ROOT
ATOM      1  C   UNL     1      16.894  17.313   8.670  1.00  0.00     0.115 A 
ATOM      2  C   UNL     1      16.200  17.059   7.484  1.00  0.00     0.047 A 
ATOM      3  C   UNL     1      16.187  17.468   9.869  1.00  0.00     0.047 A 
ATOM      4  C   UNL     1      14.805  16.959   7.491  1.00  0.00     0.014 A 
ATOM      5  C   UNL     1      14.793  17.370   9.880  1.00  0.00     0.014 A 
ATOM      6  C   UNL     1      14.086  17.114   8.690  1.00  0.00    -0.003 A 
ENDROOT
BRANCH   1   7
ATOM      7  O   UNL     1      18.284  17.409   8.646  1.00  0.00    -0.508 OA
ATOM      8  H   UNL     1      18.863  16.856   9.268  1.00  0.00     0.293 HD
ENDBRANCH   1   7
BRANCH   6   9
ATOM      9  C   UNL     1      12.610  17.009   8.696  1.00  0.00     0.071 C 
ATOM     10  O   UNL     1      11.994  16.601   7.677  1.00  0.00    -0.545 OA
ATOM     11  O   UNL     1      11.883  17.362   9.827  1.00  0.00    -0.545 OA
ENDBRANCH   6   9
TORSDOF 2
ENDMDL
