MODEL 1
REMARK VINA RESULT:    -2.614      0.000      0.000
REMARK INTER + INTRA:          -6.470
REMARK INTER:                  -4.525
REMARK INTRA:                  -1.945
REMARK UNBOUND:                -1.945
REMARK SMILES CCCCCCCCCCCCCCO
REMARK SMILES IDX 8 1 7 2 6 3 5 4 4 5 3 6 2 7 1 8 9 9 10 10 11 11 12 12 13 13
REMARK SMILES IDX 14 14 15 15
REMARK H PARENT 15 16
REMARK Flexibility Score: inf
ROOT
ATOM      1  C   UNL     1     159.453 153.718 139.133  1.00  0.00     0.000 C 
ENDROOT
BRANCH   1   2
ATOM      2  C   UNL     1     160.298 152.604 139.769  1.00  0.00    -0.000 C 
BRANCH   2   3
ATOM      3  C   UNL     1     159.715 151.221 139.442  1.00  0.00    -0.000 C 
BRANCH   3   4
ATOM      4  C   UNL     1     158.875 151.219 138.154  1.00  0.00    -0.000 C 
BRANCH   4   5
ATOM      5  C   UNL     1     157.476 150.614 138.361  1.00  0.00    -0.000 C 
BRANCH   5   6
ATOM      6  C   UNL     1     156.996 150.704 139.822  1.00  0.00    -0.000 C 
BRANCH   6   7
ATOM      7  C   UNL     1     155.797 151.641 140.056  1.00  0.00    -0.003 C 
ATOM      8  C   UNL     1     154.814 151.658 138.887  1.00  0.00     0.004 C 
ENDBRANCH   6   7
ENDBRANCH   5   6
ENDBRANCH   4   5
ENDBRANCH   3   4
ENDBRANCH   2   3
ENDBRANCH   1   2
BRANCH   1   9
ATOM      9  C   UNL     1     158.505 154.391 140.137  1.00  0.00     0.000 C 
BRANCH   9  10
ATOM     10  C   UNL     1     157.193 154.860 139.490  1.00  0.00     0.000 C 
BRANCH  10  11
ATOM     11  C   UNL     1     157.158 154.502 137.998  1.00  0.00     0.000 C 
BRANCH  11  12
ATOM     12  C   UNL     1     155.860 154.989 137.345  1.00  0.00     0.002 C 
BRANCH  12  13
ATOM     13  C   UNL     1     154.872 155.505 138.401  1.00  0.00     0.028 C 
BRANCH  13  14
ATOM     14  C   UNL     1     153.643 156.152 137.759  1.00  0.00     0.156 C 
BRANCH  14  15
ATOM     15  O   UNL     1     152.493 155.835 138.494  1.00  0.00    -0.396 OA
ATOM     16  H   UNL     1     151.937 155.266 137.902  1.00  0.00     0.210 HD
ENDBRANCH  14  15
ENDBRANCH  13  14
ENDBRANCH  12  13
ENDBRANCH  11  12
ENDBRANCH  10  11
ENDBRANCH   9  10
ENDBRANCH   1   9
TORSDOF 13
ENDMDL
MODEL 2
REMARK VINA RESULT:    -2.498      2.497      4.599
REMARK INTER + INTRA:          -6.268
REMARK INTER:                  -4.061
REMARK INTRA:                  -2.208
REMARK UNBOUND:                -1.945
REMARK SMILES CCCCCCCCCCCCCCO
REMARK SMILES IDX 8 1 7 2 6 3 5 4 4 5 3 6 2 7 1 8 9 9 10 10 11 11 12 12 13 13
REMARK SMILES IDX 14 14 15 15
REMARK H PARENT 15 16
REMARK Flexibility Score: inf
ROOT
ATOM      1  C   UNL     1     157.822 154.471 137.692  1.00  0.00     0.000 C 
ENDROOT
BRANCH   1   2
ATOM      2  C   UNL     1     156.759 154.652 138.785  1.00  0.00    -0.000 C 
BRANCH   2   3
ATOM      3  C   UNL     1     155.854 153.414 138.880  1.00  0.00    -0.000 C 
BRANCH   3   4
ATOM      4  C   UNL     1     156.173 152.537 140.102  1.00  0.00    -0.000 C 
BRANCH   4   5
ATOM      5  C   UNL     1     156.350 151.054 139.734  1.00  0.00    -0.000 C 
BRANCH   5   6
ATOM      6  C   UNL     1     155.560 150.650 138.476  1.00  0.00    -0.000 C 
BRANCH   6   7
ATOM      7  C   UNL     1     156.168 149.487 137.671  1.00  0.00    -0.003 C 
ATOM      8  C   UNL     1     157.423 148.904 138.317  1.00  0.00     0.004 C 
ENDBRANCH   6   7
ENDBRANCH   5   6
ENDBRANCH   4   5
ENDBRANCH   3   4
ENDBRANCH   2   3
ENDBRANCH   1   2
BRANCH   1   9
ATOM      9  C   UNL     1     157.545 153.258 136.789  1.00  0.00     0.000 C 
BRANCH   9  10
ATOM     10  C   UNL     1     158.670 152.214 136.840  1.00  0.00     0.000 C 
BRANCH  10  11
ATOM     11  C   UNL     1     159.759 152.626 137.839  1.00  0.00     0.000 C 
BRANCH  11  12
ATOM     12  C   UNL     1     159.897 151.593 138.962  1.00  0.00     0.002 C 
BRANCH  12  13
ATOM     13  C   UNL     1     160.347 152.258 140.270  1.00  0.00     0.028 C 
BRANCH  13  14
ATOM     14  C   UNL     1     160.435 153.779 140.133  1.00  0.00     0.156 C 
BRANCH  14  15
ATOM     15  O   UNL     1     159.493 154.393 140.969  1.00  0.00    -0.396 OA
ATOM     16  H   UNL     1     159.986 155.091 141.472  1.00  0.00     0.210 HD
ENDBRANCH  14  15
ENDBRANCH  13  14
ENDBRANCH  12  13
ENDBRANCH  11  12
ENDBRANCH  10  11
ENDBRANCH   9  10
ENDBRANCH   1   9
TORSDOF 13
ENDMDL
MODEL 3
REMARK VINA RESULT:    -2.497      7.684     10.163
REMARK INTER + INTRA:          -6.267
REMARK INTER:                  -4.360
REMARK INTRA:                  -1.907
REMARK UNBOUND:                -1.945
REMARK SMILES CCCCCCCCCCCCCCO
REMARK SMILES IDX 8 1 7 2 6 3 5 4 4 5 3 6 2 7 1 8 9 9 10 10 11 11 12 12 13 13
REMARK SMILES IDX 14 14 15 15
REMARK H PARENT 15 16
REMARK Flexibility Score: inf
ROOT
ATOM      1  C   UNL     1     149.882 160.141 138.050  1.00  0.00     0.000 C 
ENDROOT
BRANCH   1   2
ATOM      2  C   UNL     1     148.888 160.077 139.219  1.00  0.00    -0.000 C 
BRANCH   2   3
ATOM      3  C   UNL     1     147.591 159.369 138.797  1.00  0.00    -0.000 C 
BRANCH   3   4
ATOM      4  C   UNL     1     147.042 158.434 139.888  1.00  0.00    -0.000 C 
BRANCH   4   5
ATOM      5  C   UNL     1     146.481 157.122 139.313  1.00  0.00    -0.000 C 
BRANCH   5   6
ATOM      6  C   UNL     1     146.648 157.018 137.786  1.00  0.00    -0.000 C 
BRANCH   6   7
ATOM      7  C   UNL     1     147.114 155.643 137.275  1.00  0.00    -0.003 C 
ATOM      8  C   UNL     1     146.071 154.546 137.470  1.00  0.00     0.004 C 
ENDBRANCH   6   7
ENDBRANCH   5   6
ENDBRANCH   4   5
ENDBRANCH   3   4
ENDBRANCH   2   3
ENDBRANCH   1   2
BRANCH   1   9
ATOM      9  C   UNL     1     149.483 159.226 136.881  1.00  0.00     0.000 C 
BRANCH   9  10
ATOM     10  C   UNL     1     150.629 158.309 136.430  1.00  0.00     0.000 C 
BRANCH  10  11
ATOM     11  C   UNL     1     151.366 157.715 137.637  1.00  0.00     0.000 C 
BRANCH  11  12
ATOM     12  C   UNL     1     150.616 156.502 138.198  1.00  0.00     0.002 C 
BRANCH  12  13
ATOM     13  C   UNL     1     150.434 156.622 139.718  1.00  0.00     0.028 C 
BRANCH  13  14
ATOM     14  C   UNL     1     149.572 155.489 140.278  1.00  0.00     0.156 C 
BRANCH  14  15
ATOM     15  O   UNL     1     149.614 155.497 141.678  1.00  0.00    -0.396 OA
ATOM     16  H   UNL     1     148.679 155.365 141.981  1.00  0.00     0.210 HD
ENDBRANCH  14  15
ENDBRANCH  13  14
ENDBRANCH  12  13
ENDBRANCH  11  12
ENDBRANCH  10  11
ENDBRANCH   9  10
ENDBRANCH   1   9
TORSDOF 13
ENDMDL
MODEL 4
REMARK VINA RESULT:    -2.484     10.690     12.419
REMARK INTER + INTRA:          -6.244
REMARK INTER:                  -5.276
REMARK INTRA:                  -0.968
REMARK UNBOUND:                -1.945
REMARK SMILES CCCCCCCCCCCCCCO
REMARK SMILES IDX 8 1 7 2 6 3 5 4 4 5 3 6 2 7 1 8 9 9 10 10 11 11 12 12 13 13
REMARK SMILES IDX 14 14 15 15
REMARK H PARENT 15 16
REMARK Flexibility Score: inf
ROOT
ATOM      1  C   UNL     1     144.595 151.386 138.577  1.00  0.00     0.000 C 
ENDROOT
BRANCH   1   2
ATOM      2  C   UNL     1     144.616 150.947 140.049  1.00  0.00    -0.000 C 
BRANCH   2   3
ATOM      3  C   UNL     1     145.466 149.680 140.230  1.00  0.00    -0.000 C 
BRANCH   3   4
ATOM      4  C   UNL     1     145.839 149.018 138.893  1.00  0.00    -0.000 C 
BRANCH   4   5
ATOM      5  C   UNL     1     145.292 147.585 138.771  1.00  0.00    -0.000 C 
BRANCH   5   6
ATOM      6  C   UNL     1     144.246 147.250 139.851  1.00  0.00    -0.000 C 
BRANCH   6   7
ATOM      7  C   UNL     1     142.802 147.112 139.337  1.00  0.00    -0.003 C 
ATOM      8  C   UNL     1     141.993 148.401 139.471  1.00  0.00     0.004 C 
ENDBRANCH   6   7
ENDBRANCH   5   6
ENDBRANCH   4   5
ENDBRANCH   3   4
ENDBRANCH   2   3
ENDBRANCH   1   2
BRANCH   1   9
ATOM      9  C   UNL     1     143.842 152.709 138.363  1.00  0.00     0.000 C 
BRANCH   9  10
ATOM     10  C   UNL     1     144.637 153.928 138.855  1.00  0.00     0.000 C 
BRANCH  10  11
ATOM     11  C   UNL     1     145.606 154.425 137.775  1.00  0.00     0.000 C 
BRANCH  11  12
ATOM     12  C   UNL     1     146.756 155.226 138.394  1.00  0.00     0.002 C 
BRANCH  12  13
ATOM     13  C   UNL     1     146.271 156.597 138.886  1.00  0.00     0.028 C 
BRANCH  13  14
ATOM     14  C   UNL     1     147.326 157.300 139.742  1.00  0.00     0.156 C 
BRANCH  14  15
ATOM     15  O   UNL     1     146.829 157.525 141.032  1.00  0.00    -0.396 OA
ATOM     16  H   UNL     1     146.529 158.471 141.049  1.00  0.00     0.210 HD
ENDBRANCH  14  15
ENDBRANCH  13  14
ENDBRANCH  12  13
ENDBRANCH  11  12
ENDBRANCH  10  11
ENDBRANCH   9  10
ENDBRANCH   1   9
TORSDOF 13
ENDMDL
MODEL 5
REMARK VINA RESULT:    -2.473     10.145     13.528
REMARK INTER + INTRA:          -6.225
REMARK INTER:                  -5.673
REMARK INTRA:                  -0.552
REMARK UNBOUND:                -1.945
REMARK SMILES CCCCCCCCCCCCCCO
REMARK SMILES IDX 8 1 7 2 6 3 5 4 4 5 3 6 2 7 1 8 9 9 10 10 11 11 12 12 13 13
REMARK SMILES IDX 14 14 15 15
REMARK H PARENT 15 16
REMARK Flexibility Score: inf
ROOT
ATOM      1  C   UNL     1     144.960 151.380 138.766  1.00  0.00     0.000 C 
ENDROOT
BRANCH   1   2
ATOM      2  C   UNL     1     144.118 152.647 138.557  1.00  0.00    -0.000 C 
BRANCH   2   3
ATOM      3  C   UNL     1     144.864 153.660 137.674  1.00  0.00    -0.000 C 
BRANCH   3   4
ATOM      4  C   UNL     1     145.564 154.759 138.490  1.00  0.00    -0.000 C 
BRANCH   4   5
ATOM      5  C   UNL     1     146.405 155.701 137.612  1.00  0.00    -0.000 C 
BRANCH   5   6
ATOM      6  C   UNL     1     146.486 157.131 138.178  1.00  0.00    -0.000 C 
BRANCH   6   7
ATOM      7  C   UNL     1     147.102 157.240 139.585  1.00  0.00    -0.003 C 
ATOM      8  C   UNL     1     148.496 156.623 139.678  1.00  0.00     0.004 C 
ENDBRANCH   6   7
ENDBRANCH   5   6
ENDBRANCH   4   5
ENDBRANCH   3   4
ENDBRANCH   2   3
ENDBRANCH   1   2
BRANCH   1   9
ATOM      9  C   UNL     1     144.463 150.524 139.942  1.00  0.00     0.000 C 
BRANCH   9  10
ATOM     10  C   UNL     1     145.391 149.338 140.244  1.00  0.00     0.000 C 
BRANCH  10  11
ATOM     11  C   UNL     1     145.408 148.342 139.078  1.00  0.00     0.000 C 
BRANCH  11  12
ATOM     12  C   UNL     1     144.598 147.086 139.414  1.00  0.00     0.002 C 
BRANCH  12  13
ATOM     13  C   UNL     1     143.161 147.199 138.887  1.00  0.00     0.028 C 
BRANCH  13  14
ATOM     14  C   UNL     1     142.135 147.171 140.021  1.00  0.00     0.156 C 
BRANCH  14  15
ATOM     15  O   UNL     1     142.620 146.407 141.090  1.00  0.00    -0.396 OA
ATOM     16  H   UNL     1     143.231 145.734 140.692  1.00  0.00     0.210 HD
ENDBRANCH  14  15
ENDBRANCH  13  14
ENDBRANCH  12  13
ENDBRANCH  11  12
ENDBRANCH  10  11
ENDBRANCH   9  10
ENDBRANCH   1   9
TORSDOF 13
ENDMDL
MODEL 6
REMARK VINA RESULT:    -2.469     11.945     14.092
REMARK INTER + INTRA:          -6.218
REMARK INTER:                  -4.605
REMARK INTRA:                  -1.613
REMARK UNBOUND:                -1.945
REMARK SMILES CCCCCCCCCCCCCCO
REMARK SMILES IDX 8 1 7 2 6 3 5 4 4 5 3 6 2 7 1 8 9 9 10 10 11 11 12 12 13 13
REMARK SMILES IDX 14 14 15 15
REMARK H PARENT 15 16
REMARK Flexibility Score: inf
ROOT
ATOM      1  C   UNL     1     141.908 147.554 138.846  1.00  0.00     0.000 C 
ENDROOT
BRANCH   1   2
ATOM      2  C   UNL     1     142.964 147.069 139.850  1.00  0.00    -0.000 C 
BRANCH   2   3
ATOM      3  C   UNL     1     144.178 146.471 139.121  1.00  0.00    -0.000 C 
BRANCH   3   4
ATOM      4  C   UNL     1     144.023 146.493 137.592  1.00  0.00    -0.000 C 
BRANCH   4   5
ATOM      5  C   UNL     1     145.375 146.447 136.860  1.00  0.00    -0.000 C 
BRANCH   5   6
ATOM      6  C   UNL     1     146.568 146.741 137.789  1.00  0.00    -0.000 C 
BRANCH   6   7
ATOM      7  C   UNL     1     147.668 145.666 137.796  1.00  0.00    -0.003 C 
ATOM      8  C   UNL     1     147.408 144.549 138.805  1.00  0.00     0.004 C 
ENDBRANCH   6   7
ENDBRANCH   5   6
ENDBRANCH   4   5
ENDBRANCH   3   4
ENDBRANCH   2   3
ENDBRANCH   1   2
BRANCH   1   9
ATOM      9  C   UNL     1     141.567 149.043 139.015  1.00  0.00     0.000 C 
BRANCH   9  10
ATOM     10  C   UNL     1     141.772 149.847 137.723  1.00  0.00     0.000 C 
BRANCH  10  11
ATOM     11  C   UNL     1     142.949 150.822 137.862  1.00  0.00     0.000 C 
BRANCH  11  12
ATOM     12  C   UNL     1     144.289 150.083 137.786  1.00  0.00     0.002 C 
BRANCH  12  13
ATOM     13  C   UNL     1     145.290 150.652 138.802  1.00  0.00     0.028 C 
BRANCH  13  14
ATOM     14  C   UNL     1     145.133 150.003 140.178  1.00  0.00     0.156 C 
BRANCH  14  15
ATOM     15  O   UNL     1     144.273 150.767 140.976  1.00  0.00    -0.396 OA
ATOM     16  H   UNL     1     143.370 150.370 140.864  1.00  0.00     0.210 HD
ENDBRANCH  14  15
ENDBRANCH  13  14
ENDBRANCH  12  13
ENDBRANCH  11  12
ENDBRANCH  10  11
ENDBRANCH   9  10
ENDBRANCH   1   9
TORSDOF 13
ENDMDL
MODEL 7
REMARK VINA RESULT:    -2.432      2.129      4.057
REMARK INTER + INTRA:          -6.154
REMARK INTER:                  -4.362
REMARK INTRA:                  -1.792
REMARK UNBOUND:                -1.945
REMARK SMILES CCCCCCCCCCCCCCO
REMARK SMILES IDX 8 1 7 2 6 3 5 4 4 5 3 6 2 7 1 8 9 9 10 10 11 11 12 12 13 13
REMARK SMILES IDX 14 14 15 15
REMARK H PARENT 15 16
REMARK Flexibility Score: inf
ROOT
ATOM      1  C   UNL     1     159.295 152.666 136.779  1.00  0.00     0.000 C 
ENDROOT
BRANCH   1   2
ATOM      2  C   UNL     1     160.270 153.833 136.993  1.00  0.00    -0.000 C 
BRANCH   2   3
ATOM      3  C   UNL     1     160.660 153.956 138.475  1.00  0.00    -0.000 C 
BRANCH   3   4
ATOM      4  C   UNL     1     159.619 153.331 139.417  1.00  0.00    -0.000 C 
BRANCH   4   5
ATOM      5  C   UNL     1     158.865 154.385 140.247  1.00  0.00    -0.000 C 
BRANCH   5   6
ATOM      6  C   UNL     1     157.349 154.386 139.978  1.00  0.00    -0.000 C 
BRANCH   6   7
ATOM      7  C   UNL     1     156.927 155.004 138.633  1.00  0.00    -0.003 C 
ATOM      8  C   UNL     1     155.416 155.180 138.503  1.00  0.00     0.004 C 
ENDBRANCH   6   7
ENDBRANCH   5   6
ENDBRANCH   4   5
ENDBRANCH   3   4
ENDBRANCH   2   3
ENDBRANCH   1   2
BRANCH   1   9
ATOM      9  C   UNL     1     158.082 153.056 135.920  1.00  0.00     0.000 C 
BRANCH   9  10
ATOM     10  C   UNL     1     156.876 152.132 136.145  1.00  0.00     0.000 C 
BRANCH  10  11
ATOM     11  C   UNL     1     156.953 151.453 137.519  1.00  0.00     0.000 C 
BRANCH  11  12
ATOM     12  C   UNL     1     155.599 150.854 137.914  1.00  0.00     0.002 C 
BRANCH  12  13
ATOM     13  C   UNL     1     155.078 151.480 139.215  1.00  0.00     0.028 C 
BRANCH  13  14
ATOM     14  C   UNL     1     156.062 151.287 140.371  1.00  0.00     0.156 C 
BRANCH  14  15
ATOM     15  O   UNL     1     155.484 151.717 141.573  1.00  0.00    -0.396 OA
ATOM     16  H   UNL     1     155.848 151.124 142.280  1.00  0.00     0.210 HD
ENDBRANCH  14  15
ENDBRANCH  13  14
ENDBRANCH  12  13
ENDBRANCH  11  12
ENDBRANCH  10  11
ENDBRANCH   9  10
ENDBRANCH   1   9
TORSDOF 13
ENDMDL
MODEL 8
REMARK VINA RESULT:    -2.410      3.081      5.949
REMARK INTER + INTRA:          -6.117
REMARK INTER:                  -4.439
REMARK INTRA:                  -1.678
REMARK UNBOUND:                -1.945
REMARK SMILES CCCCCCCCCCCCCCO
REMARK SMILES IDX 8 1 7 2 6 3 5 4 4 5 3 6 2 7 1 8 9 9 10 10 11 11 12 12 13 13
REMARK SMILES IDX 14 14 15 15
REMARK H PARENT 15 16
REMARK Flexibility Score: inf
ROOT
ATOM      1  C   UNL     1     154.991 151.639 138.481  1.00  0.00     0.000 C 
ENDROOT
BRANCH   1   2
ATOM      2  C   UNL     1     154.996 153.030 137.831  1.00  0.00    -0.000 C 
BRANCH   2   3
ATOM      3  C   UNL     1     155.739 154.044 138.715  1.00  0.00    -0.000 C 
BRANCH   3   4
ATOM      4  C   UNL     1     156.844 154.797 137.955  1.00  0.00    -0.000 C 
BRANCH   4   5
ATOM      5  C   UNL     1     157.880 153.849 137.327  1.00  0.00    -0.000 C 
BRANCH   5   6
ATOM      6  C   UNL     1     159.294 154.041 137.905  1.00  0.00    -0.000 C 
BRANCH   6   7
ATOM      7  C   UNL     1     159.595 153.220 139.172  1.00  0.00    -0.003 C 
ATOM      8  C   UNL     1     159.775 154.086 140.418  1.00  0.00     0.004 C 
ENDBRANCH   6   7
ENDBRANCH   5   6
ENDBRANCH   4   5
ENDBRANCH   3   4
ENDBRANCH   2   3
ENDBRANCH   1   2
BRANCH   1   9
ATOM      9  C   UNL     1     155.820 151.585 139.775  1.00  0.00     0.000 C 
BRANCH   9  10
ATOM     10  C   UNL     1     156.906 150.499 139.737  1.00  0.00     0.000 C 
BRANCH  10  11
ATOM     11  C   UNL     1     157.447 150.312 138.314  1.00  0.00     0.000 C 
BRANCH  11  12
ATOM     12  C   UNL     1     157.747 148.837 138.027  1.00  0.00     0.002 C 
BRANCH  12  13
ATOM     13  C   UNL     1     156.455 148.055 137.752  1.00  0.00     0.028 C 
BRANCH  13  14
ATOM     14  C   UNL     1     156.293 146.872 138.708  1.00  0.00     0.156 C 
BRANCH  14  15
ATOM     15  O   UNL     1     157.287 146.908 139.693  1.00  0.00    -0.396 OA
ATOM     16  H   UNL     1     157.270 146.018 140.133  1.00  0.00     0.210 HD
ENDBRANCH  14  15
ENDBRANCH  13  14
ENDBRANCH  12  13
ENDBRANCH  11  12
ENDBRANCH  10  11
ENDBRANCH   9  10
ENDBRANCH   1   9
TORSDOF 13
ENDMDL
MODEL 9
REMARK VINA RESULT:    -2.376      7.924      9.944
REMARK INTER + INTRA:          -6.057
REMARK INTER:                  -3.893
REMARK INTRA:                  -2.164
REMARK UNBOUND:                -1.945
REMARK SMILES CCCCCCCCCCCCCCO
REMARK SMILES IDX 8 1 7 2 6 3 5 4 4 5 3 6 2 7 1 8 9 9 10 10 11 11 12 12 13 13
REMARK SMILES IDX 14 14 15 15
REMARK H PARENT 15 16
REMARK Flexibility Score: inf
ROOT
ATOM      1  C   UNL     1     150.448 156.624 139.976  1.00  0.00     0.000 C 
ENDROOT
BRANCH   1   2
ATOM      2  C   UNL     1     149.165 155.779 139.979  1.00  0.00    -0.000 C 
BRANCH   2   3
ATOM      3  C   UNL     1     147.918 156.677 140.001  1.00  0.00    -0.000 C 
BRANCH   3   4
ATOM      4  C   UNL     1     146.840 156.222 139.003  1.00  0.00    -0.000 C 
BRANCH   4   5
ATOM      5  C   UNL     1     146.519 157.296 137.950  1.00  0.00    -0.000 C 
BRANCH   5   6
ATOM      6  C   UNL     1     146.873 156.853 136.518  1.00  0.00    -0.000 C 
BRANCH   6   7
ATOM      7  C   UNL     1     147.741 155.585 136.424  1.00  0.00    -0.003 C 
ATOM      8  C   UNL     1     149.025 155.796 135.625  1.00  0.00     0.004 C 
ENDBRANCH   6   7
ENDBRANCH   5   6
ENDBRANCH   4   5
ENDBRANCH   3   4
ENDBRANCH   2   3
ENDBRANCH   1   2
BRANCH   1   9
ATOM      9  C   UNL     1     150.856 157.077 138.565  1.00  0.00     0.000 C 
BRANCH   9  10
ATOM     10  C   UNL     1     150.841 158.605 138.407  1.00  0.00     0.000 C 
BRANCH  10  11
ATOM     11  C   UNL     1     149.748 159.046 137.425  1.00  0.00     0.000 C 
BRANCH  11  12
ATOM     12  C   UNL     1     148.985 160.262 137.958  1.00  0.00     0.002 C 
BRANCH  12  13
ATOM     13  C   UNL     1     148.841 160.196 139.485  1.00  0.00     0.028 C 
BRANCH  13  14
ATOM     14  C   UNL     1     147.388 160.378 139.928  1.00  0.00     0.156 C 
BRANCH  14  15
ATOM     15  O   UNL     1     147.217 159.895 141.231  1.00  0.00    -0.396 OA
ATOM     16  H   UNL     1     146.696 160.588 141.715  1.00  0.00     0.210 HD
ENDBRANCH  14  15
ENDBRANCH  13  14
ENDBRANCH  12  13
ENDBRANCH  11  12
ENDBRANCH  10  11
ENDBRANCH   9  10
ENDBRANCH   1   9
TORSDOF 13
ENDMDL
