MODEL 1
REMARK VINA RESULT:    -3.917      0.000      0.000
REMARK INTER + INTRA:          -7.196
REMARK INTER:                  -5.977
REMARK INTRA:                  -1.219
REMARK UNBOUND:                -1.219
REMARK SMILES C=CCCCCCCCCCC
REMARK SMILES IDX 7 1 8 2 9 3 10 4 11 5 12 6 6 7 5 8 4 9 3 10 2 11 1 12
REMARK H PARENT
REMARK Flexibility Score: inf
ROOT
ATOM      1  C   UNL     1      30.931  25.748  12.289  1.00  0.00     0.000 C 
ENDROOT
BRANCH   1   2
ATOM      2  C   UNL     1      30.470  25.987  10.842  1.00  0.00    -0.000 C 
BRANCH   2   3
ATOM      3  C   UNL     1      29.490  27.165  10.721  1.00  0.00    -0.000 C 
BRANCH   3   4
ATOM      4  C   UNL     1      28.843  27.536  12.066  1.00  0.00    -0.000 C 
BRANCH   4   5
ATOM      5  C   UNL     1      29.335  28.885  12.609  1.00  0.00    -0.003 C 
ATOM      6  C   UNL     1      30.114  29.654  11.545  1.00  0.00     0.004 C 
ENDBRANCH   4   5
ENDBRANCH   3   4
ENDBRANCH   2   3
ENDBRANCH   1   2
BRANCH   1   7
ATOM      7  C   UNL     1      31.681  24.417  12.461  1.00  0.00     0.000 C 
BRANCH   7   8
ATOM      8  C   UNL     1      31.021  23.552  13.542  1.00  0.00     0.000 C 
BRANCH   8   9
ATOM      9  C   UNL     1      29.720  22.920  13.024  1.00  0.00     0.004 C 
BRANCH   9  10
ATOM     10  C   UNL     1      28.492  23.392  13.817  1.00  0.00     0.027 C 
BRANCH  10  11
ATOM     11  C   UNL     1      27.558  24.228  12.984  1.00  0.00    -0.035 C 
ATOM     12  C   UNL     1      27.310  23.943  11.703  1.00  0.00     0.004 C 
ENDBRANCH  10  11
ENDBRANCH   9  10
ENDBRANCH   8   9
ENDBRANCH   7   8
ENDBRANCH   1   7
TORSDOF 9
ENDMDL
MODEL 2
REMARK VINA RESULT:    -3.813      1.163      2.482
REMARK INTER + INTRA:          -7.038
REMARK INTER:                  -5.747
REMARK INTRA:                  -1.291
REMARK UNBOUND:                -1.219
REMARK SMILES C=CCCCCCCCCCC
REMARK SMILES IDX 7 1 8 2 9 3 10 4 11 5 12 6 6 7 5 8 4 9 3 10 2 11 1 12
REMARK H PARENT
REMARK Flexibility Score: inf
ROOT
ATOM      1  C   UNL     1      31.772  25.988  11.930  1.00  0.00     0.000 C 
ENDROOT
BRANCH   1   2
ATOM      2  C   UNL     1      31.576  27.355  12.606  1.00  0.00    -0.000 C 
BRANCH   2   3
ATOM      3  C   UNL     1      31.470  28.506  11.592  1.00  0.00    -0.000 C 
BRANCH   3   4
ATOM      4  C   UNL     1      30.205  29.356  11.794  1.00  0.00    -0.000 C 
BRANCH   4   5
ATOM      5  C   UNL     1      29.094  28.599  12.536  1.00  0.00    -0.003 C 
ATOM      6  C   UNL     1      27.975  28.193  11.582  1.00  0.00     0.004 C 
ENDBRANCH   4   5
ENDBRANCH   3   4
ENDBRANCH   2   3
ENDBRANCH   1   2
BRANCH   1   7
ATOM      7  C   UNL     1      30.800  25.759  10.761  1.00  0.00     0.000 C 
BRANCH   7   8
ATOM      8  C   UNL     1      29.932  24.519  11.004  1.00  0.00     0.000 C 
BRANCH   8   9
ATOM      9  C   UNL     1      28.923  24.766  12.136  1.00  0.00     0.004 C 
BRANCH   9  10
ATOM     10  C   UNL     1      28.788  23.552  13.066  1.00  0.00     0.027 C 
BRANCH  10  11
ATOM     11  C   UNL     1      30.104  22.859  13.302  1.00  0.00    -0.035 C 
ATOM     12  C   UNL     1      30.930  23.233  14.283  1.00  0.00     0.004 C 
ENDBRANCH  10  11
ENDBRANCH   9  10
ENDBRANCH   8   9
ENDBRANCH   7   8
ENDBRANCH   1   7
TORSDOF 9
ENDMDL
MODEL 3
REMARK VINA RESULT:    -3.778      1.119      4.277
REMARK INTER + INTRA:          -6.984
REMARK INTER:                  -5.495
REMARK INTRA:                  -1.489
REMARK UNBOUND:                -1.219
REMARK SMILES C=CCCCCCCCCCC
REMARK SMILES IDX 7 1 8 2 9 3 10 4 11 5 12 6 6 7 5 8 4 9 3 10 2 11 1 12
REMARK H PARENT
REMARK Flexibility Score: inf
ROOT
ATOM      1  C   UNL     1      31.068  22.963  11.366  1.00  0.00     0.000 C 
ENDROOT
BRANCH   1   2
ATOM      2  C   UNL     1      31.579  23.568  12.684  1.00  0.00    -0.000 C 
BRANCH   2   3
ATOM      3  C   UNL     1      30.515  23.550  13.794  1.00  0.00    -0.000 C 
BRANCH   3   4
ATOM      4  C   UNL     1      29.171  22.978  13.314  1.00  0.00    -0.000 C 
BRANCH   4   5
ATOM      5  C   UNL     1      28.067  24.042  13.238  1.00  0.00    -0.003 C 
ATOM      6  C   UNL     1      27.392  24.036  11.869  1.00  0.00     0.004 C 
ENDBRANCH   4   5
ENDBRANCH   3   4
ENDBRANCH   2   3
ENDBRANCH   1   2
BRANCH   1   7
ATOM      7  C   UNL     1      30.828  24.023  10.280  1.00  0.00     0.000 C 
BRANCH   7   8
ATOM      8  C   UNL     1      31.344  25.396  10.729  1.00  0.00     0.000 C 
BRANCH   8   9
ATOM      9  C   UNL     1      30.199  26.415  10.814  1.00  0.00     0.004 C 
BRANCH   9  10
ATOM     10  C   UNL     1      30.109  27.071  12.199  1.00  0.00     0.027 C 
BRANCH  10  11
ATOM     11  C   UNL     1      29.125  28.209  12.234  1.00  0.00    -0.035 C 
ATOM     12  C   UNL     1      27.926  28.121  11.651  1.00  0.00     0.004 C 
ENDBRANCH  10  11
ENDBRANCH   9  10
ENDBRANCH   8   9
ENDBRANCH   7   8
ENDBRANCH   1   7
TORSDOF 9
ENDMDL
MODEL 4
REMARK VINA RESULT:    -3.682      1.219      4.962
REMARK INTER + INTRA:          -6.838
REMARK INTER:                  -5.466
REMARK INTRA:                  -1.372
REMARK UNBOUND:                -1.219
REMARK SMILES C=CCCCCCCCCCC
REMARK SMILES IDX 7 1 8 2 9 3 10 4 11 5 12 6 6 7 5 8 4 9 3 10 2 11 1 12
REMARK H PARENT
REMARK Flexibility Score: inf
ROOT
ATOM      1  C   UNL     1      28.622  25.138  11.892  1.00  0.00     0.000 C 
ENDROOT
BRANCH   1   2
ATOM      2  C   UNL     1      28.023  23.888  12.558  1.00  0.00    -0.000 C 
BRANCH   2   3
ATOM      3  C   UNL     1      28.831  23.426  13.782  1.00  0.00    -0.000 C 
BRANCH   3   4
ATOM      4  C   UNL     1      29.740  22.225  13.469  1.00  0.00    -0.000 C 
BRANCH   4   5
ATOM      5  C   UNL     1      31.233  22.561  13.603  1.00  0.00    -0.003 C 
ATOM      6  C   UNL     1      31.985  22.241  12.314  1.00  0.00     0.004 C 
ENDBRANCH   4   5
ENDBRANCH   3   4
ENDBRANCH   2   3
ENDBRANCH   1   2
BRANCH   1   7
ATOM      7  C   UNL     1      29.660  24.795  10.813  1.00  0.00     0.000 C 
BRANCH   7   8
ATOM      8  C   UNL     1      30.954  25.592  11.023  1.00  0.00     0.000 C 
BRANCH   8   9
ATOM      9  C   UNL     1      31.013  26.183  12.439  1.00  0.00     0.004 C 
BRANCH   9  10
ATOM     10  C   UNL     1      31.629  27.589  12.454  1.00  0.00     0.027 C 
BRANCH  10  11
ATOM     11  C   UNL     1      30.646  28.652  12.043  1.00  0.00    -0.035 C 
ATOM     12  C   UNL     1      29.436  28.747  12.603  1.00  0.00     0.004 C 
ENDBRANCH  10  11
ENDBRANCH   9  10
ENDBRANCH   8   9
ENDBRANCH   7   8
ENDBRANCH   1   7
TORSDOF 9
ENDMDL
MODEL 5
REMARK VINA RESULT:    -3.651      1.353      2.617
REMARK INTER + INTRA:          -6.791
REMARK INTER:                  -6.040
REMARK INTRA:                  -0.751
REMARK UNBOUND:                -1.219
REMARK SMILES C=CCCCCCCCCCC
REMARK SMILES IDX 7 1 8 2 9 3 10 4 11 5 12 6 6 7 5 8 4 9 3 10 2 11 1 12
REMARK H PARENT
REMARK Flexibility Score: inf
ROOT
ATOM      1  C   UNL     1      29.428  24.954  11.201  1.00  0.00     0.000 C 
ENDROOT
BRANCH   1   2
ATOM      2  C   UNL     1      29.461  26.466  10.919  1.00  0.00    -0.000 C 
BRANCH   2   3
ATOM      3  C   UNL     1      28.457  27.250  11.781  1.00  0.00    -0.000 C 
BRANCH   3   4
ATOM      4  C   UNL     1      29.116  28.406  12.550  1.00  0.00    -0.000 C 
BRANCH   4   5
ATOM      5  C   UNL     1      30.450  28.847  11.930  1.00  0.00    -0.003 C 
ATOM      6  C   UNL     1      30.289  30.148  11.149  1.00  0.00     0.004 C 
ENDBRANCH   4   5
ENDBRANCH   3   4
ENDBRANCH   2   3
ENDBRANCH   1   2
BRANCH   1   7
ATOM      7  C   UNL     1      28.302  24.555  12.167  1.00  0.00     0.000 C 
BRANCH   7   8
ATOM      8  C   UNL     1      28.817  23.593  13.244  1.00  0.00     0.000 C 
BRANCH   8   9
ATOM      9  C   UNL     1      30.337  23.728  13.421  1.00  0.00     0.004 C 
BRANCH   9  10
ATOM     10  C   UNL     1      31.027  22.363  13.563  1.00  0.00     0.027 C 
BRANCH  10  11
ATOM     11  C   UNL     1      30.045  21.244  13.786  1.00  0.00    -0.035 C 
ATOM     12  C   UNL     1      30.442  19.977  13.932  1.00  0.00     0.004 C 
ENDBRANCH  10  11
ENDBRANCH   9  10
ENDBRANCH   8   9
ENDBRANCH   7   8
ENDBRANCH   1   7
TORSDOF 9
ENDMDL
MODEL 6
REMARK VINA RESULT:    -3.626      1.256      4.601
REMARK INTER + INTRA:          -6.753
REMARK INTER:                  -5.497
REMARK INTRA:                  -1.255
REMARK UNBOUND:                -1.219
REMARK SMILES C=CCCCCCCCCCC
REMARK SMILES IDX 7 1 8 2 9 3 10 4 11 5 12 6 6 7 5 8 4 9 3 10 2 11 1 12
REMARK H PARENT
REMARK Flexibility Score: inf
ROOT
ATOM      1  C   UNL     1      31.589  25.940  12.801  1.00  0.00     0.000 C 
ENDROOT
BRANCH   1   2
ATOM      2  C   UNL     1      31.292  25.424  11.384  1.00  0.00    -0.000 C 
BRANCH   2   3
ATOM      3  C   UNL     1      30.262  24.282  11.374  1.00  0.00    -0.000 C 
BRANCH   3   4
ATOM      4  C   UNL     1      30.689  23.093  12.250  1.00  0.00    -0.000 C 
BRANCH   4   5
ATOM      5  C   UNL     1      29.665  22.766  13.346  1.00  0.00    -0.003 C 
ATOM      6  C   UNL     1      28.479  23.725  13.293  1.00  0.00     0.004 C 
ENDBRANCH   4   5
ENDBRANCH   3   4
ENDBRANCH   2   3
ENDBRANCH   1   2
BRANCH   1   7
ATOM      7  C   UNL     1      31.902  27.444  12.832  1.00  0.00     0.000 C 
BRANCH   7   8
ATOM      8  C   UNL     1      31.688  28.077  11.452  1.00  0.00     0.000 C 
BRANCH   8   9
ATOM      9  C   UNL     1      30.706  29.256  11.534  1.00  0.00     0.004 C 
BRANCH   9  10
ATOM     10  C   UNL     1      29.460  28.915  12.364  1.00  0.00     0.027 C 
BRANCH  10  11
ATOM     11  C   UNL     1      28.384  28.258  11.542  1.00  0.00    -0.035 C 
ATOM     12  C   UNL     1      27.908  27.047  11.844  1.00  0.00     0.004 C 
ENDBRANCH  10  11
ENDBRANCH   9  10
ENDBRANCH   8   9
ENDBRANCH   7   8
ENDBRANCH   1   7
TORSDOF 9
ENDMDL
MODEL 7
REMARK VINA RESULT:    -3.624      1.963      5.892
REMARK INTER + INTRA:          -6.749
REMARK INTER:                  -6.084
REMARK INTRA:                  -0.665
REMARK UNBOUND:                -1.219
REMARK SMILES C=CCCCCCCCCCC
REMARK SMILES IDX 7 1 8 2 9 3 10 4 11 5 12 6 6 7 5 8 4 9 3 10 2 11 1 12
REMARK H PARENT
REMARK Flexibility Score: inf
ROOT
ATOM      1  C   UNL     1      28.870  23.187  13.550  1.00  0.00     0.000 C 
ENDROOT
BRANCH   1   2
ATOM      2  C   UNL     1      30.365  23.399  13.841  1.00  0.00    -0.000 C 
BRANCH   2   3
ATOM      3  C   UNL     1      31.170  22.090  13.784  1.00  0.00    -0.000 C 
BRANCH   3   4
ATOM      4  C   UNL     1      30.271  20.843  13.811  1.00  0.00    -0.000 C 
BRANCH   4   5
ATOM      5  C   UNL     1      30.900  19.675  14.585  1.00  0.00    -0.003 C 
ATOM      6  C   UNL     1      31.784  20.182  15.721  1.00  0.00     0.004 C 
ENDBRANCH   4   5
ENDBRANCH   3   4
ENDBRANCH   2   3
ENDBRANCH   1   2
BRANCH   1   7
ATOM      7  C   UNL     1      28.292  24.256  12.610  1.00  0.00     0.000 C 
BRANCH   7   8
ATOM      8  C   UNL     1      29.158  24.408  11.354  1.00  0.00     0.000 C 
BRANCH   8   9
ATOM      9  C   UNL     1      29.468  25.887  11.074  1.00  0.00     0.004 C 
BRANCH   9  10
ATOM     10  C   UNL     1      28.482  26.828  11.782  1.00  0.00     0.027 C 
BRANCH  10  11
ATOM     11  C   UNL     1      28.868  28.276  11.640  1.00  0.00    -0.035 C 
ATOM     12  C   UNL     1      29.451  28.951  12.635  1.00  0.00     0.004 C 
ENDBRANCH  10  11
ENDBRANCH   9  10
ENDBRANCH   8   9
ENDBRANCH   7   8
ENDBRANCH   1   7
TORSDOF 9
ENDMDL
MODEL 8
REMARK VINA RESULT:    -3.470      2.106      3.268
REMARK INTER + INTRA:          -6.514
REMARK INTER:                  -5.966
REMARK INTRA:                  -0.549
REMARK UNBOUND:                -1.219
REMARK SMILES C=CCCCCCCCCCC
REMARK SMILES IDX 7 1 8 2 9 3 10 4 11 5 12 6 6 7 5 8 4 9 3 10 2 11 1 12
REMARK H PARENT
REMARK Flexibility Score: inf
ROOT
ATOM      1  C   UNL     1      28.500  24.294  12.749  1.00  0.00     0.000 C 
ENDROOT
BRANCH   1   2
ATOM      2  C   UNL     1      29.454  24.705  11.615  1.00  0.00    -0.000 C 
BRANCH   2   3
ATOM      3  C   UNL     1      29.941  26.157  11.750  1.00  0.00    -0.000 C 
BRANCH   3   4
ATOM      4  C   UNL     1      29.140  27.132  10.870  1.00  0.00    -0.000 C 
BRANCH   4   5
ATOM      5  C   UNL     1      28.451  28.236  11.685  1.00  0.00    -0.003 C 
ATOM      6  C   UNL     1      29.424  28.883  12.667  1.00  0.00     0.004 C 
ENDBRANCH   4   5
ENDBRANCH   3   4
ENDBRANCH   2   3
ENDBRANCH   1   2
BRANCH   1   7
ATOM      7  C   UNL     1      29.038  23.120  13.581  1.00  0.00     0.000 C 
BRANCH   7   8
ATOM      8  C   UNL     1      30.565  23.188  13.702  1.00  0.00     0.000 C 
BRANCH   8   9
ATOM      9  C   UNL     1      31.206  21.838  13.347  1.00  0.00     0.004 C 
BRANCH   9  10
ATOM     10  C   UNL     1      30.352  20.651  13.817  1.00  0.00     0.027 C 
BRANCH  10  11
ATOM     11  C   UNL     1      31.013  19.867  14.919  1.00  0.00    -0.035 C 
ATOM     12  C   UNL     1      30.308  19.113  15.767  1.00  0.00     0.004 C 
ENDBRANCH  10  11
ENDBRANCH   9  10
ENDBRANCH   8   9
ENDBRANCH   7   8
ENDBRANCH   1   7
TORSDOF 9
ENDMDL
MODEL 9
REMARK VINA RESULT:    -3.444      1.634      5.957
REMARK INTER + INTRA:          -6.475
REMARK INTER:                  -5.923
REMARK INTRA:                  -0.553
REMARK UNBOUND:                -1.219
REMARK SMILES C=CCCCCCCCCCC
REMARK SMILES IDX 7 1 8 2 9 3 10 4 11 5 12 6 6 7 5 8 4 9 3 10 2 11 1 12
REMARK H PARENT
REMARK Flexibility Score: inf
ROOT
ATOM      1  C   UNL     1      28.360  24.217  12.615  1.00  0.00     0.000 C 
ENDROOT
BRANCH   1   2
ATOM      2  C   UNL     1      29.010  23.175  13.542  1.00  0.00    -0.000 C 
BRANCH   2   3
ATOM      3  C   UNL     1      30.529  23.371  13.678  1.00  0.00    -0.000 C 
BRANCH   3   4
ATOM      4  C   UNL     1      31.246  22.101  14.167  1.00  0.00    -0.000 C 
BRANCH   4   5
ATOM      5  C   UNL     1      30.548  20.812  13.710  1.00  0.00    -0.003 C 
ATOM      6  C   UNL     1      30.524  19.774  14.828  1.00  0.00     0.004 C 
ENDBRANCH   4   5
ENDBRANCH   3   4
ENDBRANCH   2   3
ENDBRANCH   1   2
BRANCH   1   7
ATOM      7  C   UNL     1      29.379  24.912  11.698  1.00  0.00     0.000 C 
BRANCH   7   8
ATOM      8  C   UNL     1      29.107  26.419  11.620  1.00  0.00     0.000 C 
BRANCH   8   9
ATOM      9  C   UNL     1      30.324  27.223  12.102  1.00  0.00     0.004 C 
BRANCH   9  10
ATOM     10  C   UNL     1      29.926  28.601  12.652  1.00  0.00     0.027 C 
BRANCH  10  11
ATOM     11  C   UNL     1      29.856  29.651  11.576  1.00  0.00    -0.035 C 
ATOM     12  C   UNL     1      30.929  29.998  10.859  1.00  0.00     0.004 C 
ENDBRANCH  10  11
ENDBRANCH   9  10
ENDBRANCH   8   9
ENDBRANCH   7   8
ENDBRANCH   1   7
TORSDOF 9
ENDMDL
