MODEL 1
REMARK VINA RESULT:    -5.152      0.000      0.000
REMARK INTER + INTRA:          -8.662
REMARK INTER:                  -7.862
REMARK INTRA:                  -0.800
REMARK UNBOUND:                -0.800
REMARK SMILES CCCCCCCCCCC(=O)[O-]
REMARK SMILES IDX 7 1 8 2 9 3 10 4 11 5 12 6 13 7 6 8 5 9 4 10 3 11 2 12 1 13
REMARK H PARENT
REMARK Flexibility Score: inf
ROOT
ATOM      1  C   UNL     1      43.284  40.535  15.331  1.00  0.00     0.000 C 
ENDROOT
BRANCH   1   2
ATOM      2  C   UNL     1      41.873  41.142  15.271  1.00  0.00     0.000 C 
BRANCH   2   3
ATOM      3  C   UNL     1      40.882  40.621  16.331  1.00  0.00     0.006 C 
BRANCH   3   4
ATOM      4  C   UNL     1      40.572  41.632  17.451  1.00  0.00     0.053 C 
BRANCH   4   5
ATOM      5  C   UNL     1      41.307  41.329  18.724  1.00  0.00     0.041 C 
ATOM      6  O   UNL     1      41.475  40.136  19.091  1.00  0.00    -0.550 OA
ATOM      7  O   UNL     1      41.771  42.366  19.523  1.00  0.00    -0.550 OA
ENDBRANCH   4   5
ENDBRANCH   3   4
ENDBRANCH   2   3
ENDBRANCH   1   2
BRANCH   1   8
ATOM      8  C   UNL     1      43.292  39.012  15.110  1.00  0.00     0.000 C 
BRANCH   8   9
ATOM      9  C   UNL     1      42.828  38.620  13.698  1.00  0.00    -0.000 C 
BRANCH   9  10
ATOM     10  C   UNL     1      42.219  37.207  13.644  1.00  0.00    -0.000 C 
BRANCH  10  11
ATOM     11  C   UNL     1      40.693  37.230  13.459  1.00  0.00    -0.000 C 
BRANCH  11  12
ATOM     12  C   UNL     1      40.162  38.628  13.111  1.00  0.00    -0.003 C 
ATOM     13  C   UNL     1      39.053  38.551  12.067  1.00  0.00     0.004 C 
ENDBRANCH  11  12
ENDBRANCH  10  11
ENDBRANCH   9  10
ENDBRANCH   8   9
ENDBRANCH   1   8
TORSDOF 9
ENDMDL
MODEL 2
REMARK VINA RESULT:    -5.070      1.407      2.164
REMARK INTER + INTRA:          -8.537
REMARK INTER:                  -7.718
REMARK INTRA:                  -0.819
REMARK UNBOUND:                -0.800
REMARK SMILES CCCCCCCCCCC(=O)[O-]
REMARK SMILES IDX 7 1 8 2 9 3 10 4 11 5 12 6 13 7 6 8 5 9 4 10 3 11 2 12 1 13
REMARK H PARENT
REMARK Flexibility Score: inf
ROOT
ATOM      1  C   UNL     1      43.737  38.931  14.648  1.00  0.00     0.000 C 
ENDROOT
BRANCH   1   2
ATOM      2  C   UNL     1      43.301  40.343  15.074  1.00  0.00     0.000 C 
BRANCH   2   3
ATOM      3  C   UNL     1      42.000  40.413  15.899  1.00  0.00     0.006 C 
BRANCH   3   4
ATOM      4  C   UNL     1      41.021  41.507  15.435  1.00  0.00     0.053 C 
BRANCH   4   5
ATOM      5  C   UNL     1      40.937  42.655  16.398  1.00  0.00     0.041 C 
ATOM      6  O   UNL     1      40.580  43.794  15.999  1.00  0.00    -0.550 OA
ATOM      7  O   UNL     1      41.292  42.474  17.729  1.00  0.00    -0.550 OA
ENDBRANCH   4   5
ENDBRANCH   3   4
ENDBRANCH   2   3
ENDBRANCH   1   2
BRANCH   1   8
ATOM      8  C   UNL     1      42.931  38.390  13.454  1.00  0.00     0.000 C 
BRANCH   8   9
ATOM      9  C   UNL     1      42.099  37.150  13.819  1.00  0.00    -0.000 C 
BRANCH   9  10
ATOM     10  C   UNL     1      40.644  37.245  13.323  1.00  0.00    -0.000 C 
BRANCH  10  11
ATOM     11  C   UNL     1      40.148  38.697  13.229  1.00  0.00    -0.000 C 
BRANCH  11  12
ATOM     12  C   UNL     1      39.137  38.903  12.093  1.00  0.00    -0.003 C 
ATOM     13  C   UNL     1      38.452  37.591  11.721  1.00  0.00     0.004 C 
ENDBRANCH  11  12
ENDBRANCH  10  11
ENDBRANCH   9  10
ENDBRANCH   8   9
ENDBRANCH   1   8
TORSDOF 9
ENDMDL
MODEL 3
REMARK VINA RESULT:    -4.977      1.274      2.309
REMARK INTER + INTRA:          -8.394
REMARK INTER:                  -7.607
REMARK INTRA:                  -0.788
REMARK UNBOUND:                -0.800
REMARK SMILES CCCCCCCCCCC(=O)[O-]
REMARK SMILES IDX 7 1 8 2 9 3 10 4 11 5 12 6 13 7 6 8 5 9 4 10 3 11 2 12 1 13
REMARK H PARENT
REMARK Flexibility Score: inf
ROOT
ATOM      1  C   UNL     1      40.981  40.730  15.741  1.00  0.00     0.000 C 
ENDROOT
BRANCH   1   2
ATOM      2  C   UNL     1      40.662  41.084  17.203  1.00  0.00     0.000 C 
BRANCH   2   3
ATOM      3  C   UNL     1      41.684  40.583  18.243  1.00  0.00     0.006 C 
BRANCH   3   4
ATOM      4  C   UNL     1      41.688  41.386  19.557  1.00  0.00     0.053 C 
BRANCH   4   5
ATOM      5  C   UNL     1      42.832  42.353  19.640  1.00  0.00     0.041 C 
ATOM      6  O   UNL     1      43.443  42.704  18.597  1.00  0.00    -0.550 OA
ATOM      7  O   UNL     1      43.248  42.835  20.875  1.00  0.00    -0.550 OA
ENDBRANCH   4   5
ENDBRANCH   3   4
ENDBRANCH   2   3
ENDBRANCH   1   2
BRANCH   1   8
ATOM      8  C   UNL     1      42.249  41.427  15.217  1.00  0.00     0.000 C 
BRANCH   8   9
ATOM      9  C   UNL     1      43.372  40.432  14.882  1.00  0.00    -0.000 C 
BRANCH   9  10
ATOM     10  C   UNL     1      42.918  38.965  14.990  1.00  0.00    -0.000 C 
BRANCH  10  11
ATOM     11  C   UNL     1      42.810  38.280  13.618  1.00  0.00    -0.000 C 
BRANCH  11  12
ATOM     12  C   UNL     1      41.557  37.402  13.494  1.00  0.00    -0.003 C 
ATOM     13  C   UNL     1      40.333  38.237  13.131  1.00  0.00     0.004 C 
ENDBRANCH  11  12
ENDBRANCH  10  11
ENDBRANCH   9  10
ENDBRANCH   8   9
ENDBRANCH   1   8
TORSDOF 9
ENDMDL
MODEL 4
REMARK VINA RESULT:    -4.762      2.804      5.836
REMARK INTER + INTRA:          -8.067
REMARK INTER:                  -7.461
REMARK INTRA:                  -0.606
REMARK UNBOUND:                -0.800
REMARK SMILES CCCCCCCCCCC(=O)[O-]
REMARK SMILES IDX 7 1 8 2 9 3 10 4 11 5 12 6 13 7 6 8 5 9 4 10 3 11 2 12 1 13
REMARK H PARENT
REMARK Flexibility Score: inf
ROOT
ATOM      1  C   UNL     1      43.504  40.204  14.933  1.00  0.00     0.000 C 
ENDROOT
BRANCH   1   2
ATOM      2  C   UNL     1      42.974  38.763  14.850  1.00  0.00     0.000 C 
BRANCH   2   3
ATOM      3  C   UNL     1      42.542  38.298  13.444  1.00  0.00     0.006 C 
BRANCH   3   4
ATOM      4  C   UNL     1      41.235  37.484  13.427  1.00  0.00     0.053 C 
BRANCH   4   5
ATOM      5  C   UNL     1      40.043  38.310  13.043  1.00  0.00     0.041 C 
ATOM      6  O   UNL     1      39.937  39.497  13.449  1.00  0.00    -0.550 OA
ATOM      7  O   UNL     1      39.031  37.756  12.271  1.00  0.00    -0.550 OA
ENDBRANCH   4   5
ENDBRANCH   3   4
ENDBRANCH   2   3
ENDBRANCH   1   2
BRANCH   1   8
ATOM      8  C   UNL     1      42.862  41.015  16.073  1.00  0.00     0.000 C 
BRANCH   8   9
ATOM      9  C   UNL     1      41.390  40.637  16.307  1.00  0.00    -0.000 C 
BRANCH   9  10
ATOM     10  C   UNL     1      40.862  41.122  17.669  1.00  0.00    -0.000 C 
BRANCH  10  11
ATOM     11  C   UNL     1      41.880  41.999  18.416  1.00  0.00    -0.000 C 
BRANCH  11  12
ATOM     12  C   UNL     1      42.469  41.301  19.650  1.00  0.00    -0.003 C 
ATOM     13  C   UNL     1      41.793  39.955  19.895  1.00  0.00     0.004 C 
ENDBRANCH  11  12
ENDBRANCH  10  11
ENDBRANCH   9  10
ENDBRANCH   8   9
ENDBRANCH   1   8
TORSDOF 9
ENDMDL
MODEL 5
REMARK VINA RESULT:    -4.728      2.884      6.213
REMARK INTER + INTRA:          -8.015
REMARK INTER:                  -7.356
REMARK INTRA:                  -0.659
REMARK UNBOUND:                -0.800
REMARK SMILES CCCCCCCCCCC(=O)[O-]
REMARK SMILES IDX 7 1 8 2 9 3 10 4 11 5 12 6 13 7 6 8 5 9 4 10 3 11 2 12 1 13
REMARK H PARENT
REMARK Flexibility Score: inf
ROOT
ATOM      1  C   UNL     1      41.271  41.478  15.446  1.00  0.00     0.000 C 
ENDROOT
BRANCH   1   2
ATOM      2  C   UNL     1      42.706  40.967  15.239  1.00  0.00     0.000 C 
BRANCH   2   3
ATOM      3  C   UNL     1      42.866  39.433  15.224  1.00  0.00     0.006 C 
BRANCH   3   4
ATOM      4  C   UNL     1      42.927  38.822  13.812  1.00  0.00     0.053 C 
BRANCH   4   5
ATOM      5  C   UNL     1      41.714  38.003  13.483  1.00  0.00     0.041 C 
ATOM      6  O   UNL     1      40.592  38.558  13.345  1.00  0.00    -0.550 OA
ATOM      7  O   UNL     1      41.816  36.622  13.369  1.00  0.00    -0.550 OA
ENDBRANCH   4   5
ENDBRANCH   3   4
ENDBRANCH   2   3
ENDBRANCH   1   2
BRANCH   1   8
ATOM      8  C   UNL     1      40.554  40.794  16.623  1.00  0.00     0.000 C 
BRANCH   8   9
ATOM      9  C   UNL     1      41.039  41.309  17.988  1.00  0.00    -0.000 C 
BRANCH   9  10
ATOM     10  C   UNL     1      41.695  40.207  18.839  1.00  0.00    -0.000 C 
BRANCH  10  11
ATOM     11  C   UNL     1      42.060  40.694  20.251  1.00  0.00    -0.000 C 
BRANCH  11  12
ATOM     12  C   UNL     1      41.964  42.219  20.393  1.00  0.00    -0.003 C 
ATOM     13  C   UNL     1      43.340  42.840  20.613  1.00  0.00     0.004 C 
ENDBRANCH  11  12
ENDBRANCH  10  11
ENDBRANCH   9  10
ENDBRANCH   8   9
ENDBRANCH   1   8
TORSDOF 9
ENDMDL
MODEL 6
REMARK VINA RESULT:    -4.669      1.941      3.053
REMARK INTER + INTRA:          -7.925
REMARK INTER:                  -7.081
REMARK INTRA:                  -0.843
REMARK UNBOUND:                -0.800
REMARK SMILES CCCCCCCCCCC(=O)[O-]
REMARK SMILES IDX 7 1 8 2 9 3 10 4 11 5 12 6 13 7 6 8 5 9 4 10 3 11 2 12 1 13
REMARK H PARENT
REMARK Flexibility Score: inf
ROOT
ATOM      1  C   UNL     1      40.600  40.701  16.706  1.00  0.00     0.000 C 
ENDROOT
BRANCH   1   2
ATOM      2  C   UNL     1      41.595  40.680  17.878  1.00  0.00     0.000 C 
BRANCH   2   3
ATOM      3  C   UNL     1      41.853  42.044  18.551  1.00  0.00     0.006 C 
BRANCH   3   4
ATOM      4  C   UNL     1      43.220  42.666  18.207  1.00  0.00     0.053 C 
BRANCH   4   5
ATOM      5  C   UNL     1      43.108  43.810  17.243  1.00  0.00     0.041 C 
ATOM      6  O   UNL     1      43.629  44.923  17.517  1.00  0.00    -0.550 OA
ATOM      7  O   UNL     1      42.393  43.658  16.062  1.00  0.00    -0.550 OA
ENDBRANCH   4   5
ENDBRANCH   3   4
ENDBRANCH   2   3
ENDBRANCH   1   2
BRANCH   1   8
ATOM      8  C   UNL     1      41.263  40.398  15.351  1.00  0.00     0.000 C 
BRANCH   8   9
ATOM      9  C   UNL     1      42.784  40.208  15.469  1.00  0.00    -0.000 C 
BRANCH   9  10
ATOM     10  C   UNL     1      43.260  38.859  14.901  1.00  0.00    -0.000 C 
BRANCH  10  11
ATOM     11  C   UNL     1      42.558  38.495  13.583  1.00  0.00    -0.000 C 
BRANCH  11  12
ATOM     12  C   UNL     1      41.873  37.122  13.638  1.00  0.00    -0.003 C 
ATOM     13  C   UNL     1      40.390  37.233  13.300  1.00  0.00     0.004 C 
ENDBRANCH  11  12
ENDBRANCH  10  11
ENDBRANCH   9  10
ENDBRANCH   8   9
ENDBRANCH   1   8
TORSDOF 9
ENDMDL
MODEL 7
REMARK VINA RESULT:    -4.563      3.115      5.824
REMARK INTER + INTRA:          -7.763
REMARK INTER:                  -6.907
REMARK INTRA:                  -0.856
REMARK UNBOUND:                -0.800
REMARK SMILES CCCCCCCCCCC(=O)[O-]
REMARK SMILES IDX 7 1 8 2 9 3 10 4 11 5 12 6 13 7 6 8 5 9 4 10 3 11 2 12 1 13
REMARK H PARENT
REMARK Flexibility Score: inf
ROOT
ATOM      1  C   UNL     1      42.833  41.979  15.034  1.00  0.00     0.000 C 
ENDROOT
BRANCH   1   2
ATOM      2  C   UNL     1      43.036  40.534  15.518  1.00  0.00     0.000 C 
BRANCH   2   3
ATOM      3  C   UNL     1      42.458  39.440  14.597  1.00  0.00     0.006 C 
BRANCH   3   4
ATOM      4  C   UNL     1      40.922  39.454  14.493  1.00  0.00     0.053 C 
BRANCH   4   5
ATOM      5  C   UNL     1      40.403  38.503  13.456  1.00  0.00     0.041 C 
ATOM      6  O   UNL     1      39.581  38.897  12.587  1.00  0.00    -0.550 OA
ATOM      7  O   UNL     1      40.798  37.171  13.474  1.00  0.00    -0.550 OA
ENDBRANCH   4   5
ENDBRANCH   3   4
ENDBRANCH   2   3
ENDBRANCH   1   2
BRANCH   1   8
ATOM      8  C   UNL     1      42.335  42.920  16.145  1.00  0.00     0.000 C 
BRANCH   8   9
ATOM      9  C   UNL     1      40.897  42.600  16.585  1.00  0.00    -0.000 C 
BRANCH   9  10
ATOM     10  C   UNL     1      40.832  41.968  17.988  1.00  0.00    -0.000 C 
BRANCH  10  11
ATOM     11  C   UNL     1      42.040  42.347  18.860  1.00  0.00    -0.000 C 
BRANCH  11  12
ATOM     12  C   UNL     1      42.431  41.234  19.843  1.00  0.00    -0.003 C 
ATOM     13  C   UNL     1      41.675  39.944  19.542  1.00  0.00     0.004 C 
ENDBRANCH  11  12
ENDBRANCH  10  11
ENDBRANCH   9  10
ENDBRANCH   8   9
ENDBRANCH   1   8
TORSDOF 9
ENDMDL
MODEL 8
REMARK VINA RESULT:    -4.495      1.386      2.507
REMARK INTER + INTRA:          -7.660
REMARK INTER:                  -6.892
REMARK INTRA:                  -0.768
REMARK UNBOUND:                -0.800
REMARK SMILES CCCCCCCCCCC(=O)[O-]
REMARK SMILES IDX 7 1 8 2 9 3 10 4 11 5 12 6 13 7 6 8 5 9 4 10 3 11 2 12 1 13
REMARK H PARENT
REMARK Flexibility Score: inf
ROOT
ATOM      1  C   UNL     1      40.928  42.292  16.486  1.00  0.00     0.000 C 
ENDROOT
BRANCH   1   2
ATOM      2  C   UNL     1      42.361  42.831  16.628  1.00  0.00     0.000 C 
BRANCH   2   3
ATOM      3  C   UNL     1      42.790  43.202  18.062  1.00  0.00     0.006 C 
BRANCH   3   4
ATOM      4  C   UNL     1      43.185  41.993  18.931  1.00  0.00     0.053 C 
BRANCH   4   5
ATOM      5  C   UNL     1      42.051  41.496  19.779  1.00  0.00     0.041 C 
ATOM      6  O   UNL     1      41.654  40.306  19.672  1.00  0.00    -0.550 OA
ATOM      7  O   UNL     1      41.409  42.359  20.658  1.00  0.00    -0.550 OA
ENDBRANCH   4   5
ENDBRANCH   3   4
ENDBRANCH   2   3
ENDBRANCH   1   2
BRANCH   1   8
ATOM      8  C   UNL     1      40.881  40.786  16.178  1.00  0.00     0.000 C 
BRANCH   8   9
ATOM      9  C   UNL     1      42.267  40.210  15.846  1.00  0.00    -0.000 C 
BRANCH   9  10
ATOM     10  C   UNL     1      42.254  39.317  14.591  1.00  0.00    -0.000 C 
BRANCH  10  11
ATOM     11  C   UNL     1      40.840  39.125  14.021  1.00  0.00    -0.000 C 
BRANCH  11  12
ATOM     12  C   UNL     1      40.650  37.752  13.361  1.00  0.00    -0.003 C 
ATOM     13  C   UNL     1      41.906  36.897  13.500  1.00  0.00     0.004 C 
ENDBRANCH  11  12
ENDBRANCH  10  11
ENDBRANCH   9  10
ENDBRANCH   8   9
ENDBRANCH   1   8
TORSDOF 9
ENDMDL
MODEL 9
REMARK VINA RESULT:    -4.423      3.092      5.518
REMARK INTER + INTRA:          -7.550
REMARK INTER:                  -6.255
REMARK INTRA:                  -1.295
REMARK UNBOUND:                -0.800
REMARK SMILES CCCCCCCCCCC(=O)[O-]
REMARK SMILES IDX 7 1 8 2 9 3 10 4 11 5 12 6 13 7 6 8 5 9 4 10 3 11 2 12 1 13
REMARK H PARENT
REMARK Flexibility Score: inf
ROOT
ATOM      1  C   UNL     1      41.506  40.618  17.950  1.00  0.00     0.000 C 
ENDROOT
BRANCH   1   2
ATOM      2  C   UNL     1      40.543  40.778  16.761  1.00  0.00     0.000 C 
BRANCH   2   3
ATOM      3  C   UNL     1      41.099  40.327  15.395  1.00  0.00     0.006 C 
BRANCH   3   4
ATOM      4  C   UNL     1      42.626  40.127  15.373  1.00  0.00     0.053 C 
BRANCH   4   5
ATOM      5  C   UNL     1      43.049  38.997  14.482  1.00  0.00     0.041 C 
ATOM      6  O   UNL     1      42.236  38.499  13.659  1.00  0.00    -0.550 OA
ATOM      7  O   UNL     1      44.329  38.468  14.589  1.00  0.00    -0.550 OA
ENDBRANCH   4   5
ENDBRANCH   3   4
ENDBRANCH   2   3
ENDBRANCH   1   2
BRANCH   1   8
ATOM      8  C   UNL     1      41.823  41.952  18.648  1.00  0.00     0.000 C 
BRANCH   8   9
ATOM      9  C   UNL     1      43.241  42.458  18.336  1.00  0.00    -0.000 C 
BRANCH   9  10
ATOM     10  C   UNL     1      43.243  43.664  17.379  1.00  0.00    -0.000 C 
BRANCH  10  11
ATOM     11  C   UNL     1      41.825  44.159  17.053  1.00  0.00    -0.000 C 
BRANCH  11  12
ATOM     12  C   UNL     1      41.520  44.129  15.549  1.00  0.00    -0.003 C 
ATOM     13  C   UNL     1      42.758  43.746  14.744  1.00  0.00     0.004 C 
ENDBRANCH  11  12
ENDBRANCH  10  11
ENDBRANCH   9  10
ENDBRANCH   8   9
ENDBRANCH   1   8
TORSDOF 9
ENDMDL
