MODEL 1
REMARK VINA RESULT:    -6.568      0.000      0.000
REMARK INTER + INTRA:          -7.376
REMARK INTER:                  -7.144
REMARK INTRA:                  -0.232
REMARK UNBOUND:                -0.232
REMARK SMILES CC1=CCC[C@@]2(C)CC[C@@H](C(C)(C)O)C[C@H]12
REMARK SMILES IDX 11 1 12 2 13 3 10 4 1 5 2 6 3 7 16 8 4 9 6 10 15 11 5 12
REMARK SMILES IDX 7 13 8 14 9 15 14 16
REMARK H PARENT 14 17
REMARK Flexibility Score: inf
ROOT
ATOM      1  C   UNL     1      -1.580  17.318  46.483  1.00  0.00     0.062 C 
ATOM      2  C   UNL     1      -1.619  16.047  47.367  1.00  0.00     0.042 C 
ATOM      3  C   UNL     1      -2.212  16.966  45.114  1.00  0.00     0.042 C 
ENDROOT
BRANCH   1   4
ATOM      4  C   UNL     1      -2.364  18.485  47.185  1.00  0.00     0.021 C 
ATOM      5  C   UNL     1      -1.766  22.621  45.227  1.00  0.00     0.039 C 
ATOM      6  C   UNL     1      -2.894  22.302  46.182  1.00  0.00    -0.074 C 
ATOM      7  C   UNL     1      -3.663  23.335  46.591  1.00  0.00    -0.028 C 
ATOM      8  C   UNL     1      -3.275  20.858  46.533  1.00  0.00     0.021 C 
ATOM      9  C   UNL     1      -4.821  23.199  47.549  1.00  0.00     0.028 C 
ATOM     10  C   UNL     1      -4.077  20.765  47.865  1.00  0.00    -0.026 C 
ATOM     11  C   UNL     1      -2.077  19.868  46.518  1.00  0.00     0.015 C 
ATOM     12  C   UNL     1      -5.272  21.747  47.760  1.00  0.00     0.011 C 
ATOM     13  C   UNL     1      -3.201  21.156  49.091  1.00  0.00     0.012 C 
ATOM     14  C   UNL     1      -4.628  19.312  48.064  1.00  0.00     0.008 C 
ATOM     15  C   UNL     1      -3.887  18.225  47.258  1.00  0.00     0.007 C 
ENDBRANCH   1   4
BRANCH   1  16
ATOM     16  O   UNL     1      -0.242  17.717  46.288  1.00  0.00    -0.390 OA
ATOM     17  H   UNL     1       0.033  18.266  47.069  1.00  0.00     0.211 HD
ENDBRANCH   1  16
TORSDOF 2
ENDMDL
MODEL 2
REMARK VINA RESULT:    -6.050      2.271      3.235
REMARK INTER + INTRA:          -6.813
REMARK INTER:                  -6.552
REMARK INTRA:                  -0.261
REMARK UNBOUND:                -0.232
REMARK SMILES CC1=CCC[C@@]2(C)CC[C@@H](C(C)(C)O)C[C@H]12
REMARK SMILES IDX 11 1 12 2 13 3 10 4 1 5 2 6 3 7 16 8 4 9 6 10 15 11 5 12
REMARK SMILES IDX 7 13 8 14 9 15 14 16
REMARK H PARENT 14 17
REMARK Flexibility Score: inf
ROOT
ATOM      1  C   UNL     1      -3.233  18.995  48.724  1.00  0.00     0.062 C 
ATOM      2  C   UNL     1      -4.358  18.111  48.130  1.00  0.00     0.042 C 
ATOM      3  C   UNL     1      -2.000  18.888  47.793  1.00  0.00     0.042 C 
ENDROOT
BRANCH   1   4
ATOM      4  C   UNL     1      -3.725  20.482  48.843  1.00  0.00     0.021 C 
ATOM      5  C   UNL     1      -0.328  23.606  48.917  1.00  0.00     0.039 C 
ATOM      6  C   UNL     1      -1.772  23.946  48.626  1.00  0.00    -0.074 C 
ATOM      7  C   UNL     1      -2.090  25.257  48.540  1.00  0.00    -0.028 C 
ATOM      8  C   UNL     1      -2.802  22.868  48.260  1.00  0.00     0.021 C 
ATOM      9  C   UNL     1      -3.480  25.774  48.267  1.00  0.00     0.028 C 
ATOM     10  C   UNL     1      -4.266  23.343  48.499  1.00  0.00    -0.026 C 
ATOM     11  C   UNL     1      -2.534  21.489  48.924  1.00  0.00     0.015 C 
ATOM     12  C   UNL     1      -4.445  24.694  47.759  1.00  0.00     0.011 C 
ATOM     13  C   UNL     1      -4.563  23.548  50.013  1.00  0.00     0.012 C 
ATOM     14  C   UNL     1      -5.275  22.301  47.909  1.00  0.00     0.008 C 
ATOM     15  C   UNL     1      -4.697  20.885  47.709  1.00  0.00     0.007 C 
ENDBRANCH   1   4
BRANCH   1  16
ATOM     16  O   UNL     1      -2.889  18.522  50.007  1.00  0.00    -0.390 OA
ATOM     17  H   UNL     1      -1.903  18.403  50.037  1.00  0.00     0.211 HD
ENDBRANCH   1  16
TORSDOF 2
ENDMDL
MODEL 3
REMARK VINA RESULT:    -5.984      2.455      5.130
REMARK INTER + INTRA:          -6.741
REMARK INTER:                  -6.462
REMARK INTRA:                  -0.279
REMARK UNBOUND:                -0.232
REMARK SMILES CC1=CCC[C@@]2(C)CC[C@@H](C(C)(C)O)C[C@H]12
REMARK SMILES IDX 11 1 12 2 13 3 10 4 1 5 2 6 3 7 16 8 4 9 6 10 15 11 5 12
REMARK SMILES IDX 7 13 8 14 9 15 14 16
REMARK H PARENT 14 17
REMARK Flexibility Score: inf
ROOT
ATOM      1  C   UNL     1      -4.514  23.564  47.264  1.00  0.00     0.062 C 
ATOM      2  C   UNL     1      -5.397  23.673  48.532  1.00  0.00     0.042 C 
ATOM      3  C   UNL     1      -3.275  24.471  47.467  1.00  0.00     0.042 C 
ENDROOT
BRANCH   1   4
ATOM      4  C   UNL     1      -4.091  22.070  47.033  1.00  0.00     0.021 C 
ATOM      5  C   UNL     1       0.471  21.368  47.034  1.00  0.00     0.039 C 
ATOM      6  C   UNL     1      -0.545  20.263  47.204  1.00  0.00    -0.074 C 
ATOM      7  C   UNL     1      -0.080  18.993  47.198  1.00  0.00    -0.028 C 
ATOM      8  C   UNL     1      -2.011  20.555  47.553  1.00  0.00     0.021 C 
ATOM      9  C   UNL     1      -0.955  17.773  47.344  1.00  0.00     0.028 C 
ATOM     10  C   UNL     1      -2.954  19.371  47.186  1.00  0.00    -0.026 C 
ATOM     11  C   UNL     1      -2.538  21.902  46.983  1.00  0.00     0.015 C 
ATOM     12  C   UNL     1      -2.372  18.091  47.839  1.00  0.00     0.011 C 
ATOM     13  C   UNL     1      -3.042  19.163  45.646  1.00  0.00     0.012 C 
ATOM     14  C   UNL     1      -4.390  19.626  47.758  1.00  0.00     0.008 C 
ATOM     15  C   UNL     1      -4.705  21.103  48.072  1.00  0.00     0.007 C 
ENDBRANCH   1   4
BRANCH   1  16
ATOM     16  O   UNL     1      -5.241  24.014  46.143  1.00  0.00    -0.390 OA
ATOM     17  H   UNL     1      -5.001  24.965  45.982  1.00  0.00     0.211 HD
ENDBRANCH   1  16
TORSDOF 2
ENDMDL
MODEL 4
REMARK VINA RESULT:    -5.937      5.332      7.724
REMARK INTER + INTRA:          -6.690
REMARK INTER:                  -6.441
REMARK INTRA:                  -0.249
REMARK UNBOUND:                -0.232
REMARK SMILES CC1=CCC[C@@]2(C)CC[C@@H](C(C)(C)O)C[C@H]12
REMARK SMILES IDX 11 1 12 2 13 3 10 4 1 5 2 6 3 7 16 8 4 9 6 10 15 11 5 12
REMARK SMILES IDX 7 13 8 14 9 15 14 16
REMARK H PARENT 14 17
REMARK Flexibility Score: inf
ROOT
ATOM      1  C   UNL     1      -3.276  27.212  52.462  1.00  0.00     0.062 C 
ATOM      2  C   UNL     1      -3.379  26.756  53.938  1.00  0.00     0.042 C 
ATOM      3  C   UNL     1      -1.776  27.261  52.081  1.00  0.00     0.042 C 
ENDROOT
BRANCH   1   4
ATOM      4  C   UNL     1      -4.063  26.216  51.537  1.00  0.00     0.021 C 
ATOM      5  C   UNL     1      -3.153  26.684  47.036  1.00  0.00     0.039 C 
ATOM      6  C   UNL     1      -3.811  25.461  47.634  1.00  0.00    -0.074 C 
ATOM      7  C   UNL     1      -4.291  24.537  46.772  1.00  0.00    -0.028 C 
ATOM      8  C   UNL     1      -3.779  25.179  49.142  1.00  0.00     0.021 C 
ATOM      9  C   UNL     1      -4.984  23.266  47.196  1.00  0.00     0.028 C 
ATOM     10  C   UNL     1      -4.904  24.196  49.585  1.00  0.00    -0.026 C 
ATOM     11  C   UNL     1      -3.762  26.459  50.024  1.00  0.00     0.015 C 
ATOM     12  C   UNL     1      -4.804  22.938  48.684  1.00  0.00     0.011 C 
ATOM     13  C   UNL     1      -6.316  24.829  49.422  1.00  0.00     0.012 C 
ATOM     14  C   UNL     1      -4.694  23.771  51.078  1.00  0.00     0.008 C 
ATOM     15  C   UNL     1      -3.817  24.734  51.905  1.00  0.00     0.007 C 
ENDBRANCH   1   4
BRANCH   1  16
ATOM     16  O   UNL     1      -3.832  28.501  52.326  1.00  0.00    -0.390 OA
ATOM     17  H   UNL     1      -4.446  28.490  51.545  1.00  0.00     0.211 HD
ENDBRANCH   1  16
TORSDOF 2
ENDMDL
MODEL 5
REMARK VINA RESULT:    -5.868      4.375      6.742
REMARK INTER + INTRA:          -6.615
REMARK INTER:                  -6.409
REMARK INTRA:                  -0.205
REMARK UNBOUND:                -0.232
REMARK SMILES CC1=CCC[C@@]2(C)CC[C@@H](C(C)(C)O)C[C@H]12
REMARK SMILES IDX 11 1 12 2 13 3 10 4 1 5 2 6 3 7 16 8 4 9 6 10 15 11 5 12
REMARK SMILES IDX 7 13 8 14 9 15 14 16
REMARK H PARENT 14 17
REMARK Flexibility Score: inf
ROOT
ATOM      1  C   UNL     1      -0.620  23.575  52.732  1.00  0.00     0.062 C 
ATOM      2  C   UNL     1       0.764  23.630  52.039  1.00  0.00     0.042 C 
ATOM      3  C   UNL     1      -0.483  24.237  54.125  1.00  0.00     0.042 C 
ENDROOT
BRANCH   1   4
ATOM      4  C   UNL     1      -1.689  24.319  51.854  1.00  0.00     0.021 C 
ATOM      5  C   UNL     1      -3.936  21.594  48.883  1.00  0.00     0.039 C 
ATOM      6  C   UNL     1      -4.421  22.967  49.290  1.00  0.00    -0.074 C 
ATOM      7  C   UNL     1      -5.484  23.467  48.621  1.00  0.00    -0.028 C 
ATOM      8  C   UNL     1      -3.862  23.692  50.522  1.00  0.00     0.021 C 
ATOM      9  C   UNL     1      -6.089  24.823  48.890  1.00  0.00     0.028 C 
ATOM     10  C   UNL     1      -4.106  25.230  50.466  1.00  0.00    -0.026 C 
ATOM     11  C   UNL     1      -2.374  23.362  50.827  1.00  0.00     0.015 C 
ATOM     12  C   UNL     1      -5.619  25.452  50.208  1.00  0.00     0.011 C 
ATOM     13  C   UNL     1      -3.290  25.898  49.321  1.00  0.00     0.012 C 
ATOM     14  C   UNL     1      -3.719  25.889  51.833  1.00  0.00     0.008 C 
ATOM     15  C   UNL     1      -2.755  25.055  52.700  1.00  0.00     0.007 C 
ENDBRANCH   1   4
BRANCH   1  16
ATOM     16  O   UNL     1      -1.015  22.231  52.893  1.00  0.00    -0.390 OA
ATOM     17  H   UNL     1      -0.720  21.930  53.793  1.00  0.00     0.211 HD
ENDBRANCH   1  16
TORSDOF 2
ENDMDL
MODEL 6
REMARK VINA RESULT:    -5.793      3.109      5.213
REMARK INTER + INTRA:          -6.533
REMARK INTER:                  -6.259
REMARK INTRA:                  -0.274
REMARK UNBOUND:                -0.232
REMARK SMILES CC1=CCC[C@@]2(C)CC[C@@H](C(C)(C)O)C[C@H]12
REMARK SMILES IDX 11 1 12 2 13 3 10 4 1 5 2 6 3 7 16 8 4 9 6 10 15 11 5 12
REMARK SMILES IDX 7 13 8 14 9 15 14 16
REMARK H PARENT 14 17
REMARK Flexibility Score: inf
ROOT
ATOM      1  C   UNL     1      -4.053  20.958  47.704  1.00  0.00     0.062 C 
ATOM      2  C   UNL     1      -3.102  21.110  46.491  1.00  0.00     0.042 C 
ATOM      3  C   UNL     1      -3.238  20.363  48.878  1.00  0.00     0.042 C 
ENDROOT
BRANCH   1   4
ATOM      4  C   UNL     1      -4.661  22.355  48.087  1.00  0.00     0.021 C 
ATOM      5  C   UNL     1      -2.955  24.164  51.976  1.00  0.00     0.039 C 
ATOM      6  C   UNL     1      -3.710  24.966  50.941  1.00  0.00    -0.074 C 
ATOM      7  C   UNL     1      -4.027  26.240  51.261  1.00  0.00    -0.028 C 
ATOM      8  C   UNL     1      -3.950  24.436  49.521  1.00  0.00     0.021 C 
ATOM      9  C   UNL     1      -4.786  27.176  50.353  1.00  0.00     0.028 C 
ATOM     10  C   UNL     1      -5.136  25.156  48.813  1.00  0.00    -0.026 C 
ATOM     11  C   UNL     1      -4.092  22.890  49.440  1.00  0.00     0.015 C 
ATOM     12  C   UNL     1      -4.876  26.682  48.904  1.00  0.00     0.011 C 
ATOM     13  C   UNL     1      -6.496  24.829  49.496  1.00  0.00     0.012 C 
ATOM     14  C   UNL     1      -5.199  24.739  47.304  1.00  0.00     0.008 C 
ATOM     15  C   UNL     1      -4.485  23.413  46.972  1.00  0.00     0.007 C 
ENDBRANCH   1   4
BRANCH   1  16
ATOM     16  O   UNL     1      -5.102  20.077  47.373  1.00  0.00    -0.390 OA
ATOM     17  H   UNL     1      -5.296  20.178  46.404  1.00  0.00     0.211 HD
ENDBRANCH   1  16
TORSDOF 2
ENDMDL
MODEL 7
REMARK VINA RESULT:    -5.727      4.249      7.140
REMARK INTER + INTRA:          -6.462
REMARK INTER:                  -6.226
REMARK INTRA:                  -0.236
REMARK UNBOUND:                -0.232
REMARK SMILES CC1=CCC[C@@]2(C)CC[C@@H](C(C)(C)O)C[C@H]12
REMARK SMILES IDX 11 1 12 2 13 3 10 4 1 5 2 6 3 7 16 8 4 9 6 10 15 11 5 12
REMARK SMILES IDX 7 13 8 14 9 15 14 16
REMARK H PARENT 14 17
REMARK Flexibility Score: inf
ROOT
ATOM      1  C   UNL     1      -6.566  26.844  49.366  1.00  0.00     0.062 C 
ATOM      2  C   UNL     1      -5.469  27.921  49.173  1.00  0.00     0.042 C 
ATOM      3  C   UNL     1      -7.714  27.148  48.372  1.00  0.00     0.042 C 
ENDROOT
BRANCH   1   4
ATOM      4  C   UNL     1      -5.965  25.415  49.116  1.00  0.00     0.021 C 
ATOM      5  C   UNL     1      -3.118  25.163  45.491  1.00  0.00     0.039 C 
ATOM      6  C   UNL     1      -3.177  24.119  46.583  1.00  0.00    -0.074 C 
ATOM      7  C   UNL     1      -2.465  22.986  46.390  1.00  0.00    -0.028 C 
ATOM      8  C   UNL     1      -3.856  24.394  47.932  1.00  0.00     0.021 C 
ATOM      9  C   UNL     1      -2.419  21.840  47.370  1.00  0.00     0.028 C 
ATOM     10  C   UNL     1      -4.243  23.081  48.677  1.00  0.00    -0.026 C 
ATOM     11  C   UNL     1      -5.058  25.375  47.844  1.00  0.00     0.015 C 
ATOM     12  C   UNL     1      -2.972  22.198  48.756  1.00  0.00     0.011 C 
ATOM     13  C   UNL     1      -5.361  22.302  47.924  1.00  0.00     0.012 C 
ATOM     14  C   UNL     1      -4.727  23.409  50.131  1.00  0.00     0.008 C 
ATOM     15  C   UNL     1      -5.200  24.862  50.341  1.00  0.00     0.007 C 
ENDBRANCH   1   4
BRANCH   1  16
ATOM     16  O   UNL     1      -7.064  26.908  50.684  1.00  0.00    -0.390 OA
ATOM     17  H   UNL     1      -6.905  26.027  51.116  1.00  0.00     0.211 HD
ENDBRANCH   1  16
TORSDOF 2
ENDMDL
MODEL 8
REMARK VINA RESULT:    -5.692      4.205      6.925
REMARK INTER + INTRA:          -6.423
REMARK INTER:                  -6.192
REMARK INTRA:                  -0.231
REMARK UNBOUND:                -0.232
REMARK SMILES CC1=CCC[C@@]2(C)CC[C@@H](C(C)(C)O)C[C@H]12
REMARK SMILES IDX 11 1 12 2 13 3 10 4 1 5 2 6 3 7 16 8 4 9 6 10 15 11 5 12
REMARK SMILES IDX 7 13 8 14 9 15 14 16
REMARK H PARENT 14 17
REMARK Flexibility Score: inf
ROOT
ATOM      1  C   UNL     1      -3.744  26.522  51.213  1.00  0.00     0.062 C 
ATOM      2  C   UNL     1      -3.617  25.671  52.502  1.00  0.00     0.042 C 
ATOM      3  C   UNL     1      -2.384  27.220  50.968  1.00  0.00     0.042 C 
ENDROOT
BRANCH   1   4
ATOM      4  C   UNL     1      -4.135  25.603  50.001  1.00  0.00     0.021 C 
ATOM      5  C   UNL     1      -1.370  21.954  49.414  1.00  0.00     0.039 C 
ATOM      6  C   UNL     1      -2.743  22.073  48.792  1.00  0.00    -0.074 C 
ATOM      7  C   UNL     1      -3.097  21.123  47.897  1.00  0.00    -0.028 C 
ATOM      8  C   UNL     1      -3.767  23.107  49.279  1.00  0.00     0.021 C 
ATOM      9  C   UNL     1      -4.421  21.094  47.175  1.00  0.00     0.028 C 
ATOM     10  C   UNL     1      -4.868  23.396  48.214  1.00  0.00    -0.026 C 
ATOM     11  C   UNL     1      -3.132  24.420  49.814  1.00  0.00     0.015 C 
ATOM     12  C   UNL     1      -5.470  22.034  47.784  1.00  0.00     0.011 C 
ATOM     13  C   UNL     1      -4.281  24.112  46.963  1.00  0.00     0.012 C 
ATOM     14  C   UNL     1      -6.000  24.281  48.835  1.00  0.00     0.008 C 
ATOM     15  C   UNL     1      -5.585  25.072  50.093  1.00  0.00     0.007 C 
ENDBRANCH   1   4
BRANCH   1  16
ATOM     16  O   UNL     1      -4.743  27.500  51.389  1.00  0.00    -0.390 OA
ATOM     17  H   UNL     1      -4.409  28.168  52.043  1.00  0.00     0.211 HD
ENDBRANCH   1  16
TORSDOF 2
ENDMDL
MODEL 9
REMARK VINA RESULT:    -5.628      4.936      7.340
REMARK INTER + INTRA:          -6.354
REMARK INTER:                  -6.112
REMARK INTRA:                  -0.241
REMARK UNBOUND:                -0.232
REMARK SMILES CC1=CCC[C@@]2(C)CC[C@@H](C(C)(C)O)C[C@H]12
REMARK SMILES IDX 11 1 12 2 13 3 10 4 1 5 2 6 3 7 16 8 4 9 6 10 15 11 5 12
REMARK SMILES IDX 7 13 8 14 9 15 14 16
REMARK H PARENT 14 17
REMARK Flexibility Score: inf
ROOT
ATOM      1  C   UNL     1      -5.446  24.629  48.599  1.00  0.00     0.062 C 
ATOM      2  C   UNL     1      -6.463  25.169  49.634  1.00  0.00     0.042 C 
ATOM      3  C   UNL     1      -5.391  25.629  47.417  1.00  0.00     0.042 C 
ENDROOT
BRANCH   1   4
ATOM      4  C   UNL     1      -4.034  24.468  49.268  1.00  0.00     0.021 C 
ATOM      5  C   UNL     1      -3.625  26.558  53.363  1.00  0.00     0.039 C 
ATOM      6  C   UNL     1      -2.676  25.489  52.871  1.00  0.00    -0.074 C 
ATOM      7  C   UNL     1      -1.570  25.259  53.613  1.00  0.00    -0.028 C 
ATOM      8  C   UNL     1      -3.028  24.573  51.690  1.00  0.00     0.021 C 
ATOM      9  C   UNL     1      -0.516  24.238  53.264  1.00  0.00     0.028 C 
ATOM     10  C   UNL     1      -1.766  23.926  51.047  1.00  0.00    -0.026 C 
ATOM     11  C   UNL     1      -3.934  25.244  50.620  1.00  0.00     0.015 C 
ATOM     12  C   UNL     1      -0.960  23.245  52.183  1.00  0.00     0.011 C 
ATOM     13  C   UNL     1      -0.867  24.990  50.351  1.00  0.00     0.012 C 
ATOM     14  C   UNL     1      -2.189  22.840  50.000  1.00  0.00     0.008 C 
ATOM     15  C   UNL     1      -3.628  22.988  49.464  1.00  0.00     0.007 C 
ENDBRANCH   1   4
BRANCH   1  16
ATOM     16  O   UNL     1      -5.875  23.373  48.125  1.00  0.00    -0.390 OA
ATOM     17  H   UNL     1      -5.158  23.001  47.547  1.00  0.00     0.211 HD
ENDBRANCH   1  16
TORSDOF 2
ENDMDL
