MODEL 1
REMARK VINA RESULT:    -2.241      0.000      0.000
REMARK INTER + INTRA:          -2.982
REMARK INTER:                  -2.699
REMARK INTRA:                  -0.283
REMARK UNBOUND:                -0.283
REMARK SMILES NC(=O)C[C@H]([NH3+])C(=O)[O-]
REMARK SMILES IDX 4 1 5 2 6 3 7 7 8 8 9 9 2 10 3 11 1 12
REMARK H PARENT 6 4 6 5 6 6 1 13 1 14
REMARK Flexibility Score: inf
ROOT
ATOM      1  C   UNL     1      -2.005  -2.999 -14.153  1.00  0.00     0.171 C 
ENDROOT
BRANCH   1   2
ATOM      2  C   UNL     1      -0.684  -3.444 -13.493  1.00  0.00     0.237 C 
BRANCH   2   3
ATOM      3  N   UNL     1       0.004  -4.430 -14.334  1.00  0.00    -0.350 N 
ATOM      4  H   UNL     1       0.803  -4.864 -13.817  1.00  0.00     0.345 HD
ATOM      5  H   UNL     1      -0.667  -5.182 -14.618  1.00  0.00     0.345 HD
ATOM      6  H   UNL     1       0.363  -3.968 -15.201  1.00  0.00     0.345 HD
ENDBRANCH   2   3
BRANCH   2   7
ATOM      7  C   UNL     1      -0.929  -4.011 -12.118  1.00  0.00     0.100 C 
ATOM      8  O   UNL     1      -1.286  -5.210 -11.975  1.00  0.00    -0.544 OA
ATOM      9  O   UNL     1      -0.776  -3.203 -10.997  1.00  0.00    -0.544 OA
ENDBRANCH   2   7
ENDBRANCH   1   2
BRANCH   1  10
ATOM     10  C   UNL     1      -1.808  -2.642 -15.600  1.00  0.00     0.223 C 
ATOM     11  O   UNL     1      -0.784  -1.999 -15.953  1.00  0.00    -0.275 OA
ATOM     12  N   UNL     1      -2.756  -3.059 -16.581  1.00  0.00    -0.369 N 
ATOM     13  H   UNL     1      -3.602  -3.607 -16.305  1.00  0.00     0.159 HD
ATOM     14  H   UNL     1      -2.612  -2.823 -17.588  1.00  0.00     0.159 HD
ENDBRANCH   1  10
TORSDOF 4
ENDMDL
MODEL 2
REMARK VINA RESULT:    -2.086      1.591      1.739
REMARK INTER + INTRA:          -2.796
REMARK INTER:                  -2.696
REMARK INTRA:                  -0.099
REMARK UNBOUND:                -0.283
REMARK SMILES NC(=O)C[C@H]([NH3+])C(=O)[O-]
REMARK SMILES IDX 4 1 5 2 6 3 7 7 8 8 9 9 2 10 3 11 1 12
REMARK H PARENT 6 4 6 5 6 6 1 13 1 14
REMARK Flexibility Score: inf
ROOT
ATOM      1  C   UNL     1      -1.119  -2.920 -15.478  1.00  0.00     0.171 C 
ENDROOT
BRANCH   1   2
ATOM      2  C   UNL     1      -1.724  -3.034 -14.064  1.00  0.00     0.237 C 
BRANCH   2   3
ATOM      3  N   UNL     1      -1.977  -1.700 -13.505  1.00  0.00    -0.350 N 
ATOM      4  H   UNL     1      -1.192  -1.408 -12.877  1.00  0.00     0.345 HD
ATOM      5  H   UNL     1      -2.070  -1.004 -14.281  1.00  0.00     0.345 HD
ATOM      6  H   UNL     1      -2.871  -1.707 -12.962  1.00  0.00     0.345 HD
ENDBRANCH   2   3
BRANCH   2   7
ATOM      7  C   UNL     1      -0.821  -3.820 -13.148  1.00  0.00     0.100 C 
ATOM      8  O   UNL     1      -0.033  -4.685 -13.615  1.00  0.00    -0.544 OA
ATOM      9  O   UNL     1      -0.865  -3.603 -11.777  1.00  0.00    -0.544 OA
ENDBRANCH   2   7
ENDBRANCH   1   2
BRANCH   1  10
ATOM     10  C   UNL     1      -2.157  -2.540 -16.495  1.00  0.00     0.223 C 
ATOM     11  O   UNL     1      -1.983  -1.525 -17.221  1.00  0.00    -0.275 OA
ATOM     12  N   UNL     1      -3.325  -3.342 -16.669  1.00  0.00    -0.369 N 
ATOM     13  H   UNL     1      -3.475  -4.195 -16.085  1.00  0.00     0.159 HD
ATOM     14  H   UNL     1      -4.040  -3.084 -17.384  1.00  0.00     0.159 HD
ENDBRANCH   1  10
TORSDOF 4
ENDMDL
MODEL 3
REMARK VINA RESULT:    -1.871      1.620      4.162
REMARK INTER + INTRA:          -2.536
REMARK INTER:                  -2.276
REMARK INTRA:                  -0.260
REMARK UNBOUND:                -0.283
REMARK SMILES NC(=O)C[C@H]([NH3+])C(=O)[O-]
REMARK SMILES IDX 4 1 5 2 6 3 7 7 8 8 9 9 2 10 3 11 1 12
REMARK H PARENT 6 4 6 5 6 6 1 13 1 14
REMARK Flexibility Score: inf
ROOT
ATOM      1  C   UNL     1      -1.219  -3.013 -13.344  1.00  0.00     0.171 C 
ENDROOT
BRANCH   1   2
ATOM      2  C   UNL     1      -0.988  -3.616 -14.745  1.00  0.00     0.237 C 
BRANCH   2   3
ATOM      3  N   UNL     1       0.441  -3.872 -14.964  1.00  0.00    -0.350 N 
ATOM      4  H   UNL     1       0.738  -3.527 -15.906  1.00  0.00     0.345 HD
ATOM      5  H   UNL     1       1.004  -3.385 -14.229  1.00  0.00     0.345 HD
ATOM      6  H   UNL     1       0.632  -4.899 -14.896  1.00  0.00     0.345 HD
ENDBRANCH   2   3
BRANCH   2   7
ATOM      7  C   UNL     1      -1.526  -2.710 -15.822  1.00  0.00     0.100 C 
ATOM      8  O   UNL     1      -0.960  -1.615 -16.079  1.00  0.00    -0.544 OA
ATOM      9  O   UNL     1      -2.666  -3.074 -16.529  1.00  0.00    -0.544 OA
ENDBRANCH   2   7
ENDBRANCH   1   2
BRANCH   1  10
ATOM     10  C   UNL     1      -1.000  -4.030 -12.261  1.00  0.00     0.223 C 
ATOM     11  O   UNL     1      -0.949  -5.255 -12.551  1.00  0.00    -0.275 OA
ATOM     12  N   UNL     1      -0.815  -3.615 -10.908  1.00  0.00    -0.369 N 
ATOM     13  H   UNL     1      -0.840  -2.602 -10.654  1.00  0.00     0.159 HD
ATOM     14  H   UNL     1      -0.650  -4.322 -10.157  1.00  0.00     0.159 HD
ENDBRANCH   1  10
TORSDOF 4
ENDMDL
MODEL 4
REMARK VINA RESULT:    -1.690      1.760      4.140
REMARK INTER + INTRA:          -2.319
REMARK INTER:                  -2.048
REMARK INTRA:                  -0.270
REMARK UNBOUND:                -0.283
REMARK SMILES NC(=O)C[C@H]([NH3+])C(=O)[O-]
REMARK SMILES IDX 4 1 5 2 6 3 7 7 8 8 9 9 2 10 3 11 1 12
REMARK H PARENT 6 4 6 5 6 6 1 13 1 14
REMARK Flexibility Score: inf
ROOT
ATOM      1  C   UNL     1      -0.833  -4.185 -13.640  1.00  0.00     0.171 C 
ENDROOT
BRANCH   1   2
ATOM      2  C   UNL     1      -0.973  -2.777 -14.255  1.00  0.00     0.237 C 
BRANCH   2   3
ATOM      3  N   UNL     1      -2.265  -2.183 -13.890  1.00  0.00    -0.350 N 
ATOM      4  H   UNL     1      -2.174  -1.605 -13.022  1.00  0.00     0.345 HD
ATOM      5  H   UNL     1      -2.608  -1.576 -14.670  1.00  0.00     0.345 HD
ATOM      6  H   UNL     1      -2.970  -2.940 -13.729  1.00  0.00     0.345 HD
ENDBRANCH   2   3
BRANCH   2   7
ATOM      7  C   UNL     1      -0.826  -2.823 -15.754  1.00  0.00     0.100 C 
ATOM      8  O   UNL     1       0.147  -3.423 -16.284  1.00  0.00    -0.544 OA
ATOM      9  O   UNL     1      -1.760  -2.186 -16.563  1.00  0.00    -0.544 OA
ENDBRANCH   2   7
ENDBRANCH   1   2
BRANCH   1  10
ATOM     10  C   UNL     1      -1.058  -4.164 -12.154  1.00  0.00     0.223 C 
ATOM     11  O   UNL     1      -0.812  -3.117 -11.497  1.00  0.00    -0.275 OA
ATOM     12  N   UNL     1      -1.582  -5.311 -11.488  1.00  0.00    -0.369 N 
ATOM     13  H   UNL     1      -1.805  -6.181 -12.022  1.00  0.00     0.159 HD
ATOM     14  H   UNL     1      -1.751  -5.292 -10.458  1.00  0.00     0.159 HD
ENDBRANCH   1  10
TORSDOF 4
ENDMDL
MODEL 5
REMARK VINA RESULT:    -1.507      1.547      3.935
REMARK INTER + INTRA:          -2.098
REMARK INTER:                  -2.103
REMARK INTRA:                   0.005
REMARK UNBOUND:                -0.283
REMARK SMILES NC(=O)C[C@H]([NH3+])C(=O)[O-]
REMARK SMILES IDX 4 1 5 2 6 3 7 7 8 8 9 9 2 10 3 11 1 12
REMARK H PARENT 6 4 6 5 6 6 1 13 1 14
REMARK Flexibility Score: inf
ROOT
ATOM      1  C   UNL     1      -1.251  -2.966 -13.266  1.00  0.00     0.171 C 
ENDROOT
BRANCH   1   2
ATOM      2  C   UNL     1      -0.996  -3.630 -14.635  1.00  0.00     0.237 C 
BRANCH   2   3
ATOM      3  N   UNL     1       0.432  -3.923 -14.806  1.00  0.00    -0.350 N 
ATOM      4  H   UNL     1       0.715  -4.740 -14.216  1.00  0.00     0.345 HD
ATOM      5  H   UNL     1       0.631  -4.141 -15.810  1.00  0.00     0.345 HD
ATOM      6  H   UNL     1       1.001  -3.087 -14.534  1.00  0.00     0.345 HD
ENDBRANCH   2   3
BRANCH   2   7
ATOM      7  C   UNL     1      -1.487  -2.757 -15.762  1.00  0.00     0.100 C 
ATOM      8  O   UNL     1      -2.448  -3.128 -16.486  1.00  0.00    -0.544 OA
ATOM      9  O   UNL     1      -0.868  -1.539 -16.016  1.00  0.00    -0.544 OA
ENDBRANCH   2   7
ENDBRANCH   1   2
BRANCH   1  10
ATOM     10  C   UNL     1      -0.991  -3.918 -12.133  1.00  0.00     0.223 C 
ATOM     11  O   UNL     1      -0.619  -3.475 -11.015  1.00  0.00    -0.275 OA
ATOM     12  N   UNL     1      -1.198  -5.319 -12.307  1.00  0.00    -0.369 N 
ATOM     13  H   UNL     1      -1.522  -5.699 -13.224  1.00  0.00     0.159 HD
ATOM     14  H   UNL     1      -1.031  -5.979 -11.515  1.00  0.00     0.159 HD
ENDBRANCH   1  10
TORSDOF 4
ENDMDL
MODEL 6
REMARK VINA RESULT:    -0.176      1.703      2.088
REMARK INTER + INTRA:          -0.495
REMARK INTER:                  -0.446
REMARK INTRA:                  -0.049
REMARK UNBOUND:                -0.283
REMARK SMILES NC(=O)C[C@H]([NH3+])C(=O)[O-]
REMARK SMILES IDX 4 1 5 2 6 3 7 7 8 8 9 9 2 10 3 11 1 12
REMARK H PARENT 6 4 6 5 6 6 1 13 1 14
REMARK Flexibility Score: inf
ROOT
ATOM      1  C   UNL     1      -0.271  -4.012 -13.882  1.00  0.00     0.171 C 
ENDROOT
BRANCH   1   2
ATOM      2  C   UNL     1      -1.200  -4.003 -12.651  1.00  0.00     0.237 C 
BRANCH   2   3
ATOM      3  N   UNL     1      -0.788  -2.960 -11.704  1.00  0.00    -0.350 N 
ATOM      4  H   UNL     1       0.202  -3.109 -11.398  1.00  0.00     0.345 HD
ATOM      5  H   UNL     1      -0.867  -2.020 -12.157  1.00  0.00     0.345 HD
ATOM      6  H   UNL     1      -1.415  -2.974 -10.867  1.00  0.00     0.345 HD
ENDBRANCH   2   3
BRANCH   2   7
ATOM      7  C   UNL     1      -1.213  -5.349 -11.971  1.00  0.00     0.100 C 
ATOM      8  O   UNL     1      -1.603  -5.459 -10.779  1.00  0.00    -0.544 OA
ATOM      9  O   UNL     1      -0.777  -6.476 -12.656  1.00  0.00    -0.544 OA
ENDBRANCH   2   7
ENDBRANCH   1   2
BRANCH   1  10
ATOM     10  C   UNL     1      -0.813  -3.155 -14.991  1.00  0.00     0.223 C 
ATOM     11  O   UNL     1      -0.203  -3.091 -16.090  1.00  0.00    -0.275 OA
ATOM     12  N   UNL     1      -2.036  -2.440 -14.817  1.00  0.00    -0.369 N 
ATOM     13  H   UNL     1      -2.561  -2.496 -13.916  1.00  0.00     0.159 HD
ATOM     14  H   UNL     1      -2.419  -1.855 -15.592  1.00  0.00     0.159 HD
ENDBRANCH   1  10
TORSDOF 4
ENDMDL
