MODEL 1
REMARK VINA RESULT:    13.712      0.000      0.000
REMARK INTER + INTRA:          15.357
REMARK INTER:                  16.117
REMARK INTRA:                  -0.760
REMARK UNBOUND:                -0.760
REMARK SMILES C=C(C)[C@H]1CC[C@]2(CO)CC[C@]3(C)[C@@H](CC[C@@H]4[C@@]5(C)CC[C@@H](O)C(C)(C)[C@H]5CC[C@@]43C)[C@H]12
REMARK SMILES IDX 4 1 5 2 6 3 7 4 32 5 14 6 15 7 16 8 17 9 18 10 20 11 21 12
REMARK SMILES IDX 22 13 24 14 27 15 28 16 29 17 30 18 12 19 11 20 10 21 13 22
REMARK SMILES IDX 31 23 25 24 26 25 19 26 2 27 3 28 1 29 8 30 9 31 23 33
REMARK H PARENT 9 32 23 34
REMARK Flexibility Score: inf
ROOT
ATOM      1  C   UNL     1      24.725  -1.779  16.678  1.00  0.00     0.018 C 
ATOM      2  C   UNL     1      25.255  -2.468  17.931  1.00  0.00     0.009 C 
ATOM      3  C   UNL     1      26.435  -1.619  18.357  1.00  0.00     0.010 C 
ATOM      4  C   UNL     1      27.104  -1.158  17.046  1.00  0.00    -0.003 C 
ATOM      5  C   UNL     1      25.930  -1.036  16.021  1.00  0.00     0.008 C 
ATOM      6  C   UNL     1      25.546   0.440  15.610  1.00  0.00    -0.000 C 
ATOM      7  C   UNL     1      24.436   0.389  14.540  1.00  0.00     0.005 C 
ATOM      8  C   UNL     1      24.281   1.662  13.726  1.00  0.00     0.005 C 
ATOM      9  C   UNL     1      25.575   2.205  12.993  1.00  0.00     0.002 C 
ATOM     10  C   UNL     1      25.442   2.221  11.386  1.00  0.00    -0.026 C 
ATOM     11  C   UNL     1      26.388   3.279  10.722  1.00  0.00     0.010 C 
ATOM     12  C   UNL     1      26.372   3.272   9.178  1.00  0.00     0.033 C 
ATOM     13  C   UNL     1      26.674   1.890   8.576  1.00  0.00     0.120 C 
ATOM     14  C   UNL     1      25.807   0.738   9.195  1.00  0.00    -0.006 C 
ATOM     15  C   UNL     1      25.788   0.799  10.795  1.00  0.00     0.003 C 
ATOM     16  C   UNL     1      27.136   0.276  11.384  1.00  0.00     0.005 C 
ATOM     17  C   UNL     1      27.227   0.250  12.912  1.00  0.00     0.008 C 
ATOM     18  C   UNL     1      26.914   1.602  13.621  1.00  0.00    -0.024 C 
ATOM     19  C   UNL     1      26.755   1.404  15.225  1.00  0.00    -0.024 C 
ATOM     20  C   UNL     1      28.078   0.889  15.907  1.00  0.00     0.008 C 
ATOM     21  C   UNL     1      27.831   0.191  17.249  1.00  0.00     0.010 C 
ATOM     22  C   UNL     1      26.478   2.802  15.885  1.00  0.00     0.012 C 
ATOM     23  C   UNL     1      28.125   2.571  13.360  1.00  0.00     0.012 C 
ATOM     24  C   UNL     1      26.356  -0.632   8.693  1.00  0.00     0.014 C 
ATOM     25  C   UNL     1      24.365   0.809   8.610  1.00  0.00     0.014 C 
ATOM     26  C   UNL     1      23.981   2.686  11.039  1.00  0.00     0.012 C 
ENDROOT
BRANCH   1  27
ATOM     27  C   UNL     1      23.998  -2.742  15.741  1.00  0.00    -0.077 C 
ATOM     28  C   UNL     1      24.632  -3.147  14.435  1.00  0.00     0.039 C 
ATOM     29  C   UNL     1      22.793  -3.249  16.052  1.00  0.00     0.008 C 
ENDBRANCH   1  27
BRANCH   4  30
ATOM     30  C   UNL     1      28.117  -2.252  16.570  1.00  0.00     0.163 C 
BRANCH  30  31
ATOM     31  O   UNL     1      28.003  -2.505  15.193  1.00  0.00    -0.396 OA
ATOM     32  H   UNL     1      28.569  -1.840  14.722  1.00  0.00     0.210 HD
ENDBRANCH  30  31
ENDBRANCH   4  30
BRANCH  13  33
ATOM     33  O   UNL     1      28.051   1.638   8.723  1.00  0.00    -0.393 OA
ATOM     34  H   UNL     1      28.306   0.953   8.050  1.00  0.00     0.210 HD
ENDBRANCH  13  33
TORSDOF 4
ENDMDL
MODEL 2
REMARK VINA RESULT:    15.461      2.053      7.584
REMARK INTER + INTRA:          17.413
REMARK INTER:                  18.126
REMARK INTRA:                  -0.713
REMARK UNBOUND:                -0.760
REMARK SMILES C=C(C)[C@H]1CC[C@]2(CO)CC[C@]3(C)[C@@H](CC[C@@H]4[C@@]5(C)CC[C@@H](O)C(C)(C)[C@H]5CC[C@@]43C)[C@H]12
REMARK SMILES IDX 4 1 5 2 6 3 7 4 32 5 14 6 15 7 16 8 17 9 18 10 20 11 21 12
REMARK SMILES IDX 22 13 24 14 27 15 28 16 29 17 30 18 12 19 11 20 10 21 13 22
REMARK SMILES IDX 31 23 25 24 26 25 19 26 2 27 3 28 1 29 8 30 9 31 23 33
REMARK H PARENT 9 32 23 34
REMARK Flexibility Score: inf
ROOT
ATOM      1  C   UNL     1      24.720   1.008  12.379  1.00  0.00     0.018 C 
ATOM      2  C   UNL     1      25.270   1.665  11.116  1.00  0.00     0.009 C 
ATOM      3  C   UNL     1      26.479   0.829  10.754  1.00  0.00     0.010 C 
ATOM      4  C   UNL     1      27.122   0.430  12.098  1.00  0.00    -0.003 C 
ATOM      5  C   UNL     1      25.923   0.318  13.094  1.00  0.00     0.008 C 
ATOM      6  C   UNL     1      25.561  -1.151  13.548  1.00  0.00    -0.000 C 
ATOM      7  C   UNL     1      24.420  -1.088  14.586  1.00  0.00     0.005 C 
ATOM      8  C   UNL     1      24.272  -2.334  15.440  1.00  0.00     0.005 C 
ATOM      9  C   UNL     1      25.556  -2.820  16.228  1.00  0.00     0.002 C 
ATOM     10  C   UNL     1      25.379  -2.782  17.831  1.00  0.00    -0.026 C 
ATOM     11  C   UNL     1      26.329  -3.793  18.558  1.00  0.00     0.010 C 
ATOM     12  C   UNL     1      26.271  -3.731  20.099  1.00  0.00     0.033 C 
ATOM     13  C   UNL     1      26.524  -2.322  20.659  1.00  0.00     0.120 C 
ATOM     14  C   UNL     1      25.648  -1.213  19.975  1.00  0.00    -0.006 C 
ATOM     15  C   UNL     1      25.676  -1.332  18.379  1.00  0.00     0.003 C 
ATOM     16  C   UNL     1      27.028  -0.799  17.807  1.00  0.00     0.005 C 
ATOM     17  C   UNL     1      27.161  -0.825  16.283  1.00  0.00     0.008 C 
ATOM     18  C   UNL     1      26.899  -2.208  15.615  1.00  0.00    -0.024 C 
ATOM     19  C   UNL     1      26.780  -2.072  14.001  1.00  0.00    -0.024 C 
ATOM     20  C   UNL     1      28.109  -1.551  13.337  1.00  0.00     0.008 C 
ATOM     21  C   UNL     1      27.884  -0.907  11.965  1.00  0.00     0.010 C 
ATOM     22  C   UNL     1      26.553  -3.499  13.386  1.00  0.00     0.012 C 
ATOM     23  C   UNL     1      28.123  -3.139  15.944  1.00  0.00     0.012 C 
ATOM     24  C   UNL     1      26.152   0.187  20.442  1.00  0.00     0.014 C 
ATOM     25  C   UNL     1      24.193  -1.297  20.523  1.00  0.00     0.014 C 
ATOM     26  C   UNL     1      23.920  -3.268  18.154  1.00  0.00     0.012 C 
ENDROOT
BRANCH   1  27
ATOM     27  C   UNL     1      23.946   1.987  13.260  1.00  0.00    -0.077 C 
ATOM     28  C   UNL     1      24.477   2.362  14.619  1.00  0.00     0.039 C 
ATOM     29  C   UNL     1      22.788   2.534  12.852  1.00  0.00     0.008 C 
ENDBRANCH   1  27
BRANCH   4  30
ATOM     30  C   UNL     1      28.096   1.564  12.561  1.00  0.00     0.163 C 
BRANCH  30  31
ATOM     31  O   UNL     1      27.822   1.985  13.874  1.00  0.00    -0.396 OA
ATOM     32  H   UNL     1      27.190   1.330  14.268  1.00  0.00     0.210 HD
ENDBRANCH  30  31
ENDBRANCH   4  30
BRANCH  13  33
ATOM     33  O   UNL     1      27.899  -2.043  20.541  1.00  0.00    -0.393 OA
ATOM     34  H   UNL     1      28.301  -2.745  19.965  1.00  0.00     0.210 HD
ENDBRANCH  13  33
TORSDOF 4
ENDMDL
