MODEL 1
REMARK VINA RESULT:    -4.201      0.000      0.000
REMARK INTER + INTRA:          -5.667
REMARK INTER:                  -5.428
REMARK INTRA:                  -0.239
REMARK UNBOUND:                -0.239
REMARK SMILES CCCCCCC(=O)[O-]
REMARK SMILES IDX 5 1 6 2 7 3 8 4 9 5 4 6 3 7 2 8 1 9
REMARK H PARENT
REMARK Flexibility Score: inf
ROOT
ATOM      1  C   UNL     1      18.999  13.130  17.613  1.00  0.00     0.006 C 
ENDROOT
BRANCH   1   2
ATOM      2  C   UNL     1      18.574  11.860  18.363  1.00  0.00     0.053 C 
BRANCH   2   3
ATOM      3  C   UNL     1      17.221  12.008  18.988  1.00  0.00     0.041 C 
ATOM      4  O   UNL     1      17.109  12.132  20.236  1.00  0.00    -0.550 OA
ATOM      5  O   UNL     1      16.084  12.045  18.189  1.00  0.00    -0.550 OA
ENDBRANCH   2   3
ENDBRANCH   1   2
BRANCH   1   6
ATOM      6  C   UNL     1      19.726  12.813  16.298  1.00  0.00     0.000 C 
BRANCH   6   7
ATOM      7  C   UNL     1      18.958  11.761  15.485  1.00  0.00    -0.000 C 
BRANCH   7   8
ATOM      8  C   UNL     1      17.824  12.373  14.649  1.00  0.00    -0.003 C 
ATOM      9  C   UNL     1      18.287  12.821  13.263  1.00  0.00     0.004 C 
ENDBRANCH   7   8
ENDBRANCH   6   7
ENDBRANCH   1   6
TORSDOF 5
ENDMDL
MODEL 2
REMARK VINA RESULT:    -4.200      0.812      1.371
REMARK INTER + INTRA:          -5.667
REMARK INTER:                  -5.507
REMARK INTRA:                  -0.160
REMARK UNBOUND:                -0.239
REMARK SMILES CCCCCCC(=O)[O-]
REMARK SMILES IDX 5 1 6 2 7 3 8 4 9 5 4 6 3 7 2 8 1 9
REMARK H PARENT
REMARK Flexibility Score: inf
ROOT
ATOM      1  C   UNL     1      19.029  11.639  18.049  1.00  0.00     0.006 C 
ENDROOT
BRANCH   1   2
ATOM      2  C   UNL     1      18.023  12.680  18.557  1.00  0.00     0.053 C 
BRANCH   2   3
ATOM      3  C   UNL     1      16.767  12.041  19.063  1.00  0.00     0.041 C 
ATOM      4  O   UNL     1      15.725  12.045  18.356  1.00  0.00    -0.550 OA
ATOM      5  O   UNL     1      16.756  11.410  20.301  1.00  0.00    -0.550 OA
ENDBRANCH   2   3
ENDBRANCH   1   2
BRANCH   1   6
ATOM      6  C   UNL     1      19.486  11.924  16.610  1.00  0.00     0.000 C 
BRANCH   6   7
ATOM      7  C   UNL     1      18.317  12.436  15.755  1.00  0.00    -0.000 C 
BRANCH   7   8
ATOM      8  C   UNL     1      18.308  11.827  14.344  1.00  0.00    -0.003 C 
ATOM      9  C   UNL     1      18.307  12.887  13.243  1.00  0.00     0.004 C 
ENDBRANCH   7   8
ENDBRANCH   6   7
ENDBRANCH   1   6
TORSDOF 5
ENDMDL
MODEL 3
REMARK VINA RESULT:    -4.180      2.348      4.551
REMARK INTER + INTRA:          -5.640
REMARK INTER:                  -5.462
REMARK INTRA:                  -0.179
REMARK UNBOUND:                -0.239
REMARK SMILES CCCCCCC(=O)[O-]
REMARK SMILES IDX 5 1 6 2 7 3 8 4 9 5 4 6 3 7 2 8 1 9
REMARK H PARENT
REMARK Flexibility Score: inf
ROOT
ATOM      1  C   UNL     1      19.410  11.566  16.647  1.00  0.00     0.006 C 
ENDROOT
BRANCH   1   2
ATOM      2  C   UNL     1      18.896  12.754  15.822  1.00  0.00     0.053 C 
BRANCH   2   3
ATOM      3  C   UNL     1      18.098  12.305  14.637  1.00  0.00     0.041 C 
ATOM      4  O   UNL     1      18.637  12.226  13.502  1.00  0.00    -0.550 OA
ATOM      5  O   UNL     1      16.765  11.940  14.791  1.00  0.00    -0.550 OA
ENDBRANCH   2   3
ENDBRANCH   1   2
BRANCH   1   6
ATOM      6  C   UNL     1      18.960  11.640  18.114  1.00  0.00     0.000 C 
BRANCH   6   7
ATOM      7  C   UNL     1      17.604  12.349  18.238  1.00  0.00    -0.000 C 
BRANCH   7   8
ATOM      8  C   UNL     1      17.150  12.506  19.697  1.00  0.00    -0.003 C 
ATOM      9  C   UNL     1      16.687  11.188  20.317  1.00  0.00     0.004 C 
ENDBRANCH   7   8
ENDBRANCH   6   7
ENDBRANCH   1   6
TORSDOF 5
ENDMDL
MODEL 4
REMARK VINA RESULT:    -3.210      2.796      3.223
REMARK INTER + INTRA:          -4.387
REMARK INTER:                  -4.201
REMARK INTRA:                  -0.186
REMARK UNBOUND:                -0.239
REMARK SMILES CCCCCCC(=O)[O-]
REMARK SMILES IDX 5 1 6 2 7 3 8 4 9 5 4 6 3 7 2 8 1 9
REMARK H PARENT
REMARK Flexibility Score: inf
ROOT
ATOM      1  C   UNL     1      18.173  12.731  16.659  1.00  0.00     0.006 C 
ENDROOT
BRANCH   1   2
ATOM      2  C   UNL     1      18.698  11.730  17.697  1.00  0.00     0.053 C 
BRANCH   2   3
ATOM      3  C   UNL     1      20.123  11.352  17.436  1.00  0.00     0.041 C 
ATOM      4  O   UNL     1      20.429  10.152  17.208  1.00  0.00    -0.550 OA
ATOM      5  O   UNL     1      21.110  12.330  17.409  1.00  0.00    -0.550 OA
ENDBRANCH   2   3
ENDBRANCH   1   2
BRANCH   1   6
ATOM      6  C   UNL     1      18.418  12.256  15.218  1.00  0.00     0.000 C 
BRANCH   6   7
ATOM      7  C   UNL     1      17.090  11.968  14.503  1.00  0.00    -0.000 C 
BRANCH   7   8
ATOM      8  C   UNL     1      15.899  11.907  15.471  1.00  0.00    -0.003 C 
ATOM      9  C   UNL     1      14.595  11.507  14.780  1.00  0.00     0.004 C 
ENDBRANCH   7   8
ENDBRANCH   6   7
ENDBRANCH   1   6
TORSDOF 5
ENDMDL
MODEL 5
REMARK VINA RESULT:    -3.178      7.962      9.131
REMARK INTER + INTRA:          -4.346
REMARK INTER:                  -4.062
REMARK INTRA:                  -0.284
REMARK UNBOUND:                -0.239
REMARK SMILES CCCCCCC(=O)[O-]
REMARK SMILES IDX 5 1 6 2 7 3 8 4 9 5 4 6 3 7 2 8 1 9
REMARK H PARENT
REMARK Flexibility Score: inf
ROOT
ATOM      1  C   UNL     1      13.089  13.421  10.983  1.00  0.00     0.006 C 
ENDROOT
BRANCH   1   2
ATOM      2  C   UNL     1      12.681  12.084  10.350  1.00  0.00     0.053 C 
BRANCH   2   3
ATOM      3  C   UNL     1      12.328  11.062  11.387  1.00  0.00     0.041 C 
ATOM      4  O   UNL     1      11.973   9.904  11.041  1.00  0.00    -0.550 OA
ATOM      5  O   UNL     1      12.423  11.377  12.737  1.00  0.00    -0.550 OA
ENDBRANCH   2   3
ENDBRANCH   1   2
BRANCH   1   6
ATOM      6  C   UNL     1      12.556  14.625  10.193  1.00  0.00     0.000 C 
BRANCH   6   7
ATOM      7  C   UNL     1      11.070  14.868  10.498  1.00  0.00    -0.000 C 
BRANCH   7   8
ATOM      8  C   UNL     1      10.810  15.132  11.989  1.00  0.00    -0.003 C 
ATOM      9  C   UNL     1       9.626  14.334  12.533  1.00  0.00     0.004 C 
ENDBRANCH   7   8
ENDBRANCH   6   7
ENDBRANCH   1   6
TORSDOF 5
ENDMDL
MODEL 6
REMARK VINA RESULT:    -3.144      7.037      8.334
REMARK INTER + INTRA:          -4.302
REMARK INTER:                  -3.977
REMARK INTRA:                  -0.325
REMARK UNBOUND:                -0.239
REMARK SMILES CCCCCCC(=O)[O-]
REMARK SMILES IDX 5 1 6 2 7 3 8 4 9 5 4 6 3 7 2 8 1 9
REMARK H PARENT
REMARK Flexibility Score: inf
ROOT
ATOM      1  C   UNL     1      13.203  13.350  11.703  1.00  0.00     0.006 C 
ENDROOT
BRANCH   1   2
ATOM      2  C   UNL     1      12.578  11.949  11.757  1.00  0.00     0.053 C 
BRANCH   2   3
ATOM      3  C   UNL     1      12.349  11.495  13.166  1.00  0.00     0.041 C 
ATOM      4  O   UNL     1      13.322  11.147  13.885  1.00  0.00    -0.550 OA
ATOM      5  O   UNL     1      11.065  11.488  13.696  1.00  0.00    -0.550 OA
ENDBRANCH   2   3
ENDBRANCH   1   2
BRANCH   1   6
ATOM      6  C   UNL     1      12.747  14.144  10.470  1.00  0.00     0.000 C 
BRANCH   6   7
ATOM      7  C   UNL     1      11.248  14.471  10.552  1.00  0.00    -0.000 C 
BRANCH   7   8
ATOM      8  C   UNL     1      10.868  15.173  11.864  1.00  0.00    -0.003 C 
ATOM      9  C   UNL     1       9.648  14.548  12.538  1.00  0.00     0.004 C 
ENDBRANCH   7   8
ENDBRANCH   6   7
ENDBRANCH   1   6
TORSDOF 5
ENDMDL
MODEL 7
REMARK VINA RESULT:    -3.087      7.894      9.149
REMARK INTER + INTRA:          -4.228
REMARK INTER:                  -3.941
REMARK INTRA:                  -0.287
REMARK UNBOUND:                -0.239
REMARK SMILES CCCCCCC(=O)[O-]
REMARK SMILES IDX 5 1 6 2 7 3 8 4 9 5 4 6 3 7 2 8 1 9
REMARK H PARENT
REMARK Flexibility Score: inf
ROOT
ATOM      1  C   UNL     1      12.533  13.139  11.656  1.00  0.00     0.006 C 
ENDROOT
BRANCH   1   2
ATOM      2  C   UNL     1      12.645  11.865  10.807  1.00  0.00     0.053 C 
BRANCH   2   3
ATOM      3  C   UNL     1      12.240  10.646  11.576  1.00  0.00     0.041 C 
ATOM      4  O   UNL     1      11.582   9.731  11.013  1.00  0.00    -0.550 OA
ATOM      5  O   UNL     1      12.618  10.502  12.905  1.00  0.00    -0.550 OA
ENDBRANCH   2   3
ENDBRANCH   1   2
BRANCH   1   6
ATOM      6  C   UNL     1      11.073  13.534  11.922  1.00  0.00     0.000 C 
BRANCH   6   7
ATOM      7  C   UNL     1      10.823  15.000  11.538  1.00  0.00    -0.000 C 
BRANCH   7   8
ATOM      8  C   UNL     1      11.462  15.376  10.193  1.00  0.00    -0.003 C 
ATOM      9  C   UNL     1      10.584  15.006   8.997  1.00  0.00     0.004 C 
ENDBRANCH   7   8
ENDBRANCH   6   7
ENDBRANCH   1   6
TORSDOF 5
ENDMDL
MODEL 8
REMARK VINA RESULT:    -3.054      7.506      8.919
REMARK INTER + INTRA:          -4.186
REMARK INTER:                  -3.783
REMARK INTRA:                  -0.403
REMARK UNBOUND:                -0.239
REMARK SMILES CCCCCCC(=O)[O-]
REMARK SMILES IDX 5 1 6 2 7 3 8 4 9 5 4 6 3 7 2 8 1 9
REMARK H PARENT
REMARK Flexibility Score: inf
ROOT
ATOM      1  C   UNL     1       9.956  11.579  20.684  1.00  0.00     0.006 C 
ENDROOT
BRANCH   1   2
ATOM      2  C   UNL     1      10.421  12.701  19.746  1.00  0.00     0.053 C 
BRANCH   2   3
ATOM      3  C   UNL     1      10.949  12.163  18.452  1.00  0.00     0.041 C 
ATOM      4  O   UNL     1      12.155  12.339  18.137  1.00  0.00    -0.550 OA
ATOM      5  O   UNL     1      10.117  11.436  17.608  1.00  0.00    -0.550 OA
ENDBRANCH   2   3
ENDBRANCH   1   2
BRANCH   1   6
ATOM      6  C   UNL     1      11.128  10.732  21.203  1.00  0.00     0.000 C 
BRANCH   6   7
ATOM      7  C   UNL     1      10.788   9.235  21.152  1.00  0.00    -0.000 C 
BRANCH   7   8
ATOM      8  C   UNL     1       9.512   8.946  20.347  1.00  0.00    -0.003 C 
ATOM      9  C   UNL     1       9.788   8.178  19.056  1.00  0.00     0.004 C 
ENDBRANCH   7   8
ENDBRANCH   6   7
ENDBRANCH   1   6
TORSDOF 5
ENDMDL
