MODEL 1
REMARK VINA RESULT:    -0.556      0.000      0.000
REMARK INTER + INTRA:          -2.910
REMARK INTER:                  -1.465
REMARK INTRA:                  -1.444
REMARK UNBOUND:                -1.444
REMARK SMILES CCCCCCCCCCCCCCCCCCCCCCCCCCCCCC(=O)[O-]
REMARK SMILES IDX 16 1 17 2 18 3 19 4 20 5 21 6 22 7 23 8 24 9 25 10 26 11
REMARK SMILES IDX 27 12 28 13 29 14 30 15 31 16 32 17 15 18 14 19 13 20 12 21
REMARK SMILES IDX 11 22 10 23 9 24 8 25 7 26 6 27 5 28 4 29 3 30 2 31 1 32
REMARK H PARENT
REMARK Flexibility Score: inf
ROOT
ATOM      1  C   UNL     1      33.119  26.333  20.356  1.00  0.00     0.000 C 
ENDROOT
BRANCH   1   2
ATOM      2  C   UNL     1      33.687  25.859  21.707  1.00  0.00     0.000 C 
BRANCH   2   3
ATOM      3  C   UNL     1      33.509  26.891  22.838  1.00  0.00     0.000 C 
BRANCH   3   4
ATOM      4  C   UNL     1      33.193  26.236  24.201  1.00  0.00     0.000 C 
BRANCH   4   5
ATOM      5  C   UNL     1      32.804  27.274  25.271  1.00  0.00     0.000 C 
BRANCH   5   6
ATOM      6  C   UNL     1      32.795  26.671  26.686  1.00  0.00     0.000 C 
BRANCH   6   7
ATOM      7  C   UNL     1      31.465  26.936  27.430  1.00  0.00     0.000 C 
BRANCH   7   8
ATOM      8  C   UNL     1      31.671  27.246  28.918  1.00  0.00     0.000 C 
BRANCH   8   9
ATOM      9  C   UNL     1      32.906  28.131  29.124  1.00  0.00     0.000 C 
BRANCH   9  10
ATOM     10  C   UNL     1      33.918  27.472  30.076  1.00  0.00     0.000 C 
BRANCH  10  11
ATOM     11  C   UNL     1      35.375  27.692  29.626  1.00  0.00     0.000 C 
BRANCH  11  12
ATOM     12  C   UNL     1      35.878  29.111  29.942  1.00  0.00     0.000 C 
BRANCH  12  13
ATOM     13  C   UNL     1      36.100  29.953  28.676  1.00  0.00     0.006 C 
BRANCH  13  14
ATOM     14  C   UNL     1      37.584  30.220  28.394  1.00  0.00     0.053 C 
BRANCH  14  15
ATOM     15  C   UNL     1      37.916  31.656  28.654  1.00  0.00     0.041 C 
ATOM     16  O   UNL     1      38.677  32.279  27.866  1.00  0.00    -0.550 OA
ATOM     17  O   UNL     1      37.448  32.285  29.801  1.00  0.00    -0.550 OA
ENDBRANCH  14  15
ENDBRANCH  13  14
ENDBRANCH  12  13
ENDBRANCH  11  12
ENDBRANCH  10  11
ENDBRANCH   9  10
ENDBRANCH   8   9
ENDBRANCH   7   8
ENDBRANCH   6   7
ENDBRANCH   5   6
ENDBRANCH   4   5
ENDBRANCH   3   4
ENDBRANCH   2   3
ENDBRANCH   1   2
BRANCH   1  18
ATOM     18  C   UNL     1      33.413  27.818  20.077  1.00  0.00     0.000 C 
BRANCH  18  19
ATOM     19  C   UNL     1      33.096  28.180  18.620  1.00  0.00     0.000 C 
BRANCH  19  20
ATOM     20  C   UNL     1      33.886  27.327  17.613  1.00  0.00     0.000 C 
BRANCH  20  21
ATOM     21  C   UNL     1      34.555  28.168  16.515  1.00  0.00     0.000 C 
BRANCH  21  22
ATOM     22  C   UNL     1      35.288  27.274  15.508  1.00  0.00     0.000 C 
BRANCH  22  23
ATOM     23  C   UNL     1      35.323  25.813  15.989  1.00  0.00     0.000 C 
BRANCH  23  24
ATOM     24  C   UNL     1      36.745  25.323  16.311  1.00  0.00    -0.000 C 
BRANCH  24  25
ATOM     25  C   UNL     1      37.786  26.456  16.290  1.00  0.00    -0.000 C 
BRANCH  25  26
ATOM     26  C   UNL     1      38.989  26.162  17.204  1.00  0.00    -0.000 C 
BRANCH  26  27
ATOM     27  C   UNL     1      40.304  26.746  16.664  1.00  0.00    -0.000 C 
BRANCH  27  28
ATOM     28  C   UNL     1      41.501  25.894  17.099  1.00  0.00    -0.000 C 
BRANCH  28  29
ATOM     29  C   UNL     1      41.702  25.949  18.622  1.00  0.00    -0.000 C 
BRANCH  29  30
ATOM     30  C   UNL     1      41.225  27.279  19.231  1.00  0.00    -0.000 C 
BRANCH  30  31
ATOM     31  C   UNL     1      40.542  27.097  20.595  1.00  0.00    -0.003 C 
ATOM     32  C   UNL     1      41.526  27.326  21.741  1.00  0.00     0.004 C 
ENDBRANCH  30  31
ENDBRANCH  29  30
ENDBRANCH  28  29
ENDBRANCH  27  28
ENDBRANCH  26  27
ENDBRANCH  25  26
ENDBRANCH  24  25
ENDBRANCH  23  24
ENDBRANCH  22  23
ENDBRANCH  21  22
ENDBRANCH  20  21
ENDBRANCH  19  20
ENDBRANCH  18  19
ENDBRANCH   1  18
TORSDOF 28
ENDMDL
MODEL 2
REMARK VINA RESULT:    -0.360      8.313     12.194
REMARK INTER + INTRA:          -2.394
REMARK INTER:                  -0.856
REMARK INTRA:                  -1.538
REMARK UNBOUND:                -1.444
REMARK SMILES CCCCCCCCCCCCCCCCCCCCCCCCCCCCCC(=O)[O-]
REMARK SMILES IDX 16 1 17 2 18 3 19 4 20 5 21 6 22 7 23 8 24 9 25 10 26 11
REMARK SMILES IDX 27 12 28 13 29 14 30 15 31 16 32 17 15 18 14 19 13 20 12 21
REMARK SMILES IDX 11 22 10 23 9 24 8 25 7 26 6 27 5 28 4 29 3 30 2 31 1 32
REMARK H PARENT
REMARK Flexibility Score: inf
ROOT
ATOM      1  C   UNL     1      39.100  25.726  18.542  1.00  0.00     0.000 C 
ENDROOT
BRANCH   1   2
ATOM      2  C   UNL     1      39.368  26.659  19.738  1.00  0.00     0.000 C 
BRANCH   2   3
ATOM      3  C   UNL     1      40.659  26.310  20.505  1.00  0.00     0.000 C 
BRANCH   3   4
ATOM      4  C   UNL     1      41.733  27.415  20.404  1.00  0.00     0.000 C 
BRANCH   4   5
ATOM      5  C   UNL     1      41.286  28.582  19.503  1.00  0.00     0.000 C 
BRANCH   5   6
ATOM      6  C   UNL     1      41.845  28.458  18.075  1.00  0.00     0.000 C 
BRANCH   6   7
ATOM      7  C   UNL     1      41.565  29.718  17.222  1.00  0.00     0.000 C 
BRANCH   7   8
ATOM      8  C   UNL     1      42.625  29.945  16.137  1.00  0.00     0.000 C 
BRANCH   8   9
ATOM      9  C   UNL     1      42.569  31.386  15.616  1.00  0.00     0.000 C 
BRANCH   9  10
ATOM     10  C   UNL     1      43.857  32.157  15.954  1.00  0.00     0.000 C 
BRANCH  10  11
ATOM     11  C   UNL     1      45.127  31.353  15.616  1.00  0.00     0.000 C 
BRANCH  11  12
ATOM     12  C   UNL     1      46.058  31.191  16.830  1.00  0.00     0.000 C 
BRANCH  12  13
ATOM     13  C   UNL     1      47.336  30.408  16.490  1.00  0.00     0.006 C 
BRANCH  13  14
ATOM     14  C   UNL     1      47.415  30.014  15.010  1.00  0.00     0.053 C 
BRANCH  14  15
ATOM     15  C   UNL     1      48.757  30.361  14.447  1.00  0.00     0.041 C 
ATOM     16  O   UNL     1      49.695  30.702  15.217  1.00  0.00    -0.550 OA
ATOM     17  O   UNL     1      48.956  30.382  13.072  1.00  0.00    -0.550 OA
ENDBRANCH  14  15
ENDBRANCH  13  14
ENDBRANCH  12  13
ENDBRANCH  11  12
ENDBRANCH  10  11
ENDBRANCH   9  10
ENDBRANCH   8   9
ENDBRANCH   7   8
ENDBRANCH   6   7
ENDBRANCH   5   6
ENDBRANCH   4   5
ENDBRANCH   3   4
ENDBRANCH   2   3
ENDBRANCH   1   2
BRANCH   1  18
ATOM     18  C   UNL     1      38.702  26.492  17.269  1.00  0.00     0.000 C 
BRANCH  18  19
ATOM     19  C   UNL     1      39.681  26.205  16.122  1.00  0.00     0.000 C 
BRANCH  19  20
ATOM     20  C   UNL     1      41.133  26.565  16.479  1.00  0.00     0.000 C 
BRANCH  20  21
ATOM     21  C   UNL     1      42.056  25.339  16.528  1.00  0.00     0.000 C 
BRANCH  21  22
ATOM     22  C   UNL     1      42.470  25.020  17.970  1.00  0.00     0.000 C 
BRANCH  22  23
ATOM     23  C   UNL     1      43.829  24.299  18.008  1.00  0.00     0.000 C 
BRANCH  23  24
ATOM     24  C   UNL     1      44.065  23.403  16.780  1.00  0.00    -0.000 C 
BRANCH  24  25
ATOM     25  C   UNL     1      45.061  22.263  17.056  1.00  0.00    -0.000 C 
BRANCH  25  26
ATOM     26  C   UNL     1      44.420  21.101  17.834  1.00  0.00    -0.000 C 
BRANCH  26  27
ATOM     27  C   UNL     1      43.328  20.376  17.032  1.00  0.00    -0.000 C 
BRANCH  27  28
ATOM     28  C   UNL     1      42.217  19.865  17.956  1.00  0.00    -0.000 C 
BRANCH  28  29
ATOM     29  C   UNL     1      41.005  19.368  17.150  1.00  0.00    -0.000 C 
BRANCH  29  30
ATOM     30  C   UNL     1      41.300  19.272  15.643  1.00  0.00    -0.000 C 
BRANCH  30  31
ATOM     31  C   UNL     1      41.000  17.880  15.066  1.00  0.00    -0.003 C 
ATOM     32  C   UNL     1      40.697  16.875  16.176  1.00  0.00     0.004 C 
ENDBRANCH  30  31
ENDBRANCH  29  30
ENDBRANCH  28  29
ENDBRANCH  27  28
ENDBRANCH  26  27
ENDBRANCH  25  26
ENDBRANCH  24  25
ENDBRANCH  23  24
ENDBRANCH  22  23
ENDBRANCH  21  22
ENDBRANCH  20  21
ENDBRANCH  19  20
ENDBRANCH  18  19
ENDBRANCH   1  18
TORSDOF 28
ENDMDL
MODEL 3
REMARK VINA RESULT:    -0.270      4.483     11.780
REMARK INTER + INTRA:          -2.157
REMARK INTER:                  -0.632
REMARK INTRA:                  -1.525
REMARK UNBOUND:                -1.444
REMARK SMILES CCCCCCCCCCCCCCCCCCCCCCCCCCCCCC(=O)[O-]
REMARK SMILES IDX 16 1 17 2 18 3 19 4 20 5 21 6 22 7 23 8 24 9 25 10 26 11
REMARK SMILES IDX 27 12 28 13 29 14 30 15 31 16 32 17 15 18 14 19 13 20 12 21
REMARK SMILES IDX 11 22 10 23 9 24 8 25 7 26 6 27 5 28 4 29 3 30 2 31 1 32
REMARK H PARENT
REMARK Flexibility Score: inf
ROOT
ATOM      1  C   UNL     1      33.896  27.329  17.876  1.00  0.00     0.000 C 
ENDROOT
BRANCH   1   2
ATOM      2  C   UNL     1      34.410  28.202  16.716  1.00  0.00     0.000 C 
BRANCH   2   3
ATOM      3  C   UNL     1      35.018  27.382  15.560  1.00  0.00     0.000 C 
BRANCH   3   4
ATOM      4  C   UNL     1      35.458  25.967  15.998  1.00  0.00     0.000 C 
BRANCH   4   5
ATOM      5  C   UNL     1      36.956  25.717  15.741  1.00  0.00     0.000 C 
BRANCH   5   6
ATOM      6  C   UNL     1      37.766  25.659  17.048  1.00  0.00     0.000 C 
BRANCH   6   7
ATOM      7  C   UNL     1      39.166  26.301  16.901  1.00  0.00     0.000 C 
BRANCH   7   8
ATOM      8  C   UNL     1      39.761  26.736  18.247  1.00  0.00     0.000 C 
BRANCH   8   9
ATOM      9  C   UNL     1      41.285  26.865  18.151  1.00  0.00     0.000 C 
BRANCH   9  10
ATOM     10  C   UNL     1      41.873  25.863  17.143  1.00  0.00     0.000 C 
BRANCH  10  11
ATOM     11  C   UNL     1      42.919  24.933  17.784  1.00  0.00     0.000 C 
BRANCH  11  12
ATOM     12  C   UNL     1      43.221  23.702  16.912  1.00  0.00     0.000 C 
BRANCH  12  13
ATOM     13  C   UNL     1      44.389  22.865  17.460  1.00  0.00     0.006 C 
BRANCH  13  14
ATOM     14  C   UNL     1      44.446  21.458  16.852  1.00  0.00     0.053 C 
BRANCH  14  15
ATOM     15  C   UNL     1      43.387  20.586  17.449  1.00  0.00     0.041 C 
ATOM     16  O   UNL     1      43.414  20.314  18.680  1.00  0.00    -0.550 OA
ATOM     17  O   UNL     1      42.414  20.013  16.640  1.00  0.00    -0.550 OA
ENDBRANCH  14  15
ENDBRANCH  13  14
ENDBRANCH  12  13
ENDBRANCH  11  12
ENDBRANCH  10  11
ENDBRANCH   9  10
ENDBRANCH   8   9
ENDBRANCH   7   8
ENDBRANCH   6   7
ENDBRANCH   5   6
ENDBRANCH   4   5
ENDBRANCH   3   4
ENDBRANCH   2   3
ENDBRANCH   1   2
BRANCH   1  18
ATOM     18  C   UNL     1      33.072  28.129  18.900  1.00  0.00     0.000 C 
BRANCH  18  19
ATOM     19  C   UNL     1      33.478  27.774  20.337  1.00  0.00     0.000 C 
BRANCH  19  20
ATOM     20  C   UNL     1      33.144  26.318  20.703  1.00  0.00     0.000 C 
BRANCH  20  21
ATOM     21  C   UNL     1      33.722  25.898  22.063  1.00  0.00     0.000 C 
BRANCH  21  22
ATOM     22  C   UNL     1      33.488  26.985  23.118  1.00  0.00     0.000 C 
BRANCH  22  23
ATOM     23  C   UNL     1      33.150  26.365  24.486  1.00  0.00     0.000 C 
BRANCH  23  24
ATOM     24  C   UNL     1      32.823  27.420  25.557  1.00  0.00    -0.000 C 
BRANCH  24  25
ATOM     25  C   UNL     1      31.824  26.910  26.611  1.00  0.00    -0.000 C 
BRANCH  25  26
ATOM     26  C   UNL     1      32.423  26.904  28.028  1.00  0.00    -0.000 C 
BRANCH  26  27
ATOM     27  C   UNL     1      33.606  27.873  28.180  1.00  0.00    -0.000 C 
BRANCH  27  28
ATOM     28  C   UNL     1      34.514  27.451  29.340  1.00  0.00    -0.000 C 
BRANCH  28  29
ATOM     29  C   UNL     1      35.829  28.248  29.338  1.00  0.00    -0.000 C 
BRANCH  29  30
ATOM     30  C   UNL     1      35.655  29.669  28.775  1.00  0.00    -0.000 C 
BRANCH  30  31
ATOM     31  C   UNL     1      36.995  30.351  28.457  1.00  0.00    -0.003 C 
ATOM     32  C   UNL     1      37.861  30.478  29.709  1.00  0.00     0.004 C 
ENDBRANCH  30  31
ENDBRANCH  29  30
ENDBRANCH  28  29
ENDBRANCH  27  28
ENDBRANCH  26  27
ENDBRANCH  25  26
ENDBRANCH  24  25
ENDBRANCH  23  24
ENDBRANCH  22  23
ENDBRANCH  21  22
ENDBRANCH  20  21
ENDBRANCH  19  20
ENDBRANCH  18  19
ENDBRANCH   1  18
TORSDOF 28
ENDMDL
MODEL 4
REMARK VINA RESULT:    -0.202      5.304      9.972
REMARK INTER + INTRA:          -1.977
REMARK INTER:                  -0.603
REMARK INTRA:                  -1.374
REMARK UNBOUND:                -1.444
REMARK SMILES CCCCCCCCCCCCCCCCCCCCCCCCCCCCCC(=O)[O-]
REMARK SMILES IDX 16 1 17 2 18 3 19 4 20 5 21 6 22 7 23 8 24 9 25 10 26 11
REMARK SMILES IDX 27 12 28 13 29 14 30 15 31 16 32 17 15 18 14 19 13 20 12 21
REMARK SMILES IDX 11 22 10 23 9 24 8 25 7 26 6 27 5 28 4 29 3 30 2 31 1 32
REMARK H PARENT
REMARK Flexibility Score: inf
ROOT
ATOM      1  C   UNL     1      45.505  33.368  19.573  1.00  0.00     0.000 C 
ENDROOT
BRANCH   1   2
ATOM      2  C   UNL     1      44.344  33.803  20.486  1.00  0.00     0.000 C 
BRANCH   2   3
ATOM      3  C   UNL     1      44.547  33.403  21.961  1.00  0.00     0.000 C 
BRANCH   3   4
ATOM      4  C   UNL     1      43.601  34.155  22.922  1.00  0.00     0.000 C 
BRANCH   4   5
ATOM      5  C   UNL     1      44.061  34.060  24.388  1.00  0.00     0.000 C 
BRANCH   5   6
ATOM      6  C   UNL     1      43.433  35.158  25.265  1.00  0.00     0.000 C 
BRANCH   6   7
ATOM      7  C   UNL     1      44.241  35.410  26.560  1.00  0.00     0.000 C 
BRANCH   7   8
ATOM      8  C   UNL     1      43.793  36.678  27.299  1.00  0.00     0.000 C 
BRANCH   8   9
ATOM      9  C   UNL     1      44.306  36.676  28.743  1.00  0.00     0.000 C 
BRANCH   9  10
ATOM     10  C   UNL     1      44.624  35.250  29.225  1.00  0.00     0.000 C 
BRANCH  10  11
ATOM     11  C   UNL     1      43.404  34.563  29.868  1.00  0.00     0.000 C 
BRANCH  11  12
ATOM     12  C   UNL     1      43.425  33.036  29.681  1.00  0.00     0.000 C 
BRANCH  12  13
ATOM     13  C   UNL     1      42.079  32.382  30.032  1.00  0.00     0.006 C 
BRANCH  13  14
ATOM     14  C   UNL     1      40.907  32.976  29.242  1.00  0.00     0.053 C 
BRANCH  14  15
ATOM     15  C   UNL     1      39.623  32.315  29.634  1.00  0.00     0.041 C 
ATOM     16  O   UNL     1      38.646  33.013  30.017  1.00  0.00    -0.550 OA
ATOM     17  O   UNL     1      39.526  30.929  29.649  1.00  0.00    -0.550 OA
ENDBRANCH  14  15
ENDBRANCH  13  14
ENDBRANCH  12  13
ENDBRANCH  11  12
ENDBRANCH  10  11
ENDBRANCH   9  10
ENDBRANCH   8   9
ENDBRANCH   7   8
ENDBRANCH   6   7
ENDBRANCH   5   6
ENDBRANCH   4   5
ENDBRANCH   3   4
ENDBRANCH   2   3
ENDBRANCH   1   2
BRANCH   1  18
ATOM     18  C   UNL     1      45.049  33.076  18.133  1.00  0.00     0.000 C 
BRANCH  18  19
ATOM     19  C   UNL     1      45.820  31.889  17.538  1.00  0.00     0.000 C 
BRANCH  19  20
ATOM     20  C   UNL     1      45.202  31.381  16.225  1.00  0.00     0.000 C 
BRANCH  20  21
ATOM     21  C   UNL     1      43.733  31.797  16.057  1.00  0.00     0.000 C 
BRANCH  21  22
ATOM     22  C   UNL     1      42.861  30.594  15.676  1.00  0.00     0.000 C 
BRANCH  22  23
ATOM     23  C   UNL     1      42.172  29.997  16.915  1.00  0.00     0.000 C 
BRANCH  23  24
ATOM     24  C   UNL     1      41.553  28.614  16.648  1.00  0.00    -0.000 C 
BRANCH  24  25
ATOM     25  C   UNL     1      41.758  27.633  17.815  1.00  0.00    -0.000 C 
BRANCH  25  26
ATOM     26  C   UNL     1      40.769  26.455  17.769  1.00  0.00    -0.000 C 
BRANCH  26  27
ATOM     27  C   UNL     1      39.704  26.613  16.671  1.00  0.00    -0.000 C 
BRANCH  27  28
ATOM     28  C   UNL     1      38.351  26.065  17.137  1.00  0.00    -0.000 C 
BRANCH  28  29
ATOM     29  C   UNL     1      37.417  25.796  15.945  1.00  0.00    -0.000 C 
BRANCH  29  30
ATOM     30  C   UNL     1      35.960  25.562  16.381  1.00  0.00    -0.000 C 
BRANCH  30  31
ATOM     31  C   UNL     1      34.957  26.404  15.578  1.00  0.00    -0.003 C 
ATOM     32  C   UNL     1      35.110  27.892  15.889  1.00  0.00     0.004 C 
ENDBRANCH  30  31
ENDBRANCH  29  30
ENDBRANCH  28  29
ENDBRANCH  27  28
ENDBRANCH  26  27
ENDBRANCH  25  26
ENDBRANCH  24  25
ENDBRANCH  23  24
ENDBRANCH  22  23
ENDBRANCH  21  22
ENDBRANCH  20  21
ENDBRANCH  19  20
ENDBRANCH  18  19
ENDBRANCH   1  18
TORSDOF 28
ENDMDL
MODEL 5
REMARK VINA RESULT:    -0.200      6.466      9.764
REMARK INTER + INTRA:          -1.972
REMARK INTER:                  -0.324
REMARK INTRA:                  -1.648
REMARK UNBOUND:                -1.444
REMARK SMILES CCCCCCCCCCCCCCCCCCCCCCCCCCCCCC(=O)[O-]
REMARK SMILES IDX 16 1 17 2 18 3 19 4 20 5 21 6 22 7 23 8 24 9 25 10 26 11
REMARK SMILES IDX 27 12 28 13 29 14 30 15 31 16 32 17 15 18 14 19 13 20 12 21
REMARK SMILES IDX 11 22 10 23 9 24 8 25 7 26 6 27 5 28 4 29 3 30 2 31 1 32
REMARK H PARENT
REMARK Flexibility Score: inf
ROOT
ATOM      1  C   UNL     1      45.519  33.215  19.526  1.00  0.00     0.000 C 
ENDROOT
BRANCH   1   2
ATOM      2  C   UNL     1      44.414  33.806  20.422  1.00  0.00     0.000 C 
BRANCH   2   3
ATOM      3  C   UNL     1      44.561  33.416  21.906  1.00  0.00     0.000 C 
BRANCH   3   4
ATOM      4  C   UNL     1      43.598  34.197  22.828  1.00  0.00     0.000 C 
BRANCH   4   5
ATOM      5  C   UNL     1      44.058  34.183  24.297  1.00  0.00     0.000 C 
BRANCH   5   6
ATOM      6  C   UNL     1      43.139  35.024  25.200  1.00  0.00     0.000 C 
BRANCH   6   7
ATOM      7  C   UNL     1      43.906  35.680  26.372  1.00  0.00     0.000 C 
BRANCH   7   8
ATOM      8  C   UNL     1      44.036  34.752  27.587  1.00  0.00     0.000 C 
BRANCH   8   9
ATOM      9  C   UNL     1      43.977  35.553  28.892  1.00  0.00     0.000 C 
BRANCH   9  10
ATOM     10  C   UNL     1      43.727  34.638  30.103  1.00  0.00     0.000 C 
BRANCH  10  11
ATOM     11  C   UNL     1      43.905  33.147  29.758  1.00  0.00     0.000 C 
BRANCH  11  12
ATOM     12  C   UNL     1      42.564  32.395  29.702  1.00  0.00     0.000 C 
BRANCH  12  13
ATOM     13  C   UNL     1      42.741  30.870  29.794  1.00  0.00     0.006 C 
BRANCH  13  14
ATOM     14  C   UNL     1      43.925  30.359  28.964  1.00  0.00     0.053 C 
BRANCH  14  15
ATOM     15  C   UNL     1      44.280  28.962  29.365  1.00  0.00     0.041 C 
ATOM     16  O   UNL     1      45.479  28.578  29.317  1.00  0.00    -0.550 OA
ATOM     17  O   UNL     1      43.283  28.061  29.719  1.00  0.00    -0.550 OA
ENDBRANCH  14  15
ENDBRANCH  13  14
ENDBRANCH  12  13
ENDBRANCH  11  12
ENDBRANCH  10  11
ENDBRANCH   9  10
ENDBRANCH   8   9
ENDBRANCH   7   8
ENDBRANCH   6   7
ENDBRANCH   5   6
ENDBRANCH   4   5
ENDBRANCH   3   4
ENDBRANCH   2   3
ENDBRANCH   1   2
BRANCH   1  18
ATOM     18  C   UNL     1      45.099  33.121  18.049  1.00  0.00     0.000 C 
BRANCH  18  19
ATOM     19  C   UNL     1      45.741  31.905  17.367  1.00  0.00     0.000 C 
BRANCH  19  20
ATOM     20  C   UNL     1      44.963  31.446  16.122  1.00  0.00     0.000 C 
BRANCH  20  21
ATOM     21  C   UNL     1      43.607  32.151  15.974  1.00  0.00     0.000 C 
BRANCH  21  22
ATOM     22  C   UNL     1      42.462  31.132  15.911  1.00  0.00     0.000 C 
BRANCH  22  23
ATOM     23  C   UNL     1      42.915  29.759  16.435  1.00  0.00     0.000 C 
BRANCH  23  24
ATOM     24  C   UNL     1      41.753  28.916  16.989  1.00  0.00    -0.000 C 
BRANCH  24  25
ATOM     25  C   UNL     1      41.461  27.669  16.137  1.00  0.00    -0.000 C 
BRANCH  25  26
ATOM     26  C   UNL     1      40.776  26.555  16.948  1.00  0.00    -0.000 C 
BRANCH  26  27
ATOM     27  C   UNL     1      41.773  25.534  17.519  1.00  0.00    -0.000 C 
BRANCH  27  28
ATOM     28  C   UNL     1      42.221  25.935  18.929  1.00  0.00    -0.000 C 
BRANCH  28  29
ATOM     29  C   UNL     1      41.015  26.231  19.835  1.00  0.00    -0.000 C 
BRANCH  29  30
ATOM     30  C   UNL     1      41.173  27.548  20.615  1.00  0.00    -0.000 C 
BRANCH  30  31
ATOM     31  C   UNL     1      40.967  27.373  22.127  1.00  0.00    -0.003 C 
ATOM     32  C   UNL     1      40.073  26.171  22.428  1.00  0.00     0.004 C 
ENDBRANCH  30  31
ENDBRANCH  29  30
ENDBRANCH  28  29
ENDBRANCH  27  28
ENDBRANCH  26  27
ENDBRANCH  25  26
ENDBRANCH  24  25
ENDBRANCH  23  24
ENDBRANCH  22  23
ENDBRANCH  21  22
ENDBRANCH  20  21
ENDBRANCH  19  20
ENDBRANCH  18  19
ENDBRANCH   1  18
TORSDOF 28
ENDMDL
MODEL 6
REMARK VINA RESULT:    -0.174      2.145     10.601
REMARK INTER + INTRA:          -1.904
REMARK INTER:                  -0.198
REMARK INTRA:                  -1.706
REMARK UNBOUND:                -1.444
REMARK SMILES CCCCCCCCCCCCCCCCCCCCCCCCCCCCCC(=O)[O-]
REMARK SMILES IDX 16 1 17 2 18 3 19 4 20 5 21 6 22 7 23 8 24 9 25 10 26 11
REMARK SMILES IDX 27 12 28 13 29 14 30 15 31 16 32 17 15 18 14 19 13 20 12 21
REMARK SMILES IDX 11 22 10 23 9 24 8 25 7 26 6 27 5 28 4 29 3 30 2 31 1 32
REMARK H PARENT
REMARK Flexibility Score: inf
ROOT
ATOM      1  C   UNL     1      33.156  27.835  19.259  1.00  0.00     0.000 C 
ENDROOT
BRANCH   1   2
ATOM      2  C   UNL     1      33.549  27.292  17.873  1.00  0.00     0.000 C 
BRANCH   2   3
ATOM      3  C   UNL     1      34.371  28.294  17.037  1.00  0.00     0.000 C 
BRANCH   3   4
ATOM      4  C   UNL     1      35.127  27.622  15.870  1.00  0.00     0.000 C 
BRANCH   4   5
ATOM      5  C   UNL     1      35.057  26.085  15.939  1.00  0.00     0.000 C 
BRANCH   5   6
ATOM      6  C   UNL     1      36.439  25.452  16.178  1.00  0.00     0.000 C 
BRANCH   6   7
ATOM      7  C   UNL     1      37.565  26.510  16.256  1.00  0.00     0.000 C 
BRANCH   7   8
ATOM      8  C   UNL     1      38.679  26.118  17.234  1.00  0.00     0.000 C 
BRANCH   8   9
ATOM      9  C   UNL     1      40.052  26.206  16.558  1.00  0.00     0.000 C 
BRANCH   9  10
ATOM     10  C   UNL     1      40.694  27.588  16.765  1.00  0.00     0.000 C 
BRANCH  10  11
ATOM     11  C   UNL     1      41.575  27.642  18.028  1.00  0.00     0.000 C 
BRANCH  11  12
ATOM     12  C   UNL     1      41.994  26.242  18.510  1.00  0.00     0.000 C 
BRANCH  12  13
ATOM     13  C   UNL     1      41.822  26.067  20.028  1.00  0.00     0.006 C 
BRANCH  13  14
ATOM     14  C   UNL     1      41.128  27.266  20.688  1.00  0.00     0.053 C 
BRANCH  14  15
ATOM     15  C   UNL     1      40.501  26.858  21.984  1.00  0.00     0.041 C 
ATOM     16  O   UNL     1      40.597  27.607  22.993  1.00  0.00    -0.550 OA
ATOM     17  O   UNL     1      39.877  25.622  22.101  1.00  0.00    -0.550 OA
ENDBRANCH  14  15
ENDBRANCH  13  14
ENDBRANCH  12  13
ENDBRANCH  11  12
ENDBRANCH  10  11
ENDBRANCH   9  10
ENDBRANCH   8   9
ENDBRANCH   7   8
ENDBRANCH   6   7
ENDBRANCH   5   6
ENDBRANCH   4   5
ENDBRANCH   3   4
ENDBRANCH   2   3
ENDBRANCH   1   2
BRANCH   1  18
ATOM     18  C   UNL     1      33.186  26.752  20.351  1.00  0.00     0.000 C 
BRANCH  18  19
ATOM     19  C   UNL     1      33.854  27.274  21.631  1.00  0.00     0.000 C 
BRANCH  19  20
ATOM     20  C   UNL     1      33.446  26.474  22.879  1.00  0.00     0.000 C 
BRANCH  20  21
ATOM     21  C   UNL     1      33.179  27.368  24.099  1.00  0.00     0.000 C 
BRANCH  21  22
ATOM     22  C   UNL     1      32.915  26.524  25.352  1.00  0.00     0.000 C 
BRANCH  22  23
ATOM     23  C   UNL     1      32.266  27.369  26.462  1.00  0.00     0.000 C 
BRANCH  23  24
ATOM     24  C   UNL     1      32.407  26.736  27.856  1.00  0.00    -0.000 C 
BRANCH  24  25
ATOM     25  C   UNL     1      32.188  27.747  28.996  1.00  0.00    -0.000 C 
BRANCH  25  26
ATOM     26  C   UNL     1      33.407  27.848  29.930  1.00  0.00    -0.000 C 
BRANCH  26  27
ATOM     27  C   UNL     1      34.730  27.510  29.223  1.00  0.00    -0.000 C 
BRANCH  27  28
ATOM     28  C   UNL     1      35.836  28.488  29.634  1.00  0.00    -0.000 C 
BRANCH  28  29
ATOM     29  C   UNL     1      35.949  29.653  28.637  1.00  0.00    -0.000 C 
BRANCH  29  30
ATOM     30  C   UNL     1      37.343  30.305  28.649  1.00  0.00    -0.000 C 
BRANCH  30  31
ATOM     31  C   UNL     1      37.316  31.775  28.204  1.00  0.00    -0.003 C 
ATOM     32  C   UNL     1      38.722  32.285  27.894  1.00  0.00     0.004 C 
ENDBRANCH  30  31
ENDBRANCH  29  30
ENDBRANCH  28  29
ENDBRANCH  27  28
ENDBRANCH  26  27
ENDBRANCH  25  26
ENDBRANCH  24  25
ENDBRANCH  23  24
ENDBRANCH  22  23
ENDBRANCH  21  22
ENDBRANCH  20  21
ENDBRANCH  19  20
ENDBRANCH  18  19
ENDBRANCH   1  18
TORSDOF 28
ENDMDL
MODEL 7
REMARK VINA RESULT:    -0.134      2.526      4.001
REMARK INTER + INTRA:          -1.798
REMARK INTER:                  -0.185
REMARK INTRA:                  -1.613
REMARK UNBOUND:                -1.444
REMARK SMILES CCCCCCCCCCCCCCCCCCCCCCCCCCCCCC(=O)[O-]
REMARK SMILES IDX 16 1 17 2 18 3 19 4 20 5 21 6 22 7 23 8 24 9 25 10 26 11
REMARK SMILES IDX 27 12 28 13 29 14 30 15 31 16 32 17 15 18 14 19 13 20 12 21
REMARK SMILES IDX 11 22 10 23 9 24 8 25 7 26 6 27 5 28 4 29 3 30 2 31 1 32
REMARK H PARENT
REMARK Flexibility Score: inf
ROOT
ATOM      1  C   UNL     1      33.930  27.349  17.700  1.00  0.00     0.000 C 
ENDROOT
BRANCH   1   2
ATOM      2  C   UNL     1      33.126  28.271  18.635  1.00  0.00     0.000 C 
BRANCH   2   3
ATOM      3  C   UNL     1      33.236  27.876  20.121  1.00  0.00     0.000 C 
BRANCH   3   4
ATOM      4  C   UNL     1      33.136  26.351  20.344  1.00  0.00     0.000 C 
BRANCH   4   5
ATOM      5  C   UNL     1      33.749  25.917  21.689  1.00  0.00     0.000 C 
BRANCH   5   6
ATOM      6  C   UNL     1      33.525  26.965  22.793  1.00  0.00     0.000 C 
BRANCH   6   7
ATOM      7  C   UNL     1      33.231  26.317  24.167  1.00  0.00     0.000 C 
BRANCH   7   8
ATOM      8  C   UNL     1      32.919  27.353  25.254  1.00  0.00     0.000 C 
BRANCH   8   9
ATOM      9  C   UNL     1      32.068  26.733  26.368  1.00  0.00     0.000 C 
BRANCH   9  10
ATOM     10  C   UNL     1      32.348  27.398  27.727  1.00  0.00     0.000 C 
BRANCH  10  11
ATOM     11  C   UNL     1      33.779  27.128  28.228  1.00  0.00     0.000 C 
BRANCH  11  12
ATOM     12  C   UNL     1      34.095  27.879  29.533  1.00  0.00     0.000 C 
BRANCH  12  13
ATOM     13  C   UNL     1      35.499  28.506  29.525  1.00  0.00     0.006 C 
BRANCH  13  14
ATOM     14  C   UNL     1      35.627  29.661  28.524  1.00  0.00     0.053 C 
BRANCH  14  15
ATOM     15  C   UNL     1      36.982  30.288  28.619  1.00  0.00     0.041 C 
ATOM     16  O   UNL     1      37.894  29.722  29.280  1.00  0.00    -0.550 OA
ATOM     17  O   UNL     1      37.221  31.530  28.044  1.00  0.00    -0.550 OA
ENDBRANCH  14  15
ENDBRANCH  13  14
ENDBRANCH  12  13
ENDBRANCH  11  12
ENDBRANCH  10  11
ENDBRANCH   9  10
ENDBRANCH   8   9
ENDBRANCH   7   8
ENDBRANCH   6   7
ENDBRANCH   5   6
ENDBRANCH   4   5
ENDBRANCH   3   4
ENDBRANCH   2   3
ENDBRANCH   1   2
BRANCH   1  18
ATOM     18  C   UNL     1      34.544  28.104  16.507  1.00  0.00     0.000 C 
BRANCH  18  19
ATOM     19  C   UNL     1      35.322  27.150  15.590  1.00  0.00     0.000 C 
BRANCH  19  20
ATOM     20  C   UNL     1      35.551  25.770  16.230  1.00  0.00     0.000 C 
BRANCH  20  21
ATOM     21  C   UNL     1      37.039  25.401  16.334  1.00  0.00     0.000 C 
BRANCH  21  22
ATOM     22  C   UNL     1      37.897  26.647  16.587  1.00  0.00     0.000 C 
BRANCH  22  23
ATOM     23  C   UNL     1      39.374  26.268  16.792  1.00  0.00     0.000 C 
BRANCH  23  24
ATOM     24  C   UNL     1      39.829  26.405  18.255  1.00  0.00    -0.000 C 
BRANCH  24  25
ATOM     25  C   UNL     1      41.183  27.123  18.395  1.00  0.00    -0.000 C 
BRANCH  25  26
ATOM     26  C   UNL     1      41.658  27.739  17.067  1.00  0.00    -0.000 C 
BRANCH  26  27
ATOM     27  C   UNL     1      41.706  29.275  17.106  1.00  0.00    -0.000 C 
BRANCH  27  28
ATOM     28  C   UNL     1      42.555  29.826  15.955  1.00  0.00    -0.000 C 
BRANCH  28  29
ATOM     29  C   UNL     1      42.646  31.359  16.013  1.00  0.00    -0.000 C 
BRANCH  29  30
ATOM     30  C   UNL     1      44.030  31.883  15.589  1.00  0.00    -0.000 C 
BRANCH  30  31
ATOM     31  C   UNL     1      45.178  31.241  16.382  1.00  0.00    -0.003 C 
ATOM     32  C   UNL     1      46.320  30.821  15.459  1.00  0.00     0.004 C 
ENDBRANCH  30  31
ENDBRANCH  29  30
ENDBRANCH  28  29
ENDBRANCH  27  28
ENDBRANCH  26  27
ENDBRANCH  25  26
ENDBRANCH  24  25
ENDBRANCH  23  24
ENDBRANCH  22  23
ENDBRANCH  21  22
ENDBRANCH  20  21
ENDBRANCH  19  20
ENDBRANCH  18  19
ENDBRANCH   1  18
TORSDOF 28
ENDMDL
MODEL 8
REMARK VINA RESULT:    -0.116      5.942     10.038
REMARK INTER + INTRA:          -1.749
REMARK INTER:                   0.244
REMARK INTRA:                  -1.993
REMARK UNBOUND:                -1.444
REMARK SMILES CCCCCCCCCCCCCCCCCCCCCCCCCCCCCC(=O)[O-]
REMARK SMILES IDX 16 1 17 2 18 3 19 4 20 5 21 6 22 7 23 8 24 9 25 10 26 11
REMARK SMILES IDX 27 12 28 13 29 14 30 15 31 16 32 17 15 18 14 19 13 20 12 21
REMARK SMILES IDX 11 22 10 23 9 24 8 25 7 26 6 27 5 28 4 29 3 30 2 31 1 32
REMARK H PARENT
REMARK Flexibility Score: inf
ROOT
ATOM      1  C   UNL     1      43.007  34.130  21.881  1.00  0.00     0.000 C 
ENDROOT
BRANCH   1   2
ATOM      2  C   UNL     1      42.938  34.299  23.410  1.00  0.00     0.000 C 
BRANCH   2   3
ATOM      3  C   UNL     1      44.306  34.137  24.103  1.00  0.00     0.000 C 
BRANCH   3   4
ATOM      4  C   UNL     1      44.254  34.460  25.613  1.00  0.00     0.000 C 
BRANCH   4   5
ATOM      5  C   UNL     1      43.139  35.466  25.956  1.00  0.00     0.000 C 
BRANCH   5   6
ATOM      6  C   UNL     1      43.702  36.789  26.505  1.00  0.00     0.000 C 
BRANCH   6   7
ATOM      7  C   UNL     1      44.823  36.562  27.547  1.00  0.00     0.000 C 
BRANCH   7   8
ATOM      8  C   UNL     1      44.292  36.508  28.986  1.00  0.00     0.000 C 
BRANCH   8   9
ATOM      9  C   UNL     1      44.833  35.276  29.719  1.00  0.00     0.000 C 
BRANCH   9  10
ATOM     10  C   UNL     1      43.698  34.319  30.125  1.00  0.00     0.000 C 
BRANCH  10  11
ATOM     11  C   UNL     1      43.329  33.337  28.997  1.00  0.00     0.000 C 
BRANCH  11  12
ATOM     12  C   UNL     1      43.014  31.928  29.527  1.00  0.00     0.000 C 
BRANCH  12  13
ATOM     13  C   UNL     1      41.511  31.710  29.763  1.00  0.00     0.006 C 
BRANCH  13  14
ATOM     14  C   UNL     1      40.705  33.013  29.691  1.00  0.00     0.053 C 
BRANCH  14  15
ATOM     15  C   UNL     1      39.363  32.765  29.076  1.00  0.00     0.041 C 
ATOM     16  O   UNL     1      39.178  32.996  27.851  1.00  0.00    -0.550 OA
ATOM     17  O   UNL     1      38.298  32.350  29.866  1.00  0.00    -0.550 OA
ENDBRANCH  14  15
ENDBRANCH  13  14
ENDBRANCH  12  13
ENDBRANCH  11  12
ENDBRANCH  10  11
ENDBRANCH   9  10
ENDBRANCH   8   9
ENDBRANCH   7   8
ENDBRANCH   6   7
ENDBRANCH   5   6
ENDBRANCH   4   5
ENDBRANCH   3   4
ENDBRANCH   2   3
ENDBRANCH   1   2
BRANCH   1  18
ATOM     18  C   UNL     1      44.346  33.536  21.410  1.00  0.00     0.000 C 
BRANCH  18  19
ATOM     19  C   UNL     1      44.657  33.949  19.965  1.00  0.00     0.000 C 
BRANCH  19  20
ATOM     20  C   UNL     1      45.699  33.034  19.299  1.00  0.00     0.000 C 
BRANCH  20  21
ATOM     21  C   UNL     1      45.501  32.911  17.781  1.00  0.00     0.000 C 
BRANCH  21  22
ATOM     22  C   UNL     1      45.905  31.518  17.285  1.00  0.00     0.000 C 
BRANCH  22  23
ATOM     23  C   UNL     1      45.023  31.073  16.105  1.00  0.00     0.000 C 
BRANCH  23  24
ATOM     24  C   UNL     1      43.798  31.981  15.899  1.00  0.00    -0.000 C 
BRANCH  24  25
ATOM     25  C   UNL     1      42.488  31.190  15.742  1.00  0.00    -0.000 C 
BRANCH  25  26
ATOM     26  C   UNL     1      42.363  30.056  16.774  1.00  0.00    -0.000 C 
BRANCH  26  27
ATOM     27  C   UNL     1      42.270  28.666  16.124  1.00  0.00    -0.000 C 
BRANCH  27  28
ATOM     28  C   UNL     1      41.222  27.799  16.831  1.00  0.00    -0.000 C 
BRANCH  28  29
ATOM     29  C   UNL     1      41.044  28.223  18.298  1.00  0.00    -0.000 C 
BRANCH  29  30
ATOM     30  C   UNL     1      41.315  27.071  19.281  1.00  0.00    -0.000 C 
BRANCH  30  31
ATOM     31  C   UNL     1      40.343  27.062  20.470  1.00  0.00    -0.003 C 
ATOM     32  C   UNL     1      41.089  27.188  21.796  1.00  0.00     0.004 C 
ENDBRANCH  30  31
ENDBRANCH  29  30
ENDBRANCH  28  29
ENDBRANCH  27  28
ENDBRANCH  26  27
ENDBRANCH  25  26
ENDBRANCH  24  25
ENDBRANCH  23  24
ENDBRANCH  22  23
ENDBRANCH  21  22
ENDBRANCH  20  21
ENDBRANCH  19  20
ENDBRANCH  18  19
ENDBRANCH   1  18
TORSDOF 28
ENDMDL
MODEL 9
REMARK VINA RESULT:    -0.115      4.129     11.541
REMARK INTER + INTRA:          -1.748
REMARK INTER:                  -0.547
REMARK INTRA:                  -1.201
REMARK UNBOUND:                -1.444
REMARK SMILES CCCCCCCCCCCCCCCCCCCCCCCCCCCCCC(=O)[O-]
REMARK SMILES IDX 16 1 17 2 18 3 19 4 20 5 21 6 22 7 23 8 24 9 25 10 26 11
REMARK SMILES IDX 27 12 28 13 29 14 30 15 31 16 32 17 15 18 14 19 13 20 12 21
REMARK SMILES IDX 11 22 10 23 9 24 8 25 7 26 6 27 5 28 4 29 3 30 2 31 1 32
REMARK H PARENT
REMARK Flexibility Score: inf
ROOT
ATOM      1  C   UNL     1      33.663  27.051  18.304  1.00  0.00     0.000 C 
ENDROOT
BRANCH   1   2
ATOM      2  C   UNL     1      33.904  28.128  17.229  1.00  0.00     0.000 C 
BRANCH   2   3
ATOM      3  C   UNL     1      35.035  27.766  16.247  1.00  0.00     0.000 C 
BRANCH   3   4
ATOM      4  C   UNL     1      35.029  26.273  15.851  1.00  0.00     0.000 C 
BRANCH   4   5
ATOM      5  C   UNL     1      36.250  25.517  16.408  1.00  0.00     0.000 C 
BRANCH   5   6
ATOM      6  C   UNL     1      37.561  26.289  16.182  1.00  0.00     0.000 C 
BRANCH   6   7
ATOM      7  C   UNL     1      38.521  26.184  17.391  1.00  0.00     0.000 C 
BRANCH   7   8
ATOM      8  C   UNL     1      39.998  26.177  16.976  1.00  0.00     0.000 C 
BRANCH   8   9
ATOM      9  C   UNL     1      40.736  27.382  17.568  1.00  0.00     0.000 C 
BRANCH   9  10
ATOM     10  C   UNL     1      41.660  28.042  16.530  1.00  0.00     0.000 C 
BRANCH  10  11
ATOM     11  C   UNL     1      42.192  29.408  17.005  1.00  0.00     0.000 C 
BRANCH  11  12
ATOM     12  C   UNL     1      42.216  30.452  15.875  1.00  0.00     0.000 C 
BRANCH  12  13
ATOM     13  C   UNL     1      43.139  31.640  16.192  1.00  0.00     0.006 C 
BRANCH  13  14
ATOM     14  C   UNL     1      44.402  31.659  15.322  1.00  0.00     0.053 C 
BRANCH  14  15
ATOM     15  C   UNL     1      45.614  31.380  16.153  1.00  0.00     0.041 C 
ATOM     16  O   UNL     1      45.702  31.854  17.318  1.00  0.00    -0.550 OA
ATOM     17  O   UNL     1      46.678  30.662  15.621  1.00  0.00    -0.550 OA
ENDBRANCH  14  15
ENDBRANCH  13  14
ENDBRANCH  12  13
ENDBRANCH  11  12
ENDBRANCH  10  11
ENDBRANCH   9  10
ENDBRANCH   8   9
ENDBRANCH   7   8
ENDBRANCH   6   7
ENDBRANCH   5   6
ENDBRANCH   4   5
ENDBRANCH   3   4
ENDBRANCH   2   3
ENDBRANCH   1   2
BRANCH   1  18
ATOM     18  C   UNL     1      33.134  27.638  19.624  1.00  0.00     0.000 C 
BRANCH  18  19
ATOM     19  C   UNL     1      33.482  26.730  20.812  1.00  0.00     0.000 C 
BRANCH  19  20
ATOM     20  C   UNL     1      33.522  27.493  22.147  1.00  0.00     0.000 C 
BRANCH  20  21
ATOM     21  C   UNL     1      33.375  26.570  23.365  1.00  0.00     0.000 C 
BRANCH  21  22
ATOM     22  C   UNL     1      33.078  27.378  24.634  1.00  0.00     0.000 C 
BRANCH  22  23
ATOM     23  C   UNL     1      32.832  26.450  25.836  1.00  0.00     0.000 C 
BRANCH  23  24
ATOM     24  C   UNL     1      31.680  26.929  26.736  1.00  0.00    -0.000 C 
BRANCH  24  25
ATOM     25  C   UNL     1      32.137  27.256  28.169  1.00  0.00    -0.000 C 
BRANCH  25  26
ATOM     26  C   UNL     1      33.666  27.377  28.281  1.00  0.00    -0.000 C 
BRANCH  26  27
ATOM     27  C   UNL     1      34.116  28.720  28.878  1.00  0.00    -0.000 C 
BRANCH  27  28
ATOM     28  C   UNL     1      35.623  28.719  29.158  1.00  0.00    -0.000 C 
BRANCH  28  29
ATOM     29  C   UNL     1      36.242  30.101  28.890  1.00  0.00    -0.000 C 
BRANCH  29  30
ATOM     30  C   UNL     1      37.773  30.044  28.752  1.00  0.00    -0.000 C 
BRANCH  30  31
ATOM     31  C   UNL     1      38.361  31.314  28.120  1.00  0.00    -0.003 C 
ATOM     32  C   UNL     1      37.388  32.487  28.228  1.00  0.00     0.004 C 
ENDBRANCH  30  31
ENDBRANCH  29  30
ENDBRANCH  28  29
ENDBRANCH  27  28
ENDBRANCH  26  27
ENDBRANCH  25  26
ENDBRANCH  24  25
ENDBRANCH  23  24
ENDBRANCH  22  23
ENDBRANCH  21  22
ENDBRANCH  20  21
ENDBRANCH  19  20
ENDBRANCH  18  19
ENDBRANCH   1  18
TORSDOF 28
ENDMDL
