MODEL 1
REMARK VINA RESULT:    -5.024      0.000      0.000
REMARK INTER + INTRA:          -5.337
REMARK INTER:                  -5.465
REMARK INTRA:                   0.128
REMARK UNBOUND:                 0.128
REMARK SMILES CC1(C)CC[C@]2(C(=O)[O-])CC[C@@]3(C)C(=CC[C@@H]4[C@]5(C)CC[C@H](O)C(C)(C)[C@H]5CC[C@@]43C)[C@H]2C1
REMARK SMILES IDX 6 1 5 2 10 3 32 4 4 5 11 6 14 7 33 8 2 9 12 10 15 11 1 12
REMARK SMILES IDX 3 13 13 14 30 15 16 16 17 17 29 18 31 19 18 20 28 21 27 22
REMARK SMILES IDX 20 23 19 24 24 25 21 26 22 27 25 28 26 29 7 30 8 31 9 32
REMARK SMILES IDX 23 33
REMARK H PARENT 23 34
REMARK Flexibility Score: inf
ROOT
ATOM      1  C   UNL     1       7.580   8.124 -15.080  1.00  0.00     0.017 C 
ATOM      2  C   UNL     1       6.603   6.875 -14.987  1.00  0.00     0.014 C 
ATOM      3  C   UNL     1       7.120   9.274 -14.112  1.00  0.00     0.014 C 
ATOM      4  C   UNL     1       7.522   8.700 -16.525  1.00  0.00     0.028 C 
ATOM      5  C   UNL     1       5.875   6.495 -16.297  1.00  0.00     0.007 C 
ATOM      6  C   UNL     1       7.610  10.734 -14.412  1.00  0.00     0.013 C 
ATOM      7  C   UNL     1       8.118  10.107 -16.745  1.00  0.00    -0.064 C 
ATOM      8  C   UNL     1       7.842   7.628 -17.596  1.00  0.00     0.015 C 
ATOM      9  C   UNL     1       6.793   6.458 -17.567  1.00  0.00    -0.035 C 
ATOM     10  C   UNL     1       8.661  10.927 -15.568  1.00  0.00    -0.006 C 
ATOM     11  C   UNL     1       7.638  10.736 -17.827  1.00  0.00    -0.027 C 
ATOM     12  C   UNL     1       7.531   5.100 -17.623  1.00  0.00     0.011 C 
ATOM     13  C   UNL     1       5.887   6.579 -18.818  1.00  0.00     0.011 C 
ATOM     14  C   UNL     1      10.036  10.334 -15.105  1.00  0.00     0.017 C 
ATOM     15  C   UNL     1       8.878  12.492 -15.960  1.00  0.00    -0.020 C 
ATOM     16  C   UNL     1       7.036  12.105 -17.759  1.00  0.00     0.032 C 
ATOM     17  C   UNL     1       7.596  13.095 -16.681  1.00  0.00     0.006 C 
ATOM     18  C   UNL     1      10.100  12.661 -16.938  1.00  0.00     0.008 C 
ATOM     19  C   UNL     1       9.182  13.268 -14.630  1.00  0.00     0.012 C 
ATOM     20  C   UNL     1       7.773  14.574 -17.282  1.00  0.00    -0.025 C 
ATOM     21  C   UNL     1      10.276  14.062 -17.566  1.00  0.00     0.005 C 
ATOM     22  C   UNL     1       8.994  14.540 -18.279  1.00  0.00     0.003 C 
ATOM     23  C   UNL     1       6.468  15.026 -18.021  1.00  0.00     0.010 C 
ATOM     24  C   UNL     1       7.955  15.614 -16.131  1.00  0.00     0.012 C 
ATOM     25  C   UNL     1       9.169  15.785 -19.243  1.00  0.00    -0.006 C 
ATOM     26  C   UNL     1       6.644  16.282 -18.900  1.00  0.00     0.033 C 
ATOM     27  C   UNL     1       7.798  16.156 -19.906  1.00  0.00     0.120 C 
ATOM     28  C   UNL     1       9.767  17.022 -18.522  1.00  0.00     0.014 C 
ATOM     29  C   UNL     1      10.163  15.430 -20.390  1.00  0.00     0.014 C 
ENDROOT
BRANCH   1  30
ATOM     30  C   UNL     1       8.946   7.588 -14.629  1.00  0.00     0.048 C 
ATOM     31  O   UNL     1       9.187   7.479 -13.391  1.00  0.00    -0.550 OA
ATOM     32  O   UNL     1       9.900   7.117 -15.519  1.00  0.00    -0.550 OA
ENDBRANCH   1  30
BRANCH  27  33
ATOM     33  O   UNL     1       7.444  15.264 -20.939  1.00  0.00    -0.393 OA
ATOM     34  H   UNL     1       7.725  14.359 -20.673  1.00  0.00     0.210 HD
ENDBRANCH  27  33
TORSDOF 2
ENDMDL
MODEL 2
REMARK VINA RESULT:    -4.815      1.862      3.758
REMARK INTER + INTRA:          -5.110
REMARK INTER:                  -5.339
REMARK INTRA:                   0.229
REMARK UNBOUND:                 0.128
REMARK SMILES CC1(C)CC[C@]2(C(=O)[O-])CC[C@@]3(C)C(=CC[C@@H]4[C@]5(C)CC[C@H](O)C(C)(C)[C@H]5CC[C@@]43C)[C@H]2C1
REMARK SMILES IDX 6 1 5 2 10 3 32 4 4 5 11 6 14 7 33 8 2 9 12 10 15 11 1 12
REMARK SMILES IDX 3 13 13 14 30 15 16 16 17 17 29 18 31 19 18 20 28 21 27 22
REMARK SMILES IDX 20 23 19 24 24 25 21 26 22 27 25 28 26 29 7 30 8 31 9 32
REMARK SMILES IDX 23 33
REMARK H PARENT 23 34
REMARK Flexibility Score: inf
ROOT
ATOM      1  C   UNL     1       8.228   8.069 -16.006  1.00  0.00     0.017 C 
ATOM      2  C   UNL     1       8.709   7.160 -14.796  1.00  0.00     0.014 C 
ATOM      3  C   UNL     1       9.402   8.329 -17.019  1.00  0.00     0.014 C 
ATOM      4  C   UNL     1       7.797   9.459 -15.449  1.00  0.00     0.028 C 
ATOM      5  C   UNL     1       8.611   7.803 -13.393  1.00  0.00     0.007 C 
ATOM      6  C   UNL     1       9.298   9.575 -17.967  1.00  0.00     0.013 C 
ATOM      7  C   UNL     1       7.625  10.603 -16.470  1.00  0.00    -0.064 C 
ATOM      8  C   UNL     1       6.718   9.337 -14.344  1.00  0.00     0.015 C 
ATOM      9  C   UNL     1       7.255   8.535 -13.104  1.00  0.00    -0.035 C 
ATOM     10  C   UNL     1       7.952  10.391 -17.955  1.00  0.00    -0.006 C 
ATOM     11  C   UNL     1       7.728  11.827 -15.935  1.00  0.00    -0.027 C 
ATOM     12  C   UNL     1       6.199   7.494 -12.663  1.00  0.00     0.011 C 
ATOM     13  C   UNL     1       7.485   9.528 -11.938  1.00  0.00     0.011 C 
ATOM     14  C   UNL     1       6.829   9.525 -18.621  1.00  0.00     0.017 C 
ATOM     15  C   UNL     1       8.068  11.800 -18.763  1.00  0.00    -0.020 C 
ATOM     16  C   UNL     1       8.680  12.856 -16.463  1.00  0.00     0.032 C 
ATOM     17  C   UNL     1       8.999  12.836 -17.997  1.00  0.00     0.006 C 
ATOM     18  C   UNL     1       6.651  12.466 -18.933  1.00  0.00     0.008 C 
ATOM     19  C   UNL     1       8.650  11.475 -20.183  1.00  0.00     0.012 C 
ATOM     20  C   UNL     1       9.027  14.321 -18.607  1.00  0.00    -0.025 C 
ATOM     21  C   UNL     1       6.645  13.911 -19.482  1.00  0.00     0.005 C 
ATOM     22  C   UNL     1       7.542  14.848 -18.646  1.00  0.00     0.003 C 
ATOM     23  C   UNL     1       9.924  15.259 -17.729  1.00  0.00     0.010 C 
ATOM     24  C   UNL     1       9.712  14.322 -20.011  1.00  0.00     0.012 C 
ATOM     25  C   UNL     1       7.337  16.399 -18.899  1.00  0.00    -0.006 C 
ATOM     26  C   UNL     1       9.760  16.761 -18.040  1.00  0.00     0.033 C 
ATOM     27  C   UNL     1       8.298  17.231 -17.983  1.00  0.00     0.120 C 
ATOM     28  C   UNL     1       7.537  16.795 -20.387  1.00  0.00     0.014 C 
ATOM     29  C   UNL     1       5.876  16.805 -18.537  1.00  0.00     0.014 C 
ENDROOT
BRANCH   1  30
ATOM     30  C   UNL     1       7.124   7.255 -16.694  1.00  0.00     0.048 C 
ATOM     31  O   UNL     1       7.384   6.661 -17.781  1.00  0.00    -0.550 OA
ATOM     32  O   UNL     1       5.875   7.051 -16.127  1.00  0.00    -0.550 OA
ENDBRANCH   1  30
BRANCH  27  33
ATOM     33  O   UNL     1       7.856  17.277 -16.645  1.00  0.00    -0.393 OA
ATOM     34  H   UNL     1       8.518  16.808 -16.088  1.00  0.00     0.210 HD
ENDBRANCH  27  33
TORSDOF 2
ENDMDL
MODEL 3
REMARK VINA RESULT:    -4.666      1.655      7.827
REMARK INTER + INTRA:          -4.947
REMARK INTER:                  -5.058
REMARK INTRA:                   0.110
REMARK UNBOUND:                 0.128
REMARK SMILES CC1(C)CC[C@]2(C(=O)[O-])CC[C@@]3(C)C(=CC[C@@H]4[C@]5(C)CC[C@H](O)C(C)(C)[C@H]5CC[C@@]43C)[C@H]2C1
REMARK SMILES IDX 6 1 5 2 10 3 32 4 4 5 11 6 14 7 33 8 2 9 12 10 15 11 1 12
REMARK SMILES IDX 3 13 13 14 30 15 16 16 17 17 29 18 31 19 18 20 28 21 27 22
REMARK SMILES IDX 20 23 19 24 24 25 21 26 22 27 25 28 26 29 7 30 8 31 9 32
REMARK SMILES IDX 23 33
REMARK H PARENT 23 34
REMARK Flexibility Score: inf
ROOT
ATOM      1  C   UNL     1       8.322  15.519 -17.779  1.00  0.00     0.017 C 
ATOM      2  C   UNL     1       9.212  16.448 -18.710  1.00  0.00     0.014 C 
ATOM      3  C   UNL     1       8.933  15.416 -16.334  1.00  0.00     0.014 C 
ATOM      4  C   UNL     1       8.314  14.078 -18.369  1.00  0.00     0.028 C 
ATOM      5  C   UNL     1       9.813  15.766 -19.961  1.00  0.00     0.007 C 
ATOM      6  C   UNL     1       8.526  14.189 -15.445  1.00  0.00     0.013 C 
ATOM      7  C   UNL     1       7.804  12.946 -17.452  1.00  0.00    -0.064 C 
ATOM      8  C   UNL     1       7.840  14.053 -19.844  1.00  0.00     0.015 C 
ATOM      9  C   UNL     1       8.803  14.881 -20.769  1.00  0.00    -0.035 C 
ATOM     10  C   UNL     1       7.408  13.227 -15.997  1.00  0.00    -0.006 C 
ATOM     11  C   UNL     1       8.245  11.729 -17.798  1.00  0.00    -0.027 C 
ATOM     12  C   UNL     1       7.969  15.786 -21.706  1.00  0.00     0.011 C 
ATOM     13  C   UNL     1       9.620  13.893 -21.638  1.00  0.00     0.011 C 
ATOM     14  C   UNL     1       6.033  13.978 -15.962  1.00  0.00     0.017 C 
ATOM     15  C   UNL     1       7.274  11.859 -15.124  1.00  0.00    -0.020 C 
ATOM     16  C   UNL     1       8.946  10.825 -16.831  1.00  0.00     0.032 C 
ATOM     17  C   UNL     1       8.538  10.916 -15.321  1.00  0.00     0.006 C 
ATOM     18  C   UNL     1       5.998  11.043 -15.553  1.00  0.00     0.008 C 
ATOM     19  C   UNL     1       7.125  12.280 -13.620  1.00  0.00     0.012 C 
ATOM     20  C   UNL     1       8.422   9.458 -14.658  1.00  0.00    -0.025 C 
ATOM     21  C   UNL     1       5.875   9.620 -14.964  1.00  0.00     0.005 C 
ATOM     22  C   UNL     1       7.132   8.769 -15.245  1.00  0.00     0.003 C 
ATOM     23  C   UNL     1       9.698   8.606 -14.977  1.00  0.00     0.010 C 
ATOM     24  C   UNL     1       8.400   9.566 -13.100  1.00  0.00     0.012 C 
ATOM     25  C   UNL     1       6.974   7.211 -15.001  1.00  0.00    -0.006 C 
ATOM     26  C   UNL     1       9.547   7.102 -14.666  1.00  0.00     0.033 C 
ATOM     27  C   UNL     1       8.314   6.471 -15.333  1.00  0.00     0.120 C 
ATOM     28  C   UNL     1       6.519   6.875 -13.555  1.00  0.00     0.014 C 
ATOM     29  C   UNL     1       5.875   6.637 -15.945  1.00  0.00     0.014 C 
ENDROOT
BRANCH   1  30
ATOM     30  C   UNL     1       6.959  16.221 -17.713  1.00  0.00     0.048 C 
ATOM     31  O   UNL     1       6.778  17.134 -16.854  1.00  0.00    -0.550 OA
ATOM     32  O   UNL     1       5.941  15.975 -18.621  1.00  0.00    -0.550 OA
ENDBRANCH   1  30
BRANCH  27  33
ATOM     33  O   UNL     1       8.528   6.345 -16.721  1.00  0.00    -0.393 OA
ATOM     34  H   UNL     1       9.488   6.193 -16.870  1.00  0.00     0.210 HD
ENDBRANCH  27  33
TORSDOF 2
ENDMDL
MODEL 4
REMARK VINA RESULT:    -4.015      1.729      8.104
REMARK INTER + INTRA:          -4.240
REMARK INTER:                  -4.366
REMARK INTRA:                   0.126
REMARK UNBOUND:                 0.128
REMARK SMILES CC1(C)CC[C@]2(C(=O)[O-])CC[C@@]3(C)C(=CC[C@@H]4[C@]5(C)CC[C@H](O)C(C)(C)[C@H]5CC[C@@]43C)[C@H]2C1
REMARK SMILES IDX 6 1 5 2 10 3 32 4 4 5 11 6 14 7 33 8 2 9 12 10 15 11 1 12
REMARK SMILES IDX 3 13 13 14 30 15 16 16 17 17 29 18 31 19 18 20 28 21 27 22
REMARK SMILES IDX 20 23 19 24 24 25 21 26 22 27 25 28 26 29 7 30 8 31 9 32
REMARK SMILES IDX 23 33
REMARK H PARENT 23 34
REMARK Flexibility Score: inf
ROOT
ATOM      1  C   UNL     1       7.792  15.653 -18.940  1.00  0.00     0.017 C 
ATOM      2  C   UNL     1       6.926  16.970 -19.133  1.00  0.00     0.014 C 
ATOM      3  C   UNL     1       7.338  14.528 -19.940  1.00  0.00     0.014 C 
ATOM      4  C   UNL     1       7.552  15.102 -17.503  1.00  0.00     0.028 C 
ATOM      5  C   UNL     1       6.108  17.423 -17.901  1.00  0.00     0.007 C 
ATOM      6  C   UNL     1       7.685  13.039 -19.585  1.00  0.00     0.013 C 
ATOM      7  C   UNL     1       8.015  13.657 -17.218  1.00  0.00    -0.064 C 
ATOM      8  C   UNL     1       7.851  16.161 -16.413  1.00  0.00     0.015 C 
ATOM      9  C   UNL     1       6.902  17.407 -16.550  1.00  0.00    -0.035 C 
ATOM     10  C   UNL     1       8.604  12.783 -18.333  1.00  0.00    -0.006 C 
ATOM     11  C   UNL     1       7.389  13.081 -16.183  1.00  0.00    -0.027 C 
ATOM     12  C   UNL     1       7.733  18.706 -16.432  1.00  0.00     0.011 C 
ATOM     13  C   UNL     1       5.875  17.372 -15.391  1.00  0.00     0.011 C 
ATOM     14  C   UNL     1      10.057  13.264 -18.666  1.00  0.00     0.017 C 
ATOM     15  C   UNL     1       8.662  11.211 -17.912  1.00  0.00    -0.020 C 
ATOM     16  C   UNL     1       6.693  11.761 -16.300  1.00  0.00     0.032 C 
ATOM     17  C   UNL     1       7.275  10.717 -17.313  1.00  0.00     0.006 C 
ATOM     18  C   UNL     1       9.769  10.964 -16.820  1.00  0.00     0.008 C 
ATOM     19  C   UNL     1       9.031  10.397 -19.201  1.00  0.00     0.012 C 
ATOM     20  C   UNL     1       7.280   9.237 -16.688  1.00  0.00    -0.025 C 
ATOM     21  C   UNL     1       9.777   9.562 -16.170  1.00  0.00     0.005 C 
ATOM     22  C   UNL     1       8.400   9.193 -15.580  1.00  0.00     0.003 C 
ATOM     23  C   UNL     1       5.880   8.894 -16.075  1.00  0.00     0.010 C 
ATOM     24  C   UNL     1       7.491   8.171 -17.811  1.00  0.00     0.012 C 
ATOM     25  C   UNL     1       8.387   7.951 -14.595  1.00  0.00    -0.006 C 
ATOM     26  C   UNL     1       5.875   7.641 -15.175  1.00  0.00     0.033 C 
ATOM     27  C   UNL     1       6.936   7.694 -14.064  1.00  0.00     0.120 C 
ATOM     28  C   UNL     1       8.955   6.662 -15.248  1.00  0.00     0.014 C 
ATOM     29  C   UNL     1       9.292   8.245 -13.361  1.00  0.00     0.014 C 
ENDROOT
BRANCH   1  30
ATOM     30  C   UNL     1       9.231  16.078 -19.261  1.00  0.00     0.048 C 
ATOM     31  O   UNL     1       9.598  16.143 -20.471  1.00  0.00    -0.550 OA
ATOM     32  O   UNL     1      10.127  16.495 -18.289  1.00  0.00    -0.550 OA
ENDBRANCH   1  30
BRANCH  27  33
ATOM     33  O   UNL     1       6.554   8.624 -13.075  1.00  0.00    -0.393 OA
ATOM     34  H   UNL     1       6.088   9.368 -13.519  1.00  0.00     0.210 HD
ENDBRANCH  27  33
TORSDOF 2
ENDMDL
MODEL 5
REMARK VINA RESULT:    -2.412      2.028      2.948
REMARK INTER + INTRA:          -2.495
REMARK INTER:                  -3.428
REMARK INTRA:                   0.933
REMARK UNBOUND:                 0.128
REMARK SMILES CC1(C)CC[C@]2(C(=O)[O-])CC[C@@]3(C)C(=CC[C@@H]4[C@]5(C)CC[C@H](O)C(C)(C)[C@H]5CC[C@@]43C)[C@H]2C1
REMARK SMILES IDX 6 1 5 2 10 3 32 4 4 5 11 6 14 7 33 8 2 9 12 10 15 11 1 12
REMARK SMILES IDX 3 13 13 14 30 15 16 16 17 17 29 18 31 19 18 20 28 21 27 22
REMARK SMILES IDX 20 23 19 24 24 25 21 26 22 27 25 28 26 29 7 30 8 31 9 32
REMARK SMILES IDX 23 33
REMARK H PARENT 23 34
REMARK Flexibility Score: inf
ROOT
ATOM      1  C   UNL     1       7.494   9.656 -14.709  1.00  0.00     0.017 C 
ATOM      2  C   UNL     1       7.546   8.069 -14.724  1.00  0.00     0.014 C 
ATOM      3  C   UNL     1       6.124  10.181 -15.273  1.00  0.00     0.014 C 
ATOM      4  C   UNL     1       8.608  10.203 -15.650  1.00  0.00     0.028 C 
ATOM      5  C   UNL     1       8.663   7.442 -15.592  1.00  0.00     0.007 C 
ATOM      6  C   UNL     1       6.063  11.652 -15.816  1.00  0.00     0.013 C 
ATOM      7  C   UNL     1       8.520  11.690 -16.054  1.00  0.00    -0.064 C 
ATOM      8  C   UNL     1      10.010   9.662 -15.274  1.00  0.00     0.015 C 
ATOM      9  C   UNL     1      10.075   8.097 -15.410  1.00  0.00    -0.035 C 
ATOM     10  C   UNL     1       7.334  12.559 -15.613  1.00  0.00    -0.006 C 
ATOM     11  C   UNL     1       9.174  11.985 -17.186  1.00  0.00    -0.027 C 
ATOM     12  C   UNL     1      10.758   7.497 -14.159  1.00  0.00     0.011 C 
ATOM     13  C   UNL     1      10.930   7.747 -16.653  1.00  0.00     0.011 C 
ATOM     14  C   UNL     1       7.472  12.901 -14.090  1.00  0.00     0.017 C 
ATOM     15  C   UNL     1       7.249  13.951 -16.451  1.00  0.00    -0.020 C 
ATOM     16  C   UNL     1       8.512  12.677 -18.338  1.00  0.00     0.032 C 
ATOM     17  C   UNL     1       7.368  13.697 -18.016  1.00  0.00     0.006 C 
ATOM     18  C   UNL     1       8.413  14.927 -16.037  1.00  0.00     0.008 C 
ATOM     19  C   UNL     1       5.875  14.623 -16.101  1.00  0.00     0.012 C 
ATOM     20  C   UNL     1       7.490  15.017 -18.923  1.00  0.00    -0.025 C 
ATOM     21  C   UNL     1       8.583  16.188 -16.913  1.00  0.00     0.005 C 
ATOM     22  C   UNL     1       8.734  15.835 -18.408  1.00  0.00     0.003 C 
ATOM     23  C   UNL     1       7.666  14.633 -20.432  1.00  0.00     0.010 C 
ATOM     24  C   UNL     1       6.160  15.836 -18.878  1.00  0.00     0.012 C 
ATOM     25  C   UNL     1       9.261  17.005 -19.339  1.00  0.00    -0.006 C 
ATOM     26  C   UNL     1       8.111  15.803 -21.333  1.00  0.00     0.033 C 
ATOM     27  C   UNL     1       9.376  16.509 -20.821  1.00  0.00     0.120 C 
ATOM     28  C   UNL     1       8.371  18.275 -19.267  1.00  0.00     0.014 C 
ATOM     29  C   UNL     1      10.683  17.446 -18.880  1.00  0.00     0.014 C 
ENDROOT
BRANCH   1  30
ATOM     30  C   UNL     1       7.623  10.039 -13.229  1.00  0.00     0.048 C 
ATOM     31  O   UNL     1       6.974   9.381 -12.364  1.00  0.00    -0.550 OA
ATOM     32  O   UNL     1       8.500  11.014 -12.777  1.00  0.00    -0.550 OA
ENDBRANCH   1  30
BRANCH  27  33
ATOM     33  O   UNL     1      10.505  15.688 -21.025  1.00  0.00    -0.393 OA
ATOM     34  H   UNL     1      10.634  15.581 -21.994  1.00  0.00     0.210 HD
ENDBRANCH  27  33
TORSDOF 2
ENDMDL
MODEL 6
REMARK VINA RESULT:    -2.376      3.564      9.349
REMARK INTER + INTRA:          -2.457
REMARK INTER:                  -3.067
REMARK INTRA:                   0.610
REMARK UNBOUND:                 0.128
REMARK SMILES CC1(C)CC[C@]2(C(=O)[O-])CC[C@@]3(C)C(=CC[C@@H]4[C@]5(C)CC[C@H](O)C(C)(C)[C@H]5CC[C@@]43C)[C@H]2C1
REMARK SMILES IDX 6 1 5 2 10 3 32 4 4 5 11 6 14 7 33 8 2 9 12 10 15 11 1 12
REMARK SMILES IDX 3 13 13 14 30 15 16 16 17 17 29 18 31 19 18 20 28 21 27 22
REMARK SMILES IDX 20 23 19 24 24 25 21 26 22 27 25 28 26 29 7 30 8 31 9 32
REMARK SMILES IDX 23 33
REMARK H PARENT 23 34
REMARK Flexibility Score: inf
ROOT
ATOM      1  C   UNL     1       7.329  20.292 -17.169  1.00  0.00     0.017 C 
ATOM      2  C   UNL     1       6.458  21.407 -16.448  1.00  0.00     0.014 C 
ATOM      3  C   UNL     1       6.692  19.882 -18.547  1.00  0.00     0.014 C 
ATOM      4  C   UNL     1       7.341  19.013 -16.280  1.00  0.00     0.028 C 
ATOM      5  C   UNL     1       5.876  21.018 -15.069  1.00  0.00     0.007 C 
ATOM      6  C   UNL     1       7.079  18.488 -19.154  1.00  0.00     0.013 C 
ATOM      7  C   UNL     1       7.830  17.705 -16.937  1.00  0.00    -0.064 C 
ATOM      8  C   UNL     1       7.839  19.304 -14.842  1.00  0.00     0.015 C 
ATOM      9  C   UNL     1       6.896  20.321 -14.104  1.00  0.00    -0.035 C 
ATOM     10  C   UNL     1       8.202  17.660 -18.425  1.00  0.00    -0.006 C 
ATOM     11  C   UNL     1       7.389  16.595 -16.329  1.00  0.00    -0.027 C 
ATOM     12  C   UNL     1       7.750  21.402 -13.399  1.00  0.00     0.011 C 
ATOM     13  C   UNL     1       6.090  19.552 -13.028  1.00  0.00     0.011 C 
ATOM     14  C   UNL     1       9.579  18.374 -18.643  1.00  0.00     0.017 C 
ATOM     15  C   UNL     1       8.315  16.135 -18.982  1.00  0.00    -0.020 C 
ATOM     16  C   UNL     1       6.668  15.508 -17.065  1.00  0.00     0.032 C 
ATOM     17  C   UNL     1       7.050  15.267 -18.565  1.00  0.00     0.006 C 
ATOM     18  C   UNL     1       9.595  15.421 -18.405  1.00  0.00     0.008 C 
ATOM     19  C   UNL     1       8.441  16.217 -20.544  1.00  0.00     0.012 C 
ATOM     20  C   UNL     1       7.148  13.698 -18.897  1.00  0.00    -0.025 C 
ATOM     21  C   UNL     1       9.701  13.902 -18.673  1.00  0.00     0.005 C 
ATOM     22  C   UNL     1       8.446  13.143 -18.195  1.00  0.00     0.003 C 
ATOM     23  C   UNL     1       5.875  12.946 -18.381  1.00  0.00     0.010 C 
ATOM     24  C   UNL     1       7.145  13.466 -20.442  1.00  0.00     0.012 C 
ATOM     25  C   UNL     1       8.593  11.568 -18.098  1.00  0.00    -0.006 C 
ATOM     26  C   UNL     1       6.014  11.410 -18.361  1.00  0.00     0.033 C 
ATOM     27  C   UNL     1       7.255  10.928 -17.592  1.00  0.00     0.120 C 
ATOM     28  C   UNL     1       9.021  10.922 -19.442  1.00  0.00     0.014 C 
ATOM     29  C   UNL     1       9.705  11.204 -17.069  1.00  0.00     0.014 C 
ENDROOT
BRANCH   1  30
ATOM     30  C   UNL     1       8.693  20.952 -17.407  1.00  0.00     0.048 C 
ATOM     31  O   UNL     1       9.141  21.031 -18.588  1.00  0.00    -0.550 OA
ATOM     32  O   UNL     1       9.421  21.562 -16.396  1.00  0.00    -0.550 OA
ENDBRANCH   1  30
BRANCH  27  33
ATOM     33  O   UNL     1       7.065  11.108 -16.206  1.00  0.00    -0.393 OA
ATOM     34  H   UNL     1       6.264  11.664 -16.077  1.00  0.00     0.210 HD
ENDBRANCH  27  33
TORSDOF 2
ENDMDL
