MODEL 1
REMARK VINA RESULT:    -4.218      0.000      0.000
REMARK INTER + INTRA:          -5.129
REMARK INTER:                  -4.958
REMARK INTRA:                  -0.171
REMARK UNBOUND:                -0.171
REMARK SMILES COc1ccc(C=CC(=O)[O-])cc1
REMARK SMILES IDX 6 1 5 2 12 3 4 4 13 5 3 6 7 7 8 8 9 9 10 10 11 11 2 12 1 13
REMARK H PARENT
REMARK Flexibility Score: inf
ROOT
ATOM      1  C   UNL     1       4.207 -16.037  14.731  1.00  0.00    -0.025 A 
ATOM      2  C   UNL     1       2.841 -15.811  14.967  1.00  0.00     0.012 A 
ATOM      3  C   UNL     1       5.097 -14.948  14.805  1.00  0.00     0.012 A 
ATOM      4  C   UNL     1       2.367 -14.525  15.243  1.00  0.00     0.047 A 
ATOM      5  C   UNL     1       4.621 -13.662  15.082  1.00  0.00     0.047 A 
ATOM      6  C   UNL     1       3.257 -13.439  15.301  1.00  0.00     0.118 A 
ENDROOT
BRANCH   1   7
ATOM      7  C   UNL     1       4.660 -17.423  14.453  1.00  0.00     0.010 C 
ATOM      8  C   UNL     1       5.809 -17.718  13.831  1.00  0.00     0.025 C 
BRANCH   8   9
ATOM      9  C   UNL     1       6.213 -19.108  13.563  1.00  0.00     0.064 C 
ATOM     10  O   UNL     1       5.675 -20.046  14.207  1.00  0.00    -0.545 OA
ATOM     11  O   UNL     1       7.178 -19.404  12.607  1.00  0.00    -0.545 OA
ENDBRANCH   8   9
ENDBRANCH   1   7
BRANCH   6  12
ATOM     12  O   UNL     1       2.832 -12.130  15.574  1.00  0.00    -0.497 OA
ATOM     13  C   UNL     1       3.678 -10.986  15.533  1.00  0.00     0.278 C 
ENDBRANCH   6  12
TORSDOF 3
ENDMDL
MODEL 2
REMARK VINA RESULT:    -4.188      0.343      1.383
REMARK INTER + INTRA:          -5.093
REMARK INTER:                  -4.913
REMARK INTRA:                  -0.180
REMARK UNBOUND:                -0.171
REMARK SMILES COc1ccc(C=CC(=O)[O-])cc1
REMARK SMILES IDX 6 1 5 2 12 3 4 4 13 5 3 6 7 7 8 8 9 9 10 10 11 11 2 12 1 13
REMARK H PARENT
REMARK Flexibility Score: inf
ROOT
ATOM      1  C   UNL     1       3.969 -15.831  14.700  1.00  0.00    -0.025 A 
ATOM      2  C   UNL     1       4.892 -14.784  14.857  1.00  0.00     0.012 A 
ATOM      3  C   UNL     1       2.595 -15.552  14.843  1.00  0.00     0.012 A 
ATOM      4  C   UNL     1       4.460 -13.493  15.175  1.00  0.00     0.047 A 
ATOM      5  C   UNL     1       2.165 -14.259  15.161  1.00  0.00     0.047 A 
ATOM      6  C   UNL     1       3.089 -13.223  15.332  1.00  0.00     0.118 A 
ENDROOT
BRANCH   1   7
ATOM      7  C   UNL     1       4.478 -17.181  14.352  1.00  0.00     0.010 C 
ATOM      8  C   UNL     1       5.727 -17.417  13.928  1.00  0.00     0.025 C 
BRANCH   8   9
ATOM      9  C   UNL     1       6.186 -18.772  13.581  1.00  0.00     0.064 C 
ATOM     10  O   UNL     1       5.539 -19.771  13.988  1.00  0.00    -0.545 OA
ATOM     11  O   UNL     1       7.324 -18.968  12.805  1.00  0.00    -0.545 OA
ENDBRANCH   8   9
ENDBRANCH   1   7
BRANCH   6  12
ATOM     12  O   UNL     1       2.604 -11.945  15.652  1.00  0.00    -0.497 OA
ATOM     13  C   UNL     1       3.374 -10.750  15.567  1.00  0.00     0.278 C 
ENDBRANCH   6  12
TORSDOF 3
ENDMDL
MODEL 3
REMARK VINA RESULT:    -4.093      2.173      6.172
REMARK INTER + INTRA:          -4.982
REMARK INTER:                  -4.818
REMARK INTRA:                  -0.163
REMARK UNBOUND:                -0.171
REMARK SMILES COc1ccc(C=CC(=O)[O-])cc1
REMARK SMILES IDX 6 1 5 2 12 3 4 4 13 5 3 6 7 7 8 8 9 9 10 10 11 11 2 12 1 13
REMARK H PARENT
REMARK Flexibility Score: inf
ROOT
ATOM      1  C   UNL     1       4.528 -13.795  14.635  1.00  0.00    -0.025 A 
ATOM      2  C   UNL     1       3.317 -14.505  14.589  1.00  0.00     0.012 A 
ATOM      3  C   UNL     1       5.734 -14.518  14.726  1.00  0.00     0.012 A 
ATOM      4  C   UNL     1       3.303 -15.901  14.659  1.00  0.00     0.047 A 
ATOM      5  C   UNL     1       5.718 -15.915  14.795  1.00  0.00     0.047 A 
ATOM      6  C   UNL     1       4.509 -16.617  14.765  1.00  0.00     0.118 A 
ENDROOT
BRANCH   1   7
ATOM      7  C   UNL     1       4.488 -12.314  14.547  1.00  0.00     0.010 C 
ATOM      8  C   UNL     1       5.374 -11.587  13.854  1.00  0.00     0.025 C 
BRANCH   8   9
ATOM      9  C   UNL     1       5.303 -10.117  13.805  1.00  0.00     0.064 C 
ATOM     10  O   UNL     1       4.186  -9.546  13.892  1.00  0.00    -0.545 OA
ATOM     11  O   UNL     1       6.454  -9.347  13.666  1.00  0.00    -0.545 OA
ENDBRANCH   8   9
ENDBRANCH   1   7
BRANCH   6  12
ATOM     12  O   UNL     1       4.549 -18.018  14.838  1.00  0.00    -0.497 OA
ATOM     13  C   UNL     1       5.401 -18.839  14.047  1.00  0.00     0.278 C 
ENDBRANCH   6  12
TORSDOF 3
ENDMDL
MODEL 4
REMARK VINA RESULT:    -4.088      2.126      6.331
REMARK INTER + INTRA:          -4.976
REMARK INTER:                  -4.806
REMARK INTRA:                  -0.170
REMARK UNBOUND:                -0.171
REMARK SMILES COc1ccc(C=CC(=O)[O-])cc1
REMARK SMILES IDX 6 1 5 2 12 3 4 4 13 5 3 6 7 7 8 8 9 9 10 10 11 11 2 12 1 13
REMARK H PARENT
REMARK Flexibility Score: inf
ROOT
ATOM      1  C   UNL     1       4.426 -13.779  14.627  1.00  0.00    -0.025 A 
ATOM      2  C   UNL     1       5.679 -14.407  14.721  1.00  0.00     0.012 A 
ATOM      3  C   UNL     1       3.265 -14.577  14.633  1.00  0.00     0.012 A 
ATOM      4  C   UNL     1       5.776 -15.800  14.793  1.00  0.00     0.047 A 
ATOM      5  C   UNL     1       3.365 -15.970  14.706  1.00  0.00     0.047 A 
ATOM      6  C   UNL     1       4.615 -16.592  14.784  1.00  0.00     0.118 A 
ENDROOT
BRANCH   1   7
ATOM      7  C   UNL     1       4.378 -12.297  14.563  1.00  0.00     0.010 C 
ATOM      8  C   UNL     1       5.255 -11.553  13.876  1.00  0.00     0.025 C 
BRANCH   8   9
ATOM      9  C   UNL     1       5.177 -10.083  13.852  1.00  0.00     0.064 C 
ATOM     10  O   UNL     1       4.060  -9.519  13.977  1.00  0.00    -0.545 OA
ATOM     11  O   UNL     1       6.320  -9.305  13.696  1.00  0.00    -0.545 OA
ENDBRANCH   8   9
ENDBRANCH   1   7
BRANCH   6  12
ATOM     12  O   UNL     1       4.659 -17.994  14.853  1.00  0.00    -0.497 OA
ATOM     13  C   UNL     1       5.489 -18.812  14.037  1.00  0.00     0.278 C 
ENDBRANCH   6  12
TORSDOF 3
ENDMDL
MODEL 5
REMARK VINA RESULT:    -4.062     12.333     13.377
REMARK INTER + INTRA:          -4.946
REMARK INTER:                  -4.786
REMARK INTRA:                  -0.159
REMARK UNBOUND:                -0.171
REMARK SMILES COc1ccc(C=CC(=O)[O-])cc1
REMARK SMILES IDX 6 1 5 2 12 3 4 4 13 5 3 6 7 7 8 8 9 9 10 10 11 11 2 12 1 13
REMARK H PARENT
REMARK Flexibility Score: inf
ROOT
ATOM      1  C   UNL     1       3.420 -23.881   4.392  1.00  0.00    -0.025 A 
ATOM      2  C   UNL     1       3.292 -22.798   3.508  1.00  0.00     0.012 A 
ATOM      3  C   UNL     1       4.682 -24.149   4.957  1.00  0.00     0.012 A 
ATOM      4  C   UNL     1       4.400 -22.014   3.172  1.00  0.00     0.047 A 
ATOM      5  C   UNL     1       5.790 -23.363   4.621  1.00  0.00     0.047 A 
ATOM      6  C   UNL     1       5.661 -22.295   3.728  1.00  0.00     0.118 A 
ENDROOT
BRANCH   1   7
ATOM      7  C   UNL     1       2.211 -24.675   4.723  1.00  0.00     0.010 C 
ATOM      8  C   UNL     1       1.410 -24.411   5.764  1.00  0.00     0.025 C 
BRANCH   8   9
ATOM      9  C   UNL     1       0.226 -25.233   6.063  1.00  0.00     0.064 C 
ATOM     10  O   UNL     1      -0.131 -26.125   5.250  1.00  0.00    -0.545 OA
ATOM     11  O   UNL     1      -0.503 -25.044   7.232  1.00  0.00    -0.545 OA
ENDBRANCH   8   9
ENDBRANCH   1   7
BRANCH   6  12
ATOM     12  O   UNL     1       6.803 -21.539   3.423  1.00  0.00    -0.497 OA
ATOM     13  C   UNL     1       7.342 -20.524   4.264  1.00  0.00     0.278 C 
ENDBRANCH   6  12
TORSDOF 3
ENDMDL
MODEL 6
REMARK VINA RESULT:    -3.989      1.827      6.552
REMARK INTER + INTRA:          -4.859
REMARK INTER:                  -4.687
REMARK INTRA:                  -0.173
REMARK UNBOUND:                -0.171
REMARK SMILES COc1ccc(C=CC(=O)[O-])cc1
REMARK SMILES IDX 6 1 5 2 12 3 4 4 13 5 3 6 7 7 8 8 9 9 10 10 11 11 2 12 1 13
REMARK H PARENT
REMARK Flexibility Score: inf
ROOT
ATOM      1  C   UNL     1       4.727 -17.863  15.156  1.00  0.00    -0.025 A 
ATOM      2  C   UNL     1       5.196 -17.906  13.832  1.00  0.00     0.012 A 
ATOM      3  C   UNL     1       5.240 -18.788  16.087  1.00  0.00     0.012 A 
ATOM      4  C   UNL     1       6.134 -18.865  13.437  1.00  0.00     0.047 A 
ATOM      5  C   UNL     1       6.179 -19.746  15.690  1.00  0.00     0.047 A 
ATOM      6  C   UNL     1       6.631 -19.795  14.367  1.00  0.00     0.118 A 
ENDROOT
BRANCH   1   7
ATOM      7  C   UNL     1       3.739 -16.819  15.526  1.00  0.00     0.010 C 
ATOM      8  C   UNL     1       3.408 -15.794  14.730  1.00  0.00     0.025 C 
BRANCH   8   9
ATOM      9  C   UNL     1       2.431 -14.774  15.143  1.00  0.00     0.064 C 
ATOM     10  O   UNL     1       2.586 -14.174  16.238  1.00  0.00    -0.545 OA
ATOM     11  O   UNL     1       1.340 -14.457  14.341  1.00  0.00    -0.545 OA
ENDBRANCH   8   9
ENDBRANCH   1   7
BRANCH   6  12
ATOM     12  O   UNL     1       7.573 -20.777  14.021  1.00  0.00    -0.497 OA
ATOM     13  C   UNL     1       7.249 -22.130  13.723  1.00  0.00     0.278 C 
ENDBRANCH   6  12
TORSDOF 3
ENDMDL
MODEL 7
REMARK VINA RESULT:    -3.734     11.661     12.958
REMARK INTER + INTRA:          -4.559
REMARK INTER:                  -4.405
REMARK INTRA:                  -0.155
REMARK UNBOUND:                -0.171
REMARK SMILES COc1ccc(C=CC(=O)[O-])cc1
REMARK SMILES IDX 6 1 5 2 12 3 4 4 13 5 3 6 7 7 8 8 9 9 10 10 11 11 2 12 1 13
REMARK H PARENT
REMARK Flexibility Score: inf
ROOT
ATOM      1  C   UNL     1      -5.741  -9.660  17.059  1.00  0.00    -0.025 A 
ATOM      2  C   UNL     1      -6.429  -9.179  18.186  1.00  0.00     0.012 A 
ATOM      3  C   UNL     1      -5.376 -11.020  17.018  1.00  0.00     0.012 A 
ATOM      4  C   UNL     1      -6.723 -10.025  19.259  1.00  0.00     0.047 A 
ATOM      5  C   UNL     1      -5.672 -11.865  18.093  1.00  0.00     0.047 A 
ATOM      6  C   UNL     1      -6.343 -11.378  19.219  1.00  0.00     0.118 A 
ENDROOT
BRANCH   1   7
ATOM      7  C   UNL     1      -5.463  -8.723  15.943  1.00  0.00     0.010 C 
ATOM      8  C   UNL     1      -4.231  -8.443  15.497  1.00  0.00     0.025 C 
BRANCH   8   9
ATOM      9  C   UNL     1      -4.000  -7.497  14.394  1.00  0.00     0.064 C 
ATOM     10  O   UNL     1      -2.824  -7.154  14.106  1.00  0.00    -0.545 OA
ATOM     11  O   UNL     1      -5.061  -6.976  13.660  1.00  0.00    -0.545 OA
ENDBRANCH   8   9
ENDBRANCH   1   7
BRANCH   6  12
ATOM     12  O   UNL     1      -6.615 -12.268  20.270  1.00  0.00    -0.497 OA
ATOM     13  C   UNL     1      -7.557 -13.332  20.197  1.00  0.00     0.278 C 
ENDBRANCH   6  12
TORSDOF 3
ENDMDL
MODEL 8
REMARK VINA RESULT:    -3.706      2.913      5.749
REMARK INTER + INTRA:          -4.527
REMARK INTER:                  -4.357
REMARK INTRA:                  -0.170
REMARK UNBOUND:                -0.171
REMARK SMILES COc1ccc(C=CC(=O)[O-])cc1
REMARK SMILES IDX 6 1 5 2 12 3 4 4 13 5 3 6 7 7 8 8 9 9 10 10 11 11 2 12 1 13
REMARK H PARENT
REMARK Flexibility Score: inf
ROOT
ATOM      1  C   UNL     1       4.325 -14.487  15.155  1.00  0.00    -0.025 A 
ATOM      2  C   UNL     1       4.829 -14.471  16.466  1.00  0.00     0.012 A 
ATOM      3  C   UNL     1       3.687 -15.654  14.689  1.00  0.00     0.012 A 
ATOM      4  C   UNL     1       4.725 -15.598  17.286  1.00  0.00     0.047 A 
ATOM      5  C   UNL     1       3.584 -16.781  15.511  1.00  0.00     0.047 A 
ATOM      6  C   UNL     1       4.102 -16.765  16.810  1.00  0.00     0.118 A 
ENDROOT
BRANCH   1   7
ATOM      7  C   UNL     1       4.451 -13.260  14.330  1.00  0.00     0.010 C 
ATOM      8  C   UNL     1       5.564 -12.516  14.270  1.00  0.00     0.025 C 
BRANCH   8   9
ATOM      9  C   UNL     1       5.641 -11.298  13.447  1.00  0.00     0.064 C 
ATOM     10  O   UNL     1       6.565 -11.176  12.603  1.00  0.00    -0.545 OA
ATOM     11  O   UNL     1       4.704 -10.279  13.584  1.00  0.00    -0.545 OA
ENDBRANCH   8   9
ENDBRANCH   1   7
BRANCH   6  12
ATOM     12  O   UNL     1       3.972 -17.923  17.593  1.00  0.00    -0.497 OA
ATOM     13  C   UNL     1       4.696 -18.165  18.794  1.00  0.00     0.278 C 
ENDBRANCH   6  12
TORSDOF 3
ENDMDL
MODEL 9
REMARK VINA RESULT:    -3.697     11.838     12.660
REMARK INTER + INTRA:          -4.516
REMARK INTER:                  -4.357
REMARK INTRA:                  -0.160
REMARK UNBOUND:                -0.171
REMARK SMILES COc1ccc(C=CC(=O)[O-])cc1
REMARK SMILES IDX 6 1 5 2 12 3 4 4 13 5 3 6 7 7 8 8 9 9 10 10 11 11 2 12 1 13
REMARK H PARENT
REMARK Flexibility Score: inf
ROOT
ATOM      1  C   UNL     1      -5.796  -9.236  17.000  1.00  0.00    -0.025 A 
ATOM      2  C   UNL     1      -6.811  -8.572  16.292  1.00  0.00     0.012 A 
ATOM      3  C   UNL     1      -4.465  -9.111  16.555  1.00  0.00     0.012 A 
ATOM      4  C   UNL     1      -6.512  -7.822  15.150  1.00  0.00     0.047 A 
ATOM      5  C   UNL     1      -4.169  -8.360  15.413  1.00  0.00     0.047 A 
ATOM      6  C   UNL     1      -5.184  -7.713  14.701  1.00  0.00     0.118 A 
ENDROOT
BRANCH   1   7
ATOM      7  C   UNL     1      -6.165 -10.010  18.212  1.00  0.00     0.010 C 
ATOM      8  C   UNL     1      -5.589 -11.169  18.557  1.00  0.00     0.025 C 
BRANCH   8   9
ATOM      9  C   UNL     1      -5.996 -11.910  19.762  1.00  0.00     0.064 C 
ATOM     10  O   UNL     1      -7.217 -12.124  19.977  1.00  0.00    -0.545 OA
ATOM     11  O   UNL     1      -5.051 -12.384  20.667  1.00  0.00    -0.545 OA
ENDBRANCH   8   9
ENDBRANCH   1   7
BRANCH   6  12
ATOM     12  O   UNL     1      -4.832  -6.973  13.562  1.00  0.00    -0.497 OA
ATOM     13  C   UNL     1      -3.861  -5.933  13.548  1.00  0.00     0.278 C 
ENDBRANCH   6  12
TORSDOF 3
ENDMDL
