MODEL 1
REMARK VINA RESULT:    -3.486      0.000      0.000
REMARK INTER + INTRA:         -10.311
REMARK INTER:                  -7.562
REMARK INTRA:                  -2.749
REMARK UNBOUND:                -2.749
REMARK SMILES CCCCCCCCCCCCCCCCCCCCCC(=O)[O-]
REMARK SMILES IDX 12 1 11 2 10 3 9 4 8 5 7 6 6 7 5 8 4 9 3 10 2 11 1 12 13 13
REMARK SMILES IDX 14 14 15 15 16 16 17 17 18 18 19 19 20 20 21 21 22 22 23 23
REMARK SMILES IDX 24 24
REMARK H PARENT
REMARK Flexibility Score: inf
ROOT
ATOM      1  C   UNL     1      61.173  30.276  61.599  1.00  0.00     0.000 C 
ENDROOT
BRANCH   1   2
ATOM      2  C   UNL     1      61.122  31.703  61.019  1.00  0.00     0.000 C 
BRANCH   2   3
ATOM      3  C   UNL     1      60.617  31.802  59.565  1.00  0.00     0.000 C 
BRANCH   3   4
ATOM      4  C   UNL     1      60.532  30.458  58.819  1.00  0.00    -0.000 C 
BRANCH   4   5
ATOM      5  C   UNL     1      61.719  30.234  57.867  1.00  0.00    -0.000 C 
BRANCH   5   6
ATOM      6  C   UNL     1      62.654  31.451  57.792  1.00  0.00    -0.000 C 
BRANCH   6   7
ATOM      7  C   UNL     1      64.051  31.159  58.368  1.00  0.00    -0.000 C 
BRANCH   7   8
ATOM      8  C   UNL     1      64.738  32.426  58.921  1.00  0.00    -0.000 C 
BRANCH   8   9
ATOM      9  C   UNL     1      64.448  32.690  60.412  1.00  0.00    -0.000 C 
BRANCH   9  10
ATOM     10  C   UNL     1      63.719  34.010  60.709  1.00  0.00    -0.000 C 
BRANCH  10  11
ATOM     11  C   UNL     1      64.560  34.977  61.555  1.00  0.00    -0.003 C 
ATOM     12  C   UNL     1      63.939  36.371  61.574  1.00  0.00     0.004 C 
ENDBRANCH  10  11
ENDBRANCH   9  10
ENDBRANCH   8   9
ENDBRANCH   7   8
ENDBRANCH   6   7
ENDBRANCH   5   6
ENDBRANCH   4   5
ENDBRANCH   3   4
ENDBRANCH   2   3
ENDBRANCH   1   2
BRANCH   1  13
ATOM     13  C   UNL     1      62.587  29.682  61.736  1.00  0.00     0.000 C 
BRANCH  13  14
ATOM     14  C   UNL     1      62.688  28.254  61.181  1.00  0.00     0.000 C 
BRANCH  14  15
ATOM     15  C   UNL     1      64.121  27.935  60.734  1.00  0.00     0.000 C 
BRANCH  15  16
ATOM     16  C   UNL     1      65.114  29.066  61.063  1.00  0.00     0.000 C 
BRANCH  16  17
ATOM     17  C   UNL     1      66.447  29.014  60.289  1.00  0.00     0.000 C 
BRANCH  17  18
ATOM     18  C   UNL     1      67.534  28.119  60.913  1.00  0.00     0.000 C 
BRANCH  18  19
ATOM     19  C   UNL     1      68.612  28.924  61.659  1.00  0.00     0.000 C 
BRANCH  19  20
ATOM     20  C   UNL     1      69.982  28.869  60.963  1.00  0.00     0.006 C 
BRANCH  20  21
ATOM     21  C   UNL     1      70.159  29.965  59.904  1.00  0.00     0.053 C 
BRANCH  21  22
ATOM     22  C   UNL     1      71.483  30.647  60.066  1.00  0.00     0.041 C 
ATOM     23  O   UNL     1      71.604  31.617  60.859  1.00  0.00    -0.550 OA
ATOM     24  O   UNL     1      72.589  30.202  59.349  1.00  0.00    -0.550 OA
ENDBRANCH  21  22
ENDBRANCH  20  21
ENDBRANCH  19  20
ENDBRANCH  18  19
ENDBRANCH  17  18
ENDBRANCH  16  17
ENDBRANCH  15  16
ENDBRANCH  14  15
ENDBRANCH  13  14
ENDBRANCH   1  13
TORSDOF 20
ENDMDL
MODEL 2
REMARK VINA RESULT:    -3.478      1.638      3.332
REMARK INTER + INTRA:         -10.293
REMARK INTER:                  -8.358
REMARK INTRA:                  -1.935
REMARK UNBOUND:                -2.749
REMARK SMILES CCCCCCCCCCCCCCCCCCCCCC(=O)[O-]
REMARK SMILES IDX 12 1 11 2 10 3 9 4 8 5 7 6 6 7 5 8 4 9 3 10 2 11 1 12 13 13
REMARK SMILES IDX 14 14 15 15 16 16 17 17 18 18 19 19 20 20 21 21 22 22 23 23
REMARK SMILES IDX 24 24
REMARK H PARENT
REMARK Flexibility Score: inf
ROOT
ATOM      1  C   UNL     1      64.994  29.497  59.360  1.00  0.00     0.000 C 
ENDROOT
BRANCH   1   2
ATOM      2  C   UNL     1      64.884  30.646  60.382  1.00  0.00     0.000 C 
BRANCH   2   3
ATOM      3  C   UNL     1      63.796  30.463  61.459  1.00  0.00     0.000 C 
BRANCH   3   4
ATOM      4  C   UNL     1      62.437  29.973  60.927  1.00  0.00    -0.000 C 
BRANCH   4   5
ATOM      5  C   UNL     1      61.318  31.010  61.118  1.00  0.00    -0.000 C 
BRANCH   5   6
ATOM      6  C   UNL     1      60.825  31.601  59.788  1.00  0.00    -0.000 C 
BRANCH   6   7
ATOM      7  C   UNL     1      61.579  32.884  59.396  1.00  0.00    -0.000 C 
BRANCH   7   8
ATOM      8  C   UNL     1      62.152  33.629  60.621  1.00  0.00    -0.000 C 
BRANCH   8   9
ATOM      9  C   UNL     1      61.808  35.131  60.652  1.00  0.00    -0.000 C 
BRANCH   9  10
ATOM     10  C   UNL     1      62.955  36.052  61.099  1.00  0.00    -0.000 C 
BRANCH  10  11
ATOM     11  C   UNL     1      64.222  35.279  61.490  1.00  0.00    -0.003 C 
ATOM     12  C   UNL     1      65.384  35.628  60.566  1.00  0.00     0.004 C 
ENDBRANCH  10  11
ENDBRANCH   9  10
ENDBRANCH   8   9
ENDBRANCH   7   8
ENDBRANCH   6   7
ENDBRANCH   5   6
ENDBRANCH   4   5
ENDBRANCH   3   4
ENDBRANCH   2   3
ENDBRANCH   1   2
BRANCH   1  13
ATOM     13  C   UNL     1      66.238  28.604  59.521  1.00  0.00     0.000 C 
BRANCH  13  14
ATOM     14  C   UNL     1      66.661  28.432  60.987  1.00  0.00     0.000 C 
BRANCH  14  15
ATOM     15  C   UNL     1      68.186  28.528  61.137  1.00  0.00     0.000 C 
BRANCH  15  16
ATOM     16  C   UNL     1      68.853  29.279  59.970  1.00  0.00     0.000 C 
BRANCH  16  17
ATOM     17  C   UNL     1      70.304  28.854  59.661  1.00  0.00     0.000 C 
BRANCH  17  18
ATOM     18  C   UNL     1      71.266  28.878  60.863  1.00  0.00     0.000 C 
BRANCH  18  19
ATOM     19  C   UNL     1      71.349  30.261  61.532  1.00  0.00     0.000 C 
BRANCH  19  20
ATOM     20  C   UNL     1      72.301  31.219  60.799  1.00  0.00     0.006 C 
BRANCH  20  21
ATOM     21  C   UNL     1      71.620  32.522  60.362  1.00  0.00     0.053 C 
BRANCH  21  22
ATOM     22  C   UNL     1      71.271  32.473  58.906  1.00  0.00     0.041 C 
ATOM     23  O   UNL     1      70.411  33.263  58.433  1.00  0.00    -0.550 OA
ATOM     24  O   UNL     1      71.904  31.562  58.068  1.00  0.00    -0.550 OA
ENDBRANCH  21  22
ENDBRANCH  20  21
ENDBRANCH  19  20
ENDBRANCH  18  19
ENDBRANCH  17  18
ENDBRANCH  16  17
ENDBRANCH  15  16
ENDBRANCH  14  15
ENDBRANCH  13  14
ENDBRANCH   1  13
TORSDOF 20
ENDMDL
MODEL 3
REMARK VINA RESULT:    -3.469     12.882     15.306
REMARK INTER + INTRA:         -10.275
REMARK INTER:                  -8.263
REMARK INTRA:                  -2.012
REMARK UNBOUND:                -2.749
REMARK SMILES CCCCCCCCCCCCCCCCCCCCCC(=O)[O-]
REMARK SMILES IDX 12 1 11 2 10 3 9 4 8 5 7 6 6 7 5 8 4 9 3 10 2 11 1 12 13 13
REMARK SMILES IDX 14 14 15 15 16 16 17 17 18 18 19 19 20 20 21 21 22 22 23 23
REMARK SMILES IDX 24 24
REMARK H PARENT
REMARK Flexibility Score: inf
ROOT
ATOM      1  C   UNL     1      61.016  23.791  49.800  1.00  0.00     0.000 C 
ENDROOT
BRANCH   1   2
ATOM      2  C   UNL     1      59.848  24.127  50.748  1.00  0.00     0.000 C 
BRANCH   2   3
ATOM      3  C   UNL     1      59.421  25.609  50.762  1.00  0.00     0.000 C 
BRANCH   3   4
ATOM      4  C   UNL     1      59.383  26.283  49.379  1.00  0.00    -0.000 C 
BRANCH   4   5
ATOM      5  C   UNL     1      60.097  27.645  49.365  1.00  0.00    -0.000 C 
BRANCH   5   6
ATOM      6  C   UNL     1      59.124  28.820  49.188  1.00  0.00    -0.000 C 
BRANCH   6   7
ATOM      7  C   UNL     1      58.427  29.214  50.502  1.00  0.00    -0.000 C 
BRANCH   7   8
ATOM      8  C   UNL     1      56.917  28.892  50.490  1.00  0.00    -0.000 C 
BRANCH   8   9
ATOM      9  C   UNL     1      56.512  27.777  51.474  1.00  0.00    -0.000 C 
BRANCH   9  10
ATOM     10  C   UNL     1      55.874  26.538  50.826  1.00  0.00    -0.000 C 
BRANCH  10  11
ATOM     11  C   UNL     1      54.861  26.894  49.728  1.00  0.00    -0.003 C 
ATOM     12  C   UNL     1      54.268  25.637  49.100  1.00  0.00     0.004 C 
ENDBRANCH  10  11
ENDBRANCH   9  10
ENDBRANCH   8   9
ENDBRANCH   7   8
ENDBRANCH   6   7
ENDBRANCH   5   6
ENDBRANCH   4   5
ENDBRANCH   3   4
ENDBRANCH   2   3
ENDBRANCH   1   2
BRANCH   1  13
ATOM     13  C   UNL     1      61.696  22.435  50.063  1.00  0.00     0.000 C 
BRANCH  13  14
ATOM     14  C   UNL     1      60.802  21.465  50.851  1.00  0.00     0.000 C 
BRANCH  14  15
ATOM     15  C   UNL     1      60.223  20.379  49.935  1.00  0.00     0.000 C 
BRANCH  15  16
ATOM     16  C   UNL     1      60.366  18.964  50.523  1.00  0.00     0.000 C 
BRANCH  16  17
ATOM     17  C   UNL     1      59.641  17.851  49.738  1.00  0.00     0.000 C 
BRANCH  17  18
ATOM     18  C   UNL     1      58.352  17.319  50.392  1.00  0.00     0.000 C 
BRANCH  18  19
ATOM     19  C   UNL     1      57.126  18.201  50.098  1.00  0.00     0.000 C 
BRANCH  19  20
ATOM     20  C   UNL     1      56.363  18.600  51.370  1.00  0.00     0.006 C 
BRANCH  20  21
ATOM     21  C   UNL     1      57.252  18.621  52.620  1.00  0.00     0.053 C 
BRANCH  21  22
ATOM     22  C   UNL     1      57.258  19.984  53.241  1.00  0.00     0.041 C 
ATOM     23  O   UNL     1      57.903  20.923  52.703  1.00  0.00    -0.550 OA
ATOM     24  O   UNL     1      56.541  20.222  54.409  1.00  0.00    -0.550 OA
ENDBRANCH  21  22
ENDBRANCH  20  21
ENDBRANCH  19  20
ENDBRANCH  18  19
ENDBRANCH  17  18
ENDBRANCH  16  17
ENDBRANCH  15  16
ENDBRANCH  14  15
ENDBRANCH  13  14
ENDBRANCH   1  13
TORSDOF 20
ENDMDL
MODEL 4
REMARK VINA RESULT:    -3.454      9.813     12.654
REMARK INTER + INTRA:         -10.242
REMARK INTER:                  -6.157
REMARK INTRA:                  -4.085
REMARK UNBOUND:                -2.749
REMARK SMILES CCCCCCCCCCCCCCCCCCCCCC(=O)[O-]
REMARK SMILES IDX 12 1 11 2 10 3 9 4 8 5 7 6 6 7 5 8 4 9 3 10 2 11 1 12 13 13
REMARK SMILES IDX 14 14 15 15 16 16 17 17 18 18 19 19 20 20 21 21 22 22 23 23
REMARK SMILES IDX 24 24
REMARK H PARENT
REMARK Flexibility Score: inf
ROOT
ATOM      1  C   UNL     1      59.554  26.031  52.379  1.00  0.00     0.000 C 
ENDROOT
BRANCH   1   2
ATOM      2  C   UNL     1      58.159  25.525  52.797  1.00  0.00     0.000 C 
BRANCH   2   3
ATOM      3  C   UNL     1      56.978  26.396  52.325  1.00  0.00     0.000 C 
BRANCH   3   4
ATOM      4  C   UNL     1      56.041  25.717  51.310  1.00  0.00    -0.000 C 
BRANCH   4   5
ATOM      5  C   UNL     1      55.841  26.557  50.036  1.00  0.00    -0.000 C 
BRANCH   5   6
ATOM      6  C   UNL     1      54.362  26.686  49.641  1.00  0.00    -0.000 C 
BRANCH   6   7
ATOM      7  C   UNL     1      53.818  28.111  49.847  1.00  0.00    -0.000 C 
BRANCH   7   8
ATOM      8  C   UNL     1      54.856  29.051  50.497  1.00  0.00    -0.000 C 
BRANCH   8   9
ATOM      9  C   UNL     1      54.395  29.653  51.839  1.00  0.00    -0.000 C 
BRANCH   9  10
ATOM     10  C   UNL     1      53.320  28.840  52.581  1.00  0.00    -0.000 C 
BRANCH  10  11
ATOM     11  C   UNL     1      53.901  27.971  53.705  1.00  0.00    -0.003 C 
ATOM     12  C   UNL     1      53.351  26.550  53.639  1.00  0.00     0.004 C 
ENDBRANCH  10  11
ENDBRANCH   9  10
ENDBRANCH   8   9
ENDBRANCH   7   8
ENDBRANCH   6   7
ENDBRANCH   5   6
ENDBRANCH   4   5
ENDBRANCH   3   4
ENDBRANCH   2   3
ENDBRANCH   1   2
BRANCH   1  13
ATOM     13  C   UNL     1      60.211  25.245  51.229  1.00  0.00     0.000 C 
BRANCH  13  14
ATOM     14  C   UNL     1      60.659  26.149  50.071  1.00  0.00     0.000 C 
BRANCH  14  15
ATOM     15  C   UNL     1      59.452  26.781  49.365  1.00  0.00     0.000 C 
BRANCH  15  16
ATOM     16  C   UNL     1      59.624  28.293  49.127  1.00  0.00     0.000 C 
BRANCH  16  17
ATOM     17  C   UNL     1      58.489  29.178  49.682  1.00  0.00     0.000 C 
BRANCH  17  18
ATOM     18  C   UNL     1      58.502  29.384  51.208  1.00  0.00     0.000 C 
BRANCH  18  19
ATOM     19  C   UNL     1      59.684  30.246  51.682  1.00  0.00     0.000 C 
BRANCH  19  20
ATOM     20  C   UNL     1      60.689  29.458  52.536  1.00  0.00     0.006 C 
BRANCH  20  21
ATOM     21  C   UNL     1      61.997  29.154  51.793  1.00  0.00     0.053 C 
BRANCH  21  22
ATOM     22  C   UNL     1      62.598  30.412  51.246  1.00  0.00     0.041 C 
ATOM     23  O   UNL     1      63.023  31.304  52.027  1.00  0.00    -0.550 OA
ATOM     24  O   UNL     1      62.701  30.595  49.871  1.00  0.00    -0.550 OA
ENDBRANCH  21  22
ENDBRANCH  20  21
ENDBRANCH  19  20
ENDBRANCH  18  19
ENDBRANCH  17  18
ENDBRANCH  16  17
ENDBRANCH  15  16
ENDBRANCH  14  15
ENDBRANCH  13  14
ENDBRANCH   1  13
TORSDOF 20
ENDMDL
MODEL 5
REMARK VINA RESULT:    -3.415      4.320      7.013
REMARK INTER + INTRA:         -10.158
REMARK INTER:                  -6.058
REMARK INTRA:                  -4.100
REMARK UNBOUND:                -2.749
REMARK SMILES CCCCCCCCCCCCCCCCCCCCCC(=O)[O-]
REMARK SMILES IDX 12 1 11 2 10 3 9 4 8 5 7 6 6 7 5 8 4 9 3 10 2 11 1 12 13 13
REMARK SMILES IDX 14 14 15 15 16 16 17 17 18 18 19 19 20 20 21 21 22 22 23 23
REMARK SMILES IDX 24 24
REMARK H PARENT
REMARK Flexibility Score: inf
ROOT
ATOM      1  C   UNL     1      64.605  34.296  57.060  1.00  0.00     0.000 C 
ENDROOT
BRANCH   1   2
ATOM      2  C   UNL     1      64.486  35.753  57.549  1.00  0.00     0.000 C 
BRANCH   2   3
ATOM      3  C   UNL     1      65.590  36.209  58.524  1.00  0.00     0.000 C 
BRANCH   3   4
ATOM      4  C   UNL     1      65.080  36.705  59.889  1.00  0.00    -0.000 C 
BRANCH   4   5
ATOM      5  C   UNL     1      65.336  35.693  61.019  1.00  0.00    -0.000 C 
BRANCH   5   6
ATOM      6  C   UNL     1      64.061  34.947  61.443  1.00  0.00    -0.000 C 
BRANCH   6   7
ATOM      7  C   UNL     1      62.777  35.674  61.006  1.00  0.00    -0.000 C 
BRANCH   7   8
ATOM      8  C   UNL     1      61.747  34.719  60.365  1.00  0.00    -0.000 C 
BRANCH   8   9
ATOM      9  C   UNL     1      60.790  35.411  59.374  1.00  0.00    -0.000 C 
BRANCH   9  10
ATOM     10  C   UNL     1      60.986  35.018  57.901  1.00  0.00    -0.000 C 
BRANCH  10  11
ATOM     11  C   UNL     1      60.732  33.526  57.643  1.00  0.00    -0.003 C 
ATOM     12  C   UNL     1      59.242  33.204  57.713  1.00  0.00     0.004 C 
ENDBRANCH  10  11
ENDBRANCH   9  10
ENDBRANCH   8   9
ENDBRANCH   7   8
ENDBRANCH   6   7
ENDBRANCH   5   6
ENDBRANCH   4   5
ENDBRANCH   3   4
ENDBRANCH   2   3
ENDBRANCH   1   2
BRANCH   1  13
ATOM     13  C   UNL     1      65.162  33.306  58.099  1.00  0.00     0.000 C 
BRANCH  13  14
ATOM     14  C   UNL     1      64.069  32.435  58.737  1.00  0.00     0.000 C 
BRANCH  14  15
ATOM     15  C   UNL     1      64.681  31.348  59.630  1.00  0.00     0.000 C 
BRANCH  15  16
ATOM     16  C   UNL     1      64.111  31.360  61.061  1.00  0.00     0.000 C 
BRANCH  16  17
ATOM     17  C   UNL     1      63.284  30.116  61.447  1.00  0.00     0.000 C 
BRANCH  17  18
ATOM     18  C   UNL     1      61.822  30.396  61.842  1.00  0.00     0.000 C 
BRANCH  18  19
ATOM     19  C   UNL     1      61.056  31.187  60.768  1.00  0.00     0.000 C 
BRANCH  19  20
ATOM     20  C   UNL     1      60.330  30.277  59.765  1.00  0.00     0.006 C 
BRANCH  20  21
ATOM     21  C   UNL     1      61.199  29.906  58.555  1.00  0.00     0.053 C 
BRANCH  21  22
ATOM     22  C   UNL     1      61.337  28.419  58.441  1.00  0.00     0.041 C 
ATOM     23  O   UNL     1      61.261  27.860  57.314  1.00  0.00    -0.550 OA
ATOM     24  O   UNL     1      61.563  27.650  59.577  1.00  0.00    -0.550 OA
ENDBRANCH  21  22
ENDBRANCH  20  21
ENDBRANCH  19  20
ENDBRANCH  18  19
ENDBRANCH  17  18
ENDBRANCH  16  17
ENDBRANCH  15  16
ENDBRANCH  14  15
ENDBRANCH  13  14
ENDBRANCH   1  13
TORSDOF 20
ENDMDL
MODEL 6
REMARK VINA RESULT:    -3.413      4.720      8.156
REMARK INTER + INTRA:         -10.153
REMARK INTER:                  -6.194
REMARK INTRA:                  -3.960
REMARK UNBOUND:                -2.749
REMARK SMILES CCCCCCCCCCCCCCCCCCCCCC(=O)[O-]
REMARK SMILES IDX 12 1 11 2 10 3 9 4 8 5 7 6 6 7 5 8 4 9 3 10 2 11 1 12 13 13
REMARK SMILES IDX 14 14 15 15 16 16 17 17 18 18 19 19 20 20 21 21 22 22 23 23
REMARK SMILES IDX 24 24
REMARK H PARENT
REMARK Flexibility Score: inf
ROOT
ATOM      1  C   UNL     1      64.210  31.949  57.250  1.00  0.00     0.000 C 
ENDROOT
BRANCH   1   2
ATOM      2  C   UNL     1      62.904  31.196  56.928  1.00  0.00     0.000 C 
BRANCH   2   3
ATOM      3  C   UNL     1      62.351  30.323  58.073  1.00  0.00     0.000 C 
BRANCH   3   4
ATOM      4  C   UNL     1      60.828  30.106  58.041  1.00  0.00    -0.000 C 
BRANCH   4   5
ATOM      5  C   UNL     1      60.097  30.876  59.153  1.00  0.00    -0.000 C 
BRANCH   5   6
ATOM      6  C   UNL     1      61.063  31.612  60.094  1.00  0.00    -0.000 C 
BRANCH   6   7
ATOM      7  C   UNL     1      60.997  31.085  61.539  1.00  0.00    -0.000 C 
BRANCH   7   8
ATOM      8  C   UNL     1      61.851  29.815  61.743  1.00  0.00    -0.000 C 
BRANCH   8   9
ATOM      9  C   UNL     1      63.369  30.062  61.635  1.00  0.00    -0.000 C 
BRANCH   9  10
ATOM     10  C   UNL     1      64.169  28.919  60.989  1.00  0.00    -0.000 C 
BRANCH  10  11
ATOM     11  C   UNL     1      65.534  29.375  60.456  1.00  0.00    -0.003 C 
ATOM     12  C   UNL     1      66.660  28.518  61.026  1.00  0.00     0.004 C 
ENDBRANCH  10  11
ENDBRANCH   9  10
ENDBRANCH   8   9
ENDBRANCH   7   8
ENDBRANCH   6   7
ENDBRANCH   5   6
ENDBRANCH   4   5
ENDBRANCH   3   4
ENDBRANCH   2   3
ENDBRANCH   1   2
BRANCH   1  13
ATOM     13  C   UNL     1      64.060  33.109  58.250  1.00  0.00     0.000 C 
BRANCH  13  14
ATOM     14  C   UNL     1      64.625  32.775  59.639  1.00  0.00     0.000 C 
BRANCH  14  15
ATOM     15  C   UNL     1      64.004  33.672  60.718  1.00  0.00     0.000 C 
BRANCH  15  16
ATOM     16  C   UNL     1      63.337  34.932  60.136  1.00  0.00     0.000 C 
BRANCH  16  17
ATOM     17  C   UNL     1      61.986  35.314  60.775  1.00  0.00     0.000 C 
BRANCH  17  18
ATOM     18  C   UNL     1      60.791  35.363  59.806  1.00  0.00     0.000 C 
BRANCH  18  19
ATOM     19  C   UNL     1      61.221  35.517  58.337  1.00  0.00     0.000 C 
BRANCH  19  20
ATOM     20  C   UNL     1      60.607  34.445  57.423  1.00  0.00     0.006 C 
BRANCH  20  21
ATOM     21  C   UNL     1      59.145  34.131  57.768  1.00  0.00     0.053 C 
BRANCH  21  22
ATOM     22  C   UNL     1      58.219  35.034  57.012  1.00  0.00     0.041 C 
ATOM     23  O   UNL     1      57.255  35.591  57.602  1.00  0.00    -0.550 OA
ATOM     24  O   UNL     1      58.427  35.271  55.657  1.00  0.00    -0.550 OA
ENDBRANCH  21  22
ENDBRANCH  20  21
ENDBRANCH  19  20
ENDBRANCH  18  19
ENDBRANCH  17  18
ENDBRANCH  16  17
ENDBRANCH  15  16
ENDBRANCH  14  15
ENDBRANCH  13  14
ENDBRANCH   1  13
TORSDOF 20
ENDMDL
MODEL 7
REMARK VINA RESULT:    -3.394      3.164      5.583
REMARK INTER + INTRA:         -10.111
REMARK INTER:                  -6.428
REMARK INTRA:                  -3.683
REMARK UNBOUND:                -2.749
REMARK SMILES CCCCCCCCCCCCCCCCCCCCCC(=O)[O-]
REMARK SMILES IDX 12 1 11 2 10 3 9 4 8 5 7 6 6 7 5 8 4 9 3 10 2 11 1 12 13 13
REMARK SMILES IDX 14 14 15 15 16 16 17 17 18 18 19 19 20 20 21 21 22 22 23 23
REMARK SMILES IDX 24 24
REMARK H PARENT
REMARK Flexibility Score: inf
ROOT
ATOM      1  C   UNL     1      63.029  32.456  58.021  1.00  0.00     0.000 C 
ENDROOT
BRANCH   1   2
ATOM      2  C   UNL     1      63.528  32.836  59.429  1.00  0.00     0.000 C 
BRANCH   2   3
ATOM      3  C   UNL     1      62.490  33.543  60.324  1.00  0.00     0.000 C 
BRANCH   3   4
ATOM      4  C   UNL     1      62.003  34.904  59.795  1.00  0.00    -0.000 C 
BRANCH   4   5
ATOM      5  C   UNL     1      61.876  35.960  60.907  1.00  0.00    -0.000 C 
BRANCH   5   6
ATOM      6  C   UNL     1      63.074  36.921  60.948  1.00  0.00    -0.000 C 
BRANCH   6   7
ATOM      7  C   UNL     1      64.237  36.380  61.798  1.00  0.00    -0.000 C 
BRANCH   7   8
ATOM      8  C   UNL     1      65.420  35.888  60.935  1.00  0.00    -0.000 C 
BRANCH   8   9
ATOM      9  C   UNL     1      65.465  36.514  59.527  1.00  0.00    -0.000 C 
BRANCH   9  10
ATOM     10  C   UNL     1      65.795  35.534  58.390  1.00  0.00    -0.000 C 
BRANCH  10  11
ATOM     11  C   UNL     1      64.789  35.605  57.232  1.00  0.00    -0.003 C 
ATOM     12  C   UNL     1      63.953  36.878  57.310  1.00  0.00     0.004 C 
ENDBRANCH  10  11
ENDBRANCH   9  10
ENDBRANCH   8   9
ENDBRANCH   7   8
ENDBRANCH   6   7
ENDBRANCH   5   6
ENDBRANCH   4   5
ENDBRANCH   3   4
ENDBRANCH   2   3
ENDBRANCH   1   2
BRANCH   1  13
ATOM     13  C   UNL     1      62.294  31.106  57.935  1.00  0.00     0.000 C 
BRANCH  13  14
ATOM     14  C   UNL     1      60.789  31.263  57.671  1.00  0.00     0.000 C 
BRANCH  14  15
ATOM     15  C   UNL     1      59.979  31.057  58.957  1.00  0.00     0.000 C 
BRANCH  15  16
ATOM     16  C   UNL     1      60.006  29.599  59.453  1.00  0.00     0.000 C 
BRANCH  16  17
ATOM     17  C   UNL     1      60.179  29.428  60.977  1.00  0.00     0.000 C 
BRANCH  17  18
ATOM     18  C   UNL     1      61.091  30.467  61.655  1.00  0.00     0.000 C 
BRANCH  18  19
ATOM     19  C   UNL     1      62.582  30.100  61.566  1.00  0.00     0.000 C 
BRANCH  19  20
ATOM     20  C   UNL     1      62.812  28.592  61.382  1.00  0.00     0.006 C 
BRANCH  20  21
ATOM     21  C   UNL     1      63.624  28.258  60.123  1.00  0.00     0.053 C 
BRANCH  21  22
ATOM     22  C   UNL     1      65.036  27.913  60.482  1.00  0.00     0.041 C 
ATOM     23  O   UNL     1      65.496  26.770  60.218  1.00  0.00    -0.550 OA
ATOM     24  O   UNL     1      65.851  28.857  61.098  1.00  0.00    -0.550 OA
ENDBRANCH  21  22
ENDBRANCH  20  21
ENDBRANCH  19  20
ENDBRANCH  18  19
ENDBRANCH  17  18
ENDBRANCH  16  17
ENDBRANCH  15  16
ENDBRANCH  14  15
ENDBRANCH  13  14
ENDBRANCH   1  13
TORSDOF 20
ENDMDL
MODEL 8
REMARK VINA RESULT:    -3.369      4.952      8.686
REMARK INTER + INTRA:         -10.056
REMARK INTER:                  -6.734
REMARK INTRA:                  -3.322
REMARK UNBOUND:                -2.749
REMARK SMILES CCCCCCCCCCCCCCCCCCCCCC(=O)[O-]
REMARK SMILES IDX 12 1 11 2 10 3 9 4 8 5 7 6 6 7 5 8 4 9 3 10 2 11 1 12 13 13
REMARK SMILES IDX 14 14 15 15 16 16 17 17 18 18 19 19 20 20 21 21 22 22 23 23
REMARK SMILES IDX 24 24
REMARK H PARENT
REMARK Flexibility Score: inf
ROOT
ATOM      1  C   UNL     1      63.250  33.133  59.295  1.00  0.00     0.000 C 
ENDROOT
BRANCH   1   2
ATOM      2  C   UNL     1      62.126  32.409  58.527  1.00  0.00     0.000 C 
BRANCH   2   3
ATOM      3  C   UNL     1      60.821  32.199  59.320  1.00  0.00     0.000 C 
BRANCH   3   4
ATOM      4  C   UNL     1      60.580  30.755  59.796  1.00  0.00    -0.000 C 
BRANCH   4   5
ATOM      5  C   UNL     1      60.685  30.611  61.323  1.00  0.00    -0.000 C 
BRANCH   5   6
ATOM      6  C   UNL     1      62.087  30.181  61.781  1.00  0.00    -0.000 C 
BRANCH   6   7
ATOM      7  C   UNL     1      62.309  28.662  61.658  1.00  0.00    -0.000 C 
BRANCH   7   8
ATOM      8  C   UNL     1      63.644  28.315  60.964  1.00  0.00    -0.000 C 
BRANCH   8   9
ATOM      9  C   UNL     1      64.600  29.515  60.820  1.00  0.00    -0.000 C 
BRANCH   9  10
ATOM     10  C   UNL     1      64.968  29.884  59.374  1.00  0.00    -0.000 C 
BRANCH  10  11
ATOM     11  C   UNL     1      63.958  29.351  58.348  1.00  0.00    -0.003 C 
ATOM     12  C   UNL     1      64.387  29.697  56.925  1.00  0.00     0.004 C 
ENDBRANCH  10  11
ENDBRANCH   9  10
ENDBRANCH   8   9
ENDBRANCH   7   8
ENDBRANCH   6   7
ENDBRANCH   5   6
ENDBRANCH   4   5
ENDBRANCH   3   4
ENDBRANCH   2   3
ENDBRANCH   1   2
BRANCH   1  13
ATOM     13  C   UNL     1      62.846  33.674  60.678  1.00  0.00     0.000 C 
BRANCH  13  14
ATOM     14  C   UNL     1      63.659  34.909  61.094  1.00  0.00     0.000 C 
BRANCH  14  15
ATOM     15  C   UNL     1      62.781  36.167  61.116  1.00  0.00     0.000 C 
BRANCH  15  16
ATOM     16  C   UNL     1      61.321  35.882  60.718  1.00  0.00     0.000 C 
BRANCH  16  17
ATOM     17  C   UNL     1      60.731  36.836  59.659  1.00  0.00     0.000 C 
BRANCH  17  18
ATOM     18  C   UNL     1      59.461  36.328  58.951  1.00  0.00     0.000 C 
BRANCH  18  19
ATOM     19  C   UNL     1      59.762  35.280  57.866  1.00  0.00     0.000 C 
BRANCH  19  20
ATOM     20  C   UNL     1      58.498  34.803  57.135  1.00  0.00     0.006 C 
BRANCH  20  21
ATOM     21  C   UNL     1      58.528  33.305  56.803  1.00  0.00     0.053 C 
BRANCH  21  22
ATOM     22  C   UNL     1      57.457  32.576  57.553  1.00  0.00     0.041 C 
ATOM     23  O   UNL     1      56.411  33.179  57.912  1.00  0.00    -0.550 OA
ATOM     24  O   UNL     1      57.607  31.224  57.847  1.00  0.00    -0.550 OA
ENDBRANCH  21  22
ENDBRANCH  20  21
ENDBRANCH  19  20
ENDBRANCH  18  19
ENDBRANCH  17  18
ENDBRANCH  16  17
ENDBRANCH  15  16
ENDBRANCH  14  15
ENDBRANCH  13  14
ENDBRANCH   1  13
TORSDOF 20
ENDMDL
MODEL 9
REMARK VINA RESULT:    -3.332      9.817     12.320
REMARK INTER + INTRA:          -9.977
REMARK INTER:                  -6.362
REMARK INTRA:                  -3.615
REMARK UNBOUND:                -2.749
REMARK SMILES CCCCCCCCCCCCCCCCCCCCCC(=O)[O-]
REMARK SMILES IDX 12 1 11 2 10 3 9 4 8 5 7 6 6 7 5 8 4 9 3 10 2 11 1 12 13 13
REMARK SMILES IDX 14 14 15 15 16 16 17 17 18 18 19 19 20 20 21 21 22 22 23 23
REMARK SMILES IDX 24 24
REMARK H PARENT
REMARK Flexibility Score: inf
ROOT
ATOM      1  C   UNL     1      59.449  24.693  50.384  1.00  0.00     0.000 C 
ENDROOT
BRANCH   1   2
ATOM      2  C   UNL     1      58.906  26.086  50.006  1.00  0.00     0.000 C 
BRANCH   2   3
ATOM      3  C   UNL     1      59.916  27.012  49.299  1.00  0.00     0.000 C 
BRANCH   3   4
ATOM      4  C   UNL     1      59.526  28.501  49.285  1.00  0.00    -0.000 C 
BRANCH   4   5
ATOM      5  C   UNL     1      58.145  28.756  49.914  1.00  0.00    -0.000 C 
BRANCH   5   6
ATOM      6  C   UNL     1      58.227  29.595  51.198  1.00  0.00    -0.000 C 
BRANCH   6   7
ATOM      7  C   UNL     1      57.281  29.083  52.299  1.00  0.00    -0.000 C 
BRANCH   7   8
ATOM      8  C   UNL     1      56.409  27.900  51.826  1.00  0.00    -0.000 C 
BRANCH   8   9
ATOM      9  C   UNL     1      54.932  28.272  51.592  1.00  0.00    -0.000 C 
BRANCH   9  10
ATOM     10  C   UNL     1      54.486  28.269  50.120  1.00  0.00    -0.000 C 
BRANCH  10  11
ATOM     11  C   UNL     1      53.734  26.988  49.729  1.00  0.00    -0.003 C 
ATOM     12  C   UNL     1      54.704  25.899  49.282  1.00  0.00     0.004 C 
ENDBRANCH  10  11
ENDBRANCH   9  10
ENDBRANCH   8   9
ENDBRANCH   7   8
ENDBRANCH   6   7
ENDBRANCH   5   6
ENDBRANCH   4   5
ENDBRANCH   3   4
ENDBRANCH   2   3
ENDBRANCH   1   2
BRANCH   1  13
ATOM     13  C   UNL     1      60.974  24.534  50.254  1.00  0.00     0.000 C 
BRANCH  13  14
ATOM     14  C   UNL     1      61.650  24.174  51.585  1.00  0.00     0.000 C 
BRANCH  14  15
ATOM     15  C   UNL     1      60.607  23.880  52.673  1.00  0.00     0.000 C 
BRANCH  15  16
ATOM     16  C   UNL     1      60.603  24.933  53.796  1.00  0.00     0.000 C 
BRANCH  16  17
ATOM     17  C   UNL     1      61.454  26.190  53.519  1.00  0.00     0.000 C 
BRANCH  17  18
ATOM     18  C   UNL     1      60.671  27.414  53.010  1.00  0.00     0.000 C 
BRANCH  18  19
ATOM     19  C   UNL     1      61.574  28.466  52.344  1.00  0.00     0.000 C 
BRANCH  19  20
ATOM     20  C   UNL     1      62.954  27.907  51.963  1.00  0.00     0.006 C 
BRANCH  20  21
ATOM     21  C   UNL     1      63.507  28.510  50.664  1.00  0.00     0.053 C 
BRANCH  21  22
ATOM     22  C   UNL     1      63.645  27.455  49.609  1.00  0.00     0.041 C 
ATOM     23  O   UNL     1      63.991  26.286  49.924  1.00  0.00    -0.550 OA
ATOM     24  O   UNL     1      63.381  27.761  48.278  1.00  0.00    -0.550 OA
ENDBRANCH  21  22
ENDBRANCH  20  21
ENDBRANCH  19  20
ENDBRANCH  18  19
ENDBRANCH  17  18
ENDBRANCH  16  17
ENDBRANCH  15  16
ENDBRANCH  14  15
ENDBRANCH  13  14
ENDBRANCH   1  13
TORSDOF 20
ENDMDL
