MODEL 1
REMARK VINA RESULT:    -4.203      0.000      0.000
REMARK INTER + INTRA:          -6.355
REMARK INTER:                  -6.414
REMARK INTRA:                   0.059
REMARK UNBOUND:                 0.059
REMARK SMILES CC1=CCC[C@H](C)C(=O)C[C@@H](C(C)C)C(=O)C1
REMARK SMILES IDX 8 1 9 2 6 3 7 4 5 5 4 6 3 7 2 8 1 9 10 11 11 12 15 13 16 14
REMARK SMILES IDX 17 15 12 17 13 18 14 19
REMARK H PARENT
REMARK Flexibility Score: 70.00
ROOT
ATOM      1  C   UNL     1     -23.684   0.252  -0.361  1.00  0.00     0.136 C 
ATOM      2  O   UNL     1     -23.111  -0.593  -1.036  1.00  0.00    -0.299 OA
ENDROOT
BRANCH   1   3
ATOM      3  C   UNL     1     -23.009   0.813   0.877  1.00  0.00     0.053 C 
ATOM      4  C   UNL     1     -21.610   1.354   0.545  1.00  0.00     0.016 C 
BRANCH   3   5
ATOM      5  C   UNL     1     -23.892   1.914   1.518  1.00  0.00     0.015 C 
BRANCH   5   6
ATOM      6  C   UNL     1     -23.318   3.326   1.297  1.00  0.00     0.028 C 
BRANCH   6   7
ATOM      7  C   UNL     1     -24.383   4.282   0.825  1.00  0.00    -0.028 C 
ATOM      8  C   UNL     1     -24.727   4.474  -0.470  1.00  0.00    -0.070 CG0
ATOM      9  C   UNL     1     -25.780   5.509  -0.778  1.00  0.00     0.039 C 
ATOM     10  G   UNL     1     -24.104   3.696  -1.618  1.00  0.00     0.000 G0
ENDBRANCH   6   7
ENDBRANCH   5   6
ENDBRANCH   3   5
ENDBRANCH   1   3
BRANCH   1  11
ATOM     11  C   UNL     1     -25.045   0.737  -0.802  1.00  0.00     0.087 C 
BRANCH  11  12
ATOM     12  C   UNL     1     -25.027   1.266  -2.259  1.00  0.00     0.066 C 
BRANCH  12  13
ATOM     13  C   UNL     1     -25.107   2.786  -2.328  1.00  0.00     0.140 C 
ATOM     14  O   UNL     1     -26.066   3.294  -2.893  1.00  0.00    -0.299 OA
BRANCH  13  15
ATOM     15  C   UNL     1     -24.110   3.689  -1.641  1.00  0.00     0.106 CG0
ATOM     16  G   UNL     1     -24.723   4.449  -0.476  1.00  0.00     0.000 G0
ENDBRANCH  13  15
ENDBRANCH  12  13
BRANCH  12  17
ATOM     17  C   UNL     1     -26.059   0.573  -3.211  1.00  0.00    -0.006 C 
ATOM     18  C   UNL     1     -25.368  -0.447  -4.133  1.00  0.00     0.008 C 
ATOM     19  C   UNL     1     -27.239  -0.108  -2.493  1.00  0.00     0.008 C 
ENDBRANCH  12  17
ENDBRANCH  11  12
ENDBRANCH   1  11
TORSDOF 1
ENDMDL
MODEL 2
REMARK VINA RESULT:    -3.833      1.383      3.683
REMARK INTER + INTRA:          -5.791
REMARK INTER:                  -5.908
REMARK INTRA:                   0.117
REMARK UNBOUND:                 0.059
REMARK SMILES CC1=CCC[C@H](C)C(=O)C[C@@H](C(C)C)C(=O)C1
REMARK SMILES IDX 8 1 9 2 6 3 7 4 5 5 4 6 3 7 2 8 1 9 10 11 11 12 15 13 16 14
REMARK SMILES IDX 17 15 12 17 13 18 14 19
REMARK H PARENT
REMARK Flexibility Score: 70.00
ROOT
ATOM      1  C   UNL     1     -24.877   3.377  -1.986  1.00  0.00     0.136 C 
ATOM      2  O   UNL     1     -25.880   3.651  -2.632  1.00  0.00    -0.299 OA
ENDROOT
BRANCH   1   3
ATOM      3  C   UNL     1     -24.421   4.302  -0.873  1.00  0.00     0.053 C 
ATOM      4  C   UNL     1     -24.858   5.749  -1.146  1.00  0.00     0.016 C 
BRANCH   3   5
ATOM      5  C   UNL     1     -24.962   3.807   0.493  1.00  0.00     0.015 C 
BRANCH   5   6
ATOM      6  C   UNL     1     -23.891   3.854   1.598  1.00  0.00     0.028 C 
BRANCH   6   7
ATOM      7  C   UNL     1     -22.563   3.350   1.095  1.00  0.00    -0.028 C 
ATOM      8  C   UNL     1     -22.298   2.062   0.774  1.00  0.00    -0.070 CG0
ATOM      9  C   UNL     1     -20.899   1.714   0.334  1.00  0.00     0.039 C 
ATOM     10  G   UNL     1     -23.344   0.960   0.835  1.00  0.00     0.000 G0
ENDBRANCH   6   7
ENDBRANCH   5   6
ENDBRANCH   3   5
ENDBRANCH   1   3
BRANCH   1  11
ATOM     11  C   UNL     1     -24.134   2.099  -2.299  1.00  0.00     0.087 C 
BRANCH  11  12
ATOM     12  C   UNL     1     -24.675   0.899  -1.479  1.00  0.00     0.066 C 
BRANCH  12  13
ATOM     13  C   UNL     1     -23.635   0.333  -0.520  1.00  0.00     0.140 C 
ATOM     14  O   UNL     1     -22.951  -0.609  -0.894  1.00  0.00    -0.299 OA
BRANCH  13  15
ATOM     15  C   UNL     1     -23.345   0.949   0.828  1.00  0.00     0.106 CG0
ATOM     16  G   UNL     1     -22.298   2.049   0.748  1.00  0.00     0.000 G0
ENDBRANCH  13  15
ENDBRANCH  12  13
BRANCH  12  17
ATOM     17  C   UNL     1     -25.359  -0.215  -2.340  1.00  0.00    -0.006 C 
ATOM     18  C   UNL     1     -26.842  -0.379  -1.960  1.00  0.00     0.008 C 
ATOM     19  C   UNL     1     -25.243  -0.014  -3.862  1.00  0.00     0.008 C 
ENDBRANCH  12  17
ENDBRANCH  11  12
ENDBRANCH   1  11
TORSDOF 1
ENDMDL
MODEL 3
REMARK VINA RESULT:    -3.800      2.837      4.625
REMARK INTER + INTRA:          -5.739
REMARK INTER:                  -5.468
REMARK INTRA:                  -0.271
REMARK UNBOUND:                 0.059
REMARK SMILES CC1=CCC[C@H](C)C(=O)C[C@@H](C(C)C)C(=O)C1
REMARK SMILES IDX 8 1 9 2 6 3 7 4 5 5 4 6 3 7 2 8 1 9 10 11 11 12 15 13 16 14
REMARK SMILES IDX 17 15 12 17 13 18 14 19
REMARK H PARENT
REMARK Flexibility Score: 70.00
ROOT
ATOM      1  C   UNL     1     -24.137   2.038   0.398  1.00  0.00     0.136 C 
ATOM      2  O   UNL     1     -24.691   1.636  -0.617  1.00  0.00    -0.299 OA
ENDROOT
BRANCH   1   3
ATOM      3  C   UNL     1     -22.955   1.272   0.966  1.00  0.00     0.053 C 
ATOM      4  C   UNL     1     -23.340  -0.183   1.273  1.00  0.00     0.016 C 
BRANCH   3   5
ATOM      5  C   UNL     1     -21.755   1.334  -0.012  1.00  0.00     0.015 C 
BRANCH   5   6
ATOM      6  C   UNL     1     -20.733   2.417   0.384  1.00  0.00     0.028 C 
BRANCH   6   7
ATOM      7  C   UNL     1     -20.760   2.678   1.868  1.00  0.00    -0.028 C 
ATOM      8  C   UNL     1     -21.083   3.864   2.436  1.00  0.00    -0.070 CG0
ATOM      9  C   UNL     1     -21.011   3.974   3.938  1.00  0.00     0.039 C 
ATOM     10  G   UNL     1     -21.514   5.079   1.630  1.00  0.00     0.000 G0
ENDBRANCH   6   7
ENDBRANCH   5   6
ENDBRANCH   3   5
ENDBRANCH   1   3
BRANCH   1  11
ATOM     11  C   UNL     1     -24.630   3.312   1.043  1.00  0.00     0.087 C 
BRANCH  11  12
ATOM     12  C   UNL     1     -23.877   4.559   0.511  1.00  0.00     0.066 C 
BRANCH  12  13
ATOM     13  C   UNL     1     -23.032   5.231   1.586  1.00  0.00     0.140 C 
ATOM     14  O   UNL     1     -23.604   5.834   2.483  1.00  0.00    -0.299 OA
BRANCH  13  15
ATOM     15  C   UNL     1     -21.528   5.098   1.645  1.00  0.00     0.106 CG0
ATOM     16  G   UNL     1     -21.087   3.876   2.434  1.00  0.00     0.000 G0
ENDBRANCH  13  15
ENDBRANCH  12  13
BRANCH  12  17
ATOM     17  C   UNL     1     -24.781   5.579  -0.259  1.00  0.00    -0.006 C 
ATOM     18  C   UNL     1     -23.945   6.727  -0.852  1.00  0.00     0.008 C 
ATOM     19  C   UNL     1     -25.652   4.959  -1.367  1.00  0.00     0.008 C 
ENDBRANCH  12  17
ENDBRANCH  11  12
ENDBRANCH   1  11
TORSDOF 1
ENDMDL
MODEL 4
REMARK VINA RESULT:    -3.756      1.813      4.304
REMARK INTER + INTRA:          -5.673
REMARK INTER:                  -5.520
REMARK INTRA:                  -0.153
REMARK UNBOUND:                 0.059
REMARK SMILES CC1=CCC[C@H](C)C(=O)C[C@@H](C(C)C)C(=O)C1
REMARK SMILES IDX 8 1 9 2 6 3 7 4 5 5 4 6 3 7 2 8 1 9 10 11 11 12 15 13 16 14
REMARK SMILES IDX 17 15 12 17 13 18 14 19
REMARK H PARENT
REMARK Flexibility Score: 70.00
ROOT
ATOM      1  C   UNL     1     -23.200  -0.221  -1.478  1.00  0.00     0.136 C 
ATOM      2  O   UNL     1     -22.907  -0.936  -0.529  1.00  0.00    -0.299 OA
ENDROOT
BRANCH   1   3
ATOM      3  C   UNL     1     -23.723  -0.846  -2.759  1.00  0.00     0.053 C 
ATOM      4  C   UNL     1     -22.901  -2.086  -3.142  1.00  0.00     0.016 C 
BRANCH   3   5
ATOM      5  C   UNL     1     -25.224  -1.199  -2.611  1.00  0.00     0.015 C 
BRANCH   5   6
ATOM      6  C   UNL     1     -26.116  -0.368  -3.551  1.00  0.00     0.028 C 
BRANCH   6   7
ATOM      7  C   UNL     1     -25.298   0.590  -4.378  1.00  0.00    -0.028 C 
ATOM      8  C   UNL     1     -25.191   1.918  -4.138  1.00  0.00    -0.070 CG0
ATOM      9  C   UNL     1     -24.372   2.747  -5.094  1.00  0.00     0.039 C 
ATOM     10  G   UNL     1     -25.855   2.603  -2.955  1.00  0.00     0.000 G0
ENDBRANCH   6   7
ENDBRANCH   5   6
ENDBRANCH   3   5
ENDBRANCH   1   3
BRANCH   1  11
ATOM     11  C   UNL     1     -23.059   1.276  -1.335  1.00  0.00     0.087 C 
BRANCH  11  12
ATOM     12  C   UNL     1     -24.378   1.939  -0.863  1.00  0.00     0.066 C 
BRANCH  12  13
ATOM     13  C   UNL     1     -24.897   2.975  -1.853  1.00  0.00     0.140 C 
ATOM     14  O   UNL     1     -24.451   4.112  -1.792  1.00  0.00    -0.299 OA
BRANCH  13  15
ATOM     15  C   UNL     1     -25.859   2.631  -2.965  1.00  0.00     0.106 CG0
ATOM     16  G   UNL     1     -25.173   1.930  -4.127  1.00  0.00     0.000 G0
ENDBRANCH  13  15
ENDBRANCH  12  13
BRANCH  12  17
ATOM     17  C   UNL     1     -24.336   2.487   0.604  1.00  0.00    -0.006 C 
ATOM     18  C   UNL     1     -24.743   1.401   1.615  1.00  0.00     0.008 C 
ATOM     19  C   UNL     1     -22.985   3.095   1.025  1.00  0.00     0.008 C 
ENDBRANCH  12  17
ENDBRANCH  11  12
ENDBRANCH   1  11
TORSDOF 1
ENDMDL
MODEL 5
REMARK VINA RESULT:    -3.697      4.491      7.058
REMARK INTER + INTRA:          -5.582
REMARK INTER:                  -5.517
REMARK INTRA:                  -0.065
REMARK UNBOUND:                 0.059
REMARK SMILES CC1=CCC[C@H](C)C(=O)C[C@@H](C(C)C)C(=O)C1
REMARK SMILES IDX 8 1 9 2 6 3 7 4 5 5 4 6 3 7 2 8 1 9 10 11 11 12 15 13 16 14
REMARK SMILES IDX 17 15 12 17 13 18 14 19
REMARK H PARENT
REMARK Flexibility Score: 70.00
ROOT
ATOM      1  C   UNL     1     -25.925   8.518  -1.354  1.00  0.00     0.136 C 
ATOM      2  O   UNL     1     -26.389   9.004  -2.377  1.00  0.00    -0.299 OA
ENDROOT
BRANCH   1   3
ATOM      3  C   UNL     1     -26.616   7.336  -0.699  1.00  0.00     0.053 C 
ATOM      4  C   UNL     1     -28.088   7.656  -0.399  1.00  0.00     0.016 C 
BRANCH   3   5
ATOM      5  C   UNL     1     -26.494   6.078  -1.596  1.00  0.00     0.015 C 
BRANCH   5   6
ATOM      6  C   UNL     1     -25.205   5.283  -1.316  1.00  0.00     0.028 C 
BRANCH   6   7
ATOM      7  C   UNL     1     -24.822   5.355   0.140  1.00  0.00    -0.028 C 
ATOM      8  C   UNL     1     -23.619   5.770   0.600  1.00  0.00    -0.070 CG0
ATOM      9  C   UNL     1     -23.378   5.733   2.088  1.00  0.00     0.039 C 
ATOM     10  G   UNL     1     -22.509   6.270  -0.311  1.00  0.00     0.000 G0
ENDBRANCH   6   7
ENDBRANCH   5   6
ENDBRANCH   3   5
ENDBRANCH   1   3
BRANCH   1  11
ATOM     11  C   UNL     1     -24.649   9.096  -0.786  1.00  0.00     0.087 C 
BRANCH  11  12
ATOM     12  C   UNL     1     -23.390   8.494  -1.464  1.00  0.00     0.066 C 
BRANCH  12  13
ATOM     13  C   UNL     1     -22.483   7.775  -0.474  1.00  0.00     0.140 C 
ATOM     14  O   UNL     1     -21.783   8.448   0.270  1.00  0.00    -0.299 OA
BRANCH  13  15
ATOM     15  C   UNL     1     -22.488   6.274  -0.303  1.00  0.00     0.106 CG0
ATOM     16  G   UNL     1     -23.617   5.798   0.596  1.00  0.00     0.000 G0
ENDBRANCH  13  15
ENDBRANCH  12  13
BRANCH  12  17
ATOM     17  C   UNL     1     -22.602   9.501  -2.369  1.00  0.00    -0.006 C 
ATOM     18  C   UNL     1     -21.220   8.941  -2.750  1.00  0.00     0.008 C 
ATOM     19  C   UNL     1     -23.345   9.935  -3.646  1.00  0.00     0.008 C 
ENDBRANCH  12  17
ENDBRANCH  11  12
ENDBRANCH   1  11
TORSDOF 1
ENDMDL
MODEL 6
REMARK VINA RESULT:    -3.658      2.206      4.896
REMARK INTER + INTRA:          -5.524
REMARK INTER:                  -5.450
REMARK INTRA:                  -0.074
REMARK UNBOUND:                 0.059
REMARK SMILES CC1=CCC[C@H](C)C(=O)C[C@@H](C(C)C)C(=O)C1
REMARK SMILES IDX 8 1 9 2 6 3 7 4 5 5 4 6 3 7 2 8 1 9 10 11 11 12 15 13 16 14
REMARK SMILES IDX 17 15 12 17 13 18 14 19
REMARK H PARENT
REMARK Flexibility Score: 70.00
ROOT
ATOM      1  C   UNL     1     -23.847   6.462   1.170  1.00  0.00     0.136 C 
ATOM      2  O   UNL     1     -24.368   7.504   1.545  1.00  0.00    -0.299 OA
ENDROOT
BRANCH   1   3
ATOM      3  C   UNL     1     -23.228   5.519   2.186  1.00  0.00     0.053 C 
ATOM      4  C   UNL     1     -23.357   6.082   3.609  1.00  0.00     0.016 C 
BRANCH   3   5
ATOM      5  C   UNL     1     -23.879   4.117   2.083  1.00  0.00     0.015 C 
BRANCH   5   6
ATOM      6  C   UNL     1     -22.984   3.110   1.335  1.00  0.00     0.028 C 
BRANCH   6   7
ATOM      7  C   UNL     1     -23.808   2.075   0.614  1.00  0.00    -0.028 C 
ATOM      8  C   UNL     1     -24.292   2.215  -0.643  1.00  0.00    -0.070 CG0
ATOM      9  C   UNL     1     -25.145   1.104  -1.201  1.00  0.00     0.039 C 
ATOM     10  G   UNL     1     -24.013   3.433  -1.509  1.00  0.00     0.000 G0
ENDBRANCH   6   7
ENDBRANCH   5   6
ENDBRANCH   3   5
ENDBRANCH   1   3
BRANCH   1  11
ATOM     11  C   UNL     1     -23.861   6.129  -0.304  1.00  0.00     0.087 C 
BRANCH  11  12
ATOM     12  C   UNL     1     -25.261   5.658  -0.777  1.00  0.00     0.066 C 
BRANCH  12  13
ATOM     13  C   UNL     1     -25.199   4.366  -1.582  1.00  0.00     0.140 C 
ATOM     14  O   UNL     1     -26.105   4.125  -2.366  1.00  0.00    -0.299 OA
BRANCH  13  15
ATOM     15  C   UNL     1     -24.019   3.424  -1.525  1.00  0.00     0.106 CG0
ATOM     16  G   UNL     1     -24.293   2.206  -0.657  1.00  0.00     0.000 G0
ENDBRANCH  13  15
ENDBRANCH  12  13
BRANCH  12  17
ATOM     17  C   UNL     1     -26.106   6.765  -1.493  1.00  0.00    -0.006 C 
ATOM     18  C   UNL     1     -27.423   7.031  -0.742  1.00  0.00     0.008 C 
ATOM     19  C   UNL     1     -25.367   8.097  -1.713  1.00  0.00     0.008 C 
ENDBRANCH  12  17
ENDBRANCH  11  12
ENDBRANCH   1  11
TORSDOF 1
ENDMDL
MODEL 7
REMARK VINA RESULT:    -3.597      7.607     10.866
REMARK INTER + INTRA:          -5.431
REMARK INTER:                  -5.408
REMARK INTRA:                  -0.023
REMARK UNBOUND:                 0.059
REMARK SMILES CC1=CCC[C@H](C)C(=O)C[C@@H](C(C)C)C(=O)C1
REMARK SMILES IDX 8 1 9 2 6 3 7 4 5 5 4 6 3 7 2 8 1 9 10 11 11 12 15 13 16 14
REMARK SMILES IDX 17 15 12 17 13 18 14 19
REMARK H PARENT
REMARK Flexibility Score: 70.00
ROOT
ATOM      1  C   UNL     1     -27.633  -5.836  -5.439  1.00  0.00     0.136 C 
ATOM      2  O   UNL     1     -28.489  -5.634  -4.588  1.00  0.00    -0.299 OA
ENDROOT
BRANCH   1   3
ATOM      3  C   UNL     1     -27.236  -7.260  -5.785  1.00  0.00     0.053 C 
ATOM      4  C   UNL     1     -27.996  -8.271  -4.913  1.00  0.00     0.016 C 
BRANCH   3   5
ATOM      5  C   UNL     1     -27.477  -7.535  -7.290  1.00  0.00     0.015 C 
BRANCH   5   6
ATOM      6  C   UNL     1     -28.883  -7.102  -7.746  1.00  0.00     0.028 C 
BRANCH   6   7
ATOM      7  C   UNL     1     -28.844  -6.463  -9.110  1.00  0.00    -0.028 C 
ATOM      8  C   UNL     1     -29.208  -5.185  -9.373  1.00  0.00    -0.070 CG0
ATOM      9  C   UNL     1     -29.159  -4.715 -10.805  1.00  0.00     0.039 C 
ATOM     10  G   UNL     1     -29.658  -4.212  -8.295  1.00  0.00     0.000 G0
ENDBRANCH   6   7
ENDBRANCH   5   6
ENDBRANCH   3   5
ENDBRANCH   1   3
BRANCH   1  11
ATOM     11  C   UNL     1     -27.015  -4.654  -6.147  1.00  0.00     0.087 C 
BRANCH  11  12
ATOM     12  C   UNL     1     -28.023  -3.488  -6.318  1.00  0.00     0.066 C 
BRANCH  12  13
ATOM     13  C   UNL     1     -28.525  -3.357  -7.750  1.00  0.00     0.140 C 
ATOM     14  O   UNL     1     -27.929  -2.605  -8.508  1.00  0.00    -0.299 OA
BRANCH  13  15
ATOM     15  C   UNL     1     -29.660  -4.189  -8.298  1.00  0.00     0.106 CG0
ATOM     16  G   UNL     1     -29.196  -5.172  -9.361  1.00  0.00     0.000 G0
ENDBRANCH  13  15
ENDBRANCH  12  13
BRANCH  12  17
ATOM     17  C   UNL     1     -27.534  -2.122  -5.730  1.00  0.00    -0.006 C 
ATOM     18  C   UNL     1     -28.720  -1.183  -5.445  1.00  0.00     0.008 C 
ATOM     19  C   UNL     1     -26.662  -2.239  -4.467  1.00  0.00     0.008 C 
ENDBRANCH  12  17
ENDBRANCH  11  12
ENDBRANCH   1  11
TORSDOF 1
ENDMDL
MODEL 8
REMARK VINA RESULT:    -3.596      2.645      3.889
REMARK INTER + INTRA:          -5.428
REMARK INTER:                  -5.376
REMARK INTRA:                  -0.053
REMARK UNBOUND:                 0.059
REMARK SMILES CC1=CCC[C@H](C)C(=O)C[C@@H](C(C)C)C(=O)C1
REMARK SMILES IDX 8 1 9 2 6 3 7 4 5 5 4 6 3 7 2 8 1 9 10 11 11 12 15 13 16 14
REMARK SMILES IDX 17 15 12 17 13 18 14 19
REMARK H PARENT
REMARK Flexibility Score: 70.00
ROOT
ATOM      1  C   UNL     1     -20.155   2.410   0.738  1.00  0.00     0.136 C 
ATOM      2  O   UNL     1     -19.189   2.049   0.080  1.00  0.00    -0.299 OA
ENDROOT
BRANCH   1   3
ATOM      3  C   UNL     1     -20.066   3.671   1.578  1.00  0.00     0.053 C 
ATOM      4  C   UNL     1     -18.862   3.614   2.531  1.00  0.00     0.016 C 
BRANCH   3   5
ATOM      5  C   UNL     1     -19.992   4.921   0.665  1.00  0.00     0.015 C 
BRANCH   5   6
ATOM      6  C   UNL     1     -21.289   5.750   0.702  1.00  0.00     0.028 C 
BRANCH   6   7
ATOM      7  C   UNL     1     -21.987   5.618   2.031  1.00  0.00    -0.028 C 
ATOM      8  C   UNL     1     -23.185   5.016   2.216  1.00  0.00    -0.070 CG0
ATOM      9  C   UNL     1     -23.770   5.014   3.606  1.00  0.00     0.039 C 
ATOM     10  G   UNL     1     -23.959   4.345   1.092  1.00  0.00     0.000 G0
ENDBRANCH   6   7
ENDBRANCH   5   6
ENDBRANCH   3   5
ENDBRANCH   1   3
BRANCH   1  11
ATOM     11  C   UNL     1     -21.429   1.600   0.669  1.00  0.00     0.087 C 
BRANCH  11  12
ATOM     12  C   UNL     1     -22.574   2.380  -0.026  1.00  0.00     0.066 C 
BRANCH  12  13
ATOM     13  C   UNL     1     -23.622   2.880   0.961  1.00  0.00     0.140 C 
ATOM     14  O   UNL     1     -24.142   2.071   1.716  1.00  0.00    -0.299 OA
BRANCH  13  15
ATOM     15  C   UNL     1     -23.968   4.342   1.114  1.00  0.00     0.106 CG0
ATOM     16  G   UNL     1     -23.171   5.013   2.220  1.00  0.00     0.000 G0
ENDBRANCH  13  15
ENDBRANCH  12  13
BRANCH  12  17
ATOM     17  C   UNL     1     -23.214   1.635  -1.246  1.00  0.00    -0.006 C 
ATOM     18  C   UNL     1     -23.255   0.114  -1.009  1.00  0.00     0.008 C 
ATOM     19  C   UNL     1     -24.619   2.128  -1.636  1.00  0.00     0.008 C 
ENDBRANCH  12  17
ENDBRANCH  11  12
ENDBRANCH   1  11
TORSDOF 1
ENDMDL
MODEL 9
REMARK VINA RESULT:    -3.544      2.222      4.641
REMARK INTER + INTRA:          -5.349
REMARK INTER:                  -5.546
REMARK INTRA:                   0.197
REMARK UNBOUND:                 0.059
REMARK SMILES CC1=CCC[C@H](C)C(=O)C[C@@H](C(C)C)C(=O)C1
REMARK SMILES IDX 8 1 9 2 6 3 7 4 5 5 4 6 3 7 2 8 1 9 10 11 11 12 15 13 16 14
REMARK SMILES IDX 17 15 12 17 13 18 14 19
REMARK H PARENT
REMARK Flexibility Score: 70.00
ROOT
ATOM      1  C   UNL     1     -24.637   2.369  -1.051  1.00  0.00     0.136 C 
ATOM      2  O   UNL     1     -24.357   2.654  -2.208  1.00  0.00    -0.299 OA
ENDROOT
BRANCH   1   3
ATOM      3  C   UNL     1     -24.539   0.928  -0.584  1.00  0.00     0.053 C 
ATOM      4  C   UNL     1     -25.489   0.025  -1.385  1.00  0.00     0.016 C 
BRANCH   3   5
ATOM      5  C   UNL     1     -23.077   0.427  -0.689  1.00  0.00     0.015 C 
BRANCH   5   6
ATOM      6  C   UNL     1     -22.356   0.436   0.672  1.00  0.00     0.028 C 
BRANCH   6   7
ATOM      7  C   UNL     1     -21.237   1.445   0.693  1.00  0.00    -0.028 C 
ATOM      8  C   UNL     1     -21.361   2.725   1.118  1.00  0.00    -0.070 CG0
ATOM      9  C   UNL     1     -20.153   3.622   1.025  1.00  0.00     0.039 C 
ATOM     10  G   UNL     1     -22.654   3.290   1.682  1.00  0.00     0.000 G0
ENDBRANCH   6   7
ENDBRANCH   5   6
ENDBRANCH   3   5
ENDBRANCH   1   3
BRANCH   1  11
ATOM     11  C   UNL     1     -25.045   3.475  -0.106  1.00  0.00     0.087 C 
BRANCH  11  12
ATOM     12  C   UNL     1     -24.039   4.655  -0.125  1.00  0.00     0.066 C 
BRANCH  12  13
ATOM     13  C   UNL     1     -23.050   4.595   1.032  1.00  0.00     0.140 C 
ATOM     14  O   UNL     1     -22.628   5.647   1.491  1.00  0.00    -0.299 OA
BRANCH  13  15
ATOM     15  C   UNL     1     -22.648   3.300   1.698  1.00  0.00     0.106 CG0
ATOM     16  G   UNL     1     -21.361   2.730   1.125  1.00  0.00     0.000 G0
ENDBRANCH  13  15
ENDBRANCH  12  13
BRANCH  12  17
ATOM     17  C   UNL     1     -24.702   6.066  -0.270  1.00  0.00    -0.006 C 
ATOM     18  C   UNL     1     -23.795   7.029  -1.057  1.00  0.00     0.008 C 
ATOM     19  C   UNL     1     -26.105   6.056  -0.903  1.00  0.00     0.008 C 
ENDBRANCH  12  17
ENDBRANCH  11  12
ENDBRANCH   1  11
TORSDOF 1
ENDMDL
