MODEL 1
REMARK VINA RESULT:    -2.637      0.000      0.000
REMARK INTER + INTRA:          -2.980
REMARK INTER:                  -2.945
REMARK INTRA:                  -0.035
REMARK UNBOUND:                -0.035
REMARK SMILES CCCC(=O)[O-]
REMARK SMILES IDX 3 1 4 2 5 3 6 4 2 5 1 6
REMARK H PARENT
REMARK Flexibility Score: inf
ROOT
ATOM      1  C   UNL     1      40.091  11.278  12.053  1.00  0.00     0.052 C 
ENDROOT
BRANCH   1   2
ATOM      2  C   UNL     1      40.852  12.020  13.108  1.00  0.00     0.041 C 
ATOM      3  O   UNL     1      42.016  11.657  13.425  1.00  0.00    -0.550 OA
ATOM      4  O   UNL     1      40.289  13.133  13.719  1.00  0.00    -0.550 OA
ENDBRANCH   1   2
BRANCH   1   5
ATOM      5  C   UNL     1      40.934  10.161  11.425  1.00  0.00     0.003 C 
ATOM      6  C   UNL     1      40.330   8.776  11.658  1.00  0.00     0.004 C 
ENDBRANCH   1   5
TORSDOF 2
ENDMDL
MODEL 2
REMARK VINA RESULT:    -2.608      0.188      1.336
REMARK INTER + INTRA:          -2.948
REMARK INTER:                  -2.909
REMARK INTRA:                  -0.039
REMARK UNBOUND:                -0.035
REMARK SMILES CCCC(=O)[O-]
REMARK SMILES IDX 3 1 4 2 5 3 6 4 2 5 1 6
REMARK H PARENT
REMARK Flexibility Score: inf
ROOT
ATOM      1  C   UNL     1      39.955  11.432  12.054  1.00  0.00     0.052 C 
ENDROOT
BRANCH   1   2
ATOM      2  C   UNL     1      40.781  12.114  13.100  1.00  0.00     0.041 C 
ATOM      3  O   UNL     1      40.315  13.095  13.737  1.00  0.00    -0.550 OA
ATOM      4  O   UNL     1      42.054  11.644  13.396  1.00  0.00    -0.550 OA
ENDBRANCH   1   2
BRANCH   1   5
ATOM      5  C   UNL     1      40.774  10.402  11.266  1.00  0.00     0.003 C 
ATOM      6  C   UNL     1      40.402   8.964  11.628  1.00  0.00     0.004 C 
ENDBRANCH   1   5
TORSDOF 2
ENDMDL
MODEL 3
REMARK VINA RESULT:    -2.586      2.634      3.399
REMARK INTER + INTRA:          -2.923
REMARK INTER:                  -2.887
REMARK INTRA:                  -0.036
REMARK UNBOUND:                -0.035
REMARK SMILES CCCC(=O)[O-]
REMARK SMILES IDX 3 1 4 2 5 3 6 4 2 5 1 6
REMARK H PARENT
REMARK Flexibility Score: inf
ROOT
ATOM      1  C   UNL     1      40.868  10.413  11.443  1.00  0.00     0.052 C 
ENDROOT
BRANCH   1   2
ATOM      2  C   UNL     1      39.954   9.238  11.612  1.00  0.00     0.041 C 
ATOM      3  O   UNL     1      40.419   8.113  11.935  1.00  0.00    -0.550 OA
ATOM      4  O   UNL     1      38.584   9.393  11.446  1.00  0.00    -0.550 OA
ENDBRANCH   1   2
BRANCH   1   5
ATOM      5  C   UNL     1      40.914  11.282  12.706  1.00  0.00     0.003 C 
ATOM      6  C   UNL     1      39.911  12.434  12.656  1.00  0.00     0.004 C 
ENDBRANCH   1   5
TORSDOF 2
ENDMDL
MODEL 4
REMARK VINA RESULT:    -2.522      2.210      3.402
REMARK INTER + INTRA:          -2.851
REMARK INTER:                  -2.813
REMARK INTRA:                  -0.038
REMARK UNBOUND:                -0.035
REMARK SMILES CCCC(=O)[O-]
REMARK SMILES IDX 3 1 4 2 5 3 6 4 2 5 1 6
REMARK H PARENT
REMARK Flexibility Score: inf
ROOT
ATOM      1  C   UNL     1      39.725  10.594  12.683  1.00  0.00     0.052 C 
ENDROOT
BRANCH   1   2
ATOM      2  C   UNL     1      40.515   9.823  11.671  1.00  0.00     0.041 C 
ATOM      3  O   UNL     1      41.165  10.428  10.778  1.00  0.00    -0.550 OA
ATOM      4  O   UNL     1      40.559   8.436  11.733  1.00  0.00    -0.550 OA
ENDBRANCH   1   2
BRANCH   1   5
ATOM      5  C   UNL     1      39.712  12.095  12.369  1.00  0.00     0.003 C 
ATOM      6  C   UNL     1      40.538  12.905  13.368  1.00  0.00     0.004 C 
ENDBRANCH   1   5
TORSDOF 2
ENDMDL
MODEL 5
REMARK VINA RESULT:    -2.490      2.269      3.312
REMARK INTER + INTRA:          -2.816
REMARK INTER:                  -2.778
REMARK INTRA:                  -0.038
REMARK UNBOUND:                -0.035
REMARK SMILES CCCC(=O)[O-]
REMARK SMILES IDX 3 1 4 2 5 3 6 4 2 5 1 6
REMARK H PARENT
REMARK Flexibility Score: inf
ROOT
ATOM      1  C   UNL     1      39.626  10.596  12.592  1.00  0.00     0.052 C 
ENDROOT
BRANCH   1   2
ATOM      2  C   UNL     1      40.469   9.825  11.624  1.00  0.00     0.041 C 
ATOM      3  O   UNL     1      40.559   8.572  11.717  1.00  0.00    -0.550 OA
ATOM      4  O   UNL     1      41.131  10.487  10.598  1.00  0.00    -0.550 OA
ENDBRANCH   1   2
BRANCH   1   5
ATOM      5  C   UNL     1      39.675  12.103  12.313  1.00  0.00     0.003 C 
ATOM      6  C   UNL     1      40.517  12.857  13.343  1.00  0.00     0.004 C 
ENDBRANCH   1   5
TORSDOF 2
ENDMDL
MODEL 6
REMARK VINA RESULT:    -2.459     12.071     12.851
REMARK INTER + INTRA:          -2.781
REMARK INTER:                  -2.729
REMARK INTRA:                  -0.053
REMARK UNBOUND:                -0.035
REMARK SMILES CCCC(=O)[O-]
REMARK SMILES IDX 3 1 4 2 5 3 6 4 2 5 1 6
REMARK H PARENT
REMARK Flexibility Score: inf
ROOT
ATOM      1  C   UNL     1      45.652   8.293   0.517  1.00  0.00     0.052 C 
ENDROOT
BRANCH   1   2
ATOM      2  C   UNL     1      45.344   8.984   1.809  1.00  0.00     0.041 C 
ATOM      3  O   UNL     1      44.188   8.918   2.304  1.00  0.00    -0.550 OA
ATOM      4  O   UNL     1      46.343   9.673   2.485  1.00  0.00    -0.550 OA
ENDBRANCH   1   2
BRANCH   1   5
ATOM      5  C   UNL     1      45.873   9.295  -0.623  1.00  0.00     0.003 C 
ATOM      6  C   UNL     1      44.594  10.045  -0.994  1.00  0.00     0.004 C 
ENDBRANCH   1   5
TORSDOF 2
ENDMDL
MODEL 7
REMARK VINA RESULT:    -2.364      2.149      2.623
REMARK INTER + INTRA:          -2.675
REMARK INTER:                  -2.645
REMARK INTRA:                  -0.030
REMARK UNBOUND:                -0.035
REMARK SMILES CCCC(=O)[O-]
REMARK SMILES IDX 3 1 4 2 5 3 6 4 2 5 1 6
REMARK H PARENT
REMARK Flexibility Score: inf
ROOT
ATOM      1  C   UNL     1      40.070  12.425  12.623  1.00  0.00     0.052 C 
ENDROOT
BRANCH   1   2
ATOM      2  C   UNL     1      38.640  12.237  13.027  1.00  0.00     0.041 C 
ATOM      3  O   UNL     1      38.108  13.016  13.862  1.00  0.00    -0.550 OA
ATOM      4  O   UNL     1      37.884  11.221  12.457  1.00  0.00    -0.550 OA
ENDBRANCH   1   2
BRANCH   1   5
ATOM      5  C   UNL     1      40.890  11.146  12.829  1.00  0.00     0.003 C 
ATOM      6  C   UNL     1      41.165  10.414  11.515  1.00  0.00     0.004 C 
ENDBRANCH   1   5
TORSDOF 2
ENDMDL
MODEL 8
REMARK VINA RESULT:    -2.359      1.481      1.870
REMARK INTER + INTRA:          -2.669
REMARK INTER:                  -2.660
REMARK INTRA:                  -0.009
REMARK UNBOUND:                -0.035
REMARK SMILES CCCC(=O)[O-]
REMARK SMILES IDX 3 1 4 2 5 3 6 4 2 5 1 6
REMARK H PARENT
REMARK Flexibility Score: inf
ROOT
ATOM      1  C   UNL     1      41.382  11.632  13.237  1.00  0.00     0.052 C 
ENDROOT
BRANCH   1   2
ATOM      2  C   UNL     1      41.289  12.194  14.622  1.00  0.00     0.041 C 
ATOM      3  O   UNL     1      42.220  12.003  15.448  1.00  0.00    -0.550 OA
ATOM      4  O   UNL     1      40.189  12.958  14.990  1.00  0.00    -0.550 OA
ENDBRANCH   1   2
BRANCH   1   5
ATOM      5  C   UNL     1      40.051  11.756  12.484  1.00  0.00     0.003 C 
ATOM      6  C   UNL     1      40.031  10.928  11.199  1.00  0.00     0.004 C 
ENDBRANCH   1   5
TORSDOF 2
ENDMDL
MODEL 9
REMARK VINA RESULT:    -2.196      2.036      2.829
REMARK INTER + INTRA:          -2.488
REMARK INTER:                  -2.418
REMARK INTRA:                  -0.070
REMARK UNBOUND:                -0.035
REMARK SMILES CCCC(=O)[O-]
REMARK SMILES IDX 3 1 4 2 5 3 6 4 2 5 1 6
REMARK H PARENT
REMARK Flexibility Score: inf
ROOT
ATOM      1  C   UNL     1      40.403  12.290  13.058  1.00  0.00     0.052 C 
ENDROOT
BRANCH   1   2
ATOM      2  C   UNL     1      40.441  11.154  12.082  1.00  0.00     0.041 C 
ATOM      3  O   UNL     1      41.506  10.505  11.905  1.00  0.00    -0.550 OA
ATOM      4  O   UNL     1      39.292  10.792  11.392  1.00  0.00    -0.550 OA
ENDBRANCH   1   2
BRANCH   1   5
ATOM      5  C   UNL     1      40.594  11.804  14.501  1.00  0.00     0.003 C 
ATOM      6  C   UNL     1      39.481  10.855  14.946  1.00  0.00     0.004 C 
ENDBRANCH   1   5
TORSDOF 2
ENDMDL
