MODEL 1
REMARK VINA RESULT:    -8.835      0.000      0.000
REMARK INTER + INTRA:         -12.519
REMARK INTER:                 -12.967
REMARK INTRA:                   0.448
REMARK UNBOUND:                 0.448
REMARK SMILES Cc1cc2c(C(C)C)c(O)c(O)c(C=O)c2c(O)c1-c1c(C)cc2c(C(C)C)c(O)c(O)c(C=O)c2c1O
REMARK SMILES IDX 1 1 2 2 3 3 4 4 16 5 13 6 11 7 9 8 5 9 17 10 19 11 20 12
REMARK SMILES IDX 37 13 21 14 36 15 23 16 22 17 24 18 33 19 25 20 31 21 29 22
REMARK SMILES IDX 38 23 34 25 35 26 26 27 27 28 28 29 32 30 30 32 18 34 6 36
REMARK SMILES IDX 7 37 8 38 14 39 15 40 10 41 12 43
REMARK H PARENT 38 24 32 31 30 33 18 35 10 42 12 44
REMARK Flexibility Score: inf
ROOT
ATOM      1  C   UNL     1      21.545  69.661  77.705  1.00  0.00     0.045 C 
ATOM      2  C   UNL     1      20.461  70.168  76.784  1.00  0.00    -0.039 A 
ATOM      3  C   UNL     1      20.735  70.326  75.426  1.00  0.00     0.013 A 
ATOM      4  C   UNL     1      19.752  70.761  74.510  1.00  0.00    -0.006 A 
ATOM      5  C   UNL     1      18.473  71.157  75.011  1.00  0.00     0.039 A 
ATOM      6  C   UNL     1      17.526  71.725  74.105  1.00  0.00     0.072 A 
ATOM      7  C   UNL     1      17.884  71.946  72.759  1.00  0.00     0.169 A 
ATOM      8  C   UNL     1      19.136  71.548  72.283  1.00  0.00     0.162 A 
ATOM      9  C   UNL     1      20.036  70.847  73.112  1.00  0.00     0.008 A 
ATOM     10  C   UNL     1      18.200  71.003  76.406  1.00  0.00     0.132 A 
ATOM     11  C   UNL     1      19.183  70.477  77.273  1.00  0.00     0.031 A 
ENDROOT
BRANCH  11  12
ATOM     12  C   UNL     1      18.875  70.273  78.713  1.00  0.00     0.031 A 
ATOM     13  C   UNL     1      18.605  71.377  79.548  1.00  0.00     0.132 A 
ATOM     14  C   UNL     1      18.850  68.972  79.242  1.00  0.00    -0.039 A 
ATOM     15  C   UNL     1      18.280  71.178  80.922  1.00  0.00     0.039 A 
ATOM     16  C   UNL     1      18.655  68.792  80.612  1.00  0.00     0.013 A 
ATOM     17  C   UNL     1      19.077  67.770  78.358  1.00  0.00     0.045 C 
ATOM     18  C   UNL     1      18.436  69.877  81.486  1.00  0.00    -0.006 A 
ATOM     19  C   UNL     1      17.820  72.239  81.752  1.00  0.00     0.072 A 
ATOM     20  C   UNL     1      18.365  69.696  82.904  1.00  0.00     0.008 A 
ATOM     21  C   UNL     1      17.632  72.026  83.129  1.00  0.00     0.169 A 
ATOM     22  C   UNL     1      17.958  70.786  83.709  1.00  0.00     0.162 A 
BRANCH  13  23
ATOM     23  O   UNL     1      18.702  72.672  79.027  1.00  0.00    -0.507 OA
ATOM     24  H   UNL     1      18.652  72.889  78.040  1.00  0.00     0.293 HD
ENDBRANCH  13  23
BRANCH  19  25
ATOM     25  C   UNL     1      17.380  73.540  81.190  1.00  0.00     0.264 C 
ATOM     26  O   UNL     1      16.200  73.705  80.781  1.00  0.00    -0.298 OA
ENDBRANCH  19  25
BRANCH  20  27
ATOM     27  C   UNL     1      18.742  68.380  83.617  1.00  0.00     0.017 C 
ATOM     28  C   UNL     1      18.671  67.173  82.672  1.00  0.00     0.012 C 
ATOM     29  C   UNL     1      20.056  68.443  84.422  1.00  0.00     0.012 C 
ENDBRANCH  20  27
BRANCH  21  30
ATOM     30  O   UNL     1      17.082  73.061  83.895  1.00  0.00    -0.504 OA
ATOM     31  H   UNL     1      16.842  73.973  83.536  1.00  0.00     0.293 HD
ENDBRANCH  21  30
BRANCH  22  32
ATOM     32  O   UNL     1      17.878  70.610  85.097  1.00  0.00    -0.504 OA
ATOM     33  H   UNL     1      17.596  69.752  85.550  1.00  0.00     0.293 HD
ENDBRANCH  22  32
ENDBRANCH  11  12
BRANCH  10  34
ATOM     34  O   UNL     1      16.962  71.383  76.934  1.00  0.00    -0.507 OA
ATOM     35  H   UNL     1      16.262  71.904  76.422  1.00  0.00     0.293 HD
ENDBRANCH  10  34
BRANCH   9  36
ATOM     36  C   UNL     1      21.299  70.212  72.500  1.00  0.00     0.017 C 
ATOM     37  C   UNL     1      22.365  71.276  72.220  1.00  0.00     0.012 C 
ATOM     38  C   UNL     1      21.022  69.356  71.250  1.00  0.00     0.012 C 
ENDBRANCH   9  36
BRANCH   6  39
ATOM     39  C   UNL     1      16.165  72.107  74.533  1.00  0.00     0.264 C 
ATOM     40  O   UNL     1      15.189  71.338  74.326  1.00  0.00    -0.298 OA
ENDBRANCH   6  39
BRANCH   8  41
ATOM     41  O   UNL     1      19.491  71.848  70.965  1.00  0.00    -0.504 OA
ATOM     42  H   UNL     1      20.196  72.534  70.725  1.00  0.00     0.293 HD
ENDBRANCH   8  41
BRANCH   7  43
ATOM     43  O   UNL     1      16.995  72.533  71.850  1.00  0.00    -0.504 OA
ATOM     44  H   UNL     1      15.989  72.450  71.903  1.00  0.00     0.293 HD
ENDBRANCH   7  43
TORSDOF 11
ENDMDL
MODEL 2
REMARK VINA RESULT:    -8.826      2.105      4.190
REMARK INTER + INTRA:         -12.506
REMARK INTER:                 -12.010
REMARK INTRA:                  -0.496
REMARK UNBOUND:                 0.448
REMARK SMILES Cc1cc2c(C(C)C)c(O)c(O)c(C=O)c2c(O)c1-c1c(C)cc2c(C(C)C)c(O)c(O)c(C=O)c2c1O
REMARK SMILES IDX 1 1 2 2 3 3 4 4 16 5 13 6 11 7 9 8 5 9 17 10 19 11 20 12
REMARK SMILES IDX 37 13 21 14 36 15 23 16 22 17 24 18 33 19 25 20 31 21 29 22
REMARK SMILES IDX 38 23 34 25 35 26 26 27 27 28 28 29 32 30 30 32 18 34 6 36
REMARK SMILES IDX 7 37 8 38 14 39 15 40 10 41 12 43
REMARK H PARENT 38 24 32 31 30 33 18 35 10 42 12 44
REMARK Flexibility Score: inf
ROOT
ATOM      1  C   UNL     1      16.015  71.632  77.167  1.00  0.00     0.045 C 
ATOM      2  C   UNL     1      17.347  71.365  76.509  1.00  0.00    -0.039 A 
ATOM      3  C   UNL     1      17.441  71.386  75.118  1.00  0.00     0.013 A 
ATOM      4  C   UNL     1      18.667  71.181  74.447  1.00  0.00    -0.006 A 
ATOM      5  C   UNL     1      19.820  70.829  75.215  1.00  0.00     0.039 A 
ATOM      6  C   UNL     1      21.025  70.487  74.529  1.00  0.00     0.072 A 
ATOM      7  C   UNL     1      21.043  70.438  73.120  1.00  0.00     0.169 A 
ATOM      8  C   UNL     1      19.909  70.790  72.382  1.00  0.00     0.162 A 
ATOM      9  C   UNL     1      18.752  71.278  73.024  1.00  0.00     0.008 A 
ATOM     10  C   UNL     1      19.716  70.798  76.641  1.00  0.00     0.132 A 
ATOM     11  C   UNL     1      18.492  71.100  77.276  1.00  0.00     0.031 A 
ENDROOT
BRANCH  11  12
ATOM     12  C   UNL     1      18.404  71.115  78.760  1.00  0.00     0.031 A 
ATOM     13  C   UNL     1      18.529  69.917  79.494  1.00  0.00     0.132 A 
ATOM     14  C   UNL     1      18.202  72.331  79.433  1.00  0.00    -0.039 A 
ATOM     15  C   UNL     1      18.476  69.937  80.918  1.00  0.00     0.039 A 
ATOM     16  C   UNL     1      18.025  72.327  80.817  1.00  0.00     0.013 A 
ATOM     17  C   UNL     1      18.125  73.635  78.677  1.00  0.00     0.045 C 
ATOM     18  C   UNL     1      18.088  71.141  81.577  1.00  0.00    -0.006 A 
ATOM     19  C   UNL     1      18.781  68.788  81.703  1.00  0.00     0.072 A 
ATOM     20  C   UNL     1      17.780  71.127  82.975  1.00  0.00     0.008 A 
ATOM     21  C   UNL     1      18.593  68.816  83.096  1.00  0.00     0.169 A 
ATOM     22  C   UNL     1      18.043  69.952  83.718  1.00  0.00     0.162 A 
BRANCH  13  23
ATOM     23  O   UNL     1      18.660  68.703  78.810  1.00  0.00    -0.507 OA
ATOM     24  H   UNL     1      18.065  68.421  78.042  1.00  0.00     0.293 HD
ENDBRANCH  13  23
BRANCH  19  25
ATOM     25  C   UNL     1      19.441  67.593  81.120  1.00  0.00     0.264 C 
ATOM     26  O   UNL     1      20.500  67.128  81.619  1.00  0.00    -0.298 OA
ENDBRANCH  19  25
BRANCH  20  27
ATOM     27  C   UNL     1      17.141  72.318  83.721  1.00  0.00     0.017 C 
ATOM     28  C   UNL     1      18.129  73.478  83.905  1.00  0.00     0.012 C 
ATOM     29  C   UNL     1      15.777  72.767  83.157  1.00  0.00     0.012 C 
ENDBRANCH  20  27
BRANCH  21  30
ATOM     30  O   UNL     1      19.000  67.706  83.845  1.00  0.00    -0.504 OA
ATOM     31  H   UNL     1      19.756  67.713  84.514  1.00  0.00     0.293 HD
ENDBRANCH  21  30
BRANCH  22  32
ATOM     32  O   UNL     1      17.752  69.938  85.088  1.00  0.00    -0.504 OA
ATOM     33  H   UNL     1      18.436  69.792  85.817  1.00  0.00     0.293 HD
ENDBRANCH  22  32
ENDBRANCH  11  12
BRANCH  10  34
ATOM     34  O   UNL     1      20.821  70.454  77.427  1.00  0.00    -0.507 OA
ATOM     35  H   UNL     1      21.082  69.503  77.655  1.00  0.00     0.293 HD
ENDBRANCH  10  34
BRANCH   9  36
ATOM     36  C   UNL     1      17.612  71.883  72.182  1.00  0.00     0.017 C 
ATOM     37  C   UNL     1      17.546  73.402  72.363  1.00  0.00     0.012 C 
ATOM     38  C   UNL     1      16.239  71.230  72.433  1.00  0.00     0.012 C 
ENDBRANCH   9  36
BRANCH   6  39
ATOM     39  C   UNL     1      22.273  70.167  75.250  1.00  0.00     0.264 C 
ATOM     40  O   UNL     1      23.244  70.969  75.237  1.00  0.00    -0.298 OA
ENDBRANCH   6  39
BRANCH   8  41
ATOM     41  O   UNL     1      19.932  70.659  70.992  1.00  0.00    -0.504 OA
ATOM     42  H   UNL     1      20.327  69.856  70.518  1.00  0.00     0.293 HD
ENDBRANCH   8  41
BRANCH   7  43
ATOM     43  O   UNL     1      22.195  70.072  72.412  1.00  0.00    -0.504 OA
ATOM     44  H   UNL     1      22.200  69.789  71.441  1.00  0.00     0.293 HD
ENDBRANCH   7  43
TORSDOF 11
ENDMDL
MODEL 3
REMARK VINA RESULT:    -8.634      2.075      9.270
REMARK INTER + INTRA:         -12.224
REMARK INTER:                 -11.249
REMARK INTRA:                  -0.975
REMARK UNBOUND:                 0.448
REMARK SMILES Cc1cc2c(C(C)C)c(O)c(O)c(C=O)c2c(O)c1-c1c(C)cc2c(C(C)C)c(O)c(O)c(C=O)c2c1O
REMARK SMILES IDX 1 1 2 2 3 3 4 4 16 5 13 6 11 7 9 8 5 9 17 10 19 11 20 12
REMARK SMILES IDX 37 13 21 14 36 15 23 16 22 17 24 18 33 19 25 20 31 21 29 22
REMARK SMILES IDX 38 23 34 25 35 26 26 27 27 28 28 29 32 30 30 32 18 34 6 36
REMARK SMILES IDX 7 37 8 38 14 39 15 40 10 41 12 43
REMARK H PARENT 38 24 32 31 30 33 18 35 10 42 12 44
REMARK Flexibility Score: inf
ROOT
ATOM      1  C   UNL     1      18.129  73.672  78.597  1.00  0.00     0.045 C 
ATOM      2  C   UNL     1      18.267  72.387  79.376  1.00  0.00    -0.039 A 
ATOM      3  C   UNL     1      18.233  72.423  80.770  1.00  0.00     0.013 A 
ATOM      4  C   UNL     1      18.320  71.250  81.551  1.00  0.00    -0.006 A 
ATOM      5  C   UNL     1      18.564  70.003  80.895  1.00  0.00     0.039 A 
ATOM      6  C   UNL     1      18.789  68.839  81.691  1.00  0.00     0.072 A 
ATOM      7  C   UNL     1      18.833  68.946  83.097  1.00  0.00     0.169 A 
ATOM      8  C   UNL     1      18.586  70.170  83.724  1.00  0.00     0.162 A 
ATOM      9  C   UNL     1      18.212  71.304  82.974  1.00  0.00     0.008 A 
ATOM     10  C   UNL     1      18.609  69.973  79.466  1.00  0.00     0.132 A 
ATOM     11  C   UNL     1      18.425  71.157  78.719  1.00  0.00     0.031 A 
ENDROOT
BRANCH  11  12
ATOM     12  C   UNL     1      18.423  71.110  77.233  1.00  0.00     0.031 A 
ATOM     13  C   UNL     1      19.631  70.950  76.523  1.00  0.00     0.132 A 
ATOM     14  C   UNL     1      17.209  71.220  76.535  1.00  0.00    -0.039 A 
ATOM     15  C   UNL     1      19.624  70.874  75.099  1.00  0.00     0.039 A 
ATOM     16  C   UNL     1      17.222  71.270  75.141  1.00  0.00     0.013 A 
ATOM     17  C   UNL     1      15.896  71.331  77.271  1.00  0.00     0.045 C 
ATOM     18  C   UNL     1      18.417  71.169  74.399  1.00  0.00    -0.006 A 
ATOM     19  C   UNL     1      20.788  70.529  74.355  1.00  0.00     0.072 A 
ATOM     20  C   UNL     1      18.437  71.350  72.979  1.00  0.00     0.008 A 
ATOM     21  C   UNL     1      20.769  70.589  72.950  1.00  0.00     0.169 A 
ATOM     22  C   UNL     1      19.626  71.051  72.272  1.00  0.00     0.162 A 
BRANCH  13  23
ATOM     23  O   UNL     1      20.841  70.912  77.225  1.00  0.00    -0.507 OA
ATOM     24  H   UNL     1      21.544  70.195  77.099  1.00  0.00     0.293 HD
ENDBRANCH  13  23
BRANCH  19  25
ATOM     25  C   UNL     1      21.993  69.955  75.003  1.00  0.00     0.264 C 
ATOM     26  O   UNL     1      23.041  70.638  75.148  1.00  0.00    -0.298 OA
ENDBRANCH  19  25
BRANCH  20  27
ATOM     27  C   UNL     1      17.238  71.888  72.169  1.00  0.00     0.017 C 
ATOM     28  C   UNL     1      15.951  71.102  72.455  1.00  0.00     0.012 C 
ATOM     29  C   UNL     1      17.046  73.416  72.252  1.00  0.00     0.012 C 
ENDBRANCH  20  27
BRANCH  21  30
ATOM     30  O   UNL     1      21.896  70.145  72.249  1.00  0.00    -0.504 OA
ATOM     31  H   UNL     1      22.474  70.731  71.664  1.00  0.00     0.293 HD
ENDBRANCH  21  30
BRANCH  22  32
ATOM     32  O   UNL     1      19.646  71.218  70.881  1.00  0.00    -0.504 OA
ATOM     33  H   UNL     1      18.826  71.365  70.310  1.00  0.00     0.293 HD
ENDBRANCH  22  32
ENDBRANCH  11  12
BRANCH  10  34
ATOM     34  O   UNL     1      18.850  68.773  78.787  1.00  0.00    -0.507 OA
ATOM     35  H   UNL     1      18.438  68.533  77.895  1.00  0.00     0.293 HD
ENDBRANCH  10  34
BRANCH   9  36
ATOM     36  C   UNL     1      17.714  72.568  83.702  1.00  0.00     0.017 C 
ATOM     37  C   UNL     1      18.866  73.270  84.427  1.00  0.00     0.012 C 
ATOM     38  C   UNL     1      16.529  72.313  84.653  1.00  0.00     0.012 C 
ENDBRANCH   9  36
BRANCH   6  39
ATOM     39  C   UNL     1      18.992  67.506  81.089  1.00  0.00     0.264 C 
ATOM     40  O   UNL     1      18.538  66.474  81.651  1.00  0.00    -0.298 OA
ENDBRANCH   6  39
BRANCH   8  41
ATOM     41  O   UNL     1      18.711  70.262  85.112  1.00  0.00    -0.504 OA
ATOM     42  H   UNL     1      19.536  70.630  85.571  1.00  0.00     0.293 HD
ENDBRANCH   8  41
BRANCH   7  43
ATOM     43  O   UNL     1      19.086  67.834  83.910  1.00  0.00    -0.504 OA
ATOM     44  H   UNL     1      18.478  67.028  83.978  1.00  0.00     0.293 HD
ENDBRANCH   7  43
TORSDOF 11
ENDMDL
MODEL 4
REMARK VINA RESULT:    -8.543      1.570      9.114
REMARK INTER + INTRA:         -12.091
REMARK INTER:                 -12.366
REMARK INTRA:                   0.275
REMARK UNBOUND:                 0.448
REMARK SMILES Cc1cc2c(C(C)C)c(O)c(O)c(C=O)c2c(O)c1-c1c(C)cc2c(C(C)C)c(O)c(O)c(C=O)c2c1O
REMARK SMILES IDX 1 1 2 2 3 3 4 4 16 5 13 6 11 7 9 8 5 9 17 10 19 11 20 12
REMARK SMILES IDX 37 13 21 14 36 15 23 16 22 17 24 18 33 19 25 20 31 21 29 22
REMARK SMILES IDX 38 23 34 25 35 26 26 27 27 28 28 29 32 30 30 32 18 34 6 36
REMARK SMILES IDX 7 37 8 38 14 39 15 40 10 41 12 43
REMARK H PARENT 38 24 32 31 30 33 18 35 10 42 12 44
REMARK Flexibility Score: inf
ROOT
ATOM      1  C   UNL     1      19.221  67.952  78.049  1.00  0.00     0.045 C 
ATOM      2  C   UNL     1      19.116  69.060  79.070  1.00  0.00    -0.039 A 
ATOM      3  C   UNL     1      19.251  68.758  80.424  1.00  0.00     0.013 A 
ATOM      4  C   UNL     1      19.199  69.757  81.422  1.00  0.00    -0.006 A 
ATOM      5  C   UNL     1      18.886  71.098  81.037  1.00  0.00     0.039 A 
ATOM      6  C   UNL     1      18.697  72.080  82.056  1.00  0.00     0.072 A 
ATOM      7  C   UNL     1      18.757  71.705  83.414  1.00  0.00     0.169 A 
ATOM      8  C   UNL     1      19.069  70.391  83.775  1.00  0.00     0.162 A 
ATOM      9  C   UNL     1      19.410  69.434  82.797  1.00  0.00     0.008 A 
ATOM     10  C   UNL     1      18.738  71.400  79.647  1.00  0.00     0.132 A 
ATOM     11  C   UNL     1      18.889  70.387  78.675  1.00  0.00     0.031 A 
ENDROOT
BRANCH  11  12
ATOM     12  C   UNL     1      18.784  70.718  77.229  1.00  0.00     0.031 A 
ATOM     13  C   UNL     1      19.928  70.686  76.405  1.00  0.00     0.132 A 
ATOM     14  C   UNL     1      17.537  71.060  76.682  1.00  0.00    -0.039 A 
ATOM     15  C   UNL     1      19.821  70.973  75.013  1.00  0.00     0.039 A 
ATOM     16  C   UNL     1      17.459  71.461  75.348  1.00  0.00     0.013 A 
ATOM     17  C   UNL     1      16.287  71.044  77.528  1.00  0.00     0.045 C 
ATOM     18  C   UNL     1      18.592  71.494  74.509  1.00  0.00    -0.006 A 
ATOM     19  C   UNL     1      20.906  70.772  74.113  1.00  0.00     0.072 A 
ATOM     20  C   UNL     1      18.529  72.027  73.182  1.00  0.00     0.008 A 
ATOM     21  C   UNL     1      20.797  71.186  72.774  1.00  0.00     0.169 A 
ATOM     22  C   UNL     1      19.645  71.860  72.328  1.00  0.00     0.162 A 
BRANCH  13  23
ATOM     23  O   UNL     1      21.177  70.413  76.974  1.00  0.00    -0.507 OA
ATOM     24  H   UNL     1      22.055  70.749  76.597  1.00  0.00     0.293 HD
ENDBRANCH  13  23
BRANCH  19  25
ATOM     25  C   UNL     1      22.110  69.994  74.497  1.00  0.00     0.264 C 
ATOM     26  O   UNL     1      23.220  70.562  74.678  1.00  0.00    -0.298 OA
ENDBRANCH  19  25
BRANCH  20  27
ATOM     27  C   UNL     1      17.318  72.810  72.633  1.00  0.00     0.017 C 
ATOM     28  C   UNL     1      17.746  73.979  71.735  1.00  0.00     0.012 C 
ATOM     29  C   UNL     1      16.222  71.929  71.998  1.00  0.00     0.012 C 
ENDBRANCH  20  27
BRANCH  21  30
ATOM     30  O   UNL     1      21.842  70.880  71.894  1.00  0.00    -0.504 OA
ATOM     31  H   UNL     1      22.576  70.214  72.087  1.00  0.00     0.293 HD
ENDBRANCH  21  30
BRANCH  22  32
ATOM     32  O   UNL     1      19.583  72.372  71.025  1.00  0.00    -0.504 OA
ATOM     33  H   UNL     1      19.417  73.342  70.799  1.00  0.00     0.293 HD
ENDBRANCH  22  32
ENDBRANCH  11  12
BRANCH  10  34
ATOM     34  O   UNL     1      18.428  72.699  79.231  1.00  0.00    -0.507 OA
ATOM     35  H   UNL     1      19.093  73.460  79.203  1.00  0.00     0.293 HD
ENDBRANCH  10  34
BRANCH   9  36
ATOM     36  C   UNL     1      19.981  68.070  83.232  1.00  0.00     0.017 C 
ATOM     37  C   UNL     1      18.889  66.997  83.236  1.00  0.00     0.012 C 
ATOM     38  C   UNL     1      20.730  68.110  84.578  1.00  0.00     0.012 C 
ENDBRANCH   9  36
BRANCH   6  39
ATOM     39  C   UNL     1      18.428  73.496  81.739  1.00  0.00     0.264 C 
ATOM     40  O   UNL     1      17.258  73.958  81.810  1.00  0.00    -0.298 OA
ENDBRANCH   6  39
BRANCH   8  41
ATOM     41  O   UNL     1      19.046  70.031  85.125  1.00  0.00    -0.504 OA
ATOM     42  H   UNL     1      18.230  69.642  85.580  1.00  0.00     0.293 HD
ENDBRANCH   8  41
BRANCH   7  43
ATOM     43  O   UNL     1      18.542  72.631  84.442  1.00  0.00    -0.504 OA
ATOM     44  H   UNL     1      17.654  73.078  84.629  1.00  0.00     0.293 HD
ENDBRANCH   7  43
TORSDOF 11
ENDMDL
MODEL 5
REMARK VINA RESULT:    -8.270      1.557      2.964
REMARK INTER + INTRA:         -11.690
REMARK INTER:                 -12.099
REMARK INTRA:                   0.409
REMARK UNBOUND:                 0.448
REMARK SMILES Cc1cc2c(C(C)C)c(O)c(O)c(C=O)c2c(O)c1-c1c(C)cc2c(C(C)C)c(O)c(O)c(C=O)c2c1O
REMARK SMILES IDX 1 1 2 2 3 3 4 4 16 5 13 6 11 7 9 8 5 9 17 10 19 11 20 12
REMARK SMILES IDX 37 13 21 14 36 15 23 16 22 17 24 18 33 19 25 20 31 21 29 22
REMARK SMILES IDX 38 23 34 25 35 26 26 27 27 28 28 29 32 30 30 32 18 34 6 36
REMARK SMILES IDX 7 37 8 38 14 39 15 40 10 41 12 43
REMARK H PARENT 38 24 32 31 30 33 18 35 10 42 12 44
REMARK Flexibility Score: inf
ROOT
ATOM      1  C   UNL     1      16.088  71.081  76.980  1.00  0.00     0.045 C 
ATOM      2  C   UNL     1      17.482  70.966  76.413  1.00  0.00    -0.039 A 
ATOM      3  C   UNL     1      17.685  71.170  75.048  1.00  0.00     0.013 A 
ATOM      4  C   UNL     1      18.972  71.113  74.467  1.00  0.00    -0.006 A 
ATOM      5  C   UNL     1      20.079  70.725  75.284  1.00  0.00     0.039 A 
ATOM      6  C   UNL     1      21.353  70.534  74.669  1.00  0.00     0.072 A 
ATOM      7  C   UNL     1      21.487  70.665  73.271  1.00  0.00     0.169 A 
ATOM      8  C   UNL     1      20.397  71.052  72.486  1.00  0.00     0.162 A 
ATOM      9  C   UNL     1      19.164  71.395  73.080  1.00  0.00     0.008 A 
ATOM     10  C   UNL     1      19.863  70.507  76.680  1.00  0.00     0.132 A 
ATOM     11  C   UNL     1      18.576  70.664  77.238  1.00  0.00     0.031 A 
ENDROOT
BRANCH  11  12
ATOM     12  C   UNL     1      18.368  70.485  78.699  1.00  0.00     0.031 A 
ATOM     13  C   UNL     1      18.104  71.599  79.524  1.00  0.00     0.132 A 
ATOM     14  C   UNL     1      18.431  69.199  79.259  1.00  0.00    -0.039 A 
ATOM     15  C   UNL     1      17.874  71.423  80.920  1.00  0.00     0.039 A 
ATOM     16  C   UNL     1      18.331  69.047  80.643  1.00  0.00     0.013 A 
ATOM     17  C   UNL     1      18.653  67.984  78.392  1.00  0.00     0.045 C 
ATOM     18  C   UNL     1      18.121  70.144  81.503  1.00  0.00    -0.006 A 
ATOM     19  C   UNL     1      17.423  72.486  81.753  1.00  0.00     0.072 A 
ATOM     20  C   UNL     1      18.147  69.998  82.927  1.00  0.00     0.008 A 
ATOM     21  C   UNL     1      17.331  72.301  83.143  1.00  0.00     0.169 A 
ATOM     22  C   UNL     1      17.745  71.091  83.731  1.00  0.00     0.162 A 
BRANCH  13  23
ATOM     23  O   UNL     1      18.113  72.883  78.968  1.00  0.00    -0.507 OA
ATOM     24  H   UNL     1      17.374  73.249  78.381  1.00  0.00     0.293 HD
ENDBRANCH  13  23
BRANCH  19  25
ATOM     25  C   UNL     1      16.893  73.753  81.189  1.00  0.00     0.264 C 
ATOM     26  O   UNL     1      15.713  74.125  81.423  1.00  0.00    -0.298 OA
ENDBRANCH  19  25
BRANCH  20  27
ATOM     27  C   UNL     1      18.623  68.718  83.646  1.00  0.00     0.017 C 
ATOM     28  C   UNL     1      18.553  67.486  82.733  1.00  0.00     0.012 C 
ATOM     29  C   UNL     1      19.977  68.858  84.371  1.00  0.00     0.012 C 
ENDBRANCH  20  27
BRANCH  21  30
ATOM     30  O   UNL     1      16.787  73.333  83.918  1.00  0.00    -0.504 OA
ATOM     31  H   UNL     1      15.825  73.372  84.224  1.00  0.00     0.293 HD
ENDBRANCH  21  30
BRANCH  22  32
ATOM     32  O   UNL     1      17.759  70.949  85.124  1.00  0.00    -0.504 OA
ATOM     33  H   UNL     1      17.127  70.358  85.646  1.00  0.00     0.293 HD
ENDBRANCH  22  32
ENDBRANCH  11  12
BRANCH  10  34
ATOM     34  O   UNL     1      20.920  70.121  77.511  1.00  0.00    -0.507 OA
ATOM     35  H   UNL     1      21.853  70.510  77.461  1.00  0.00     0.293 HD
ENDBRANCH  10  34
BRANCH   9  36
ATOM     36  C   UNL     1      18.061  72.044  72.222  1.00  0.00     0.017 C 
ATOM     37  C   UNL     1      17.999  73.555  72.464  1.00  0.00     0.012 C 
ATOM     38  C   UNL     1      16.675  71.394  72.394  1.00  0.00     0.012 C 
ENDBRANCH   9  36
BRANCH   6  39
ATOM     39  C   UNL     1      22.557  70.187  75.451  1.00  0.00     0.264 C 
ATOM     40  O   UNL     1      23.521  70.994  75.534  1.00  0.00    -0.298 OA
ENDBRANCH   6  39
BRANCH   8  41
ATOM     41  O   UNL     1      20.540  71.100  71.097  1.00  0.00    -0.504 OA
ATOM     42  H   UNL     1      21.438  71.168  70.635  1.00  0.00     0.293 HD
ENDBRANCH   8  41
BRANCH   7  43
ATOM     43  O   UNL     1      22.713  70.451  72.627  1.00  0.00    -0.504 OA
ATOM     44  H   UNL     1      22.832  69.864  71.812  1.00  0.00     0.293 HD
ENDBRANCH   7  43
TORSDOF 11
ENDMDL
MODEL 6
REMARK VINA RESULT:    -8.001      0.289      8.714
REMARK INTER + INTRA:         -11.296
REMARK INTER:                 -11.706
REMARK INTRA:                   0.410
REMARK UNBOUND:                 0.448
REMARK SMILES Cc1cc2c(C(C)C)c(O)c(O)c(C=O)c2c(O)c1-c1c(C)cc2c(C(C)C)c(O)c(O)c(C=O)c2c1O
REMARK SMILES IDX 1 1 2 2 3 3 4 4 16 5 13 6 11 7 9 8 5 9 17 10 19 11 20 12
REMARK SMILES IDX 37 13 21 14 36 15 23 16 22 17 24 18 33 19 25 20 31 21 29 22
REMARK SMILES IDX 38 23 34 25 35 26 26 27 27 28 28 29 32 30 30 32 18 34 6 36
REMARK SMILES IDX 7 37 8 38 14 39 15 40 10 41 12 43
REMARK H PARENT 38 24 32 31 30 33 18 35 10 42 12 44
REMARK Flexibility Score: inf
ROOT
ATOM      1  C   UNL     1      19.295  67.837  78.309  1.00  0.00     0.045 C 
ATOM      2  C   UNL     1      18.954  69.027  79.173  1.00  0.00    -0.039 A 
ATOM      3  C   UNL     1      18.679  68.834  80.526  1.00  0.00     0.013 A 
ATOM      4  C   UNL     1      18.390  69.912  81.392  1.00  0.00    -0.006 A 
ATOM      5  C   UNL     1      18.267  71.224  80.839  1.00  0.00     0.039 A 
ATOM      6  C   UNL     1      17.841  72.291  81.688  1.00  0.00     0.072 A 
ATOM      7  C   UNL     1      17.489  72.027  83.027  1.00  0.00     0.169 A 
ATOM      8  C   UNL     1      17.620  70.740  83.556  1.00  0.00     0.162 A 
ATOM      9  C   UNL     1      18.181  69.697  82.789  1.00  0.00     0.008 A 
ATOM     10  C   UNL     1      18.540  71.415  79.449  1.00  0.00     0.132 A 
ATOM     11  C   UNL     1      18.916  70.323  78.637  1.00  0.00     0.031 A 
ENDROOT
BRANCH  11  12
ATOM     12  C   UNL     1      19.247  70.537  77.203  1.00  0.00     0.031 A 
ATOM     13  C   UNL     1      18.252  70.955  76.296  1.00  0.00     0.132 A 
ATOM     14  C   UNL     1      20.560  70.327  76.754  1.00  0.00    -0.039 A 
ATOM     15  C   UNL     1      18.577  71.191  74.928  1.00  0.00     0.039 A 
ATOM     16  C   UNL     1      20.846  70.436  75.392  1.00  0.00     0.013 A 
ATOM     17  C   UNL     1      21.658  69.937  77.714  1.00  0.00     0.045 C 
ATOM     18  C   UNL     1      19.863  70.799  74.448  1.00  0.00    -0.006 A 
ATOM     19  C   UNL     1      17.655  71.788  74.022  1.00  0.00     0.072 A 
ATOM     20  C   UNL     1      20.130  70.785  73.042  1.00  0.00     0.008 A 
ATOM     21  C   UNL     1      17.972  71.885  72.656  1.00  0.00     0.169 A 
ATOM     22  C   UNL     1      19.169  71.337  72.161  1.00  0.00     0.162 A 
BRANCH  13  23
ATOM     23  O   UNL     1      16.932  71.094  76.740  1.00  0.00    -0.507 OA
ATOM     24  H   UNL     1      16.217  71.604  76.236  1.00  0.00     0.293 HD
ENDBRANCH  13  23
BRANCH  19  25
ATOM     25  C   UNL     1      16.417  72.459  74.492  1.00  0.00     0.264 C 
ATOM     26  O   UNL     1      15.282  71.966  74.259  1.00  0.00    -0.298 OA
ENDBRANCH  19  25
BRANCH  20  27
ATOM     27  C   UNL     1      21.401  70.169  72.420  1.00  0.00     0.017 C 
ATOM     28  C   UNL     1      21.075  69.251  71.234  1.00  0.00     0.012 C 
ATOM     29  C   UNL     1      22.518  71.186  72.109  1.00  0.00     0.012 C 
ENDBRANCH  20  27
BRANCH  21  30
ATOM     30  O   UNL     1      17.087  72.570  71.814  1.00  0.00    -0.504 OA
ATOM     31  H   UNL     1      17.091  73.570  71.672  1.00  0.00     0.293 HD
ENDBRANCH  21  30
BRANCH  22  32
ATOM     32  O   UNL     1      19.432  71.334  70.785  1.00  0.00    -0.504 OA
ATOM     33  H   UNL     1      18.747  71.541  70.072  1.00  0.00     0.293 HD
ENDBRANCH  22  32
ENDBRANCH  11  12
BRANCH  10  34
ATOM     34  O   UNL     1      18.426  72.684  78.869  1.00  0.00    -0.507 OA
ATOM     35  H   UNL     1      18.325  73.542  79.396  1.00  0.00     0.293 HD
ENDBRANCH  10  34
BRANCH   9  36
ATOM     36  C   UNL     1      18.536  68.359  83.467  1.00  0.00     0.017 C 
ATOM     37  C   UNL     1      19.798  68.499  84.323  1.00  0.00     0.012 C 
ATOM     38  C   UNL     1      18.652  67.177  82.487  1.00  0.00     0.012 C 
ENDBRANCH   9  36
BRANCH   6  39
ATOM     39  C   UNL     1      17.743  73.684  81.206  1.00  0.00     0.264 C 
ATOM     40  O   UNL     1      16.660  74.125  80.738  1.00  0.00    -0.298 OA
ENDBRANCH   6  39
BRANCH   8  41
ATOM     41  O   UNL     1      17.192  70.492  84.862  1.00  0.00    -0.504 OA
ATOM     42  H   UNL     1      17.649  69.831  85.479  1.00  0.00     0.293 HD
ENDBRANCH   8  41
BRANCH   7  43
ATOM     43  O   UNL     1      17.033  73.040  83.881  1.00  0.00    -0.504 OA
ATOM     44  H   UNL     1      17.444  73.255  84.779  1.00  0.00     0.293 HD
ENDBRANCH   7  43
TORSDOF 11
ENDMDL
MODEL 7
REMARK VINA RESULT:    -7.357      1.500      3.033
REMARK INTER + INTRA:         -10.350
REMARK INTER:                 -11.783
REMARK INTRA:                   1.433
REMARK UNBOUND:                 0.448
REMARK SMILES Cc1cc2c(C(C)C)c(O)c(O)c(C=O)c2c(O)c1-c1c(C)cc2c(C(C)C)c(O)c(O)c(C=O)c2c1O
REMARK SMILES IDX 1 1 2 2 3 3 4 4 16 5 13 6 11 7 9 8 5 9 17 10 19 11 20 12
REMARK SMILES IDX 37 13 21 14 36 15 23 16 22 17 24 18 33 19 25 20 31 21 29 22
REMARK SMILES IDX 38 23 34 25 35 26 26 27 27 28 28 29 32 30 30 32 18 34 6 36
REMARK SMILES IDX 7 37 8 38 14 39 15 40 10 41 12 43
REMARK H PARENT 38 24 32 31 30 33 18 35 10 42 12 44
REMARK Flexibility Score: inf
ROOT
ATOM      1  C   UNL     1      21.450  69.991  77.916  1.00  0.00     0.045 C 
ATOM      2  C   UNL     1      20.394  70.407  76.920  1.00  0.00    -0.039 A 
ATOM      3  C   UNL     1      20.680  70.355  75.557  1.00  0.00     0.013 A 
ATOM      4  C   UNL     1      19.721  70.696  74.577  1.00  0.00    -0.006 A 
ATOM      5  C   UNL     1      18.460  71.216  75.002  1.00  0.00     0.039 A 
ATOM      6  C   UNL     1      17.543  71.689  74.015  1.00  0.00     0.072 A 
ATOM      7  C   UNL     1      17.916  71.697  72.655  1.00  0.00     0.169 A 
ATOM      8  C   UNL     1      19.150  71.180  72.254  1.00  0.00     0.162 A 
ATOM      9  C   UNL     1      20.015  70.567  73.185  1.00  0.00     0.008 A 
ATOM     10  C   UNL     1      18.175  71.278  76.402  1.00  0.00     0.132 A 
ATOM     11  C   UNL     1      19.129  70.840  77.347  1.00  0.00     0.031 A 
ENDROOT
BRANCH  11  12
ATOM     12  C   UNL     1      18.807  70.859  78.798  1.00  0.00     0.031 A 
ATOM     13  C   UNL     1      18.889  69.677  79.562  1.00  0.00     0.132 A 
ATOM     14  C   UNL     1      18.424  72.063  79.410  1.00  0.00    -0.039 A 
ATOM     15  C   UNL     1      18.610  69.702  80.960  1.00  0.00     0.039 A 
ATOM     16  C   UNL     1      18.032  72.058  80.749  1.00  0.00     0.013 A 
ATOM     17  C   UNL     1      18.386  73.355  78.629  1.00  0.00     0.045 C 
ATOM     18  C   UNL     1      18.049  70.884  81.529  1.00  0.00    -0.006 A 
ATOM     19  C   UNL     1      18.859  68.581  81.802  1.00  0.00     0.072 A 
ATOM     20  C   UNL     1      17.525  70.860  82.861  1.00  0.00     0.008 A 
ATOM     21  C   UNL     1      18.452  68.607  83.148  1.00  0.00     0.169 A 
ATOM     22  C   UNL     1      17.741  69.709  83.657  1.00  0.00     0.162 A 
BRANCH  13  23
ATOM     23  O   UNL     1      19.203  68.469  78.928  1.00  0.00    -0.507 OA
ATOM     24  H   UNL     1      19.209  67.571  79.396  1.00  0.00     0.293 HD
ENDBRANCH  13  23
BRANCH  19  25
ATOM     25  C   UNL     1      19.677  67.428  81.351  1.00  0.00     0.264 C 
ATOM     26  O   UNL     1      20.694  67.061  81.997  1.00  0.00    -0.298 OA
ENDBRANCH  19  25
BRANCH  20  27
ATOM     27  C   UNL     1      16.703  72.012  83.477  1.00  0.00     0.017 C 
ATOM     28  C   UNL     1      17.568  73.245  83.768  1.00  0.00     0.012 C 
ATOM     29  C   UNL     1      15.405  72.350  82.714  1.00  0.00     0.012 C 
ENDBRANCH  20  27
BRANCH  21  30
ATOM     30  O   UNL     1      18.804  67.531  83.971  1.00  0.00    -0.504 OA
ATOM     31  H   UNL     1      18.914  67.589  84.973  1.00  0.00     0.293 HD
ENDBRANCH  21  30
BRANCH  22  32
ATOM     32  O   UNL     1      17.238  69.686  84.964  1.00  0.00    -0.504 OA
ATOM     33  H   UNL     1      17.171  70.494  85.566  1.00  0.00     0.293 HD
ENDBRANCH  22  32
ENDBRANCH  11  12
BRANCH  10  34
ATOM     34  O   UNL     1      16.953  71.785  76.858  1.00  0.00    -0.507 OA
ATOM     35  H   UNL     1      16.697  72.763  76.827  1.00  0.00     0.293 HD
ENDBRANCH  10  34
BRANCH   9  36
ATOM     36  C   UNL     1      21.250  69.795  72.684  1.00  0.00     0.017 C 
ATOM     37  C   UNL     1      22.492  70.692  72.683  1.00  0.00     0.012 C 
ATOM     38  C   UNL     1      21.048  69.118  71.315  1.00  0.00     0.012 C 
ENDBRANCH   9  36
BRANCH   6  39
ATOM     39  C   UNL     1      16.199  72.189  74.369  1.00  0.00     0.264 C 
ATOM     40  O   UNL     1      15.185  71.456  74.227  1.00  0.00    -0.298 OA
ENDBRANCH   6  39
BRANCH   8  41
ATOM     41  O   UNL     1      19.524  71.270  70.911  1.00  0.00    -0.504 OA
ATOM     42  H   UNL     1      20.040  72.055  70.532  1.00  0.00     0.293 HD
ENDBRANCH   8  41
BRANCH   7  43
ATOM     43  O   UNL     1      17.058  72.186  71.661  1.00  0.00    -0.504 OA
ATOM     44  H   UNL     1      17.340  72.829  70.933  1.00  0.00     0.293 HD
ENDBRANCH   7  43
TORSDOF 11
ENDMDL
MODEL 8
REMARK VINA RESULT:    -7.345      1.884      8.999
REMARK INTER + INTRA:         -10.333
REMARK INTER:                 -10.433
REMARK INTRA:                   0.100
REMARK UNBOUND:                 0.448
REMARK SMILES Cc1cc2c(C(C)C)c(O)c(O)c(C=O)c2c(O)c1-c1c(C)cc2c(C(C)C)c(O)c(O)c(C=O)c2c1O
REMARK SMILES IDX 1 1 2 2 3 3 4 4 16 5 13 6 11 7 9 8 5 9 17 10 19 11 20 12
REMARK SMILES IDX 37 13 21 14 36 15 23 16 22 17 24 18 33 19 25 20 31 21 29 22
REMARK SMILES IDX 38 23 34 25 35 26 26 27 27 28 28 29 32 30 30 32 18 34 6 36
REMARK SMILES IDX 7 37 8 38 14 39 15 40 10 41 12 43
REMARK H PARENT 38 24 32 31 30 33 18 35 10 42 12 44
REMARK Flexibility Score: inf
ROOT
ATOM      1  C   UNL     1      18.907  68.894  78.158  1.00  0.00     0.045 C 
ATOM      2  C   UNL     1      18.101  69.723  79.129  1.00  0.00    -0.039 A 
ATOM      3  C   UNL     1      18.271  69.530  80.500  1.00  0.00     0.013 A 
ATOM      4  C   UNL     1      17.572  70.300  81.456  1.00  0.00    -0.006 A 
ATOM      5  C   UNL     1      16.581  71.225  81.003  1.00  0.00     0.039 A 
ATOM      6  C   UNL     1      15.779  71.903  81.971  1.00  0.00     0.072 A 
ATOM      7  C   UNL     1      15.929  71.607  83.341  1.00  0.00     0.169 A 
ATOM      8  C   UNL     1      16.907  70.705  83.770  1.00  0.00     0.162 A 
ATOM      9  C   UNL     1      17.815  70.133  82.854  1.00  0.00     0.008 A 
ATOM     10  C   UNL     1      16.403  71.411  79.596  1.00  0.00     0.132 A 
ATOM     11  C   UNL     1      17.188  70.687  78.673  1.00  0.00     0.031 A 
ENDROOT
BRANCH  11  12
ATOM     12  C   UNL     1      17.033  70.922  77.214  1.00  0.00     0.031 A 
ATOM     13  C   UNL     1      18.087  71.488  76.467  1.00  0.00     0.132 A 
ATOM     14  C   UNL     1      15.832  70.574  76.576  1.00  0.00    -0.039 A 
ATOM     15  C   UNL     1      17.949  71.685  75.062  1.00  0.00     0.039 A 
ATOM     16  C   UNL     1      15.656  70.884  75.227  1.00  0.00     0.013 A 
ATOM     17  C   UNL     1      14.710  69.912  77.339  1.00  0.00     0.045 C 
ATOM     18  C   UNL     1      16.668  71.500  74.462  1.00  0.00    -0.006 A 
ATOM     19  C   UNL     1      19.046  72.077  74.241  1.00  0.00     0.072 A 
ATOM     20  C   UNL     1      16.437  71.930  73.117  1.00  0.00     0.008 A 
ATOM     21  C   UNL     1      18.836  72.382  72.885  1.00  0.00     0.169 A 
ATOM     22  C   UNL     1      17.538  72.366  72.342  1.00  0.00     0.162 A 
BRANCH  13  23
ATOM     23  O   UNL     1      19.254  71.896  77.125  1.00  0.00    -0.507 OA
ATOM     24  H   UNL     1      19.284  72.179  78.096  1.00  0.00     0.293 HD
ENDBRANCH  13  23
BRANCH  19  25
ATOM     25  C   UNL     1      20.446  72.030  74.729  1.00  0.00     0.264 C 
ATOM     26  O   UNL     1      21.273  72.927  74.416  1.00  0.00    -0.298 OA
ENDBRANCH  19  25
BRANCH  20  27
ATOM     27  C   UNL     1      15.039  71.978  72.464  1.00  0.00     0.017 C 
ATOM     28  C   UNL     1      14.400  70.586  72.369  1.00  0.00     0.012 C 
ATOM     29  C   UNL     1      14.091  73.040  73.060  1.00  0.00     0.012 C 
ENDBRANCH  20  27
BRANCH  21  30
ATOM     30  O   UNL     1      19.951  72.663  72.085  1.00  0.00    -0.504 OA
ATOM     31  H   UNL     1      19.960  73.335  71.332  1.00  0.00     0.293 HD
ENDBRANCH  21  30
BRANCH  22  32
ATOM     32  O   UNL     1      17.317  72.779  71.022  1.00  0.00    -0.504 OA
ATOM     33  H   UNL     1      17.131  73.732  70.744  1.00  0.00     0.293 HD
ENDBRANCH  22  32
ENDBRANCH  11  12
BRANCH  10  34
ATOM     34  O   UNL     1      15.440  72.304  79.113  1.00  0.00    -0.507 OA
ATOM     35  H   UNL     1      14.442  72.155  79.183  1.00  0.00     0.293 HD
ENDBRANCH  10  34
BRANCH   9  36
ATOM     36  C   UNL     1      19.025  69.337  83.378  1.00  0.00     0.017 C 
ATOM     37  C   UNL     1      18.643  67.881  83.657  1.00  0.00     0.012 C 
ATOM     38  C   UNL     1      19.711  69.979  84.600  1.00  0.00     0.012 C 
ENDBRANCH   9  36
BRANCH   6  39
ATOM     39  C   UNL     1      14.774  72.914  81.585  1.00  0.00     0.264 C 
ATOM     40  O   UNL     1      13.603  72.862  82.048  1.00  0.00    -0.298 OA
ENDBRANCH   6  39
BRANCH   8  41
ATOM     41  O   UNL     1      16.982  70.373  85.124  1.00  0.00    -0.504 OA
ATOM     42  H   UNL     1      16.428  69.637  85.546  1.00  0.00     0.293 HD
ENDBRANCH   8  41
BRANCH   7  43
ATOM     43  O   UNL     1      15.137  72.225  84.317  1.00  0.00    -0.504 OA
ATOM     44  H   UNL     1      14.512  72.999  84.136  1.00  0.00     0.293 HD
ENDBRANCH   7  43
TORSDOF 11
ENDMDL
MODEL 9
REMARK VINA RESULT:    -7.068      2.024      8.956
REMARK INTER + INTRA:          -9.926
REMARK INTER:                  -9.208
REMARK INTRA:                  -0.719
REMARK UNBOUND:                 0.448
REMARK SMILES Cc1cc2c(C(C)C)c(O)c(O)c(C=O)c2c(O)c1-c1c(C)cc2c(C(C)C)c(O)c(O)c(C=O)c2c1O
REMARK SMILES IDX 1 1 2 2 3 3 4 4 16 5 13 6 11 7 9 8 5 9 17 10 19 11 20 12
REMARK SMILES IDX 37 13 21 14 36 15 23 16 22 17 24 18 33 19 25 20 31 21 29 22
REMARK SMILES IDX 38 23 34 25 35 26 26 27 27 28 28 29 32 30 30 32 18 34 6 36
REMARK SMILES IDX 7 37 8 38 14 39 15 40 10 41 12 43
REMARK H PARENT 38 24 32 31 30 33 18 35 10 42 12 44
REMARK Flexibility Score: inf
ROOT
ATOM      1  C   UNL     1      18.771  68.657  77.856  1.00  0.00     0.045 C 
ATOM      2  C   UNL     1      18.139  69.401  79.007  1.00  0.00    -0.039 A 
ATOM      3  C   UNL     1      18.435  69.019  80.315  1.00  0.00     0.013 A 
ATOM      4  C   UNL     1      17.904  69.700  81.432  1.00  0.00    -0.006 A 
ATOM      5  C   UNL     1      16.947  70.740  81.213  1.00  0.00     0.039 A 
ATOM      6  C   UNL     1      16.307  71.335  82.342  1.00  0.00     0.072 A 
ATOM      7  C   UNL     1      16.575  70.851  83.639  1.00  0.00     0.169 A 
ATOM      8  C   UNL     1      17.518  69.839  83.839  1.00  0.00     0.162 A 
ATOM      9  C   UNL     1      18.277  69.335  82.762  1.00  0.00     0.008 A 
ATOM     10  C   UNL     1      16.638  71.121  79.870  1.00  0.00     0.132 A 
ATOM     11  C   UNL     1      17.263  70.474  78.781  1.00  0.00     0.031 A 
ENDROOT
BRANCH  11  12
ATOM     12  C   UNL     1      16.975  70.909  77.389  1.00  0.00     0.031 A 
ATOM     13  C   UNL     1      15.732  70.616  76.792  1.00  0.00     0.132 A 
ATOM     14  C   UNL     1      17.947  71.622  76.668  1.00  0.00    -0.039 A 
ATOM     15  C   UNL     1      15.446  71.061  75.468  1.00  0.00     0.039 A 
ATOM     16  C   UNL     1      17.710  71.945  75.331  1.00  0.00     0.013 A 
ATOM     17  C   UNL     1      19.263  72.002  77.302  1.00  0.00     0.045 C 
ATOM     18  C   UNL     1      16.500  71.619  74.685  1.00  0.00    -0.006 A 
ATOM     19  C   UNL     1      14.146  70.950  74.897  1.00  0.00     0.072 A 
ATOM     20  C   UNL     1      16.313  71.838  73.283  1.00  0.00     0.008 A 
ATOM     21  C   UNL     1      13.939  71.285  73.547  1.00  0.00     0.169 A 
ATOM     22  C   UNL     1      15.021  71.668  72.733  1.00  0.00     0.162 A 
BRANCH  13  23
ATOM     23  O   UNL     1      14.798  69.845  77.494  1.00  0.00    -0.507 OA
ATOM     24  H   UNL     1      14.965  69.456  78.414  1.00  0.00     0.293 HD
ENDBRANCH  13  23
BRANCH  19  25
ATOM     25  C   UNL     1      12.952  70.635  75.720  1.00  0.00     0.264 C 
ATOM     26  O   UNL     1      11.976  71.430  75.780  1.00  0.00    -0.298 OA
ENDBRANCH  19  25
BRANCH  20  27
ATOM     27  C   UNL     1      17.456  72.222  72.320  1.00  0.00     0.017 C 
ATOM     28  C   UNL     1      17.709  73.736  72.300  1.00  0.00     0.012 C 
ATOM     29  C   UNL     1      18.747  71.396  72.497  1.00  0.00     0.012 C 
ENDBRANCH  20  27
BRANCH  21  30
ATOM     30  O   UNL     1      12.630  71.262  73.049  1.00  0.00    -0.504 OA
ATOM     31  H   UNL     1      12.312  70.659  72.305  1.00  0.00     0.293 HD
ENDBRANCH  21  30
BRANCH  22  32
ATOM     32  O   UNL     1      14.833  71.891  71.364  1.00  0.00    -0.504 OA
ATOM     33  H   UNL     1      15.020  71.210  70.641  1.00  0.00     0.293 HD
ENDBRANCH  22  32
ENDBRANCH  11  12
BRANCH  10  34
ATOM     34  O   UNL     1      15.704  72.130  79.614  1.00  0.00    -0.507 OA
ATOM     35  H   UNL     1      14.868  72.002  79.058  1.00  0.00     0.293 HD
ENDBRANCH  10  34
BRANCH   9  36
ATOM     36  C   UNL     1      19.469  68.400  83.043  1.00  0.00     0.017 C 
ATOM     37  C   UNL     1      19.024  66.934  83.047  1.00  0.00     0.012 C 
ATOM     38  C   UNL     1      20.248  68.752  84.324  1.00  0.00     0.012 C 
ENDBRANCH   9  36
BRANCH   6  39
ATOM     39  C   UNL     1      15.350  72.451  82.202  1.00  0.00     0.264 C 
ATOM     40  O   UNL     1      14.110  72.245  82.283  1.00  0.00    -0.298 OA
ENDBRANCH   6  39
BRANCH   8  41
ATOM     41  O   UNL     1      17.708  69.328  85.125  1.00  0.00    -0.504 OA
ATOM     42  H   UNL     1      18.616  69.066  85.488  1.00  0.00     0.293 HD
ENDBRANCH   8  41
BRANCH   7  43
ATOM     43  O   UNL     1      15.941  71.386  84.768  1.00  0.00    -0.504 OA
ATOM     44  H   UNL     1      15.121  71.976  84.734  1.00  0.00     0.293 HD
ENDBRANCH   7  43
TORSDOF 11
ENDMDL
