MODEL 1
REMARK VINA RESULT:    -6.824      0.000      0.000
REMARK INTER + INTRA:          -7.380
REMARK INTER:                  -7.223
REMARK INTRA:                  -0.156
REMARK UNBOUND:                -0.156
REMARK SMILES CC1=CC=C(C(C)C)CC1
REMARK SMILES IDX 1 1 2 2 3 3 4 4 5 5 9 6 10 7 6 8 7 9 8 10
REMARK H PARENT
REMARK Flexibility Score: inf
ROOT
ATOM      1  C   UNL     1       2.766  11.243  11.161  1.00  0.00     0.039 C 
ATOM      2  C   UNL     1       3.520  10.110  11.792  1.00  0.00    -0.073 C 
ATOM      3  C   UNL     1       4.086   9.171  11.021  1.00  0.00    -0.001 C 
ATOM      4  C   UNL     1       4.831   8.048  11.622  1.00  0.00    -0.001 C 
ATOM      5  C   UNL     1       4.765   7.802  12.943  1.00  0.00    -0.067 C 
ATOM      6  C   UNL     1       3.819   8.626  13.796  1.00  0.00     0.035 C 
ATOM      7  C   UNL     1       3.728  10.073  13.290  1.00  0.00     0.035 C 
ENDROOT
BRANCH   5   8
ATOM      8  C   UNL     1       5.589   6.682  13.553  1.00  0.00     0.009 C 
ATOM      9  C   UNL     1       7.035   7.127  13.800  1.00  0.00     0.012 C 
ATOM     10  C   UNL     1       5.542   5.429  12.672  1.00  0.00     0.012 C 
ENDBRANCH   5   8
TORSDOF 1
ENDMDL
MODEL 2
REMARK VINA RESULT:    -6.084      0.724      1.738
REMARK INTER + INTRA:          -6.596
REMARK INTER:                  -6.446
REMARK INTRA:                  -0.150
REMARK UNBOUND:                -0.156
REMARK SMILES CC1=CC=C(C(C)C)CC1
REMARK SMILES IDX 1 1 2 2 3 3 4 4 5 5 9 6 10 7 6 8 7 9 8 10
REMARK H PARENT
REMARK Flexibility Score: inf
ROOT
ATOM      1  C   UNL     1       3.173  11.494  11.609  1.00  0.00     0.039 C 
ATOM      2  C   UNL     1       3.649  10.115  11.964  1.00  0.00    -0.073 C 
ATOM      3  C   UNL     1       3.717   9.741  13.249  1.00  0.00    -0.001 C 
ATOM      4  C   UNL     1       4.184   8.391  13.619  1.00  0.00    -0.001 C 
ATOM      5  C   UNL     1       4.771   7.589  12.712  1.00  0.00    -0.067 C 
ATOM      6  C   UNL     1       5.055   8.136  11.325  1.00  0.00     0.035 C 
ATOM      7  C   UNL     1       3.960   9.113  10.875  1.00  0.00     0.035 C 
ENDROOT
BRANCH   5   8
ATOM      8  C   UNL     1       5.185   6.179  13.093  1.00  0.00     0.009 C 
ATOM      9  C   UNL     1       6.661   5.926  12.768  1.00  0.00     0.012 C 
ATOM     10  C   UNL     1       4.285   5.144  12.409  1.00  0.00     0.012 C 
ENDBRANCH   5   8
TORSDOF 1
ENDMDL
MODEL 3
REMARK VINA RESULT:    -5.651      1.046      4.506
REMARK INTER + INTRA:          -6.137
REMARK INTER:                  -5.993
REMARK INTRA:                  -0.145
REMARK UNBOUND:                -0.156
REMARK SMILES CC1=CC=C(C(C)C)CC1
REMARK SMILES IDX 1 1 2 2 3 3 4 4 5 5 9 6 10 7 6 8 7 9 8 10
REMARK H PARENT
REMARK Flexibility Score: inf
ROOT
ATOM      1  C   UNL     1       6.913   5.399  13.210  1.00  0.00     0.039 C 
ATOM      2  C   UNL     1       6.094   6.654  13.116  1.00  0.00    -0.073 C 
ATOM      3  C   UNL     1       5.775   7.329  14.230  1.00  0.00    -0.001 C 
ATOM      4  C   UNL     1       4.970   8.564  14.160  1.00  0.00    -0.001 C 
ATOM      5  C   UNL     1       4.340   8.915  13.024  1.00  0.00    -0.067 C 
ATOM      6  C   UNL     1       4.371   7.963  11.843  1.00  0.00     0.035 C 
ATOM      7  C   UNL     1       5.709   7.214  11.765  1.00  0.00     0.035 C 
ENDROOT
BRANCH   5   8
ATOM      8  C   UNL     1       3.570  10.222  12.951  1.00  0.00     0.009 C 
ATOM      9  C   UNL     1       2.135  10.051  13.461  1.00  0.00     0.012 C 
ATOM     10  C   UNL     1       3.584  10.782  11.524  1.00  0.00     0.012 C 
ENDBRANCH   5   8
TORSDOF 1
ENDMDL
MODEL 4
REMARK VINA RESULT:    -5.572      1.290      2.299
REMARK INTER + INTRA:          -6.054
REMARK INTER:                  -5.914
REMARK INTRA:                  -0.140
REMARK UNBOUND:                -0.156
REMARK SMILES CC1=CC=C(C(C)C)CC1
REMARK SMILES IDX 1 1 2 2 3 3 4 4 5 5 9 6 10 7 6 8 7 9 8 10
REMARK H PARENT
REMARK Flexibility Score: inf
ROOT
ATOM      1  C   UNL     1       3.130  10.505  13.454  1.00  0.00     0.039 C 
ATOM      2  C   UNL     1       3.914   9.248  13.213  1.00  0.00    -0.073 C 
ATOM      3  C   UNL     1       4.498   8.617  14.241  1.00  0.00    -0.001 C 
ATOM      4  C   UNL     1       5.275   7.381  14.026  1.00  0.00    -0.001 C 
ATOM      5  C   UNL     1       5.616   6.986  12.786  1.00  0.00    -0.067 C 
ATOM      6  C   UNL     1       5.292   7.891  11.612  1.00  0.00     0.035 C 
ATOM      7  C   UNL     1       3.968   8.636  11.831  1.00  0.00     0.035 C 
ENDROOT
BRANCH   5   8
ATOM      8  C   UNL     1       6.359   5.677  12.579  1.00  0.00     0.009 C 
ATOM      9  C   UNL     1       6.448   4.876  13.882  1.00  0.00     0.012 C 
ATOM     10  C   UNL     1       7.752   5.930  11.991  1.00  0.00     0.012 C 
ENDBRANCH   5   8
TORSDOF 1
ENDMDL
MODEL 5
REMARK VINA RESULT:    -4.889      1.449      4.286
REMARK INTER + INTRA:          -5.331
REMARK INTER:                  -5.187
REMARK INTRA:                  -0.144
REMARK UNBOUND:                -0.156
REMARK SMILES CC1=CC=C(C(C)C)CC1
REMARK SMILES IDX 1 1 2 2 3 3 4 4 5 5 9 6 10 7 6 8 7 9 8 10
REMARK H PARENT
REMARK Flexibility Score: inf
ROOT
ATOM      1  C   UNL     1       7.983   5.477  12.194  1.00  0.00     0.039 C 
ATOM      2  C   UNL     1       6.836   6.291  12.719  1.00  0.00    -0.073 C 
ATOM      3  C   UNL     1       5.789   6.560  11.926  1.00  0.00    -0.001 C 
ATOM      4  C   UNL     1       4.652   7.360  12.421  1.00  0.00    -0.001 C 
ATOM      5  C   UNL     1       4.734   8.033  13.583  1.00  0.00    -0.067 C 
ATOM      6  C   UNL     1       6.056   8.056  14.325  1.00  0.00     0.035 C 
ATOM      7  C   UNL     1       6.809   6.727  14.166  1.00  0.00     0.035 C 
ENDROOT
BRANCH   5   8
ATOM      8  C   UNL     1       3.531   8.797  14.109  1.00  0.00     0.009 C 
ATOM      9  C   UNL     1       3.397  10.162  13.425  1.00  0.00     0.012 C 
ATOM     10  C   UNL     1       3.609   8.950  15.632  1.00  0.00     0.012 C 
ENDBRANCH   5   8
TORSDOF 1
ENDMDL
