MODEL 1
REMARK VINA RESULT:    -4.701      0.000      0.000
REMARK INTER + INTRA:          -7.175
REMARK INTER:                  -6.899
REMARK INTRA:                  -0.276
REMARK UNBOUND:                -0.276
REMARK SMILES O=C([O-])CCCCCCCC(=O)[O-]
REMARK SMILES IDX 7 1 6 2 5 3 4 4 2 5 1 6 3 7 8 8 9 9 10 10 11 11 12 12 13 13
REMARK H PARENT
REMARK Flexibility Score: inf
ROOT
ATOM      1  C   UNL     1      -0.128   6.173  18.330  1.00  0.00     0.000 C 
ENDROOT
BRANCH   1   2
ATOM      2  C   UNL     1       0.612   7.510  18.493  1.00  0.00     0.000 C 
BRANCH   2   3
ATOM      3  C   UNL     1       0.626   8.008  19.949  1.00  0.00     0.006 C 
BRANCH   3   4
ATOM      4  C   UNL     1      -0.015   7.000  20.912  1.00  0.00     0.053 C 
BRANCH   4   5
ATOM      5  C   UNL     1       0.860   6.734  22.099  1.00  0.00     0.041 C 
ATOM      6  O   UNL     1       2.108   6.875  22.010  1.00  0.00    -0.550 OA
ATOM      7  O   UNL     1       0.294   6.364  23.313  1.00  0.00    -0.550 OA
ENDBRANCH   4   5
ENDBRANCH   3   4
ENDBRANCH   2   3
ENDBRANCH   1   2
BRANCH   1   8
ATOM      8  C   UNL     1      -0.034   5.619  16.898  1.00  0.00     0.000 C 
BRANCH   8   9
ATOM      9  C   UNL     1      -1.012   4.458  16.650  1.00  0.00     0.006 C 
BRANCH   9  10
ATOM     10  C   UNL     1      -2.273   4.896  15.894  1.00  0.00     0.053 C 
BRANCH  10  11
ATOM     11  C   UNL     1      -3.235   3.757  15.780  1.00  0.00     0.041 C 
ATOM     12  O   UNL     1      -4.168   3.797  14.935  1.00  0.00    -0.550 OA
ATOM     13  O   UNL     1      -3.071   2.628  16.572  1.00  0.00    -0.550 OA
ENDBRANCH  10  11
ENDBRANCH   9  10
ENDBRANCH   8   9
ENDBRANCH   1   8
TORSDOF 8
ENDMDL
MODEL 2
REMARK VINA RESULT:    -4.663      0.737      6.879
REMARK INTER + INTRA:          -7.120
REMARK INTER:                  -6.919
REMARK INTRA:                  -0.201
REMARK UNBOUND:                -0.276
REMARK SMILES O=C([O-])CCCCCCCC(=O)[O-]
REMARK SMILES IDX 7 1 6 2 5 3 4 4 2 5 1 6 3 7 8 8 9 9 10 10 11 11 12 12 13 13
REMARK H PARENT
REMARK Flexibility Score: inf
ROOT
ATOM      1  C   UNL     1      -0.034   5.684  18.503  1.00  0.00     0.000 C 
ENDROOT
BRANCH   1   2
ATOM      2  C   UNL     1      -0.278   5.545  16.992  1.00  0.00     0.000 C 
BRANCH   2   3
ATOM      3  C   UNL     1      -0.904   4.191  16.614  1.00  0.00     0.006 C 
BRANCH   3   4
ATOM      4  C   UNL     1      -1.908   4.319  15.460  1.00  0.00     0.053 C 
BRANCH   4   5
ATOM      5  C   UNL     1      -3.180   3.582  15.748  1.00  0.00     0.041 C 
ATOM      6  O   UNL     1      -4.204   3.789  15.044  1.00  0.00    -0.550 OA
ATOM      7  O   UNL     1      -3.226   2.643  16.770  1.00  0.00    -0.550 OA
ENDBRANCH   4   5
ENDBRANCH   3   4
ENDBRANCH   2   3
ENDBRANCH   1   2
BRANCH   1   8
ATOM      8  C   UNL     1       0.374   7.112  18.905  1.00  0.00     0.000 C 
BRANCH   8   9
ATOM      9  C   UNL     1       0.652   7.244  20.412  1.00  0.00     0.006 C 
BRANCH   9  10
ATOM     10  C   UNL     1      -0.520   6.759  21.275  1.00  0.00     0.053 C 
BRANCH  10  11
ATOM     11  C   UNL     1      -0.110   6.675  22.711  1.00  0.00     0.041 C 
ATOM     12  O   UNL     1       1.107   6.575  23.019  1.00  0.00    -0.550 OA
ATOM     13  O   UNL     1      -1.068   6.758  23.714  1.00  0.00    -0.550 OA
ENDBRANCH  10  11
ENDBRANCH   9  10
ENDBRANCH   8   9
ENDBRANCH   1   8
TORSDOF 8
ENDMDL
MODEL 3
REMARK VINA RESULT:    -4.643      1.615      6.597
REMARK INTER + INTRA:          -7.090
REMARK INTER:                  -6.750
REMARK INTRA:                  -0.340
REMARK UNBOUND:                -0.276
REMARK SMILES O=C([O-])CCCCCCCC(=O)[O-]
REMARK SMILES IDX 7 1 6 2 5 3 4 4 2 5 1 6 3 7 8 8 9 9 10 10 11 11 12 12 13 13
REMARK H PARENT
REMARK Flexibility Score: inf
ROOT
ATOM      1  C   UNL     1      -1.344   4.967  16.783  1.00  0.00     0.000 C 
ENDROOT
BRANCH   1   2
ATOM      2  C   UNL     1      -1.218   3.447  16.972  1.00  0.00     0.000 C 
BRANCH   2   3
ATOM      3  C   UNL     1      -2.411   2.673  16.385  1.00  0.00     0.006 C 
BRANCH   3   4
ATOM      4  C   UNL     1      -3.550   3.607  15.954  1.00  0.00     0.053 C 
BRANCH   4   5
ATOM      5  C   UNL     1      -4.804   3.348  16.732  1.00  0.00     0.041 C 
ATOM      6  O   UNL     1      -5.452   4.309  17.225  1.00  0.00    -0.550 OA
ATOM      7  O   UNL     1      -5.274   2.050  16.885  1.00  0.00    -0.550 OA
ENDBRANCH   4   5
ENDBRANCH   3   4
ENDBRANCH   2   3
ENDBRANCH   1   2
BRANCH   1   8
ATOM      8  C   UNL     1       0.024   5.669  16.726  1.00  0.00     0.000 C 
BRANCH   8   9
ATOM      9  C   UNL     1       0.198   6.711  17.842  1.00  0.00     0.006 C 
BRANCH   9  10
ATOM     10  C   UNL     1      -0.120   6.149  19.234  1.00  0.00     0.053 C 
BRANCH  10  11
ATOM     11  C   UNL     1       0.150   7.177  20.286  1.00  0.00     0.041 C 
ATOM     12  O   UNL     1       0.529   8.333  19.962  1.00  0.00    -0.550 OA
ATOM     13  O   UNL     1      -0.065   6.874  21.625  1.00  0.00    -0.550 OA
ENDBRANCH  10  11
ENDBRANCH   9  10
ENDBRANCH   8   9
ENDBRANCH   1   8
TORSDOF 8
ENDMDL
MODEL 4
REMARK VINA RESULT:    -4.547      1.426      2.218
REMARK INTER + INTRA:          -6.949
REMARK INTER:                  -6.692
REMARK INTRA:                  -0.257
REMARK UNBOUND:                -0.276
REMARK SMILES O=C([O-])CCCCCCCC(=O)[O-]
REMARK SMILES IDX 7 1 6 2 5 3 4 4 2 5 1 6 3 7 8 8 9 9 10 10 11 11 12 12 13 13
REMARK H PARENT
REMARK Flexibility Score: inf
ROOT
ATOM      1  C   UNL     1      -0.947   5.047  17.021  1.00  0.00     0.000 C 
ENDROOT
BRANCH   1   2
ATOM      2  C   UNL     1       0.262   5.977  16.829  1.00  0.00     0.000 C 
BRANCH   2   3
ATOM      3  C   UNL     1       0.423   6.987  17.978  1.00  0.00     0.006 C 
BRANCH   3   4
ATOM      4  C   UNL     1      -0.201   6.482  19.286  1.00  0.00     0.053 C 
BRANCH   4   5
ATOM      5  C   UNL     1       0.432   7.120  20.485  1.00  0.00     0.041 C 
ATOM      6  O   UNL     1       1.328   7.993  20.339  1.00  0.00    -0.550 OA
ATOM      7  O   UNL     1       0.009   6.775  21.762  1.00  0.00    -0.550 OA
ENDBRANCH   4   5
ENDBRANCH   3   4
ENDBRANCH   2   3
ENDBRANCH   1   2
BRANCH   1   8
ATOM      8  C   UNL     1      -1.191   4.139  15.804  1.00  0.00     0.000 C 
BRANCH   8   9
ATOM      9  C   UNL     1      -2.671   3.755  15.642  1.00  0.00     0.006 C 
BRANCH   9  10
ATOM     10  C   UNL     1      -3.123   2.693  16.653  1.00  0.00     0.053 C 
BRANCH  10  11
ATOM     11  C   UNL     1      -4.612   2.711  16.798  1.00  0.00     0.041 C 
ATOM     12  O   UNL     1      -5.206   1.754  17.361  1.00  0.00    -0.550 OA
ATOM     13  O   UNL     1      -5.340   3.808  16.355  1.00  0.00    -0.550 OA
ENDBRANCH  10  11
ENDBRANCH   9  10
ENDBRANCH   8   9
ENDBRANCH   1   8
TORSDOF 8
ENDMDL
MODEL 5
REMARK VINA RESULT:    -4.536      1.337      6.225
REMARK INTER + INTRA:          -6.933
REMARK INTER:                  -6.526
REMARK INTRA:                  -0.407
REMARK UNBOUND:                -0.276
REMARK SMILES O=C([O-])CCCCCCCC(=O)[O-]
REMARK SMILES IDX 7 1 6 2 5 3 4 4 2 5 1 6 3 7 8 8 9 9 10 10 11 11 12 12 13 13
REMARK H PARENT
REMARK Flexibility Score: inf
ROOT
ATOM      1  C   UNL     1       0.949   7.302  16.612  1.00  0.00     0.000 C 
ENDROOT
BRANCH   1   2
ATOM      2  C   UNL     1       0.457   6.024  17.310  1.00  0.00     0.000 C 
BRANCH   2   3
ATOM      3  C   UNL     1      -0.967   5.626  16.887  1.00  0.00     0.006 C 
BRANCH   3   4
ATOM      4  C   UNL     1      -0.972   4.439  15.915  1.00  0.00     0.053 C 
BRANCH   4   5
ATOM      5  C   UNL     1      -1.626   3.232  16.517  1.00  0.00     0.041 C 
ATOM      6  O   UNL     1      -1.169   2.726  17.575  1.00  0.00    -0.550 OA
ATOM      7  O   UNL     1      -2.760   2.688  15.927  1.00  0.00    -0.550 OA
ENDBRANCH   4   5
ENDBRANCH   3   4
ENDBRANCH   2   3
ENDBRANCH   1   2
BRANCH   1   8
ATOM      8  C   UNL     1       1.263   8.433  17.605  1.00  0.00     0.000 C 
BRANCH   8   9
ATOM      9  C   UNL     1       0.501   8.282  18.932  1.00  0.00     0.006 C 
BRANCH   9  10
ATOM     10  C   UNL     1       1.433   8.226  20.149  1.00  0.00     0.053 C 
BRANCH  10  11
ATOM     11  C   UNL     1       0.992   7.154  21.094  1.00  0.00     0.041 C 
ATOM     12  O   UNL     1       1.775   6.734  21.988  1.00  0.00    -0.550 OA
ATOM     13  O   UNL     1      -0.301   6.652  21.021  1.00  0.00    -0.550 OA
ENDBRANCH  10  11
ENDBRANCH   9  10
ENDBRANCH   8   9
ENDBRANCH   1   8
TORSDOF 8
ENDMDL
MODEL 6
REMARK VINA RESULT:    -4.266      4.848      6.243
REMARK INTER + INTRA:          -6.537
REMARK INTER:                  -5.844
REMARK INTRA:                  -0.692
REMARK UNBOUND:                -0.276
REMARK SMILES O=C([O-])CCCCCCCC(=O)[O-]
REMARK SMILES IDX 7 1 6 2 5 3 4 4 2 5 1 6 3 7 8 8 9 9 10 10 11 11 12 12 13 13
REMARK H PARENT
REMARK Flexibility Score: inf
ROOT
ATOM      1  C   UNL     1      -4.966   5.275  16.853  1.00  0.00     0.000 C 
ENDROOT
BRANCH   1   2
ATOM      2  C   UNL     1      -5.288   3.782  17.033  1.00  0.00     0.000 C 
BRANCH   2   3
ATOM      3  C   UNL     1      -4.202   2.865  16.443  1.00  0.00     0.006 C 
BRANCH   3   4
ATOM      4  C   UNL     1      -3.100   3.658  15.728  1.00  0.00     0.053 C 
BRANCH   4   5
ATOM      5  C   UNL     1      -1.742   3.335  16.273  1.00  0.00     0.041 C 
ATOM      6  O   UNL     1      -0.755   4.062  15.982  1.00  0.00    -0.550 OA
ATOM      7  O   UNL     1      -1.573   2.254  17.128  1.00  0.00    -0.550 OA
ENDBRANCH   4   5
ENDBRANCH   3   4
ENDBRANCH   2   3
ENDBRANCH   1   2
BRANCH   1   8
ATOM      8  C   UNL     1      -6.231   6.133  16.675  1.00  0.00     0.000 C 
BRANCH   8   9
ATOM      9  C   UNL     1      -7.092   5.674  15.487  1.00  0.00     0.006 C 
BRANCH   9  10
ATOM     10  C   UNL     1      -6.331   5.709  14.155  1.00  0.00     0.053 C 
BRANCH  10  11
ATOM     11  C   UNL     1      -6.508   4.419  13.420  1.00  0.00     0.041 C 
ATOM     12  O   UNL     1      -5.506   3.716  13.123  1.00  0.00    -0.550 OA
ATOM     13  O   UNL     1      -7.783   3.967  13.105  1.00  0.00    -0.550 OA
ENDBRANCH  10  11
ENDBRANCH   9  10
ENDBRANCH   8   9
ENDBRANCH   1   8
TORSDOF 8
ENDMDL
MODEL 7
REMARK VINA RESULT:    -4.262      4.809      7.697
REMARK INTER + INTRA:          -6.531
REMARK INTER:                  -5.837
REMARK INTRA:                  -0.694
REMARK UNBOUND:                -0.276
REMARK SMILES O=C([O-])CCCCCCCC(=O)[O-]
REMARK SMILES IDX 7 1 6 2 5 3 4 4 2 5 1 6 3 7 8 8 9 9 10 10 11 11 12 12 13 13
REMARK H PARENT
REMARK Flexibility Score: inf
ROOT
ATOM      1  C   UNL     1      -4.861   5.412  17.013  1.00  0.00     0.000 C 
ENDROOT
BRANCH   1   2
ATOM      2  C   UNL     1      -6.010   6.344  16.594  1.00  0.00     0.000 C 
BRANCH   2   3
ATOM      3  C   UNL     1      -6.991   5.675  15.615  1.00  0.00     0.006 C 
BRANCH   3   4
ATOM      4  C   UNL     1      -6.528   5.799  14.157  1.00  0.00     0.053 C 
BRANCH   4   5
ATOM      5  C   UNL     1      -6.659   4.500  13.422  1.00  0.00     0.041 C 
ATOM      6  O   UNL     1      -5.638   3.805  13.178  1.00  0.00    -0.550 OA
ATOM      7  O   UNL     1      -7.912   4.041  13.035  1.00  0.00    -0.550 OA
ENDBRANCH   4   5
ENDBRANCH   3   4
ENDBRANCH   2   3
ENDBRANCH   1   2
BRANCH   1   8
ATOM      8  C   UNL     1      -5.279   3.931  17.027  1.00  0.00     0.000 C 
BRANCH   8   9
ATOM      9  C   UNL     1      -4.193   3.007  16.452  1.00  0.00     0.006 C 
BRANCH   9  10
ATOM     10  C   UNL     1      -3.121   3.771  15.663  1.00  0.00     0.053 C 
BRANCH  10  11
ATOM     11  C   UNL     1      -1.762   3.485  16.219  1.00  0.00     0.041 C 
ATOM     12  O   UNL     1      -0.799   4.257  15.968  1.00  0.00    -0.550 OA
ATOM     13  O   UNL     1      -1.569   2.392  17.054  1.00  0.00    -0.550 OA
ENDBRANCH  10  11
ENDBRANCH   9  10
ENDBRANCH   8   9
ENDBRANCH   1   8
TORSDOF 8
ENDMDL
MODEL 8
REMARK VINA RESULT:    -4.260      3.175      5.048
REMARK INTER + INTRA:          -6.528
REMARK INTER:                  -6.027
REMARK INTRA:                  -0.501
REMARK UNBOUND:                -0.276
REMARK SMILES O=C([O-])CCCCCCCC(=O)[O-]
REMARK SMILES IDX 7 1 6 2 5 3 4 4 2 5 1 6 3 7 8 8 9 9 10 10 11 11 12 12 13 13
REMARK H PARENT
REMARK Flexibility Score: inf
ROOT
ATOM      1  C   UNL     1      -3.503   2.664  16.624  1.00  0.00     0.000 C 
ENDROOT
BRANCH   1   2
ATOM      2  C   UNL     1      -2.480   3.271  15.651  1.00  0.00     0.000 C 
BRANCH   2   3
ATOM      3  C   UNL     1      -1.231   3.816  16.365  1.00  0.00     0.006 C 
BRANCH   3   4
ATOM      4  C   UNL     1      -1.455   5.227  16.926  1.00  0.00     0.053 C 
BRANCH   4   5
ATOM      5  C   UNL     1      -0.214   5.773  17.565  1.00  0.00     0.041 C 
ATOM      6  O   UNL     1      -0.001   5.590  18.792  1.00  0.00    -0.550 OA
ATOM      7  O   UNL     1       0.722   6.454  16.797  1.00  0.00    -0.550 OA
ENDBRANCH   4   5
ENDBRANCH   3   4
ENDBRANCH   2   3
ENDBRANCH   1   2
BRANCH   1   8
ATOM      8  C   UNL     1      -4.947   3.081  16.297  1.00  0.00     0.000 C 
BRANCH   8   9
ATOM      9  C   UNL     1      -5.359   4.384  17.003  1.00  0.00     0.006 C 
BRANCH   9  10
ATOM     10  C   UNL     1      -5.504   5.564  16.032  1.00  0.00     0.053 C 
BRANCH  10  11
ATOM     11  C   UNL     1      -6.945   5.931  15.870  1.00  0.00     0.041 C 
ATOM     12  O   UNL     1      -7.687   5.265  15.101  1.00  0.00    -0.550 OA
ATOM     13  O   UNL     1      -7.481   6.980  16.606  1.00  0.00    -0.550 OA
ENDBRANCH  10  11
ENDBRANCH   9  10
ENDBRANCH   8   9
ENDBRANCH   1   8
TORSDOF 8
ENDMDL
MODEL 9
REMARK VINA RESULT:    -4.231      3.223      6.702
REMARK INTER + INTRA:          -6.486
REMARK INTER:                  -6.089
REMARK INTRA:                  -0.397
REMARK UNBOUND:                -0.276
REMARK SMILES O=C([O-])CCCCCCCC(=O)[O-]
REMARK SMILES IDX 7 1 6 2 5 3 4 4 2 5 1 6 3 7 8 8 9 9 10 10 11 11 12 12 13 13
REMARK H PARENT
REMARK Flexibility Score: inf
ROOT
ATOM      1  C   UNL     1      -3.558   2.955  16.628  1.00  0.00     0.000 C 
ENDROOT
BRANCH   1   2
ATOM      2  C   UNL     1      -5.077   2.913  16.395  1.00  0.00     0.000 C 
BRANCH   2   3
ATOM      3  C   UNL     1      -5.648   4.268  15.945  1.00  0.00     0.006 C 
BRANCH   3   4
ATOM      4  C   UNL     1      -5.612   5.314  17.067  1.00  0.00     0.053 C 
BRANCH   4   5
ATOM      5  C   UNL     1      -6.518   6.471  16.776  1.00  0.00     0.041 C 
ATOM      6  O   UNL     1      -7.554   6.304  16.080  1.00  0.00    -0.550 OA
ATOM      7  O   UNL     1      -6.237   7.726  17.302  1.00  0.00    -0.550 OA
ENDBRANCH   4   5
ENDBRANCH   3   4
ENDBRANCH   2   3
ENDBRANCH   1   2
BRANCH   1   8
ATOM      8  C   UNL     1      -2.810   3.689  15.502  1.00  0.00     0.000 C 
BRANCH   8   9
ATOM      9  C   UNL     1      -1.948   4.850  16.026  1.00  0.00     0.006 C 
BRANCH   9  10
ATOM     10  C   UNL     1      -0.851   4.385  16.992  1.00  0.00     0.053 C 
BRANCH  10  11
ATOM     11  C   UNL     1      -0.106   5.560  17.540  1.00  0.00     0.041 C 
ATOM     12  O   UNL     1       0.494   6.350  16.763  1.00  0.00    -0.550 OA
ATOM     13  O   UNL     1      -0.115   5.813  18.906  1.00  0.00    -0.550 OA
ENDBRANCH  10  11
ENDBRANCH   9  10
ENDBRANCH   8   9
ENDBRANCH   1   8
TORSDOF 8
ENDMDL
