MODEL 1
REMARK VINA RESULT:    -4.425      0.000      0.000
REMARK INTER + INTRA:          -5.162
REMARK INTER:                  -4.942
REMARK INTRA:                  -0.219
REMARK UNBOUND:                -0.219
REMARK SMILES CC(C)c1ccc(C(=O)[O-])cc1
REMARK SMILES IDX 7 1 6 2 11 3 5 4 12 5 4 6 8 7 9 8 10 9 2 10 1 11 3 12
REMARK H PARENT
REMARK Flexibility Score: inf
ROOT
ATOM      1  C   UNL     1      63.074  30.924  61.041  1.00  0.00    -0.003 A 
ATOM      2  C   UNL     1      61.783  31.453  60.879  1.00  0.00     0.010 A 
ATOM      3  C   UNL     1      64.177  31.793  60.982  1.00  0.00     0.010 A 
ATOM      4  C   UNL     1      61.597  32.821  60.663  1.00  0.00     0.004 A 
ATOM      5  C   UNL     1      63.992  33.162  60.765  1.00  0.00     0.004 A 
ATOM      6  C   UNL     1      62.702  33.692  60.603  1.00  0.00    -0.045 A 
ENDROOT
BRANCH   1   7
ATOM      7  C   UNL     1      63.265  29.476  61.270  1.00  0.00     0.071 C 
ATOM      8  O   UNL     1      62.336  28.776  61.756  1.00  0.00    -0.545 OA
ATOM      9  O   UNL     1      64.473  28.865  60.954  1.00  0.00    -0.545 OA
ENDBRANCH   1   7
BRANCH   6  10
ATOM     10  C   UNL     1      62.515  35.180  60.368  1.00  0.00     0.013 C 
ATOM     11  C   UNL     1      61.047  35.586  60.541  1.00  0.00     0.012 C 
ATOM     12  C   UNL     1      63.427  36.003  61.284  1.00  0.00     0.012 C 
ENDBRANCH   6  10
TORSDOF 2
ENDMDL
MODEL 2
REMARK VINA RESULT:    -4.417      0.060      1.399
REMARK INTER + INTRA:          -5.153
REMARK INTER:                  -4.934
REMARK INTRA:                  -0.219
REMARK UNBOUND:                -0.219
REMARK SMILES CC(C)c1ccc(C(=O)[O-])cc1
REMARK SMILES IDX 7 1 6 2 11 3 5 4 12 5 4 6 8 7 9 8 10 9 2 10 1 11 3 12
REMARK H PARENT
REMARK Flexibility Score: inf
ROOT
ATOM      1  C   UNL     1      63.051  30.912  61.052  1.00  0.00    -0.003 A 
ATOM      2  C   UNL     1      64.179  31.746  60.977  1.00  0.00     0.010 A 
ATOM      3  C   UNL     1      61.774  31.479  60.908  1.00  0.00     0.010 A 
ATOM      4  C   UNL     1      64.033  33.119  60.763  1.00  0.00     0.004 A 
ATOM      5  C   UNL     1      61.628  32.854  60.694  1.00  0.00     0.004 A 
ATOM      6  C   UNL     1      62.754  33.689  60.619  1.00  0.00    -0.045 A 
ENDROOT
BRANCH   1   7
ATOM      7  C   UNL     1      63.210  29.459  61.278  1.00  0.00     0.071 C 
ATOM      8  O   UNL     1      62.263  28.776  61.752  1.00  0.00    -0.545 OA
ATOM      9  O   UNL     1      64.409  28.825  60.971  1.00  0.00    -0.545 OA
ENDBRANCH   1   7
BRANCH   6  10
ATOM     10  C   UNL     1      62.582  35.178  60.386  1.00  0.00     0.013 C 
ATOM     11  C   UNL     1      61.113  35.593  60.530  1.00  0.00     0.012 C 
ATOM     12  C   UNL     1      63.479  35.993  61.325  1.00  0.00     0.012 C 
ENDBRANCH   6  10
TORSDOF 2
ENDMDL
MODEL 3
REMARK VINA RESULT:    -4.386     12.734     13.616
REMARK INTER + INTRA:          -5.117
REMARK INTER:                  -4.898
REMARK INTRA:                  -0.220
REMARK UNBOUND:                -0.219
REMARK SMILES CC(C)c1ccc(C(=O)[O-])cc1
REMARK SMILES IDX 7 1 6 2 11 3 5 4 12 5 4 6 8 7 9 8 10 9 2 10 1 11 3 12
REMARK H PARENT
REMARK Flexibility Score: inf
ROOT
ATOM      1  C   UNL     1      58.588  27.031  49.866  1.00  0.00    -0.003 A 
ATOM      2  C   UNL     1      58.200  28.366  50.066  1.00  0.00     0.010 A 
ATOM      3  C   UNL     1      57.607  26.025  49.901  1.00  0.00     0.010 A 
ATOM      4  C   UNL     1      56.861  28.689  50.298  1.00  0.00     0.004 A 
ATOM      5  C   UNL     1      56.267  26.348  50.133  1.00  0.00     0.004 A 
ATOM      6  C   UNL     1      55.878  27.682  50.335  1.00  0.00    -0.045 A 
ENDROOT
BRANCH   1   7
ATOM      7  C   UNL     1      60.007  26.694  49.620  1.00  0.00     0.071 C 
ATOM      8  O   UNL     1      60.419  25.512  49.764  1.00  0.00    -0.545 OA
ATOM      9  O   UNL     1      60.907  27.677  49.225  1.00  0.00    -0.545 OA
ENDBRANCH   1   7
BRANCH   6  10
ATOM     10  C   UNL     1      54.420  28.019  50.586  1.00  0.00     0.013 C 
ATOM     11  C   UNL     1      54.181  29.532  50.509  1.00  0.00     0.012 C 
ATOM     12  C   UNL     1      53.503  27.266  49.615  1.00  0.00     0.012 C 
ENDBRANCH   6  10
TORSDOF 2
ENDMDL
MODEL 4
REMARK VINA RESULT:    -4.324     13.026     13.979
REMARK INTER + INTRA:          -5.049
REMARK INTER:                  -4.837
REMARK INTRA:                  -0.212
REMARK UNBOUND:                -0.219
REMARK SMILES CC(C)c1ccc(C(=O)[O-])cc1
REMARK SMILES IDX 7 1 6 2 11 3 5 4 12 5 4 6 8 7 9 8 10 9 2 10 1 11 3 12
REMARK H PARENT
REMARK Flexibility Score: inf
ROOT
ATOM      1  C   UNL     1      57.840  27.440  50.214  1.00  0.00    -0.003 A 
ATOM      2  C   UNL     1      57.172  26.227  49.980  1.00  0.00     0.010 A 
ATOM      3  C   UNL     1      57.081  28.607  50.407  1.00  0.00     0.010 A 
ATOM      4  C   UNL     1      55.776  26.181  49.939  1.00  0.00     0.004 A 
ATOM      5  C   UNL     1      55.684  28.562  50.367  1.00  0.00     0.004 A 
ATOM      6  C   UNL     1      55.016  27.349  50.132  1.00  0.00    -0.045 A 
ENDROOT
BRANCH   1   7
ATOM      7  C   UNL     1      59.317  27.484  50.257  1.00  0.00     0.071 C 
ATOM      8  O   UNL     1      59.931  27.358  51.350  1.00  0.00    -0.545 OA
ATOM      9  O   UNL     1      60.051  27.665  49.090  1.00  0.00    -0.545 OA
ENDBRANCH   1   7
BRANCH   6  10
ATOM     10  C   UNL     1      53.499  27.314  50.090  1.00  0.00     0.013 C 
ATOM     11  C   UNL     1      52.922  28.706  49.811  1.00  0.00     0.012 C 
ATOM     12  C   UNL     1      52.998  26.292  49.064  1.00  0.00     0.012 C 
ENDBRANCH   6  10
TORSDOF 2
ENDMDL
MODEL 5
REMARK VINA RESULT:    -4.214      3.586      5.006
REMARK INTER + INTRA:          -4.925
REMARK INTER:                  -4.725
REMARK INTRA:                  -0.200
REMARK UNBOUND:                -0.219
REMARK SMILES CC(C)c1ccc(C(=O)[O-])cc1
REMARK SMILES IDX 7 1 6 2 11 3 5 4 12 5 4 6 8 7 9 8 10 9 2 10 1 11 3 12
REMARK H PARENT
REMARK Flexibility Score: inf
ROOT
ATOM      1  C   UNL     1      63.635  35.151  60.920  1.00  0.00    -0.003 A 
ATOM      2  C   UNL     1      62.251  35.142  60.680  1.00  0.00     0.010 A 
ATOM      3  C   UNL     1      64.322  33.927  60.986  1.00  0.00     0.010 A 
ATOM      4  C   UNL     1      61.567  33.936  60.513  1.00  0.00     0.004 A 
ATOM      5  C   UNL     1      63.637  32.719  60.818  1.00  0.00     0.004 A 
ATOM      6  C   UNL     1      62.253  32.709  60.580  1.00  0.00    -0.045 A 
ENDROOT
BRANCH   1   7
ATOM      7  C   UNL     1      64.355  36.431  61.096  1.00  0.00     0.071 C 
ATOM      8  O   UNL     1      64.534  36.912  62.246  1.00  0.00    -0.545 OA
ATOM      9  O   UNL     1      64.846  37.121  59.993  1.00  0.00    -0.545 OA
ENDBRANCH   1   7
BRANCH   6  10
ATOM     10  C   UNL     1      61.523  31.391  60.400  1.00  0.00     0.013 C 
ATOM     11  C   UNL     1      60.824  30.966  61.696  1.00  0.00     0.012 C 
ATOM     12  C   UNL     1      60.529  31.464  59.235  1.00  0.00     0.012 C 
ENDBRANCH   6  10
TORSDOF 2
ENDMDL
MODEL 6
REMARK VINA RESULT:    -4.119      1.288      1.866
REMARK INTER + INTRA:          -4.820
REMARK INTER:                  -4.613
REMARK INTRA:                  -0.207
REMARK UNBOUND:                -0.219
REMARK SMILES CC(C)c1ccc(C(=O)[O-])cc1
REMARK SMILES IDX 7 1 6 2 11 3 5 4 12 5 4 6 8 7 9 8 10 9 2 10 1 11 3 12
REMARK H PARENT
REMARK Flexibility Score: inf
ROOT
ATOM      1  C   UNL     1      62.907  32.155  60.611  1.00  0.00    -0.003 A 
ATOM      2  C   UNL     1      61.717  32.883  60.443  1.00  0.00     0.010 A 
ATOM      3  C   UNL     1      64.093  32.849  60.904  1.00  0.00     0.010 A 
ATOM      4  C   UNL     1      61.713  34.275  60.562  1.00  0.00     0.004 A 
ATOM      5  C   UNL     1      64.090  34.242  61.024  1.00  0.00     0.004 A 
ATOM      6  C   UNL     1      62.901  34.971  60.855  1.00  0.00    -0.045 A 
ENDROOT
BRANCH   1   7
ATOM      7  C   UNL     1      62.906  30.681  60.484  1.00  0.00     0.071 C 
ATOM      8  O   UNL     1      62.894  30.136  59.349  1.00  0.00    -0.545 OA
ATOM      9  O   UNL     1      62.918  29.876  61.618  1.00  0.00    -0.545 OA
ENDBRANCH   1   7
BRANCH   6  10
ATOM     10  C   UNL     1      62.912  36.483  60.988  1.00  0.00     0.013 C 
ATOM     11  C   UNL     1      63.802  37.125  59.917  1.00  0.00     0.012 C 
ATOM     12  C   UNL     1      61.490  37.052  60.937  1.00  0.00     0.012 C 
ENDBRANCH   6  10
TORSDOF 2
ENDMDL
MODEL 7
REMARK VINA RESULT:    -4.113      3.487      5.414
REMARK INTER + INTRA:          -4.813
REMARK INTER:                  -4.600
REMARK INTRA:                  -0.213
REMARK UNBOUND:                -0.219
REMARK SMILES CC(C)c1ccc(C(=O)[O-])cc1
REMARK SMILES IDX 7 1 6 2 11 3 5 4 12 5 4 6 8 7 9 8 10 9 2 10 1 11 3 12
REMARK H PARENT
REMARK Flexibility Score: inf
ROOT
ATOM      1  C   UNL     1      62.973  34.903  60.721  1.00  0.00    -0.003 A 
ATOM      2  C   UNL     1      64.128  34.146  60.980  1.00  0.00     0.010 A 
ATOM      3  C   UNL     1      61.765  34.233  60.463  1.00  0.00     0.010 A 
ATOM      4  C   UNL     1      64.077  32.750  60.980  1.00  0.00     0.004 A 
ATOM      5  C   UNL     1      61.713  32.835  60.463  1.00  0.00     0.004 A 
ATOM      6  C   UNL     1      62.867  32.078  60.721  1.00  0.00    -0.045 A 
ENDROOT
BRANCH   1   7
ATOM      7  C   UNL     1      63.031  36.380  60.723  1.00  0.00     0.071 C 
ATOM      8  O   UNL     1      63.991  36.984  60.173  1.00  0.00    -0.545 OA
ATOM      9  O   UNL     1      62.027  37.125  61.331  1.00  0.00    -0.545 OA
ENDBRANCH   1   7
BRANCH   6  10
ATOM     10  C   UNL     1      62.798  30.562  60.718  1.00  0.00     0.013 C 
ATOM     11  C   UNL     1      64.177  29.946  60.975  1.00  0.00     0.012 C 
ATOM     12  C   UNL     1      61.768  30.054  61.732  1.00  0.00     0.012 C 
ENDBRANCH   6  10
TORSDOF 2
ENDMDL
MODEL 8
REMARK VINA RESULT:    -3.975     13.015     14.089
REMARK INTER + INTRA:          -4.659
REMARK INTER:                  -4.450
REMARK INTRA:                  -0.209
REMARK UNBOUND:                -0.219
REMARK SMILES CC(C)c1ccc(C(=O)[O-])cc1
REMARK SMILES IDX 7 1 6 2 11 3 5 4 12 5 4 6 8 7 9 8 10 9 2 10 1 11 3 12
REMARK H PARENT
REMARK Flexibility Score: inf
ROOT
ATOM      1  C   UNL     1      55.110  27.498  50.304  1.00  0.00    -0.003 A 
ATOM      2  C   UNL     1      55.689  26.232  50.118  1.00  0.00     0.010 A 
ATOM      3  C   UNL     1      55.951  28.616  50.446  1.00  0.00     0.010 A 
ATOM      4  C   UNL     1      57.078  26.084  50.077  1.00  0.00     0.004 A 
ATOM      5  C   UNL     1      57.341  28.469  50.405  1.00  0.00     0.004 A 
ATOM      6  C   UNL     1      57.920  27.203  50.221  1.00  0.00    -0.045 A 
ENDROOT
BRANCH   1   7
ATOM      7  C   UNL     1      53.640  27.649  50.345  1.00  0.00     0.071 C 
ATOM      8  O   UNL     1      53.001  27.994  49.315  1.00  0.00    -0.545 OA
ATOM      9  O   UNL     1      52.940  27.413  51.524  1.00  0.00    -0.545 OA
ENDBRANCH   1   7
BRANCH   6  10
ATOM     10  C   UNL     1      59.430  27.057  50.178  1.00  0.00     0.013 C 
ATOM     11  C   UNL     1      59.837  25.602  49.923  1.00  0.00     0.012 C 
ATOM     12  C   UNL     1      60.047  27.994  49.134  1.00  0.00     0.012 C 
ENDBRANCH   6  10
TORSDOF 2
ENDMDL
MODEL 9
REMARK VINA RESULT:    -3.939      2.990      5.187
REMARK INTER + INTRA:          -4.619
REMARK INTER:                  -4.405
REMARK INTRA:                  -0.214
REMARK UNBOUND:                -0.219
REMARK SMILES CC(C)c1ccc(C(=O)[O-])cc1
REMARK SMILES IDX 7 1 6 2 11 3 5 4 12 5 4 6 8 7 9 8 10 9 2 10 1 11 3 12
REMARK H PARENT
REMARK Flexibility Score: inf
ROOT
ATOM      1  C   UNL     1      62.274  33.345  60.572  1.00  0.00    -0.003 A 
ATOM      2  C   UNL     1      63.661  33.138  60.637  1.00  0.00     0.010 A 
ATOM      3  C   UNL     1      61.413  32.251  60.768  1.00  0.00     0.010 A 
ATOM      4  C   UNL     1      64.179  31.866  60.891  1.00  0.00     0.004 A 
ATOM      5  C   UNL     1      61.930  30.977  61.022  1.00  0.00     0.004 A 
ATOM      6  C   UNL     1      63.318  30.769  61.087  1.00  0.00    -0.045 A 
ENDROOT
BRANCH   1   7
ATOM      7  C   UNL     1      61.731  34.694  60.303  1.00  0.00     0.071 C 
ATOM      8  O   UNL     1      62.089  35.680  61.002  1.00  0.00    -0.545 OA
ATOM      9  O   UNL     1      60.816  34.894  59.275  1.00  0.00    -0.545 OA
ENDBRANCH   1   7
BRANCH   6  10
ATOM     10  C   UNL     1      63.866  29.382  61.364  1.00  0.00     0.013 C 
ATOM     11  C   UNL     1      62.750  28.331  61.335  1.00  0.00     0.012 C 
ATOM     12  C   UNL     1      64.986  29.023  60.381  1.00  0.00     0.012 C 
ENDBRANCH   6  10
TORSDOF 2
ENDMDL
