MODEL 1
REMARK VINA RESULT:     4.003      0.000      0.000
REMARK INTER + INTRA:           6.805
REMARK INTER:                   7.280
REMARK INTRA:                  -0.475
REMARK UNBOUND:                -0.475
REMARK SMILES CCCCCCCCCCCCCCCC(=O)[O-]
REMARK SMILES IDX 9 1 10 2 11 3 12 4 13 5 14 6 15 7 16 8 17 9 18 10 8 11 7 12
REMARK SMILES IDX 6 13 5 14 4 15 3 16 2 17 1 18
REMARK H PARENT
REMARK Flexibility Score: inf
ROOT
ATOM      1  C   UNL     1      23.644 -28.964  21.044  1.00  0.00     0.000 C 
ENDROOT
BRANCH   1   2
ATOM      2  C   UNL     1      25.181 -29.084  21.008  1.00  0.00     0.000 C 
BRANCH   2   3
ATOM      3  C   UNL     1      25.894 -28.035  20.137  1.00  0.00     0.000 C 
BRANCH   3   4
ATOM      4  C   UNL     1      27.396 -27.929  20.437  1.00  0.00     0.000 C 
BRANCH   4   5
ATOM      5  C   UNL     1      27.782 -26.489  20.809  1.00  0.00     0.000 C 
BRANCH   5   6
ATOM      6  C   UNL     1      29.104 -26.044  20.164  1.00  0.00     0.006 C 
BRANCH   6   7
ATOM      7  C   UNL     1      30.306 -26.223  21.099  1.00  0.00     0.053 C 
BRANCH   7   8
ATOM      8  C   UNL     1      31.403 -25.277  20.727  1.00  0.00     0.041 C 
ATOM      9  O   UNL     1      32.500 -25.302  21.346  1.00  0.00    -0.550 OA
ATOM     10  O   UNL     1      31.236 -24.400  19.662  1.00  0.00    -0.550 OA
ENDBRANCH   7   8
ENDBRANCH   6   7
ENDBRANCH   5   6
ENDBRANCH   4   5
ENDBRANCH   3   4
ENDBRANCH   2   3
ENDBRANCH   1   2
BRANCH   1  11
ATOM     11  C   UNL     1      22.928 -30.026  21.901  1.00  0.00     0.000 C 
BRANCH  11  12
ATOM     12  C   UNL     1      21.431 -29.759  22.155  1.00  0.00    -0.000 C 
BRANCH  12  13
ATOM     13  C   UNL     1      20.630 -30.964  22.683  1.00  0.00    -0.000 C 
BRANCH  13  14
ATOM     14  C   UNL     1      19.138 -30.894  22.321  1.00  0.00    -0.000 C 
BRANCH  14  15
ATOM     15  C   UNL     1      18.768 -31.792  21.126  1.00  0.00    -0.000 C 
BRANCH  15  16
ATOM     16  C   UNL     1      19.953 -32.243  20.248  1.00  0.00    -0.000 C 
BRANCH  16  17
ATOM     17  C   UNL     1      20.361 -33.718  20.414  1.00  0.00    -0.003 C 
ATOM     18  C   UNL     1      19.177 -34.631  20.731  1.00  0.00     0.004 C 
ENDBRANCH  16  17
ENDBRANCH  15  16
ENDBRANCH  14  15
ENDBRANCH  13  14
ENDBRANCH  12  13
ENDBRANCH  11  12
ENDBRANCH   1  11
TORSDOF 14
ENDMDL
MODEL 2
REMARK VINA RESULT:     4.213      0.618      1.462
REMARK INTER + INTRA:           7.186
REMARK INTER:                   7.899
REMARK INTRA:                  -0.713
REMARK UNBOUND:                -0.475
REMARK SMILES CCCCCCCCCCCCCCCC(=O)[O-]
REMARK SMILES IDX 9 1 10 2 11 3 12 4 13 5 14 6 15 7 16 8 17 9 18 10 8 11 7 12
REMARK SMILES IDX 6 13 5 14 4 15 3 16 2 17 1 18
REMARK H PARENT
REMARK Flexibility Score: inf
ROOT
ATOM      1  C   UNL     1      25.567 -29.956  20.833  1.00  0.00     0.000 C 
ENDROOT
BRANCH   1   2
ATOM      2  C   UNL     1      26.639 -28.897  20.507  1.00  0.00     0.000 C 
BRANCH   2   3
ATOM      3  C   UNL     1      26.115 -27.643  19.785  1.00  0.00     0.000 C 
BRANCH   3   4
ATOM      4  C   UNL     1      26.698 -26.340  20.350  1.00  0.00     0.000 C 
BRANCH   4   5
ATOM      5  C   UNL     1      27.992 -26.611  21.132  1.00  0.00     0.000 C 
BRANCH   5   6
ATOM      6  C   UNL     1      29.248 -26.139  20.382  1.00  0.00     0.006 C 
BRANCH   6   7
ATOM      7  C   UNL     1      30.509 -26.188  21.254  1.00  0.00     0.053 C 
BRANCH   7   8
ATOM      8  C   UNL     1      31.520 -25.198  20.767  1.00  0.00     0.041 C 
ATOM      9  O   UNL     1      31.250 -24.443  19.795  1.00  0.00    -0.550 OA
ATOM     10  O   UNL     1      32.741 -25.073  21.416  1.00  0.00    -0.550 OA
ENDBRANCH   7   8
ENDBRANCH   6   7
ENDBRANCH   5   6
ENDBRANCH   4   5
ENDBRANCH   3   4
ENDBRANCH   2   3
ENDBRANCH   1   2
BRANCH   1  11
ATOM     11  C   UNL     1      24.160 -29.395  21.113  1.00  0.00     0.000 C 
BRANCH  11  12
ATOM     12  C   UNL     1      23.121 -30.436  21.575  1.00  0.00    -0.000 C 
BRANCH  12  13
ATOM     13  C   UNL     1      21.759 -29.858  22.003  1.00  0.00    -0.000 C 
BRANCH  13  14
ATOM     14  C   UNL     1      20.872 -30.889  22.722  1.00  0.00    -0.000 C 
BRANCH  14  15
ATOM     15  C   UNL     1      19.422 -30.896  22.203  1.00  0.00    -0.000 C 
BRANCH  15  16
ATOM     16  C   UNL     1      19.153 -31.835  21.010  1.00  0.00    -0.000 C 
BRANCH  16  17
ATOM     17  C   UNL     1      20.150 -32.998  20.860  1.00  0.00    -0.003 C 
ATOM     18  C   UNL     1      19.484 -34.299  20.412  1.00  0.00     0.004 C 
ENDBRANCH  16  17
ENDBRANCH  15  16
ENDBRANCH  14  15
ENDBRANCH  13  14
ENDBRANCH  12  13
ENDBRANCH  11  12
ENDBRANCH   1  11
TORSDOF 14
ENDMDL
MODEL 3
REMARK VINA RESULT:     4.437      4.899     10.929
REMARK INTER + INTRA:           7.593
REMARK INTER:                   7.084
REMARK INTRA:                   0.509
REMARK UNBOUND:                -0.475
REMARK SMILES CCCCCCCCCCCCCCCC(=O)[O-]
REMARK SMILES IDX 9 1 10 2 11 3 12 4 13 5 14 6 15 7 16 8 17 9 18 10 8 11 7 12
REMARK SMILES IDX 6 13 5 14 4 15 3 16 2 17 1 18
REMARK H PARENT
REMARK Flexibility Score: inf
ROOT
ATOM      1  C   UNL     1      24.869 -29.188  21.040  1.00  0.00     0.000 C 
ENDROOT
BRANCH   1   2
ATOM      2  C   UNL     1      23.331 -29.102  21.113  1.00  0.00     0.000 C 
BRANCH   2   3
ATOM      3  C   UNL     1      22.659 -30.204  21.951  1.00  0.00     0.000 C 
BRANCH   3   4
ATOM      4  C   UNL     1      21.177 -29.917  22.236  1.00  0.00     0.000 C 
BRANCH   4   5
ATOM      5  C   UNL     1      20.409 -31.219  22.506  1.00  0.00     0.000 C 
BRANCH   5   6
ATOM      6  C   UNL     1      18.929 -31.129  22.102  1.00  0.00     0.006 C 
BRANCH   6   7
ATOM      7  C   UNL     1      18.608 -31.954  20.849  1.00  0.00     0.053 C 
BRANCH   7   8
ATOM      8  C   UNL     1      19.620 -33.041  20.667  1.00  0.00     0.041 C 
ATOM      9  O   UNL     1      20.837 -32.755  20.519  1.00  0.00    -0.550 OA
ATOM     10  O   UNL     1      19.227 -34.373  20.711  1.00  0.00    -0.550 OA
ENDBRANCH   7   8
ENDBRANCH   6   7
ENDBRANCH   5   6
ENDBRANCH   4   5
ENDBRANCH   3   4
ENDBRANCH   2   3
ENDBRANCH   1   2
BRANCH   1  11
ATOM     11  C   UNL     1      25.546 -28.077  20.215  1.00  0.00     0.000 C 
BRANCH  11  12
ATOM     12  C   UNL     1      27.078 -27.992  20.364  1.00  0.00    -0.000 C 
BRANCH  12  13
ATOM     13  C   UNL     1      27.617 -26.624  20.822  1.00  0.00    -0.000 C 
BRANCH  13  14
ATOM     14  C   UNL     1      29.153 -26.560  20.828  1.00  0.00    -0.000 C 
BRANCH  14  15
ATOM     15  C   UNL     1      29.714 -25.550  19.809  1.00  0.00    -0.000 C 
BRANCH  15  16
ATOM     16  C   UNL     1      31.122 -25.005  20.127  1.00  0.00    -0.000 C 
BRANCH  16  17
ATOM     17  C   UNL     1      31.690 -25.429  21.493  1.00  0.00    -0.003 C 
ATOM     18  C   UNL     1      33.218 -25.451  21.522  1.00  0.00     0.004 C 
ENDBRANCH  16  17
ENDBRANCH  15  16
ENDBRANCH  14  15
ENDBRANCH  13  14
ENDBRANCH  12  13
ENDBRANCH  11  12
ENDBRANCH   1  11
TORSDOF 14
ENDMDL
MODEL 4
REMARK VINA RESULT:     4.891      4.924      6.073
REMARK INTER + INTRA:           8.418
REMARK INTER:                   7.865
REMARK INTRA:                   0.553
REMARK UNBOUND:                -0.475
REMARK SMILES CCCCCCCCCCCCCCCC(=O)[O-]
REMARK SMILES IDX 9 1 10 2 11 3 12 4 13 5 14 6 15 7 16 8 17 9 18 10 8 11 7 12
REMARK SMILES IDX 6 13 5 14 4 15 3 16 2 17 1 18
REMARK H PARENT
REMARK Flexibility Score: inf
ROOT
ATOM      1  C   UNL     1      28.064 -26.686  21.573  1.00  0.00     0.000 C 
ENDROOT
BRANCH   1   2
ATOM      2  C   UNL     1      29.193 -26.395  20.564  1.00  0.00     0.000 C 
BRANCH   2   3
ATOM      3  C   UNL     1      28.875 -25.298  19.533  1.00  0.00     0.000 C 
BRANCH   3   4
ATOM      4  C   UNL     1      29.976 -25.135  18.474  1.00  0.00     0.000 C 
BRANCH   4   5
ATOM      5  C   UNL     1      30.720 -23.804  18.657  1.00  0.00     0.000 C 
BRANCH   5   6
ATOM      6  C   UNL     1      31.550 -23.761  19.951  1.00  0.00     0.006 C 
BRANCH   6   7
ATOM      7  C   UNL     1      31.634 -25.127  20.644  1.00  0.00     0.053 C 
BRANCH   7   8
ATOM      8  C   UNL     1      32.591 -25.072  21.792  1.00  0.00     0.041 C 
ATOM      9  O   UNL     1      33.645 -25.762  21.772  1.00  0.00    -0.550 OA
ATOM     10  O   UNL     1      32.347 -24.220  22.862  1.00  0.00    -0.550 OA
ENDBRANCH   7   8
ENDBRANCH   6   7
ENDBRANCH   5   6
ENDBRANCH   4   5
ENDBRANCH   3   4
ENDBRANCH   2   3
ENDBRANCH   1   2
BRANCH   1  11
ATOM     11  C   UNL     1      26.637 -26.578  21.003  1.00  0.00     0.000 C 
BRANCH  11  12
ATOM     12  C   UNL     1      26.282 -27.624  19.927  1.00  0.00    -0.000 C 
BRANCH  12  13
ATOM     13  C   UNL     1      26.519 -29.090  20.333  1.00  0.00    -0.000 C 
BRANCH  13  14
ATOM     14  C   UNL     1      27.700 -29.733  19.587  1.00  0.00    -0.000 C 
BRANCH  14  15
ATOM     15  C   UNL     1      27.307 -30.282  18.204  1.00  0.00    -0.000 C 
BRANCH  15  16
ATOM     16  C   UNL     1      27.210 -31.819  18.108  1.00  0.00    -0.000 C 
BRANCH  16  17
ATOM     17  C   UNL     1      28.356 -32.496  17.335  1.00  0.00    -0.003 C 
ATOM     18  C   UNL     1      29.723 -31.886  17.642  1.00  0.00     0.004 C 
ENDBRANCH  16  17
ENDBRANCH  15  16
ENDBRANCH  14  15
ENDBRANCH  13  14
ENDBRANCH  12  13
ENDBRANCH  11  12
ENDBRANCH   1  11
TORSDOF 14
ENDMDL
MODEL 5
REMARK VINA RESULT:     5.564      5.419      9.654
REMARK INTER + INTRA:           9.642
REMARK INTER:                  10.405
REMARK INTRA:                  -0.763
REMARK UNBOUND:                -0.475
REMARK SMILES CCCCCCCCCCCCCCCC(=O)[O-]
REMARK SMILES IDX 9 1 10 2 11 3 12 4 13 5 14 6 15 7 16 8 17 9 18 10 8 11 7 12
REMARK SMILES IDX 6 13 5 14 4 15 3 16 2 17 1 18
REMARK H PARENT
REMARK Flexibility Score: inf
ROOT
ATOM      1  C   UNL     1      28.405 -26.322  20.552  1.00  0.00     0.000 C 
ENDROOT
BRANCH   1   2
ATOM      2  C   UNL     1      26.865 -26.292  20.482  1.00  0.00     0.000 C 
BRANCH   2   3
ATOM      3  C   UNL     1      26.229 -27.433  19.669  1.00  0.00     0.000 C 
BRANCH   3   4
ATOM      4  C   UNL     1      26.227 -28.773  20.419  1.00  0.00     0.000 C 
BRANCH   4   5
ATOM      5  C   UNL     1      27.424 -29.639  19.998  1.00  0.00     0.000 C 
BRANCH   5   6
ATOM      6  C   UNL     1      27.415 -29.976  18.499  1.00  0.00     0.006 C 
BRANCH   6   7
ATOM      7  C   UNL     1      27.176 -31.467  18.230  1.00  0.00     0.053 C 
BRANCH   7   8
ATOM      8  C   UNL     1      28.379 -32.081  17.587  1.00  0.00     0.041 C 
ATOM      9  O   UNL     1      29.517 -31.567  17.751  1.00  0.00    -0.550 OA
ATOM     10  O   UNL     1      28.253 -33.251  16.849  1.00  0.00    -0.550 OA
ENDBRANCH   7   8
ENDBRANCH   6   7
ENDBRANCH   5   6
ENDBRANCH   4   5
ENDBRANCH   3   4
ENDBRANCH   2   3
ENDBRANCH   1   2
BRANCH   1  11
ATOM     11  C   UNL     1      28.987 -26.974  21.821  1.00  0.00     0.000 C 
BRANCH  11  12
ATOM     12  C   UNL     1      30.392 -26.482  22.223  1.00  0.00    -0.000 C 
BRANCH  12  13
ATOM     13  C   UNL     1      31.390 -26.327  21.061  1.00  0.00    -0.000 C 
BRANCH  13  14
ATOM     14  C   UNL     1      32.383 -25.173  21.277  1.00  0.00    -0.000 C 
BRANCH  14  15
ATOM     15  C   UNL     1      31.886 -23.838  20.691  1.00  0.00    -0.000 C 
BRANCH  15  16
ATOM     16  C   UNL     1      31.626 -23.840  19.171  1.00  0.00    -0.000 C 
BRANCH  16  17
ATOM     17  C   UNL     1      30.146 -23.732  18.764  1.00  0.00    -0.003 C 
ATOM     18  C   UNL     1      29.594 -25.030  18.177  1.00  0.00     0.004 C 
ENDBRANCH  16  17
ENDBRANCH  15  16
ENDBRANCH  14  15
ENDBRANCH  13  14
ENDBRANCH  12  13
ENDBRANCH  11  12
ENDBRANCH   1  11
TORSDOF 14
ENDMDL
MODEL 6
REMARK VINA RESULT:     6.522      5.579      8.028
REMARK INTER + INTRA:          11.385
REMARK INTER:                  11.883
REMARK INTRA:                  -0.498
REMARK UNBOUND:                -0.475
REMARK SMILES CCCCCCCCCCCCCCCC(=O)[O-]
REMARK SMILES IDX 9 1 10 2 11 3 12 4 13 5 14 6 15 7 16 8 17 9 18 10 8 11 7 12
REMARK SMILES IDX 6 13 5 14 4 15 3 16 2 17 1 18
REMARK H PARENT
REMARK Flexibility Score: inf
ROOT
ATOM      1  C   UNL     1      31.118 -25.719  20.631  1.00  0.00     0.000 C 
ENDROOT
BRANCH   1   2
ATOM      2  C   UNL     1      31.789 -24.341  20.461  1.00  0.00     0.000 C 
BRANCH   2   3
ATOM      3  C   UNL     1      31.337 -23.547  19.223  1.00  0.00     0.000 C 
BRANCH   3   4
ATOM      4  C   UNL     1      32.479 -22.757  18.569  1.00  0.00     0.000 C 
BRANCH   4   5
ATOM      5  C   UNL     1      32.311 -21.249  18.809  1.00  0.00     0.000 C 
BRANCH   5   6
ATOM      6  C   UNL     1      33.428 -20.417  18.158  1.00  0.00     0.006 C 
BRANCH   6   7
ATOM      7  C   UNL     1      33.623 -19.057  18.840  1.00  0.00     0.053 C 
BRANCH   7   8
ATOM      8  C   UNL     1      35.079 -18.782  19.049  1.00  0.00     0.041 C 
ATOM      9  O   UNL     1      35.890 -19.735  19.183  1.00  0.00    -0.550 OA
ATOM     10  O   UNL     1      35.548 -17.474  19.046  1.00  0.00    -0.550 OA
ENDBRANCH   7   8
ENDBRANCH   6   7
ENDBRANCH   5   6
ENDBRANCH   4   5
ENDBRANCH   3   4
ENDBRANCH   2   3
ENDBRANCH   1   2
BRANCH   1  11
ATOM     11  C   UNL     1      29.641 -25.783  20.197  1.00  0.00     0.000 C 
BRANCH  11  12
ATOM     12  C   UNL     1      28.859 -27.005  20.718  1.00  0.00    -0.000 C 
BRANCH  12  13
ATOM     13  C   UNL     1      27.346 -26.783  20.906  1.00  0.00    -0.000 C 
BRANCH  13  14
ATOM     14  C   UNL     1      26.493 -27.815  20.151  1.00  0.00    -0.000 C 
BRANCH  14  15
ATOM     15  C   UNL     1      27.207 -29.167  19.971  1.00  0.00    -0.000 C 
BRANCH  15  16
ATOM     16  C   UNL     1      27.292 -29.680  18.519  1.00  0.00    -0.000 C 
BRANCH  16  17
ATOM     17  C   UNL     1      27.340 -31.211  18.371  1.00  0.00    -0.003 C 
ATOM     18  C   UNL     1      28.623 -31.705  17.705  1.00  0.00     0.004 C 
ENDBRANCH  16  17
ENDBRANCH  15  16
ENDBRANCH  14  15
ENDBRANCH  13  14
ENDBRANCH  12  13
ENDBRANCH  11  12
ENDBRANCH   1  11
TORSDOF 14
ENDMDL
