MODEL 1
REMARK VINA RESULT:    -4.312      0.000      0.000
REMARK INTER + INTRA:          -5.104
REMARK INTER:                  -5.320
REMARK INTRA:                   0.216
REMARK UNBOUND:                 0.216
REMARK SMILES Oc1cc(O)c2cc(O)c(-c3cc(O)c(O)c(O)c3)[o+]c2c1.[Cl-]
REMARK SMILES IDX 10 1 20 2 21 3 22 4 2 5 3 6 4 7 6 8 7 9 8 10 11 11 12 12
REMARK SMILES IDX 13 13 19 14 15 15 17 16 14 17 16 19 18 21 9 23 1 25 5 27
REMARK H PARENT 14 18 16 20 18 22 9 24 1 26 5 28
REMARK Flexibility Score: inf
ROOT
ATOM      1  C   UNL     1      28.664  30.982  34.694  1.00  0.00     0.402 A 
ATOM      2  O   UNL     1      27.576  31.189  35.430  1.00  0.00    -0.202 OA
ATOM      3  C   UNL     1      26.924  32.347  35.459  1.00  0.00     0.368 A 
ATOM      4  C   UNL     1      25.792  32.468  36.269  1.00  0.00     0.162 A 
ATOM      5  C   UNL     1      25.088  33.675  36.320  1.00  0.00     0.128 A 
ATOM      6  C   UNL     1      25.520  34.765  35.561  1.00  0.00     0.093 A 
ATOM      7  C   UNL     1      26.652  34.669  34.743  1.00  0.00     0.136 A 
ATOM      8  C   UNL     1      27.369  33.445  34.685  1.00  0.00     0.125 A 
ATOM      9  C   UNL     1      28.506  33.253  33.884  1.00  0.00     0.078 A 
ATOM     10  C   UNL     1      29.156  32.016  33.874  1.00  0.00     0.223 A 
ENDROOT
BRANCH   1  11
ATOM     11  C   UNL     1      29.309  29.651  34.754  1.00  0.00     0.091 A 
ATOM     12  C   UNL     1      29.281  28.875  35.925  1.00  0.00     0.068 A 
ATOM     13  C   UNL     1      29.878  27.607  35.956  1.00  0.00     0.162 A 
ATOM     14  C   UNL     1      29.914  29.125  33.601  1.00  0.00     0.068 A 
ATOM     15  C   UNL     1      30.501  27.099  34.803  1.00  0.00     0.200 A 
ATOM     16  C   UNL     1      30.513  27.859  33.626  1.00  0.00     0.162 A 
BRANCH  13  17
ATOM     17  O   UNL     1      29.850  26.848  37.125  1.00  0.00    -0.504 OA
ATOM     18  H   UNL     1      29.504  27.230  37.997  1.00  0.00     0.293 HD
ENDBRANCH  13  17
BRANCH  15  19
ATOM     19  O   UNL     1      31.105  25.842  34.809  1.00  0.00    -0.502 OA
ATOM     20  H   UNL     1      30.691  25.043  34.345  1.00  0.00     0.293 HD
ENDBRANCH  15  19
BRANCH  16  21
ATOM     21  O   UNL     1      31.125  27.347  32.482  1.00  0.00    -0.504 OA
ATOM     22  H   UNL     1      31.806  27.885  31.959  1.00  0.00     0.293 HD
ENDBRANCH  16  21
ENDBRANCH   1  11
BRANCH  10  23
ATOM     23  O   UNL     1      30.256  31.809  33.041  1.00  0.00    -0.500 OA
ATOM     24  H   UNL     1      30.218  32.016  32.049  1.00  0.00     0.294 HD
ENDBRANCH  10  23
BRANCH   5  25
ATOM     25  O   UNL     1      23.957  33.803  37.125  1.00  0.00    -0.507 OA
ATOM     26  H   UNL     1      23.340  33.018  37.301  1.00  0.00     0.293 HD
ENDBRANCH   5  25
BRANCH   7  27
ATOM     27  O   UNL     1      27.020  35.806  34.018  1.00  0.00    -0.507 OA
ATOM     28  H   UNL     1      27.300  35.798  33.047  1.00  0.00     0.293 HD
ENDBRANCH   7  27
TORSDOF 7
ENDMDL
MODEL 2
REMARK VINA RESULT:    -3.650      4.176      6.960
REMARK INTER + INTRA:          -4.287
REMARK INTER:                  -4.683
REMARK INTRA:                   0.396
REMARK UNBOUND:                 0.216
REMARK SMILES Oc1cc(O)c2cc(O)c(-c3cc(O)c(O)c(O)c3)[o+]c2c1.[Cl-]
REMARK SMILES IDX 10 1 20 2 21 3 22 4 2 5 3 6 4 7 6 8 7 9 8 10 11 11 12 12
REMARK SMILES IDX 13 13 19 14 15 15 17 16 14 17 16 19 18 21 9 23 1 25 5 27
REMARK H PARENT 14 18 16 20 18 22 9 24 1 26 5 28
REMARK Flexibility Score: inf
ROOT
ATOM      1  C   UNL     1      30.754  29.228  31.443  1.00  0.00     0.402 A 
ATOM      2  O   UNL     1      30.813  28.497  30.334  1.00  0.00    -0.202 OA
ATOM      3  C   UNL     1      30.915  29.023  29.117  1.00  0.00     0.368 A 
ATOM      4  C   UNL     1      30.966  28.170  28.011  1.00  0.00     0.162 A 
ATOM      5  C   UNL     1      31.071  28.698  26.720  1.00  0.00     0.128 A 
ATOM      6  C   UNL     1      31.122  30.081  26.535  1.00  0.00     0.093 A 
ATOM      7  C   UNL     1      31.071  30.955  27.627  1.00  0.00     0.136 A 
ATOM      8  C   UNL     1      30.968  30.426  28.940  1.00  0.00     0.125 A 
ATOM      9  C   UNL     1      30.924  31.226  30.094  1.00  0.00     0.078 A 
ATOM     10  C   UNL     1      30.827  30.631  31.355  1.00  0.00     0.223 A 
ENDROOT
BRANCH   1  11
ATOM     11  C   UNL     1      30.630  28.525  32.740  1.00  0.00     0.091 A 
ATOM     12  C   UNL     1      30.928  27.158  32.864  1.00  0.00     0.068 A 
ATOM     13  C   UNL     1      30.826  26.515  34.106  1.00  0.00     0.162 A 
ATOM     14  C   UNL     1      30.262  29.250  33.885  1.00  0.00     0.068 A 
ATOM     15  C   UNL     1      30.435  27.245  35.241  1.00  0.00     0.200 A 
ATOM     16  C   UNL     1      30.157  28.613  35.128  1.00  0.00     0.162 A 
BRANCH  13  17
ATOM     17  O   UNL     1      31.118  25.157  34.217  1.00  0.00    -0.504 OA
ATOM     18  H   UNL     1      30.657  24.466  33.636  1.00  0.00     0.293 HD
ENDBRANCH  13  17
BRANCH  15  19
ATOM     19  O   UNL     1      30.323  26.627  36.487  1.00  0.00    -0.502 OA
ATOM     20  H   UNL     1      29.555  26.822  37.118  1.00  0.00     0.293 HD
ENDBRANCH  15  19
BRANCH  16  21
ATOM     21  O   UNL     1      29.778  29.335  36.259  1.00  0.00    -0.504 OA
ATOM     22  H   UNL     1      29.096  30.083  36.206  1.00  0.00     0.293 HD
ENDBRANCH  16  21
ENDBRANCH   1  11
BRANCH  10  23
ATOM     23  O   UNL     1      30.833  31.422  32.505  1.00  0.00    -0.500 OA
ATOM     24  H   UNL     1      31.394  32.264  32.568  1.00  0.00     0.294 HD
ENDBRANCH  10  23
BRANCH   5  25
ATOM     25  O   UNL     1      31.124  27.854  25.612  1.00  0.00    -0.507 OA
ATOM     26  H   UNL     1      31.790  27.091  25.558  1.00  0.00     0.293 HD
ENDBRANCH   5  25
BRANCH   7  27
ATOM     27  O   UNL     1      31.125  32.326  27.358  1.00  0.00    -0.507 OA
ATOM     28  H   UNL     1      31.378  32.723  26.464  1.00  0.00     0.293 HD
ENDBRANCH   7  27
TORSDOF 7
ENDMDL
MODEL 3
REMARK VINA RESULT:    -3.629      1.470      7.407
REMARK INTER + INTRA:          -4.261
REMARK INTER:                  -4.366
REMARK INTRA:                   0.104
REMARK UNBOUND:                 0.216
REMARK SMILES Oc1cc(O)c2cc(O)c(-c3cc(O)c(O)c(O)c3)[o+]c2c1.[Cl-]
REMARK SMILES IDX 10 1 20 2 21 3 22 4 2 5 3 6 4 7 6 8 7 9 8 10 11 11 12 12
REMARK SMILES IDX 13 13 19 14 15 15 17 16 14 17 16 19 18 21 9 23 1 25 5 27
REMARK H PARENT 14 18 16 20 18 22 9 24 1 26 5 28
REMARK Flexibility Score: inf
ROOT
ATOM      1  C   UNL     1      28.946  31.737  34.779  1.00  0.00     0.402 A 
ATOM      2  O   UNL     1      29.284  30.823  33.874  1.00  0.00    -0.202 OA
ATOM      3  C   UNL     1      29.867  29.669  34.184  1.00  0.00     0.368 A 
ATOM      4  C   UNL     1      30.188  28.774  33.160  1.00  0.00     0.162 A 
ATOM      5  C   UNL     1      30.803  27.554  33.458  1.00  0.00     0.128 A 
ATOM      6  C   UNL     1      31.102  27.231  34.783  1.00  0.00     0.093 A 
ATOM      7  C   UNL     1      30.791  28.112  35.827  1.00  0.00     0.136 A 
ATOM      8  C   UNL     1      30.163  29.350  35.531  1.00  0.00     0.125 A 
ATOM      9  C   UNL     1      29.804  30.288  36.512  1.00  0.00     0.078 A 
ATOM     10  C   UNL     1      29.183  31.485  36.144  1.00  0.00     0.223 A 
ENDROOT
BRANCH   1  11
ATOM     11  C   UNL     1      28.311  32.989  34.308  1.00  0.00     0.091 A 
ATOM     12  C   UNL     1      28.743  33.633  33.136  1.00  0.00     0.068 A 
ATOM     13  C   UNL     1      28.114  34.806  32.694  1.00  0.00     0.162 A 
ATOM     14  C   UNL     1      27.218  33.515  35.014  1.00  0.00     0.068 A 
ATOM     15  C   UNL     1      27.035  35.337  33.421  1.00  0.00     0.200 A 
ATOM     16  C   UNL     1      26.587  34.687  34.578  1.00  0.00     0.162 A 
BRANCH  13  17
ATOM     17  O   UNL     1      28.553  35.442  31.534  1.00  0.00    -0.504 OA
ATOM     18  H   UNL     1      27.906  35.726  30.808  1.00  0.00     0.293 HD
ENDBRANCH  13  17
BRANCH  15  19
ATOM     19  O   UNL     1      26.395  36.505  33.004  1.00  0.00    -0.502 OA
ATOM     20  H   UNL     1      25.622  36.491  32.350  1.00  0.00     0.293 HD
ENDBRANCH  15  19
BRANCH  16  21
ATOM     21  O   UNL     1      25.510  35.214  35.291  1.00  0.00    -0.504 OA
ATOM     22  H   UNL     1      25.101  34.719  36.075  1.00  0.00     0.293 HD
ENDBRANCH  16  21
ENDBRANCH   1  11
BRANCH  10  23
ATOM     23  O   UNL     1      28.781  32.395  37.121  1.00  0.00    -0.500 OA
ATOM     24  H   UNL     1      27.863  32.346  37.548  1.00  0.00     0.294 HD
ENDBRANCH  10  23
BRANCH   5  25
ATOM     25  O   UNL     1      31.125  26.655  32.443  1.00  0.00    -0.507 OA
ATOM     26  H   UNL     1      32.023  26.685  31.973  1.00  0.00     0.293 HD
ENDBRANCH   5  25
BRANCH   7  27
ATOM     27  O   UNL     1      31.125  27.715  37.125  1.00  0.00    -0.507 OA
ATOM     28  H   UNL     1      31.936  27.163  37.363  1.00  0.00     0.293 HD
ENDBRANCH   7  27
TORSDOF 7
ENDMDL
MODEL 4
REMARK VINA RESULT:    -3.612      1.164      2.628
REMARK INTER + INTRA:          -4.241
REMARK INTER:                  -4.566
REMARK INTRA:                   0.325
REMARK UNBOUND:                 0.216
REMARK SMILES Oc1cc(O)c2cc(O)c(-c3cc(O)c(O)c(O)c3)[o+]c2c1.[Cl-]
REMARK SMILES IDX 10 1 20 2 21 3 22 4 2 5 3 6 4 7 6 8 7 9 8 10 11 11 12 12
REMARK SMILES IDX 13 13 19 14 15 15 17 16 14 17 16 19 18 21 9 23 1 25 5 27
REMARK H PARENT 14 18 16 20 18 22 9 24 1 26 5 28
REMARK Flexibility Score: inf
ROOT
ATOM      1  C   UNL     1      28.376  31.021  35.020  1.00  0.00     0.402 A 
ATOM      2  O   UNL     1      28.590  31.918  34.061  1.00  0.00    -0.202 OA
ATOM      3  C   UNL     1      27.985  33.101  34.020  1.00  0.00     0.368 A 
ATOM      4  C   UNL     1      28.274  33.975  32.968  1.00  0.00     0.162 A 
ATOM      5  C   UNL     1      27.650  35.224  32.899  1.00  0.00     0.128 A 
ATOM      6  C   UNL     1      26.733  35.599  33.883  1.00  0.00     0.093 A 
ATOM      7  C   UNL     1      26.426  34.741  34.946  1.00  0.00     0.136 A 
ATOM      8  C   UNL     1      27.059  33.473  35.023  1.00  0.00     0.125 A 
ATOM      9  C   UNL     1      26.823  32.553  36.058  1.00  0.00     0.078 A 
ATOM     10  C   UNL     1      27.488  31.325  36.070  1.00  0.00     0.223 A 
ENDROOT
BRANCH   1  11
ATOM     11  C   UNL     1      29.103  29.733  34.950  1.00  0.00     0.091 A 
ATOM     12  C   UNL     1      29.237  28.906  36.078  1.00  0.00     0.068 A 
ATOM     13  C   UNL     1      29.910  27.679  35.987  1.00  0.00     0.162 A 
ATOM     14  C   UNL     1      29.623  29.301  33.720  1.00  0.00     0.068 A 
ATOM     15  C   UNL     1      30.447  27.266  34.756  1.00  0.00     0.200 A 
ATOM     16  C   UNL     1      30.298  28.076  33.624  1.00  0.00     0.162 A 
BRANCH  13  17
ATOM     17  O   UNL     1      30.043  26.868  37.113  1.00  0.00    -0.504 OA
ATOM     18  H   UNL     1      30.444  25.939  37.053  1.00  0.00     0.293 HD
ENDBRANCH  13  17
BRANCH  15  19
ATOM     19  O   UNL     1      31.124  26.051  34.640  1.00  0.00    -0.502 OA
ATOM     20  H   UNL     1      31.372  25.656  33.742  1.00  0.00     0.293 HD
ENDBRANCH  15  19
BRANCH  16  21
ATOM     21  O   UNL     1      30.824  27.658  32.402  1.00  0.00    -0.504 OA
ATOM     22  H   UNL     1      31.473  26.882  32.343  1.00  0.00     0.293 HD
ENDBRANCH  16  21
ENDBRANCH   1  11
BRANCH  10  23
ATOM     23  O   UNL     1      27.293  30.432  37.123  1.00  0.00    -0.500 OA
ATOM     24  H   UNL     1      26.734  30.678  37.932  1.00  0.00     0.294 HD
ENDBRANCH  10  23
BRANCH   5  25
ATOM     25  O   UNL     1      27.934  36.101  31.854  1.00  0.00    -0.507 OA
ATOM     26  H   UNL     1      28.672  36.793  31.928  1.00  0.00     0.293 HD
ENDBRANCH   5  25
BRANCH   7  27
ATOM     27  O   UNL     1      25.496  35.190  35.888  1.00  0.00    -0.507 OA
ATOM     28  H   UNL     1      24.579  34.788  36.022  1.00  0.00     0.293 HD
ENDBRANCH   7  27
TORSDOF 7
ENDMDL
MODEL 5
REMARK VINA RESULT:    -3.418      4.143      7.141
REMARK INTER + INTRA:          -4.001
REMARK INTER:                  -4.472
REMARK INTRA:                   0.471
REMARK UNBOUND:                 0.216
REMARK SMILES Oc1cc(O)c2cc(O)c(-c3cc(O)c(O)c(O)c3)[o+]c2c1.[Cl-]
REMARK SMILES IDX 10 1 20 2 21 3 22 4 2 5 3 6 4 7 6 8 7 9 8 10 11 11 12 12
REMARK SMILES IDX 13 13 19 14 15 15 17 16 14 17 16 19 18 21 9 23 1 25 5 27
REMARK H PARENT 14 18 16 20 18 22 9 24 1 26 5 28
REMARK Flexibility Score: inf
ROOT
ATOM      1  C   UNL     1      30.934  29.290  31.164  1.00  0.00     0.402 A 
ATOM      2  O   UNL     1      30.917  28.149  31.847  1.00  0.00    -0.202 OA
ATOM      3  C   UNL     1      30.866  28.094  33.174  1.00  0.00     0.368 A 
ATOM      4  C   UNL     1      30.856  26.845  33.802  1.00  0.00     0.162 A 
ATOM      5  C   UNL     1      30.805  26.758  35.196  1.00  0.00     0.128 A 
ATOM      6  C   UNL     1      30.765  27.923  35.965  1.00  0.00     0.093 A 
ATOM      7  C   UNL     1      30.775  29.186  35.360  1.00  0.00     0.136 A 
ATOM      8  C   UNL     1      30.824  29.281  33.945  1.00  0.00     0.125 A 
ATOM      9  C   UNL     1      30.824  30.502  33.251  1.00  0.00     0.078 A 
ATOM     10  C   UNL     1      30.868  30.515  31.855  1.00  0.00     0.223 A 
ENDROOT
BRANCH   1  11
ATOM     11  C   UNL     1      31.003  29.222  29.687  1.00  0.00     0.091 A 
ATOM     12  C   UNL     1      31.021  27.990  29.010  1.00  0.00     0.068 A 
ATOM     13  C   UNL     1      31.065  27.946  27.609  1.00  0.00     0.162 A 
ATOM     14  C   UNL     1      30.995  30.410  28.940  1.00  0.00     0.068 A 
ATOM     15  C   UNL     1      31.079  29.142  26.872  1.00  0.00     0.200 A 
ATOM     16  C   UNL     1      31.039  30.372  27.540  1.00  0.00     0.162 A 
BRANCH  13  17
ATOM     17  O   UNL     1      31.089  26.720  26.948  1.00  0.00    -0.504 OA
ATOM     18  H   UNL     1      30.257  26.333  26.517  1.00  0.00     0.293 HD
ENDBRANCH  13  17
BRANCH  15  19
ATOM     19  O   UNL     1      31.125  29.125  25.478  1.00  0.00    -0.502 OA
ATOM     20  H   UNL     1      31.769  28.532  24.967  1.00  0.00     0.293 HD
ENDBRANCH  15  19
BRANCH  16  21
ATOM     21  O   UNL     1      31.044  31.557  26.804  1.00  0.00    -0.504 OA
ATOM     22  H   UNL     1      30.892  32.456  27.246  1.00  0.00     0.293 HD
ENDBRANCH  16  21
ENDBRANCH   1  11
BRANCH  10  23
ATOM     23  O   UNL     1      30.818  31.726  31.163  1.00  0.00    -0.500 OA
ATOM     24  H   UNL     1      31.279  32.558  31.514  1.00  0.00     0.294 HD
ENDBRANCH  10  23
BRANCH   5  25
ATOM     25  O   UNL     1      30.794  25.517  35.830  1.00  0.00    -0.507 OA
ATOM     26  H   UNL     1      29.928  25.022  36.010  1.00  0.00     0.293 HD
ENDBRANCH   5  25
BRANCH   7  27
ATOM     27  O   UNL     1      30.736  30.303  36.200  1.00  0.00    -0.507 OA
ATOM     28  H   UNL     1      30.298  30.319  37.109  1.00  0.00     0.293 HD
ENDBRANCH   7  27
TORSDOF 7
ENDMDL
MODEL 6
REMARK VINA RESULT:    -3.291      1.463      7.202
REMARK INTER + INTRA:          -3.845
REMARK INTER:                  -3.973
REMARK INTRA:                   0.128
REMARK UNBOUND:                 0.216
REMARK SMILES Oc1cc(O)c2cc(O)c(-c3cc(O)c(O)c(O)c3)[o+]c2c1.[Cl-]
REMARK SMILES IDX 10 1 20 2 21 3 22 4 2 5 3 6 4 7 6 8 7 9 8 10 11 11 12 12
REMARK SMILES IDX 13 13 19 14 15 15 17 16 14 17 16 19 18 21 9 23 1 25 5 27
REMARK H PARENT 14 18 16 20 18 22 9 24 1 26 5 28
REMARK Flexibility Score: inf
ROOT
ATOM      1  C   UNL     1      28.866  31.648  34.779  1.00  0.00     0.402 A 
ATOM      2  O   UNL     1      29.216  30.744  33.869  1.00  0.00    -0.202 OA
ATOM      3  C   UNL     1      29.821  29.600  34.172  1.00  0.00     0.368 A 
ATOM      4  C   UNL     1      30.153  28.715  33.143  1.00  0.00     0.162 A 
ATOM      5  C   UNL     1      30.791  27.505  33.433  1.00  0.00     0.128 A 
ATOM      6  C   UNL     1      31.101  27.181  34.756  1.00  0.00     0.093 A 
ATOM      7  C   UNL     1      30.779  28.052  35.804  1.00  0.00     0.136 A 
ATOM      8  C   UNL     1      30.128  29.280  35.516  1.00  0.00     0.125 A 
ATOM      9  C   UNL     1      29.756  30.208  36.503  1.00  0.00     0.078 A 
ATOM     10  C   UNL     1      29.112  31.395  36.142  1.00  0.00     0.223 A 
ENDROOT
BRANCH   1  11
ATOM     11  C   UNL     1      28.207  32.891  34.316  1.00  0.00     0.091 A 
ATOM     12  C   UNL     1      27.183  33.499  35.062  1.00  0.00     0.068 A 
ATOM     13  C   UNL     1      26.586  34.687  34.618  1.00  0.00     0.162 A 
ATOM     14  C   UNL     1      28.650  33.507  33.135  1.00  0.00     0.068 A 
ATOM     15  C   UNL     1      27.022  35.285  33.423  1.00  0.00     0.200 A 
ATOM     16  C   UNL     1      28.056  34.694  32.686  1.00  0.00     0.162 A 
BRANCH  13  17
ATOM     17  O   UNL     1      25.567  35.280  35.362  1.00  0.00    -0.504 OA
ATOM     18  H   UNL     1      25.759  35.773  36.226  1.00  0.00     0.293 HD
ENDBRANCH  13  17
BRANCH  15  19
ATOM     19  O   UNL     1      26.442  36.465  32.958  1.00  0.00    -0.502 OA
ATOM     20  H   UNL     1      26.756  36.923  32.112  1.00  0.00     0.293 HD
ENDBRANCH  15  19
BRANCH  16  21
ATOM     21  O   UNL     1      28.491  35.295  31.505  1.00  0.00    -0.504 OA
ATOM     22  H   UNL     1      28.926  36.210  31.506  1.00  0.00     0.293 HD
ENDBRANCH  16  21
ENDBRANCH   1  11
BRANCH  10  23
ATOM     23  O   UNL     1      28.698  32.293  37.125  1.00  0.00    -0.500 OA
ATOM     24  H   UNL     1      27.920  32.087  37.741  1.00  0.00     0.294 HD
ENDBRANCH  10  23
BRANCH   5  25
ATOM     25  O   UNL     1      31.125  26.616  32.413  1.00  0.00    -0.507 OA
ATOM     26  H   UNL     1      30.593  25.768  32.254  1.00  0.00     0.293 HD
ENDBRANCH   5  25
BRANCH   7  27
ATOM     27  O   UNL     1      31.125  27.656  37.100  1.00  0.00    -0.507 OA
ATOM     28  H   UNL     1      32.071  27.605  37.447  1.00  0.00     0.293 HD
ENDBRANCH   7  27
TORSDOF 7
ENDMDL
MODEL 7
REMARK VINA RESULT:    -2.751      3.712      7.278
REMARK INTER + INTRA:          -3.178
REMARK INTER:                  -3.452
REMARK INTRA:                   0.274
REMARK UNBOUND:                 0.216
REMARK SMILES Oc1cc(O)c2cc(O)c(-c3cc(O)c(O)c(O)c3)[o+]c2c1.[Cl-]
REMARK SMILES IDX 10 1 20 2 21 3 22 4 2 5 3 6 4 7 6 8 7 9 8 10 11 11 12 12
REMARK SMILES IDX 13 13 19 14 15 15 17 16 14 17 16 19 18 21 9 23 1 25 5 27
REMARK H PARENT 14 18 16 20 18 22 9 24 1 26 5 28
REMARK Flexibility Score: inf
ROOT
ATOM      1  C   UNL     1      30.473  29.722  32.061  1.00  0.00     0.402 A 
ATOM      2  O   UNL     1      30.573  30.510  30.994  1.00  0.00    -0.202 OA
ATOM      3  C   UNL     1      30.745  30.048  29.760  1.00  0.00     0.368 A 
ATOM      4  C   UNL     1      30.843  30.958  28.703  1.00  0.00     0.162 A 
ATOM      5  C   UNL     1      31.027  30.499  27.395  1.00  0.00     0.128 A 
ATOM      6  C   UNL     1      31.116  29.129  27.143  1.00  0.00     0.093 A 
ATOM      7  C   UNL     1      31.023  28.198  28.185  1.00  0.00     0.136 A 
ATOM      8  C   UNL     1      30.833  28.657  29.515  1.00  0.00     0.125 A 
ATOM      9  C   UNL     1      30.715  27.798  30.620  1.00  0.00     0.078 A 
ATOM     10  C   UNL     1      30.524  28.324  31.900  1.00  0.00     0.223 A 
ENDROOT
BRANCH   1  11
ATOM     11  C   UNL     1      30.293  30.356  33.387  1.00  0.00     0.091 A 
ATOM     12  C   UNL     1      30.594  29.668  34.575  1.00  0.00     0.068 A 
ATOM     13  C   UNL     1      30.438  30.293  35.820  1.00  0.00     0.162 A 
ATOM     14  C   UNL     1      29.867  31.691  33.460  1.00  0.00     0.068 A 
ATOM     15  C   UNL     1      29.988  31.623  35.883  1.00  0.00     0.200 A 
ATOM     16  C   UNL     1      29.708  32.321  34.702  1.00  0.00     0.162 A 
BRANCH  13  17
ATOM     17  O   UNL     1      30.732  29.601  36.993  1.00  0.00    -0.504 OA
ATOM     18  H   UNL     1      31.572  29.040  37.082  1.00  0.00     0.293 HD
ENDBRANCH  13  17
BRANCH  15  19
ATOM     19  O   UNL     1      29.822  32.266  37.111  1.00  0.00    -0.502 OA
ATOM     20  H   UNL     1      29.691  33.268  37.181  1.00  0.00     0.293 HD
ENDBRANCH  15  19
BRANCH  16  21
ATOM     21  O   UNL     1      29.270  33.643  34.769  1.00  0.00    -0.504 OA
ATOM     22  H   UNL     1      28.419  33.895  35.257  1.00  0.00     0.293 HD
ENDBRANCH  16  21
ENDBRANCH   1  11
BRANCH  10  23
ATOM     23  O   UNL     1      30.357  27.470  32.991  1.00  0.00    -0.500 OA
ATOM     24  H   UNL     1      31.149  27.112  33.512  1.00  0.00     0.294 HD
ENDBRANCH  10  23
BRANCH   5  25
ATOM     25  O   UNL     1      31.124  31.399  26.335  1.00  0.00    -0.507 OA
ATOM     26  H   UNL     1      30.557  31.298  25.500  1.00  0.00     0.293 HD
ENDBRANCH   5  25
BRANCH   7  27
ATOM     27  O   UNL     1      31.125  26.845  27.851  1.00  0.00    -0.507 OA
ATOM     28  H   UNL     1      31.988  26.320  27.850  1.00  0.00     0.293 HD
ENDBRANCH   7  27
TORSDOF 7
ENDMDL
MODEL 8
REMARK VINA RESULT:    -2.079      2.269      3.027
REMARK INTER + INTRA:          -2.349
REMARK INTER:                  -2.378
REMARK INTRA:                   0.030
REMARK UNBOUND:                 0.216
REMARK SMILES Oc1cc(O)c2cc(O)c(-c3cc(O)c(O)c(O)c3)[o+]c2c1.[Cl-]
REMARK SMILES IDX 10 1 20 2 21 3 22 4 2 5 3 6 4 7 6 8 7 9 8 10 11 11 12 12
REMARK SMILES IDX 13 13 19 14 15 15 17 16 14 17 16 19 18 21 9 23 1 25 5 27
REMARK H PARENT 14 18 16 20 18 22 9 24 1 26 5 28
REMARK Flexibility Score: inf
ROOT
ATOM      1  C   UNL     1      28.894  32.239  33.954  1.00  0.00     0.402 A 
ATOM      2  O   UNL     1      28.210  32.376  32.821  1.00  0.00    -0.202 OA
ATOM      3  C   UNL     1      27.630  33.513  32.452  1.00  0.00     0.368 A 
ATOM      4  C   UNL     1      26.929  33.557  31.244  1.00  0.00     0.162 A 
ATOM      5  C   UNL     1      26.308  34.740  30.832  1.00  0.00     0.128 A 
ATOM      6  C   UNL     1      26.386  35.882  31.633  1.00  0.00     0.093 A 
ATOM      7  C   UNL     1      27.081  35.863  32.848  1.00  0.00     0.136 A 
ATOM      8  C   UNL     1      27.717  34.666  33.269  1.00  0.00     0.125 A 
ATOM      9  C   UNL     1      28.446  34.557  34.464  1.00  0.00     0.078 A 
ATOM     10  C   UNL     1      29.050  33.345  34.810  1.00  0.00     0.223 A 
ENDROOT
BRANCH   1  11
ATOM     11  C   UNL     1      29.486  30.917  34.260  1.00  0.00     0.091 A 
ATOM     12  C   UNL     1      29.467  30.389  35.563  1.00  0.00     0.068 A 
ATOM     13  C   UNL     1      30.012  29.126  35.829  1.00  0.00     0.162 A 
ATOM     14  C   UNL     1      30.028  30.146  33.219  1.00  0.00     0.068 A 
ATOM     15  C   UNL     1      30.573  28.372  34.783  1.00  0.00     0.200 A 
ATOM     16  C   UNL     1      30.575  28.883  33.480  1.00  0.00     0.162 A 
BRANCH  13  17
ATOM     17  O   UNL     1      29.994  28.614  37.125  1.00  0.00    -0.504 OA
ATOM     18  H   UNL     1      29.816  29.207  37.927  1.00  0.00     0.293 HD
ENDBRANCH  13  17
BRANCH  15  19
ATOM     19  O   UNL     1      31.125  27.113  35.023  1.00  0.00    -0.502 OA
ATOM     20  H   UNL     1      31.987  26.992  35.541  1.00  0.00     0.293 HD
ENDBRANCH  15  19
BRANCH  16  21
ATOM     21  O   UNL     1      31.125  28.127  32.444  1.00  0.00    -0.504 OA
ATOM     22  H   UNL     1      30.628  27.344  32.039  1.00  0.00     0.293 HD
ENDBRANCH  16  21
ENDBRANCH   1  11
BRANCH  10  23
ATOM     23  O   UNL     1      29.816  33.251  35.972  1.00  0.00    -0.500 OA
ATOM     24  H   UNL     1      30.737  32.828  35.968  1.00  0.00     0.294 HD
ENDBRANCH  10  23
BRANCH   5  25
ATOM     25  O   UNL     1      25.608  34.792  29.629  1.00  0.00    -0.507 OA
ATOM     26  H   UNL     1      25.934  34.299  28.804  1.00  0.00     0.293 HD
ENDBRANCH   5  25
BRANCH   7  27
ATOM     27  O   UNL     1      27.110  37.046  33.591  1.00  0.00    -0.507 OA
ATOM     28  H   UNL     1      27.854  37.728  33.551  1.00  0.00     0.293 HD
ENDBRANCH   7  27
TORSDOF 7
ENDMDL
