MODEL 1
REMARK VINA RESULT:    -5.045      0.000      0.000
REMARK INTER + INTRA:          -6.839
REMARK INTER:                  -6.519
REMARK INTRA:                  -0.319
REMARK UNBOUND:                -0.319
REMARK SMILES CCO[C@@H]1O[C@@H](CO)[C@H](O)[C@H](O)[C@H]1O
REMARK SMILES IDX 4 1 13 2 11 3 9 4 6 5 5 6 3 7 2 8 1 9 14 10 12 12 7 14 8 15
REMARK SMILES IDX 10 17
REMARK H PARENT 14 11 12 13 8 16 10 18
REMARK Flexibility Score: inf
ROOT
ATOM      1  C   UNL     1      11.587   2.565  -3.700  1.00  0.00     0.281 C 
ATOM      2  C   UNL     1      10.416   3.491  -3.314  1.00  0.00     0.202 C 
ATOM      3  C   UNL     1       9.606   2.892  -2.145  1.00  0.00     0.179 C 
ATOM      4  C   UNL     1      10.549   2.480  -1.003  1.00  0.00     0.177 C 
ATOM      5  C   UNL     1      11.694   1.599  -1.557  1.00  0.00     0.178 C 
ATOM      6  O   UNL     1      12.410   2.285  -2.574  1.00  0.00    -0.341 OA
ENDROOT
BRANCH   1   7
ATOM      7  O   UNL     1      11.092   1.376  -4.296  1.00  0.00    -0.350 OA
BRANCH   7   8
ATOM      8  C   UNL     1      11.459   1.323  -5.659  1.00  0.00     0.160 C 
ATOM      9  C   UNL     1      11.810  -0.111  -6.024  1.00  0.00     0.035 C 
ENDBRANCH   7   8
ENDBRANCH   1   7
BRANCH   2  10
ATOM     10  O   UNL     1      10.928   4.747  -2.948  1.00  0.00    -0.385 OA
ATOM     11  H   UNL     1      11.900   4.731  -3.151  1.00  0.00     0.211 HD
ENDBRANCH   2  10
BRANCH   3  12
ATOM     12  O   UNL     1       8.871   1.776  -2.582  1.00  0.00    -0.387 OA
ATOM     13  H   UNL     1       7.934   2.080  -2.702  1.00  0.00     0.211 HD
ENDBRANCH   3  12
BRANCH   5  14
ATOM     14  C   UNL     1      12.686   1.201  -0.457  1.00  0.00     0.191 C 
BRANCH  14  15
ATOM     15  O   UNL     1      12.062   0.379   0.492  1.00  0.00    -0.394 OA
ATOM     16  H   UNL     1      11.136   0.724   0.587  1.00  0.00     0.210 HD
ENDBRANCH  14  15
ENDBRANCH   5  14
BRANCH   4  17
ATOM     17  O   UNL     1       9.813   1.780  -0.029  1.00  0.00    -0.387 OA
ATOM     18  H   UNL     1       9.854   2.312   0.807  1.00  0.00     0.211 HD
ENDBRANCH   4  17
TORSDOF 7
ENDMDL
MODEL 2
REMARK VINA RESULT:    -4.580      1.827      3.706
REMARK INTER + INTRA:          -6.238
REMARK INTER:                  -5.811
REMARK INTRA:                  -0.427
REMARK UNBOUND:                -0.319
REMARK SMILES CCO[C@@H]1O[C@@H](CO)[C@H](O)[C@H](O)[C@H]1O
REMARK SMILES IDX 4 1 13 2 11 3 9 4 6 5 5 6 3 7 2 8 1 9 14 10 12 12 7 14 8 15
REMARK SMILES IDX 10 17
REMARK H PARENT 14 11 12 13 8 16 10 18
REMARK Flexibility Score: inf
ROOT
ATOM      1  C   UNL     1      12.067   2.320  -2.215  1.00  0.00     0.281 C 
ATOM      2  C   UNL     1      10.827   1.570  -2.741  1.00  0.00     0.202 C 
ATOM      3  C   UNL     1       9.546   2.072  -2.044  1.00  0.00     0.179 C 
ATOM      4  C   UNL     1       9.480   3.607  -2.094  1.00  0.00     0.177 C 
ATOM      5  C   UNL     1      10.812   4.207  -1.582  1.00  0.00     0.178 C 
ATOM      6  O   UNL     1      11.908   3.727  -2.348  1.00  0.00    -0.341 OA
ENDROOT
BRANCH   1   7
ATOM      7  O   UNL     1      12.328   1.947  -0.871  1.00  0.00    -0.350 OA
BRANCH   7   8
ATOM      8  C   UNL     1      12.893   0.654  -0.824  1.00  0.00     0.160 C 
ATOM      9  C   UNL     1      12.738   0.095   0.582  1.00  0.00     0.035 C 
ENDBRANCH   7   8
ENDBRANCH   1   7
BRANCH   2  10
ATOM     10  O   UNL     1      10.727   1.770  -4.129  1.00  0.00    -0.385 OA
ATOM     11  H   UNL     1      11.327   2.528  -4.354  1.00  0.00     0.211 HD
ENDBRANCH   2  10
BRANCH   3  12
ATOM     12  O   UNL     1       9.516   1.638  -0.707  1.00  0.00    -0.387 OA
ATOM     13  H   UNL     1      10.180   2.185  -0.213  1.00  0.00     0.211 HD
ENDBRANCH   3  12
BRANCH   5  14
ATOM     14  C   UNL     1      10.808   5.740  -1.657  1.00  0.00     0.191 C 
BRANCH  14  15
ATOM     15  O   UNL     1      10.343   6.289  -0.454  1.00  0.00    -0.394 OA
ATOM     16  H   UNL     1       9.604   6.903  -0.700  1.00  0.00     0.210 HD
ENDBRANCH  14  15
ENDBRANCH   5  14
BRANCH   4  17
ATOM     17  O   UNL     1       8.403   4.048  -1.304  1.00  0.00    -0.387 OA
ATOM     18  H   UNL     1       7.883   4.692  -1.850  1.00  0.00     0.211 HD
ENDBRANCH   4  17
TORSDOF 7
ENDMDL
MODEL 3
REMARK VINA RESULT:    -4.489      1.929      4.441
REMARK INTER + INTRA:          -6.121
REMARK INTER:                  -5.917
REMARK INTRA:                  -0.204
REMARK UNBOUND:                -0.319
REMARK SMILES CCO[C@@H]1O[C@@H](CO)[C@H](O)[C@H](O)[C@H]1O
REMARK SMILES IDX 4 1 13 2 11 3 9 4 6 5 5 6 3 7 2 8 1 9 14 10 12 12 7 14 8 15
REMARK SMILES IDX 10 17
REMARK H PARENT 14 11 12 13 8 16 10 18
REMARK Flexibility Score: inf
ROOT
ATOM      1  C   UNL     1       9.447   2.777  -0.234  1.00  0.00     0.281 C 
ATOM      2  C   UNL     1       9.274   3.247  -1.693  1.00  0.00     0.202 C 
ATOM      3  C   UNL     1      10.643   3.533  -2.343  1.00  0.00     0.179 C 
ATOM      4  C   UNL     1      11.594   2.345  -2.123  1.00  0.00     0.177 C 
ATOM      5  C   UNL     1      11.621   1.964  -0.622  1.00  0.00     0.178 C 
ATOM      6  O   UNL     1      10.315   1.653  -0.159  1.00  0.00    -0.341 OA
ENDROOT
BRANCH   1   7
ATOM      7  O   UNL     1       9.909   3.850   0.572  1.00  0.00    -0.350 OA
BRANCH   7   8
ATOM      8  C   UNL     1       8.820   4.627   1.023  1.00  0.00     0.160 C 
ATOM      9  C   UNL     1       9.350   5.823   1.800  1.00  0.00     0.035 C 
ENDBRANCH   7   8
ENDBRANCH   1   7
BRANCH   2  10
ATOM     10  O   UNL     1       8.598   2.250  -2.416  1.00  0.00    -0.385 OA
ATOM     11  H   UNL     1       7.636   2.329  -2.185  1.00  0.00     0.211 HD
ENDBRANCH   2  10
BRANCH   3  12
ATOM     12  O   UNL     1      11.206   4.701  -1.800  1.00  0.00    -0.387 OA
ATOM     13  H   UNL     1      11.612   5.201  -2.556  1.00  0.00     0.211 HD
ENDBRANCH   3  12
BRANCH   5  14
ATOM     14  C   UNL     1      12.524   0.751  -0.362  1.00  0.00     0.191 C 
BRANCH  14  15
ATOM     15  O   UNL     1      12.199   0.151   0.862  1.00  0.00    -0.394 OA
ATOM     16  H   UNL     1      11.381  -0.385   0.696  1.00  0.00     0.210 HD
ENDBRANCH  14  15
ENDBRANCH   5  14
BRANCH   4  17
ATOM     17  O   UNL     1      12.881   2.698  -2.566  1.00  0.00    -0.387 OA
ATOM     18  H   UNL     1      12.769   3.225  -3.399  1.00  0.00     0.211 HD
ENDBRANCH   4  17
TORSDOF 7
ENDMDL
MODEL 4
REMARK VINA RESULT:    -4.302      2.049      3.472
REMARK INTER + INTRA:          -5.879
REMARK INTER:                  -5.540
REMARK INTRA:                  -0.339
REMARK UNBOUND:                -0.319
REMARK SMILES CCO[C@@H]1O[C@@H](CO)[C@H](O)[C@H](O)[C@H]1O
REMARK SMILES IDX 4 1 13 2 11 3 9 4 6 5 5 6 3 7 2 8 1 9 14 10 12 12 7 14 8 15
REMARK SMILES IDX 10 17
REMARK H PARENT 14 11 12 13 8 16 10 18
REMARK Flexibility Score: inf
ROOT
ATOM      1  C   UNL     1      10.347   3.154  -2.710  1.00  0.00     0.281 C 
ATOM      2  C   UNL     1       9.306   2.352  -1.903  1.00  0.00     0.202 C 
ATOM      3  C   UNL     1       9.354   2.737  -0.410  1.00  0.00     0.179 C 
ATOM      4  C   UNL     1       9.300   4.265  -0.254  1.00  0.00     0.177 C 
ATOM      5  C   UNL     1      10.368   4.924  -1.160  1.00  0.00     0.178 C 
ATOM      6  O   UNL     1      10.176   4.552  -2.517  1.00  0.00    -0.341 OA
ENDROOT
BRANCH   1   7
ATOM      7  O   UNL     1      11.659   2.734  -2.365  1.00  0.00    -0.350 OA
BRANCH   7   8
ATOM      8  C   UNL     1      11.922   1.457  -2.907  1.00  0.00     0.160 C 
ATOM      9  C   UNL     1      11.638   1.483  -4.401  1.00  0.00     0.035 C 
ENDBRANCH   7   8
ENDBRANCH   1   7
BRANCH   2  10
ATOM     10  O   UNL     1       8.027   2.610  -2.424  1.00  0.00    -0.385 OA
ATOM     11  H   UNL     1       7.898   3.595  -2.396  1.00  0.00     0.211 HD
ENDBRANCH   2  10
BRANCH   3  12
ATOM     12  O   UNL     1      10.525   2.238   0.185  1.00  0.00    -0.387 OA
ATOM     13  H   UNL     1      10.246   1.752   1.005  1.00  0.00     0.211 HD
ENDBRANCH   3  12
BRANCH   5  14
ATOM     14  C   UNL     1      10.320   6.455  -1.070  1.00  0.00     0.191 C 
BRANCH  14  15
ATOM     15  O   UNL     1      10.699   6.883   0.210  1.00  0.00    -0.394 OA
ATOM     16  H   UNL     1      10.589   6.097   0.806  1.00  0.00     0.210 HD
ENDBRANCH  14  15
ENDBRANCH   5  14
BRANCH   4  17
ATOM     17  O   UNL     1       9.522   4.598   1.095  1.00  0.00    -0.387 OA
ATOM     18  H   UNL     1       9.160   5.511   1.234  1.00  0.00     0.211 HD
ENDBRANCH   4  17
TORSDOF 7
ENDMDL
MODEL 5
REMARK VINA RESULT:    -4.292      1.723      4.755
REMARK INTER + INTRA:          -5.866
REMARK INTER:                  -5.466
REMARK INTRA:                  -0.400
REMARK UNBOUND:                -0.319
REMARK SMILES CCO[C@@H]1O[C@@H](CO)[C@H](O)[C@H](O)[C@H]1O
REMARK SMILES IDX 4 1 13 2 11 3 9 4 6 5 5 6 3 7 2 8 1 9 14 10 12 12 7 14 8 15
REMARK SMILES IDX 10 17
REMARK H PARENT 14 11 12 13 8 16 10 18
REMARK Flexibility Score: inf
ROOT
ATOM      1  C   UNL     1      10.786   3.218  -1.650  1.00  0.00     0.281 C 
ATOM      2  C   UNL     1      11.662   2.013  -2.045  1.00  0.00     0.202 C 
ATOM      3  C   UNL     1      11.300   1.509  -3.457  1.00  0.00     0.179 C 
ATOM      4  C   UNL     1      11.277   2.683  -4.449  1.00  0.00     0.177 C 
ATOM      5  C   UNL     1      10.398   3.828  -3.890  1.00  0.00     0.178 C 
ATOM      6  O   UNL     1      10.874   4.254  -2.621  1.00  0.00    -0.341 OA
ENDROOT
BRANCH   1   7
ATOM      7  O   UNL     1       9.444   2.800  -1.451  1.00  0.00    -0.350 OA
BRANCH   7   8
ATOM      8  C   UNL     1       8.875   3.488  -0.357  1.00  0.00     0.160 C 
ATOM      9  C   UNL     1       9.704   3.215   0.889  1.00  0.00     0.035 C 
ENDBRANCH   7   8
ENDBRANCH   1   7
BRANCH   2  10
ATOM     10  O   UNL     1      13.013   2.398  -2.006  1.00  0.00    -0.385 OA
ATOM     11  H   UNL     1      13.545   1.617  -2.311  1.00  0.00     0.211 HD
ENDBRANCH   2  10
BRANCH   3  12
ATOM     12  O   UNL     1      10.046   0.875  -3.441  1.00  0.00    -0.387 OA
ATOM     13  H   UNL     1       9.864   0.622  -2.498  1.00  0.00     0.211 HD
ENDBRANCH   3  12
BRANCH   5  14
ATOM     14  C   UNL     1      10.383   5.042  -4.829  1.00  0.00     0.191 C 
BRANCH  14  15
ATOM     15  O   UNL     1       9.509   4.819  -5.902  1.00  0.00    -0.394 OA
ATOM     16  H   UNL     1       9.519   5.652  -6.441  1.00  0.00     0.210 HD
ENDBRANCH  14  15
ENDBRANCH   5  14
BRANCH   4  17
ATOM     17  O   UNL     1      10.774   2.233  -5.684  1.00  0.00    -0.387 OA
ATOM     18  H   UNL     1      11.036   2.902  -6.368  1.00  0.00     0.211 HD
ENDBRANCH   4  17
TORSDOF 7
ENDMDL
MODEL 6
REMARK VINA RESULT:    -4.049      2.051      4.144
REMARK INTER + INTRA:          -5.552
REMARK INTER:                  -5.331
REMARK INTRA:                  -0.221
REMARK UNBOUND:                -0.319
REMARK SMILES CCO[C@@H]1O[C@@H](CO)[C@H](O)[C@H](O)[C@H]1O
REMARK SMILES IDX 4 1 13 2 11 3 9 4 6 5 5 6 3 7 2 8 1 9 14 10 12 12 7 14 8 15
REMARK SMILES IDX 10 17
REMARK H PARENT 14 11 12 13 8 16 10 18
REMARK Flexibility Score: inf
ROOT
ATOM      1  C   UNL     1       9.890   2.386  -1.856  1.00  0.00     0.281 C 
ATOM      2  C   UNL     1      10.325   3.020  -0.520  1.00  0.00     0.202 C 
ATOM      3  C   UNL     1       9.861   4.489  -0.433  1.00  0.00     0.179 C 
ATOM      4  C   UNL     1       8.367   4.595  -0.777  1.00  0.00     0.177 C 
ATOM      5  C   UNL     1       8.083   3.871  -2.116  1.00  0.00     0.178 C 
ATOM      6  O   UNL     1       8.487   2.511  -2.049  1.00  0.00    -0.341 OA
ENDROOT
BRANCH   1   7
ATOM      7  O   UNL     1      10.619   2.963  -2.929  1.00  0.00    -0.350 OA
BRANCH   7   8
ATOM      8  C   UNL     1      11.836   2.274  -3.120  1.00  0.00     0.160 C 
ATOM      9  C   UNL     1      11.602   1.102  -4.061  1.00  0.00     0.035 C 
ENDBRANCH   7   8
ENDBRANCH   1   7
BRANCH   2  10
ATOM     10  O   UNL     1       9.772   2.279   0.538  1.00  0.00    -0.385 OA
ATOM     11  H   UNL     1       9.185   1.590   0.131  1.00  0.00     0.211 HD
ENDBRANCH   2  10
BRANCH   3  12
ATOM     12  O   UNL     1      10.611   5.290  -1.311  1.00  0.00    -0.387 OA
ATOM     13  H   UNL     1      11.518   5.376  -0.918  1.00  0.00     0.211 HD
ENDBRANCH   3  12
BRANCH   5  14
ATOM     14  C   UNL     1       6.593   3.913  -2.478  1.00  0.00     0.191 C 
BRANCH  14  15
ATOM     15  O   UNL     1       6.218   2.741  -3.149  1.00  0.00    -0.394 OA
ATOM     16  H   UNL     1       6.585   1.989  -2.615  1.00  0.00     0.210 HD
ENDBRANCH  14  15
ENDBRANCH   5  14
BRANCH   4  17
ATOM     17  O   UNL     1       8.010   5.953  -0.864  1.00  0.00    -0.387 OA
ATOM     18  H   UNL     1       7.575   6.196  -0.007  1.00  0.00     0.211 HD
ENDBRANCH   4  17
TORSDOF 7
ENDMDL
MODEL 7
REMARK VINA RESULT:    -4.032      2.019      4.683
REMARK INTER + INTRA:          -5.530
REMARK INTER:                  -5.058
REMARK INTRA:                  -0.471
REMARK UNBOUND:                -0.319
REMARK SMILES CCO[C@@H]1O[C@@H](CO)[C@H](O)[C@H](O)[C@H]1O
REMARK SMILES IDX 4 1 13 2 11 3 9 4 6 5 5 6 3 7 2 8 1 9 14 10 12 12 7 14 8 15
REMARK SMILES IDX 10 17
REMARK H PARENT 14 11 12 13 8 16 10 18
REMARK Flexibility Score: inf
ROOT
ATOM      1  C   UNL     1       9.327   2.627  -1.359  1.00  0.00     0.281 C 
ATOM      2  C   UNL     1       8.422   3.749  -1.907  1.00  0.00     0.202 C 
ATOM      3  C   UNL     1       9.222   4.706  -2.814  1.00  0.00     0.179 C 
ATOM      4  C   UNL     1      10.017   3.907  -3.860  1.00  0.00     0.177 C 
ATOM      5  C   UNL     1      10.833   2.792  -3.160  1.00  0.00     0.178 C 
ATOM      6  O   UNL     1       9.979   1.935  -2.417  1.00  0.00    -0.341 OA
ENDROOT
BRANCH   1   7
ATOM      7  O   UNL     1      10.259   3.162  -0.431  1.00  0.00    -0.350 OA
BRANCH   7   8
ATOM      8  C   UNL     1       9.683   3.230   0.856  1.00  0.00     0.160 C 
ATOM      9  C   UNL     1       9.913   4.619   1.432  1.00  0.00     0.035 C 
ENDBRANCH   7   8
ENDBRANCH   1   7
BRANCH   2  10
ATOM     10  O   UNL     1       7.367   3.171  -2.633  1.00  0.00    -0.385 OA
ATOM     11  H   UNL     1       6.523   3.516  -2.238  1.00  0.00     0.211 HD
ENDBRANCH   2  10
BRANCH   3  12
ATOM     12  O   UNL     1      10.101   5.488  -2.044  1.00  0.00    -0.387 OA
ATOM     13  H   UNL     1      10.781   4.869  -1.668  1.00  0.00     0.211 HD
ENDBRANCH   3  12
BRANCH   5  14
ATOM     14  C   UNL     1      11.608   1.938  -4.173  1.00  0.00     0.191 C 
BRANCH  14  15
ATOM     15  O   UNL     1      10.976   1.968  -5.424  1.00  0.00    -0.394 OA
ATOM     16  H   UNL     1      11.664   1.695  -6.085  1.00  0.00     0.210 HD
ENDBRANCH  14  15
ENDBRANCH   5  14
BRANCH   4  17
ATOM     17  O   UNL     1      10.870   4.782  -4.556  1.00  0.00    -0.387 OA
ATOM     18  H   UNL     1      10.339   5.587  -4.787  1.00  0.00     0.211 HD
ENDBRANCH   4  17
TORSDOF 7
ENDMDL
MODEL 8
REMARK VINA RESULT:    -4.028      1.813      4.011
REMARK INTER + INTRA:          -5.524
REMARK INTER:                  -5.172
REMARK INTRA:                  -0.353
REMARK UNBOUND:                -0.319
REMARK SMILES CCO[C@@H]1O[C@@H](CO)[C@H](O)[C@H](O)[C@H]1O
REMARK SMILES IDX 4 1 13 2 11 3 9 4 6 5 5 6 3 7 2 8 1 9 14 10 12 12 7 14 8 15
REMARK SMILES IDX 10 17
REMARK H PARENT 14 11 12 13 8 16 10 18
REMARK Flexibility Score: inf
ROOT
ATOM      1  C   UNL     1       8.952   4.088  -2.070  1.00  0.00     0.281 C 
ATOM      2  C   UNL     1       9.580   4.060  -0.662  1.00  0.00     0.202 C 
ATOM      3  C   UNL     1      10.414   2.778  -0.459  1.00  0.00     0.179 C 
ATOM      4  C   UNL     1      11.383   2.584  -1.637  1.00  0.00     0.177 C 
ATOM      5  C   UNL     1      10.612   2.687  -2.975  1.00  0.00     0.178 C 
ATOM      6  O   UNL     1       9.946   3.937  -3.076  1.00  0.00    -0.341 OA
ENDROOT
BRANCH   1   7
ATOM      7  O   UNL     1       7.946   3.092  -2.174  1.00  0.00    -0.350 OA
BRANCH   7   8
ATOM      8  C   UNL     1       6.756   3.651  -2.690  1.00  0.00     0.160 C 
ATOM      9  C   UNL     1       6.121   4.537  -1.629  1.00  0.00     0.035 C 
ENDBRANCH   7   8
ENDBRANCH   1   7
BRANCH   2  10
ATOM     10  O   UNL     1      10.396   5.193  -0.504  1.00  0.00    -0.385 OA
ATOM     11  H   UNL     1      10.158   5.599   0.371  1.00  0.00     0.211 HD
ENDBRANCH   2  10
BRANCH   3  12
ATOM     12  O   UNL     1       9.570   1.660  -0.346  1.00  0.00    -0.387 OA
ATOM     13  H   UNL     1       9.694   1.123  -1.172  1.00  0.00     0.211 HD
ENDBRANCH   3  12
BRANCH   5  14
ATOM     14  C   UNL     1      11.549   2.543  -4.181  1.00  0.00     0.191 C 
BRANCH  14  15
ATOM     15  O   UNL     1      11.932   1.205  -4.348  1.00  0.00    -0.394 OA
ATOM     16  H   UNL     1      11.244   0.663  -3.882  1.00  0.00     0.210 HD
ENDBRANCH  14  15
ENDBRANCH   5  14
BRANCH   4  17
ATOM     17  O   UNL     1      12.003   1.326  -1.519  1.00  0.00    -0.387 OA
ATOM     18  H   UNL     1      12.898   1.477  -1.120  1.00  0.00     0.211 HD
ENDBRANCH   4  17
TORSDOF 7
ENDMDL
MODEL 9
REMARK VINA RESULT:    -4.008      1.522      3.401
REMARK INTER + INTRA:          -5.499
REMARK INTER:                  -5.258
REMARK INTRA:                  -0.242
REMARK UNBOUND:                -0.319
REMARK SMILES CCO[C@@H]1O[C@@H](CO)[C@H](O)[C@H](O)[C@H]1O
REMARK SMILES IDX 4 1 13 2 11 3 9 4 6 5 5 6 3 7 2 8 1 9 14 10 12 12 7 14 8 15
REMARK SMILES IDX 10 17
REMARK H PARENT 14 11 12 13 8 16 10 18
REMARK Flexibility Score: inf
ROOT
ATOM      1  C   UNL     1      10.164   3.261  -3.269  1.00  0.00     0.281 C 
ATOM      2  C   UNL     1      11.104   2.068  -3.535  1.00  0.00     0.202 C 
ATOM      3  C   UNL     1      11.937   1.736  -2.280  1.00  0.00     0.179 C 
ATOM      4  C   UNL     1      11.021   1.615  -1.052  1.00  0.00     0.177 C 
ATOM      5  C   UNL     1      10.109   2.862  -0.951  1.00  0.00     0.178 C 
ATOM      6  O   UNL     1       9.341   3.020  -2.135  1.00  0.00    -0.341 OA
ENDROOT
BRANCH   1   7
ATOM      7  O   UNL     1      10.920   4.454  -3.124  1.00  0.00    -0.350 OA
BRANCH   7   8
ATOM      8  C   UNL     1      10.517   5.408  -4.083  1.00  0.00     0.160 C 
ATOM      9  C   UNL     1       9.148   5.024  -4.623  1.00  0.00     0.035 C 
ENDBRANCH   7   8
ENDBRANCH   1   7
BRANCH   2  10
ATOM     10  O   UNL     1      10.333   0.954  -3.908  1.00  0.00    -0.385 OA
ATOM     11  H   UNL     1       9.398   1.147  -3.635  1.00  0.00     0.211 HD
ENDBRANCH   2  10
BRANCH   3  12
ATOM     12  O   UNL     1      12.903   2.732  -2.058  1.00  0.00    -0.387 OA
ATOM     13  H   UNL     1      13.724   2.448  -2.538  1.00  0.00     0.211 HD
ENDBRANCH   3  12
BRANCH   5  14
ATOM     14  C   UNL     1       9.144   2.763   0.238  1.00  0.00     0.191 C 
BRANCH  14  15
ATOM     15  O   UNL     1       9.702   3.366   1.374  1.00  0.00    -0.394 OA
ATOM     16  H   UNL     1       9.356   2.859   2.153  1.00  0.00     0.210 HD
ENDBRANCH  14  15
ENDBRANCH   5  14
BRANCH   4  17
ATOM     17  O   UNL     1      11.815   1.488   0.103  1.00  0.00    -0.387 OA
ATOM     18  H   UNL     1      11.836   0.524   0.338  1.00  0.00     0.211 HD
ENDBRANCH   4  17
TORSDOF 7
ENDMDL
