MODEL 1
REMARK VINA RESULT:    -6.939      0.000      0.000
REMARK INTER + INTRA:          -9.565
REMARK INTER:                  -8.765
REMARK INTRA:                  -0.800
REMARK UNBOUND:                -0.800
REMARK SMILES CC(C)[C@H](C)C=C[C@@H](C)[C@H]1CC[C@H]2C3=CC=C4C[C@@H](O)CC[C@]4(C)[C@@H]3CC[C@@]12C
REMARK SMILES IDX 8 1 9 2 7 3 6 4 4 5 5 6 2 7 1 8 3 9 10 10 11 11 28 12 12 13
REMARK SMILES IDX 13 14 27 15 29 16 14 17 26 18 25 19 15 20 23 21 16 22 17 23
REMARK SMILES IDX 22 24 24 25 18 26 21 27 19 28 20 29
REMARK H PARENT 20 30
REMARK Flexibility Score: inf
ROOT
ATOM      1  C   UNL     1      11.766 -10.443  26.240  1.00  0.00     0.012 C 
ATOM      2  C   UNL     1      11.376 -10.653  27.721  1.00  0.00     0.012 C 
ENDROOT
BRANCH   1   3
ATOM      3  C   UNL     1      11.082  -9.226  25.651  1.00  0.00    -0.028 C 
ATOM      4  C   UNL     1      10.388  -8.369  26.417  1.00  0.00    -0.028 C 
BRANCH   4   5
ATOM      5  C   UNL     1       9.776  -7.106  25.848  1.00  0.00     0.011 C 
ATOM      6  C   UNL     1       8.625  -6.639  26.750  1.00  0.00     0.012 C 
BRANCH   5   7
ATOM      7  C   UNL     1      10.834  -5.988  25.619  1.00  0.00    -0.011 C 
ATOM      8  C   UNL     1      11.754  -5.835  26.841  1.00  0.00     0.008 C 
ATOM      9  C   UNL     1      10.221  -4.626  25.250  1.00  0.00     0.008 C 
ENDBRANCH   5   7
ENDBRANCH   4   5
ENDBRANCH   1   3
BRANCH   1  10
ATOM     10  C   UNL     1      11.683 -11.694  25.293  1.00  0.00     0.002 C 
ATOM     11  C   UNL     1      11.439 -11.312  23.833  1.00  0.00     0.005 C 
ATOM     12  C   UNL     1      12.755 -12.846  25.275  1.00  0.00    -0.023 C 
ATOM     13  C   UNL     1      11.709 -12.563  23.013  1.00  0.00     0.009 C 
ATOM     14  C   UNL     1      12.472 -13.555  23.911  1.00  0.00     0.021 C 
ATOM     15  C   UNL     1      14.246 -12.388  25.385  1.00  0.00     0.008 C 
ATOM     16  C   UNL     1      12.502 -13.857  26.425  1.00  0.00     0.012 C 
ATOM     17  C   UNL     1      13.725 -14.063  23.217  1.00  0.00    -0.063 C 
ATOM     18  C   UNL     1      14.881 -11.972  24.050  1.00  0.00     0.009 C 
ATOM     19  C   UNL     1      14.904 -13.133  23.017  1.00  0.00     0.025 C 
ATOM     20  C   UNL     1      13.713 -15.247  22.599  1.00  0.00    -0.000 C 
ATOM     21  C   UNL     1      16.284 -13.893  22.874  1.00  0.00    -0.005 C 
ATOM     22  C   UNL     1      14.916 -15.783  21.952  1.00  0.00    -0.000 C 
ATOM     23  C   UNL     1      16.115 -15.185  22.070  1.00  0.00    -0.061 C 
ATOM     24  C   UNL     1      16.881 -14.317  24.249  1.00  0.00     0.014 C 
ATOM     25  C   UNL     1      17.265 -12.947  22.126  1.00  0.00     0.017 C 
ATOM     26  C   UNL     1      17.349 -16.024  21.843  1.00  0.00     0.063 C 
ATOM     27  C   UNL     1      18.143 -15.203  24.121  1.00  0.00     0.033 C 
ATOM     28  C   UNL     1      17.918 -16.432  23.211  1.00  0.00     0.118 C 
BRANCH  28  29
ATOM     29  O   UNL     1      19.130 -17.114  23.019  1.00  0.00    -0.393 OA
ATOM     30  H   UNL     1      19.225 -17.259  22.042  1.00  0.00     0.210 HD
ENDBRANCH  28  29
ENDBRANCH   1  10
TORSDOF 5
ENDMDL
MODEL 2
REMARK VINA RESULT:    -6.714      1.464      1.988
REMARK INTER + INTRA:          -9.280
REMARK INTER:                  -8.293
REMARK INTRA:                  -0.987
REMARK UNBOUND:                -0.800
REMARK SMILES CC(C)[C@H](C)C=C[C@@H](C)[C@H]1CC[C@H]2C3=CC=C4C[C@@H](O)CC[C@]4(C)[C@@H]3CC[C@@]12C
REMARK SMILES IDX 8 1 9 2 7 3 6 4 4 5 5 6 2 7 1 8 3 9 10 10 11 11 28 12 12 13
REMARK SMILES IDX 13 14 27 15 29 16 14 17 26 18 25 19 15 20 23 21 16 22 17 23
REMARK SMILES IDX 22 24 24 25 18 26 21 27 19 28 20 29
REMARK H PARENT 20 30
REMARK Flexibility Score: inf
ROOT
ATOM      1  C   UNL     1      12.269 -12.352  26.896  1.00  0.00     0.012 C 
ATOM      2  C   UNL     1      11.409 -12.653  28.144  1.00  0.00     0.012 C 
ENDROOT
BRANCH   1   3
ATOM      3  C   UNL     1      12.045 -10.940  26.392  1.00  0.00    -0.028 C 
ATOM      4  C   UNL     1      11.433 -10.013  27.147  1.00  0.00    -0.028 C 
BRANCH   4   5
ATOM      5  C   UNL     1      11.283  -8.580  26.683  1.00  0.00     0.011 C 
ATOM      6  C   UNL     1      10.866  -8.555  25.206  1.00  0.00     0.012 C 
BRANCH   5   7
ATOM      7  C   UNL     1      10.309  -7.766  27.583  1.00  0.00    -0.011 C 
ATOM      8  C   UNL     1       9.605  -8.676  28.603  1.00  0.00     0.008 C 
ATOM      9  C   UNL     1       9.264  -6.961  26.790  1.00  0.00     0.008 C 
ENDBRANCH   5   7
ENDBRANCH   4   5
ENDBRANCH   1   3
BRANCH   1  10
ATOM     10  C   UNL     1      12.247 -13.413  25.737  1.00  0.00     0.002 C 
ATOM     11  C   UNL     1      11.491 -12.919  24.503  1.00  0.00     0.005 C 
ATOM     12  C   UNL     1      13.531 -14.148  25.204  1.00  0.00    -0.023 C 
ATOM     13  C   UNL     1      11.829 -13.887  23.380  1.00  0.00     0.009 C 
ATOM     14  C   UNL     1      13.058 -14.704  23.822  1.00  0.00     0.021 C 
ATOM     15  C   UNL     1      14.812 -13.262  25.059  1.00  0.00     0.008 C 
ATOM     16  C   UNL     1      13.906 -15.344  26.120  1.00  0.00     0.012 C 
ATOM     17  C   UNL     1      14.139 -14.681  22.754  1.00  0.00    -0.063 C 
ATOM     18  C   UNL     1      14.890 -12.476  23.741  1.00  0.00     0.009 C 
ATOM     19  C   UNL     1      14.916 -13.407  22.496  1.00  0.00     0.025 C 
ATOM     20  C   UNL     1      14.261 -15.705  21.904  1.00  0.00    -0.000 C 
ATOM     21  C   UNL     1      16.342 -13.659  21.861  1.00  0.00    -0.005 C 
ATOM     22  C   UNL     1      15.317 -15.730  20.885  1.00  0.00    -0.000 C 
ATOM     23  C   UNL     1      16.293 -14.807  20.849  1.00  0.00    -0.061 C 
ATOM     24  C   UNL     1      17.408 -14.067  22.922  1.00  0.00     0.014 C 
ATOM     25  C   UNL     1      16.771 -12.352  21.137  1.00  0.00     0.017 C 
ATOM     26  C   UNL     1      17.582 -15.167  20.150  1.00  0.00     0.063 C 
ATOM     27  C   UNL     1      18.764 -14.478  22.300  1.00  0.00     0.033 C 
ATOM     28  C   UNL     1      18.615 -15.568  21.215  1.00  0.00     0.118 C 
BRANCH  28  29
ATOM     29  O   UNL     1      19.852 -15.794  20.592  1.00  0.00    -0.393 OA
ATOM     30  H   UNL     1      19.659 -16.022  19.645  1.00  0.00     0.210 HD
ENDBRANCH  28  29
ENDBRANCH   1  10
TORSDOF 5
ENDMDL
MODEL 3
REMARK VINA RESULT:    -6.670     11.095     14.786
REMARK INTER + INTRA:          -9.224
REMARK INTER:                  -7.792
REMARK INTRA:                  -1.432
REMARK UNBOUND:                -0.800
REMARK SMILES CC(C)[C@H](C)C=C[C@@H](C)[C@H]1CC[C@H]2C3=CC=C4C[C@@H](O)CC[C@]4(C)[C@@H]3CC[C@@]12C
REMARK SMILES IDX 8 1 9 2 7 3 6 4 4 5 5 6 2 7 1 8 3 9 10 10 11 11 28 12 12 13
REMARK SMILES IDX 13 14 27 15 29 16 14 17 26 18 25 19 15 20 23 21 16 22 17 23
REMARK SMILES IDX 22 24 24 25 18 26 21 27 19 28 20 29
REMARK H PARENT 20 30
REMARK Flexibility Score: inf
ROOT
ATOM      1  C   UNL     1      19.631   1.907  28.638  1.00  0.00     0.012 C 
ATOM      2  C   UNL     1      21.113   2.228  28.336  1.00  0.00     0.012 C 
ENDROOT
BRANCH   1   3
ATOM      3  C   UNL     1      19.328   2.020  30.118  1.00  0.00    -0.028 C 
ATOM      4  C   UNL     1      18.217   2.629  30.565  1.00  0.00    -0.028 C 
BRANCH   4   5
ATOM      5  C   UNL     1      17.866   2.669  32.037  1.00  0.00     0.011 C 
ATOM      6  C   UNL     1      16.342   2.731  32.203  1.00  0.00     0.012 C 
BRANCH   5   7
ATOM      7  C   UNL     1      18.496   1.484  32.826  1.00  0.00    -0.011 C 
ATOM      8  C   UNL     1      17.476   0.355  33.039  1.00  0.00     0.008 C 
ATOM      9  C   UNL     1      19.108   1.899  34.177  1.00  0.00     0.008 C 
ENDBRANCH   5   7
ENDBRANCH   4   5
ENDBRANCH   1   3
BRANCH   1  10
ATOM     10  C   UNL     1      19.036   0.600  28.001  1.00  0.00     0.002 C 
ATOM     11  C   UNL     1      18.770  -0.491  29.039  1.00  0.00     0.005 C 
ATOM     12  C   UNL     1      17.804   0.589  27.024  1.00  0.00    -0.023 C 
ATOM     13  C   UNL     1      17.913  -1.539  28.347  1.00  0.00     0.009 C 
ATOM     14  C   UNL     1      17.352  -0.907  27.060  1.00  0.00     0.021 C 
ATOM     15  C   UNL     1      16.630   1.552  27.398  1.00  0.00     0.008 C 
ATOM     16  C   UNL     1      18.240   0.944  25.577  1.00  0.00     0.012 C 
ATOM     17  C   UNL     1      15.845  -1.090  26.976  1.00  0.00    -0.063 C 
ATOM     18  C   UNL     1      15.641   0.975  28.422  1.00  0.00     0.009 C 
ATOM     19  C   UNL     1      14.939  -0.313  27.908  1.00  0.00     0.025 C 
ATOM     20  C   UNL     1      15.332  -2.080  26.239  1.00  0.00    -0.000 C 
ATOM     21  C   UNL     1      13.477  -0.114  27.339  1.00  0.00    -0.005 C 
ATOM     22  C   UNL     1      13.882  -2.262  26.107  1.00  0.00    -0.000 C 
ATOM     23  C   UNL     1      13.005  -1.367  26.596  1.00  0.00    -0.061 C 
ATOM     24  C   UNL     1      13.385   1.054  26.313  1.00  0.00     0.014 C 
ATOM     25  C   UNL     1      12.536   0.151  28.548  1.00  0.00     0.017 C 
ATOM     26  C   UNL     1      11.620  -1.334  25.996  1.00  0.00     0.063 C 
ATOM     27  C   UNL     1      12.003   1.158  25.625  1.00  0.00     0.033 C 
ATOM     28  C   UNL     1      11.556  -0.177  24.987  1.00  0.00     0.118 C 
BRANCH  28  29
ATOM     29  O   UNL     1      10.242  -0.060  24.507  1.00  0.00    -0.393 OA
ATOM     30  H   UNL     1       9.766  -0.891  24.769  1.00  0.00     0.210 HD
ENDBRANCH  28  29
ENDBRANCH   1  10
TORSDOF 5
ENDMDL
MODEL 4
REMARK VINA RESULT:    -6.439      4.127      7.925
REMARK INTER + INTRA:          -8.933
REMARK INTER:                  -7.834
REMARK INTRA:                  -1.099
REMARK UNBOUND:                -0.800
REMARK SMILES CC(C)[C@H](C)C=C[C@@H](C)[C@H]1CC[C@H]2C3=CC=C4C[C@@H](O)CC[C@]4(C)[C@@H]3CC[C@@]12C
REMARK SMILES IDX 8 1 9 2 7 3 6 4 4 5 5 6 2 7 1 8 3 9 10 10 11 11 28 12 12 13
REMARK SMILES IDX 13 14 27 15 29 16 14 17 26 18 25 19 15 20 23 21 16 22 17 23
REMARK SMILES IDX 22 24 24 25 18 26 21 27 19 28 20 29
REMARK H PARENT 20 30
REMARK Flexibility Score: inf
ROOT
ATOM      1  C   UNL     1      17.575 -13.661  17.757  1.00  0.00     0.012 C 
ATOM      2  C   UNL     1      18.121 -14.149  16.396  1.00  0.00     0.012 C 
ENDROOT
BRANCH   1   3
ATOM      3  C   UNL     1      18.259 -12.386  18.207  1.00  0.00    -0.028 C 
ATOM      4  C   UNL     1      17.559 -11.280  18.506  1.00  0.00    -0.028 C 
BRANCH   4   5
ATOM      5  C   UNL     1      18.230 -10.031  19.038  1.00  0.00     0.011 C 
ATOM      6  C   UNL     1      19.647  -9.919  18.459  1.00  0.00     0.012 C 
BRANCH   5   7
ATOM      7  C   UNL     1      17.386  -8.750  18.779  1.00  0.00    -0.011 C 
ATOM      8  C   UNL     1      17.747  -8.111  17.429  1.00  0.00     0.008 C 
ATOM      9  C   UNL     1      17.495  -7.702  19.901  1.00  0.00     0.008 C 
ENDBRANCH   5   7
ENDBRANCH   4   5
ENDBRANCH   1   3
BRANCH   1  10
ATOM     10  C   UNL     1      17.468 -14.724  18.909  1.00  0.00     0.002 C 
ATOM     11  C   UNL     1      18.723 -14.772  19.783  1.00  0.00     0.005 C 
ATOM     12  C   UNL     1      16.243 -14.826  19.891  1.00  0.00    -0.023 C 
ATOM     13  C   UNL     1      18.354 -15.581  21.016  1.00  0.00     0.009 C 
ATOM     14  C   UNL     1      16.818 -15.679  21.068  1.00  0.00     0.021 C 
ATOM     15  C   UNL     1      15.662 -13.465  20.398  1.00  0.00     0.008 C 
ATOM     16  C   UNL     1      15.071 -15.605  19.236  1.00  0.00     0.012 C 
ATOM     17  C   UNL     1      16.293 -15.265  22.433  1.00  0.00    -0.063 C 
ATOM     18  C   UNL     1      16.401 -12.875  21.610  1.00  0.00     0.009 C 
ATOM     19  C   UNL     1      16.345 -13.810  22.850  1.00  0.00     0.025 C 
ATOM     20  C   UNL     1      15.986 -16.196  23.341  1.00  0.00    -0.000 C 
ATOM     21  C   UNL     1      15.265 -13.432  23.943  1.00  0.00    -0.005 C 
ATOM     22  C   UNL     1      15.441 -15.831  24.654  1.00  0.00    -0.000 C 
ATOM     23  C   UNL     1      15.092 -14.568  24.955  1.00  0.00    -0.061 C 
ATOM     24  C   UNL     1      13.855 -13.182  23.332  1.00  0.00     0.014 C 
ATOM     25  C   UNL     1      15.770 -12.159  24.680  1.00  0.00     0.017 C 
ATOM     26  C   UNL     1      14.095 -14.356  26.068  1.00  0.00     0.063 C 
ATOM     27  C   UNL     1      12.753 -12.974  24.399  1.00  0.00     0.033 C 
ATOM     28  C   UNL     1      12.712 -14.115  25.441  1.00  0.00     0.118 C 
BRANCH  28  29
ATOM     29  O   UNL     1      11.796 -13.800  26.457  1.00  0.00    -0.393 OA
ATOM     30  H   UNL     1      12.273 -13.921  27.320  1.00  0.00     0.210 HD
ENDBRANCH  28  29
ENDBRANCH   1  10
TORSDOF 5
ENDMDL
MODEL 5
REMARK VINA RESULT:    -6.382      3.809      7.682
REMARK INTER + INTRA:          -8.860
REMARK INTER:                  -7.864
REMARK INTRA:                  -0.997
REMARK UNBOUND:                -0.800
REMARK SMILES CC(C)[C@H](C)C=C[C@@H](C)[C@H]1CC[C@H]2C3=CC=C4C[C@@H](O)CC[C@]4(C)[C@@H]3CC[C@@]12C
REMARK SMILES IDX 8 1 9 2 7 3 6 4 4 5 5 6 2 7 1 8 3 9 10 10 11 11 28 12 12 13
REMARK SMILES IDX 13 14 27 15 29 16 14 17 26 18 25 19 15 20 23 21 16 22 17 23
REMARK SMILES IDX 22 24 24 25 18 26 21 27 19 28 20 29
REMARK H PARENT 20 30
REMARK Flexibility Score: inf
ROOT
ATOM      1  C   UNL     1      20.209  -9.883  22.134  1.00  0.00     0.012 C 
ATOM      2  C   UNL     1      19.808  -8.530  22.766  1.00  0.00     0.012 C 
ENDROOT
BRANCH   1   3
ATOM      3  C   UNL     1      19.805  -9.958  20.676  1.00  0.00    -0.028 C 
ATOM      4  C   UNL     1      18.829  -9.183  20.176  1.00  0.00    -0.028 C 
BRANCH   4   5
ATOM      5  C   UNL     1      18.480  -9.192  18.702  1.00  0.00     0.011 C 
ATOM      6  C   UNL     1      17.467 -10.310  18.418  1.00  0.00     0.012 C 
BRANCH   5   7
ATOM      7  C   UNL     1      17.979  -7.805  18.205  1.00  0.00    -0.011 C 
ATOM      8  C   UNL     1      17.239  -7.050  19.321  1.00  0.00     0.008 C 
ATOM      9  C   UNL     1      17.094  -7.883  16.948  1.00  0.00     0.008 C 
ENDBRANCH   5   7
ENDBRANCH   4   5
ENDBRANCH   1   3
BRANCH   1  10
ATOM     10  C   UNL     1      19.831 -11.185  22.929  1.00  0.00     0.002 C 
ATOM     11  C   UNL     1      20.103 -11.057  24.428  1.00  0.00     0.005 C 
ATOM     12  C   UNL     1      18.446 -11.918  22.792  1.00  0.00    -0.023 C 
ATOM     13  C   UNL     1      19.400 -12.231  25.091  1.00  0.00     0.009 C 
ATOM     14  C   UNL     1      18.409 -12.819  24.069  1.00  0.00     0.021 C 
ATOM     15  C   UNL     1      17.190 -10.990  22.708  1.00  0.00     0.008 C 
ATOM     16  C   UNL     1      18.423 -12.831  21.537  1.00  0.00     0.012 C 
ATOM     17  C   UNL     1      17.022 -12.960  24.675  1.00  0.00    -0.063 C 
ATOM     18  C   UNL     1      16.650 -10.531  24.072  1.00  0.00     0.009 C 
ATOM     19  C   UNL     1      16.196 -11.722  24.961  1.00  0.00     0.025 C 
ATOM     20  C   UNL     1      16.617 -14.141  25.151  1.00  0.00    -0.000 C 
ATOM     21  C   UNL     1      14.639 -12.000  24.989  1.00  0.00    -0.005 C 
ATOM     22  C   UNL     1      15.272 -14.319  25.709  1.00  0.00    -0.000 C 
ATOM     23  C   UNL     1      14.338 -13.353  25.639  1.00  0.00    -0.061 C 
ATOM     24  C   UNL     1      14.015 -12.060  23.563  1.00  0.00     0.014 C 
ATOM     25  C   UNL     1      13.976 -10.870  25.824  1.00  0.00     0.017 C 
ATOM     26  C   UNL     1      12.889 -13.762  25.744  1.00  0.00     0.063 C 
ATOM     27  C   UNL     1      12.530 -12.494  23.563  1.00  0.00     0.033 C 
ATOM     28  C   UNL     1      12.296 -13.817  24.326  1.00  0.00     0.118 C 
BRANCH  28  29
ATOM     29  O   UNL     1      10.921 -14.082  24.415  1.00  0.00    -0.393 OA
ATOM     30  H   UNL     1      10.767 -14.954  23.966  1.00  0.00     0.210 HD
ENDBRANCH  28  29
ENDBRANCH   1  10
TORSDOF 5
ENDMDL
MODEL 6
REMARK VINA RESULT:    -6.360      3.096      7.890
REMARK INTER + INTRA:          -8.833
REMARK INTER:                  -7.152
REMARK INTRA:                  -1.680
REMARK UNBOUND:                -0.800
REMARK SMILES CC(C)[C@H](C)C=C[C@@H](C)[C@H]1CC[C@H]2C3=CC=C4C[C@@H](O)CC[C@]4(C)[C@@H]3CC[C@@]12C
REMARK SMILES IDX 8 1 9 2 7 3 6 4 4 5 5 6 2 7 1 8 3 9 10 10 11 11 28 12 12 13
REMARK SMILES IDX 13 14 27 15 29 16 14 17 26 18 25 19 15 20 23 21 16 22 17 23
REMARK SMILES IDX 22 24 24 25 18 26 21 27 19 28 20 29
REMARK H PARENT 20 30
REMARK Flexibility Score: inf
ROOT
ATOM      1  C   UNL     1      15.054 -15.652  21.913  1.00  0.00     0.012 C 
ATOM      2  C   UNL     1      14.966 -17.005  21.171  1.00  0.00     0.012 C 
ENDROOT
BRANCH   1   3
ATOM      3  C   UNL     1      16.482 -15.153  21.995  1.00  0.00    -0.028 C 
ATOM      4  C   UNL     1      16.822 -13.922  21.580  1.00  0.00    -0.028 C 
BRANCH   4   5
ATOM      5  C   UNL     1      18.230 -13.388  21.739  1.00  0.00     0.011 C 
ATOM      6  C   UNL     1      18.839 -13.118  20.357  1.00  0.00     0.012 C 
BRANCH   5   7
ATOM      7  C   UNL     1      18.286 -12.135  22.661  1.00  0.00    -0.011 C 
ATOM      8  C   UNL     1      17.988 -12.508  24.122  1.00  0.00     0.008 C 
ATOM      9  C   UNL     1      17.355 -10.996  22.210  1.00  0.00     0.008 C 
ENDBRANCH   5   7
ENDBRANCH   4   5
ENDBRANCH   1   3
BRANCH   1  10
ATOM     10  C   UNL     1      14.298 -15.538  23.286  1.00  0.00     0.002 C 
ATOM     11  C   UNL     1      15.251 -15.531  24.482  1.00  0.00     0.005 C 
ATOM     12  C   UNL     1      13.201 -14.452  23.589  1.00  0.00    -0.023 C 
ATOM     13  C   UNL     1      14.427 -15.092  25.682  1.00  0.00     0.009 C 
ATOM     14  C   UNL     1      13.120 -14.474  25.150  1.00  0.00     0.021 C 
ATOM     15  C   UNL     1      13.500 -13.014  23.051  1.00  0.00     0.008 C 
ATOM     16  C   UNL     1      11.825 -14.878  23.012  1.00  0.00     0.012 C 
ATOM     17  C   UNL     1      12.875 -13.107  25.767  1.00  0.00    -0.063 C 
ATOM     18  C   UNL     1      14.389 -12.166  23.972  1.00  0.00     0.009 C 
ATOM     19  C   UNL     1      13.746 -11.934  25.368  1.00  0.00     0.025 C 
ATOM     20  C   UNL     1      12.044 -12.982  26.806  1.00  0.00    -0.000 C 
ATOM     21  C   UNL     1      13.042 -10.532  25.572  1.00  0.00    -0.005 C 
ATOM     22  C   UNL     1      11.757 -11.672  27.401  1.00  0.00    -0.000 C 
ATOM     23  C   UNL     1      12.196 -10.527  26.848  1.00  0.00    -0.061 C 
ATOM     24  C   UNL     1      12.068 -10.175  24.409  1.00  0.00     0.014 C 
ATOM     25  C   UNL     1      14.160  -9.459  25.692  1.00  0.00     0.017 C 
ATOM     26  C   UNL     1      11.461  -9.252  27.184  1.00  0.00     0.063 C 
ATOM     27  C   UNL     1      11.248  -8.889  24.671  1.00  0.00     0.033 C 
ATOM     28  C   UNL     1      10.506  -8.923  26.026  1.00  0.00     0.118 C 
BRANCH  28  29
ATOM     29  O   UNL     1       9.901  -7.680  26.270  1.00  0.00    -0.393 OA
ATOM     30  H   UNL     1       8.938  -7.780  26.046  1.00  0.00     0.210 HD
ENDBRANCH  28  29
ENDBRANCH   1  10
TORSDOF 5
ENDMDL
MODEL 7
REMARK VINA RESULT:    -6.286      3.868      8.572
REMARK INTER + INTRA:          -8.739
REMARK INTER:                  -7.297
REMARK INTRA:                  -1.442
REMARK UNBOUND:                -0.800
REMARK SMILES CC(C)[C@H](C)C=C[C@@H](C)[C@H]1CC[C@H]2C3=CC=C4C[C@@H](O)CC[C@]4(C)[C@@H]3CC[C@@]12C
REMARK SMILES IDX 8 1 9 2 7 3 6 4 4 5 5 6 2 7 1 8 3 9 10 10 11 11 28 12 12 13
REMARK SMILES IDX 13 14 27 15 29 16 14 17 26 18 25 19 15 20 23 21 16 22 17 23
REMARK SMILES IDX 22 24 24 25 18 26 21 27 19 28 20 29
REMARK H PARENT 20 30
REMARK Flexibility Score: inf
ROOT
ATOM      1  C   UNL     1      19.057 -14.492  19.983  1.00  0.00     0.012 C 
ATOM      2  C   UNL     1      20.575 -14.509  19.690  1.00  0.00     0.012 C 
ENDROOT
BRANCH   1   3
ATOM      3  C   UNL     1      18.243 -14.634  18.713  1.00  0.00    -0.028 C 
ATOM      4  C   UNL     1      17.208 -15.485  18.632  1.00  0.00    -0.028 C 
BRANCH   4   5
ATOM      5  C   UNL     1      16.339 -15.569  17.395  1.00  0.00     0.011 C 
ATOM      6  C   UNL     1      16.364 -17.000  16.841  1.00  0.00     0.012 C 
BRANCH   5   7
ATOM      7  C   UNL     1      14.890 -15.065  17.656  1.00  0.00    -0.011 C 
ATOM      8  C   UNL     1      14.007 -15.245  16.411  1.00  0.00     0.008 C 
ATOM      9  C   UNL     1      14.823 -13.605  18.140  1.00  0.00     0.008 C 
ENDBRANCH   5   7
ENDBRANCH   4   5
ENDBRANCH   1   3
BRANCH   1  10
ATOM     10  C   UNL     1      18.520 -13.347  20.915  1.00  0.00     0.002 C 
ATOM     11  C   UNL     1      17.596 -12.375  20.180  1.00  0.00     0.005 C 
ATOM     12  C   UNL     1      17.861 -13.604  22.320  1.00  0.00    -0.023 C 
ATOM     13  C   UNL     1      16.910 -11.544  21.252  1.00  0.00     0.009 C 
ATOM     14  C   UNL     1      17.116 -12.259  22.600  1.00  0.00     0.021 C 
ATOM     15  C   UNL     1      16.888 -14.827  22.402  1.00  0.00     0.008 C 
ATOM     16  C   UNL     1      18.945 -13.811  23.412  1.00  0.00     0.012 C 
ATOM     17  C   UNL     1      15.794 -12.435  23.329  1.00  0.00    -0.063 C 
ATOM     18  C   UNL     1      15.453 -14.525  21.945  1.00  0.00     0.009 C 
ATOM     19  C   UNL     1      14.774 -13.427  22.810  1.00  0.00     0.025 C 
ATOM     20  C   UNL     1      15.441 -11.577  24.291  1.00  0.00    -0.000 C 
ATOM     21  C   UNL     1      13.785 -13.952  23.927  1.00  0.00    -0.005 C 
ATOM     22  C   UNL     1      14.190 -11.740  25.039  1.00  0.00    -0.000 C 
ATOM     23  C   UNL     1      13.413 -12.828  24.899  1.00  0.00    -0.061 C 
ATOM     24  C   UNL     1      14.408 -15.083  24.797  1.00  0.00     0.014 C 
ATOM     25  C   UNL     1      12.500 -14.461  23.214  1.00  0.00     0.017 C 
ATOM     26  C   UNL     1      12.468 -13.173  26.024  1.00  0.00     0.063 C 
ATOM     27  C   UNL     1      13.520 -15.493  25.996  1.00  0.00     0.033 C 
ATOM     28  C   UNL     1      13.105 -14.287  26.869  1.00  0.00     0.118 C 
BRANCH  28  29
ATOM     29  O   UNL     1      12.189 -14.700  27.850  1.00  0.00    -0.393 OA
ATOM     30  H   UNL     1      12.157 -13.980  28.533  1.00  0.00     0.210 HD
ENDBRANCH  28  29
ENDBRANCH   1  10
TORSDOF 5
ENDMDL
MODEL 8
REMARK VINA RESULT:    -6.225      1.890      3.877
REMARK INTER + INTRA:          -8.662
REMARK INTER:                  -8.161
REMARK INTRA:                  -0.501
REMARK UNBOUND:                -0.800
REMARK SMILES CC(C)[C@H](C)C=C[C@@H](C)[C@H]1CC[C@H]2C3=CC=C4C[C@@H](O)CC[C@]4(C)[C@@H]3CC[C@@]12C
REMARK SMILES IDX 8 1 9 2 7 3 6 4 4 5 5 6 2 7 1 8 3 9 10 10 11 11 28 12 12 13
REMARK SMILES IDX 13 14 27 15 29 16 14 17 26 18 25 19 15 20 23 21 16 22 17 23
REMARK SMILES IDX 22 24 24 25 18 26 21 27 19 28 20 29
REMARK H PARENT 20 30
REMARK Flexibility Score: inf
ROOT
ATOM      1  C   UNL     1      12.283 -13.403  25.652  1.00  0.00     0.012 C 
ATOM      2  C   UNL     1      11.513 -13.403  24.312  1.00  0.00     0.012 C 
ENDROOT
BRANCH   1   3
ATOM      3  C   UNL     1      12.298 -12.026  26.285  1.00  0.00    -0.028 C 
ATOM      4  C   UNL     1      12.124 -10.914  25.553  1.00  0.00    -0.028 C 
BRANCH   4   5
ATOM      5  C   UNL     1      12.053  -9.543  26.192  1.00  0.00     0.011 C 
ATOM      6  C   UNL     1      12.661  -8.499  25.245  1.00  0.00     0.012 C 
BRANCH   5   7
ATOM      7  C   UNL     1      10.606  -9.169  26.628  1.00  0.00    -0.011 C 
ATOM      8  C   UNL     1      10.208  -7.782  26.098  1.00  0.00     0.008 C 
ATOM      9  C   UNL     1      10.385  -9.232  28.150  1.00  0.00     0.008 C 
ENDBRANCH   5   7
ENDBRANCH   4   5
ENDBRANCH   1   3
BRANCH   1  10
ATOM     10  C   UNL     1      13.698 -14.085  25.665  1.00  0.00     0.002 C 
ATOM     11  C   UNL     1      13.625 -15.584  25.958  1.00  0.00     0.005 C 
ATOM     12  C   UNL     1      14.760 -13.911  24.518  1.00  0.00    -0.023 C 
ATOM     13  C   UNL     1      14.993 -16.153  25.618  1.00  0.00     0.009 C 
ATOM     14  C   UNL     1      15.739 -15.102  24.774  1.00  0.00     0.021 C 
ATOM     15  C   UNL     1      14.196 -13.935  23.059  1.00  0.00     0.008 C 
ATOM     16  C   UNL     1      15.541 -12.579  24.682  1.00  0.00     0.012 C 
ATOM     17  C   UNL     1      16.292 -15.720  23.501  1.00  0.00    -0.063 C 
ATOM     18  C   UNL     1      14.010 -15.344  22.477  1.00  0.00     0.009 C 
ATOM     19  C   UNL     1      15.347 -16.132  22.391  1.00  0.00     0.025 C 
ATOM     20  C   UNL     1      17.573 -16.096  23.442  1.00  0.00    -0.000 C 
ATOM     21  C   UNL     1      16.031 -16.165  20.965  1.00  0.00    -0.005 C 
ATOM     22  C   UNL     1      18.148 -16.662  22.216  1.00  0.00    -0.000 C 
ATOM     23  C   UNL     1      17.463 -16.697  21.059  1.00  0.00    -0.061 C 
ATOM     24  C   UNL     1      16.139 -14.752  20.318  1.00  0.00     0.014 C 
ATOM     25  C   UNL     1      15.189 -17.111  20.063  1.00  0.00     0.017 C 
ATOM     26  C   UNL     1      18.250 -16.793  19.774  1.00  0.00     0.063 C 
ATOM     27  C   UNL     1      16.950 -14.742  19.001  1.00  0.00     0.033 C 
ATOM     28  C   UNL     1      18.346 -15.389  19.157  1.00  0.00     0.118 C 
BRANCH  28  29
ATOM     29  O   UNL     1      18.973 -15.480  17.905  1.00  0.00    -0.393 OA
ATOM     30  H   UNL     1      18.776 -14.634  17.423  1.00  0.00     0.210 HD
ENDBRANCH  28  29
ENDBRANCH   1  10
TORSDOF 5
ENDMDL
MODEL 9
REMARK VINA RESULT:    -6.159      3.613      6.711
REMARK INTER + INTRA:          -8.579
REMARK INTER:                  -7.362
REMARK INTRA:                  -1.217
REMARK UNBOUND:                -0.800
REMARK SMILES CC(C)[C@H](C)C=C[C@@H](C)[C@H]1CC[C@H]2C3=CC=C4C[C@@H](O)CC[C@]4(C)[C@@H]3CC[C@@]12C
REMARK SMILES IDX 8 1 9 2 7 3 6 4 4 5 5 6 2 7 1 8 3 9 10 10 11 11 28 12 12 13
REMARK SMILES IDX 13 14 27 15 29 16 14 17 26 18 25 19 15 20 23 21 16 22 17 23
REMARK SMILES IDX 22 24 24 25 18 26 21 27 19 28 20 29
REMARK H PARENT 20 30
REMARK Flexibility Score: inf
ROOT
ATOM      1  C   UNL     1      15.229 -15.573  23.937  1.00  0.00     0.012 C 
ATOM      2  C   UNL     1      14.835 -15.870  22.472  1.00  0.00     0.012 C 
ENDROOT
BRANCH   1   3
ATOM      3  C   UNL     1      14.108 -14.882  24.686  1.00  0.00    -0.028 C 
ATOM      4  C   UNL     1      13.082 -14.304  24.040  1.00  0.00    -0.028 C 
BRANCH   4   5
ATOM      5  C   UNL     1      11.917 -13.688  24.784  1.00  0.00     0.011 C 
ATOM      6  C   UNL     1      12.196 -13.713  26.293  1.00  0.00     0.012 C 
BRANCH   5   7
ATOM      7  C   UNL     1      11.579 -12.257  24.273  1.00  0.00    -0.011 C 
ATOM      8  C   UNL     1      11.333 -12.254  22.755  1.00  0.00     0.008 C 
ATOM      9  C   UNL     1      12.643 -11.206  24.634  1.00  0.00     0.008 C 
ENDBRANCH   5   7
ENDBRANCH   4   5
ENDBRANCH   1   3
BRANCH   1  10
ATOM     10  C   UNL     1      16.623 -14.891  24.179  1.00  0.00     0.002 C 
ATOM     11  C   UNL     1      17.700 -15.395  23.218  1.00  0.00     0.005 C 
ATOM     12  C   UNL     1      16.824 -13.334  24.289  1.00  0.00    -0.023 C 
ATOM     13  C   UNL     1      18.871 -14.435  23.346  1.00  0.00     0.009 C 
ATOM     14  C   UNL     1      18.363 -13.172  24.065  1.00  0.00     0.021 C 
ATOM     15  C   UNL     1      16.002 -12.469  23.279  1.00  0.00     0.008 C 
ATOM     16  C   UNL     1      16.472 -12.828  25.714  1.00  0.00     0.012 C 
ATOM     17  C   UNL     1      18.736 -11.918  23.291  1.00  0.00    -0.063 C 
ATOM     18  C   UNL     1      16.660 -12.312  21.899  1.00  0.00     0.009 C 
ATOM     19  C   UNL     1      18.044 -11.609  21.979  1.00  0.00     0.025 C 
ATOM     20  C   UNL     1      19.809 -11.206  23.648  1.00  0.00    -0.000 C 
ATOM     21  C   UNL     1      18.051 -10.070  21.614  1.00  0.00    -0.005 C 
ATOM     22  C   UNL     1      20.175  -9.971  22.946  1.00  0.00    -0.000 C 
ATOM     23  C   UNL     1      19.380  -9.421  22.011  1.00  0.00    -0.061 C 
ATOM     24  C   UNL     1      16.942  -9.271  22.361  1.00  0.00     0.014 C 
ATOM     25  C   UNL     1      17.862  -9.953  20.075  1.00  0.00     0.017 C 
ATOM     26  C   UNL     1      19.543  -7.948  21.722  1.00  0.00     0.063 C 
ATOM     27  C   UNL     1      17.039  -7.742  22.143  1.00  0.00     0.033 C 
ATOM     28  C   UNL     1      18.441  -7.182  22.471  1.00  0.00     0.118 C 
BRANCH  28  29
ATOM     29  O   UNL     1      18.508  -5.824  22.119  1.00  0.00    -0.393 OA
ATOM     30  H   UNL     1      17.602  -5.445  22.269  1.00  0.00     0.210 HD
ENDBRANCH  28  29
ENDBRANCH   1  10
TORSDOF 5
ENDMDL
