MODEL 1
REMARK VINA RESULT:    -3.528      0.000      0.000
REMARK INTER + INTRA:          -4.182
REMARK INTER:                  -4.147
REMARK INTRA:                  -0.034
REMARK UNBOUND:                -0.034
REMARK SMILES CCCCC(=O)[O-]
REMARK SMILES IDX 4 1 5 2 6 3 7 4 3 5 2 6 1 7
REMARK H PARENT
REMARK Flexibility Score: inf
ROOT
ATOM      1  C   UNL     1      -6.053  35.352  21.532  1.00  0.00     0.053 C 
ENDROOT
BRANCH   1   2
ATOM      2  C   UNL     1      -5.371  36.147  20.461  1.00  0.00     0.041 C 
ATOM      3  O   UNL     1      -4.810  35.563  19.497  1.00  0.00    -0.550 OA
ATOM      4  O   UNL     1      -5.382  37.534  20.513  1.00  0.00    -0.550 OA
ENDBRANCH   1   2
BRANCH   1   5
ATOM      5  C   UNL     1      -6.093  36.106  22.870  1.00  0.00     0.006 C 
BRANCH   5   6
ATOM      6  C   UNL     1      -5.951  35.203  24.108  1.00  0.00    -0.003 C 
ATOM      7  C   UNL     1      -6.118  33.719  23.782  1.00  0.00     0.004 C 
ENDBRANCH   5   6
ENDBRANCH   1   5
TORSDOF 3
ENDMDL
MODEL 2
REMARK VINA RESULT:    -3.476      0.840      1.719
REMARK INTER + INTRA:          -4.120
REMARK INTER:                  -4.104
REMARK INTRA:                  -0.017
REMARK UNBOUND:                -0.034
REMARK SMILES CCCCC(=O)[O-]
REMARK SMILES IDX 4 1 5 2 6 3 7 4 3 5 2 6 1 7
REMARK H PARENT
REMARK Flexibility Score: inf
ROOT
ATOM      1  C   UNL     1      -4.840  35.366  21.444  1.00  0.00     0.053 C 
ENDROOT
BRANCH   1   2
ATOM      2  C   UNL     1      -5.040  35.906  20.062  1.00  0.00     0.041 C 
ATOM      3  O   UNL     1      -5.433  37.091  19.894  1.00  0.00    -0.550 OA
ATOM      4  O   UNL     1      -4.764  35.110  18.958  1.00  0.00    -0.550 OA
ENDBRANCH   1   2
BRANCH   1   5
ATOM      5  C   UNL     1      -6.098  35.529  22.312  1.00  0.00     0.006 C 
BRANCH   5   6
ATOM      6  C   UNL     1      -5.958  34.965  23.737  1.00  0.00    -0.003 C 
ATOM      7  C   UNL     1      -6.049  36.045  24.815  1.00  0.00     0.004 C 
ENDBRANCH   5   6
ENDBRANCH   1   5
TORSDOF 3
ENDMDL
MODEL 3
REMARK VINA RESULT:    -3.307      2.574      3.882
REMARK INTER + INTRA:          -3.921
REMARK INTER:                  -3.880
REMARK INTRA:                  -0.041
REMARK UNBOUND:                -0.034
REMARK SMILES CCCCC(=O)[O-]
REMARK SMILES IDX 4 1 5 2 6 3 7 4 3 5 2 6 1 7
REMARK H PARENT
REMARK Flexibility Score: inf
ROOT
ATOM      1  C   UNL     1      -6.042  36.146  22.608  1.00  0.00     0.053 C 
ENDROOT
BRANCH   1   2
ATOM      2  C   UNL     1      -5.769  35.286  23.803  1.00  0.00     0.041 C 
ATOM      3  O   UNL     1      -5.719  34.033  23.685  1.00  0.00    -0.550 OA
ATOM      4  O   UNL     1      -5.540  35.871  25.042  1.00  0.00    -0.550 OA
ENDBRANCH   1   2
BRANCH   1   5
ATOM      5  C   UNL     1      -6.059  35.331  21.306  1.00  0.00     0.006 C 
BRANCH   5   6
ATOM      6  C   UNL     1      -5.335  36.008  20.128  1.00  0.00    -0.003 C 
ATOM      7  C   UNL     1      -5.306  37.531  20.246  1.00  0.00     0.004 C 
ENDBRANCH   5   6
ENDBRANCH   1   5
TORSDOF 3
ENDMDL
MODEL 4
REMARK VINA RESULT:    -3.252      2.557      4.052
REMARK INTER + INTRA:          -3.857
REMARK INTER:                  -3.821
REMARK INTRA:                  -0.035
REMARK UNBOUND:                -0.034
REMARK SMILES CCCCC(=O)[O-]
REMARK SMILES IDX 4 1 5 2 6 3 7 4 3 5 2 6 1 7
REMARK H PARENT
REMARK Flexibility Score: inf
ROOT
ATOM      1  C   UNL     1      -6.048  36.096  22.511  1.00  0.00     0.053 C 
ENDROOT
BRANCH   1   2
ATOM      2  C   UNL     1      -5.695  35.280  23.717  1.00  0.00     0.041 C 
ATOM      3  O   UNL     1      -5.425  35.847  24.809  1.00  0.00    -0.550 OA
ATOM      4  O   UNL     1      -5.693  33.894  23.642  1.00  0.00    -0.550 OA
ENDBRANCH   1   2
BRANCH   1   5
ATOM      5  C   UNL     1      -5.633  35.398  21.206  1.00  0.00     0.006 C 
BRANCH   5   6
ATOM      6  C   UNL     1      -5.302  36.363  20.054  1.00  0.00    -0.003 C 
ATOM      7  C   UNL     1      -5.375  37.832  20.470  1.00  0.00     0.004 C 
ENDBRANCH   5   6
ENDBRANCH   1   5
TORSDOF 3
ENDMDL
MODEL 5
REMARK VINA RESULT:    -3.225      2.698      3.876
REMARK INTER + INTRA:          -3.825
REMARK INTER:                  -3.808
REMARK INTRA:                  -0.016
REMARK UNBOUND:                -0.034
REMARK SMILES CCCCC(=O)[O-]
REMARK SMILES IDX 4 1 5 2 6 3 7 4 3 5 2 6 1 7
REMARK H PARENT
REMARK Flexibility Score: inf
ROOT
ATOM      1  C   UNL     1      -5.068  35.050  22.369  1.00  0.00     0.053 C 
ENDROOT
BRANCH   1   2
ATOM      2  C   UNL     1      -5.732  34.729  23.673  1.00  0.00     0.041 C 
ATOM      3  O   UNL     1      -6.125  33.557  23.913  1.00  0.00    -0.550 OA
ATOM      4  O   UNL     1      -5.889  35.718  24.635  1.00  0.00    -0.550 OA
ENDBRANCH   1   2
BRANCH   1   5
ATOM      5  C   UNL     1      -6.047  35.682  21.368  1.00  0.00     0.006 C 
BRANCH   5   6
ATOM      6  C   UNL     1      -5.368  36.340  20.153  1.00  0.00    -0.003 C 
ATOM      7  C   UNL     1      -4.739  35.322  19.201  1.00  0.00     0.004 C 
ENDBRANCH   5   6
ENDBRANCH   1   5
TORSDOF 3
ENDMDL
MODEL 6
REMARK VINA RESULT:    -3.030     12.181     13.394
REMARK INTER + INTRA:          -3.596
REMARK INTER:                  -3.575
REMARK INTRA:                  -0.021
REMARK UNBOUND:                -0.034
REMARK SMILES CCCCC(=O)[O-]
REMARK SMILES IDX 4 1 5 2 6 3 7 4 3 5 2 6 1 7
REMARK H PARENT
REMARK Flexibility Score: inf
ROOT
ATOM      1  C   UNL     1      -4.471  25.251  30.021  1.00  0.00     0.053 C 
ENDROOT
BRANCH   1   2
ATOM      2  C   UNL     1      -4.936  26.667  30.177  1.00  0.00     0.041 C 
ATOM      3  O   UNL     1      -5.784  27.148  29.381  1.00  0.00    -0.550 OA
ATOM      4  O   UNL     1      -4.453  27.444  31.222  1.00  0.00    -0.550 OA
ENDBRANCH   1   2
BRANCH   1   5
ATOM      5  C   UNL     1      -5.388  24.447  29.086  1.00  0.00     0.006 C 
BRANCH   5   6
ATOM      6  C   UNL     1      -5.364  22.928  29.334  1.00  0.00    -0.003 C 
ATOM      7  C   UNL     1      -4.872  22.137  28.122  1.00  0.00     0.004 C 
ENDBRANCH   5   6
ENDBRANCH   1   5
TORSDOF 3
ENDMDL
MODEL 7
REMARK VINA RESULT:    -3.016     12.652     13.599
REMARK INTER + INTRA:          -3.579
REMARK INTER:                  -3.532
REMARK INTRA:                  -0.047
REMARK UNBOUND:                -0.034
REMARK SMILES CCCCC(=O)[O-]
REMARK SMILES IDX 4 1 5 2 6 3 7 4 3 5 2 6 1 7
REMARK H PARENT
REMARK Flexibility Score: inf
ROOT
ATOM      1  C   UNL     1      -4.702  25.126  29.678  1.00  0.00     0.053 C 
ENDROOT
BRANCH   1   2
ATOM      2  C   UNL     1      -5.262  23.738  29.621  1.00  0.00     0.041 C 
ATOM      3  O   UNL     1      -5.943  23.289  30.581  1.00  0.00    -0.550 OA
ATOM      4  O   UNL     1      -5.058  22.952  28.495  1.00  0.00    -0.550 OA
ENDBRANCH   1   2
BRANCH   1   5
ATOM      5  C   UNL     1      -5.742  26.181  29.271  1.00  0.00     0.006 C 
BRANCH   5   6
ATOM      6  C   UNL     1      -5.672  27.484  30.089  1.00  0.00    -0.003 C 
ATOM      7  C   UNL     1      -4.670  27.408  31.241  1.00  0.00     0.004 C 
ENDBRANCH   5   6
ENDBRANCH   1   5
TORSDOF 3
ENDMDL
MODEL 8
REMARK VINA RESULT:    -2.533      2.903      3.726
REMARK INTER + INTRA:          -3.012
REMARK INTER:                  -2.989
REMARK INTRA:                  -0.023
REMARK UNBOUND:                -0.034
REMARK SMILES CCCCC(=O)[O-]
REMARK SMILES IDX 4 1 5 2 6 3 7 4 3 5 2 6 1 7
REMARK H PARENT
REMARK Flexibility Score: inf
ROOT
ATOM      1  C   UNL     1      -5.349  37.455  20.108  1.00  0.00     0.053 C 
ENDROOT
BRANCH   1   2
ATOM      2  C   UNL     1      -5.577  37.966  21.497  1.00  0.00     0.041 C 
ATOM      3  O   UNL     1      -5.813  37.162  22.438  1.00  0.00    -0.550 OA
ATOM      4  O   UNL     1      -5.500  39.328  21.758  1.00  0.00    -0.550 OA
ENDBRANCH   1   2
BRANCH   1   5
ATOM      5  C   UNL     1      -5.365  35.919  20.051  1.00  0.00     0.006 C 
BRANCH   5   6
ATOM      6  C   UNL     1      -4.629  35.326  18.836  1.00  0.00    -0.003 C 
ATOM      7  C   UNL     1      -5.289  34.053  18.306  1.00  0.00     0.004 C 
ENDBRANCH   5   6
ENDBRANCH   1   5
TORSDOF 3
ENDMDL
