MODEL 1
REMARK VINA RESULT:    -4.607      0.000      0.000
REMARK INTER + INTRA:          -6.142
REMARK INTER:                  -6.223
REMARK INTRA:                   0.081
REMARK UNBOUND:                 0.081
REMARK SMILES C=C(C)[C@@H]1CC[C@H](C)C2=C(C1)[C@H](C)CC2
REMARK SMILES IDX 10 1 9 2 15 3 14 4 12 5 13 6 7 7 8 8 6 9 11 11 4 12 5 13
REMARK SMILES IDX 2 15 1 16 3 17
REMARK H PARENT
REMARK Flexibility Score: 80.00
ROOT
ATOM      1  C   UNL     1     105.721 102.614 128.142  1.00  0.00    -0.067 C 
ATOM      2  C   UNL     1     106.960 103.086 128.365  1.00  0.00    -0.068 C 
ATOM      3  C   UNL     1     107.909 101.959 128.642  1.00  0.00     0.032 C 
ATOM      4  C   UNL     1     107.131 100.694 128.292  1.00  0.00     0.012 C 
ATOM      5  C   UNL     1     105.660 101.119 128.241  1.00  0.00     0.012 C 
ATOM      6  C   UNL     1     104.907 100.684 129.505  1.00  0.00     0.012 C 
ENDROOT
BRANCH   2   7
ATOM      7  C   UNL     1     107.342 104.554 128.582  1.00  0.00     0.012 C 
ATOM      8  C   UNL     1     108.850 104.706 128.846  1.00  0.00     0.012 C 
BRANCH   7   9
ATOM      9  C   UNL     1     106.935 105.458 127.397  1.00  0.00     0.008 CG0
ATOM     10  G   UNL     1     105.430 105.785 127.368  1.00  0.00     0.000 G0
ENDBRANCH   7   9
ENDBRANCH   2   7
BRANCH   1  11
ATOM     11  C   UNL     1     104.487 103.433 127.817  1.00  0.00     0.039 C 
BRANCH  11  12
ATOM     12  C   UNL     1     104.592 104.883 128.331  1.00  0.00     0.018 C 
BRANCH  12  13
ATOM     13  C   UNL     1     105.429 105.773 127.385  1.00  0.00     0.009 CG0
ATOM     14  G   UNL     1     106.939 105.468 127.381  1.00  0.00     0.000 G0
ENDBRANCH  12  13
BRANCH  12  15
ATOM     15  C   UNL     1     103.211 105.493 128.533  1.00  0.00    -0.077 C 
ATOM     16  C   UNL     1     102.111 104.727 128.445  1.00  0.00     0.008 C 
ATOM     17  C   UNL     1     103.049 106.955 128.869  1.00  0.00     0.039 C 
ENDBRANCH  12  15
ENDBRANCH  11  12
ENDBRANCH   1  11
TORSDOF 1
ENDMDL
MODEL 2
REMARK VINA RESULT:    -4.584      2.161      4.924
REMARK INTER + INTRA:          -6.112
REMARK INTER:                  -6.198
REMARK INTRA:                   0.087
REMARK UNBOUND:                 0.081
REMARK SMILES C=C(C)[C@@H]1CC[C@H](C)C2=C(C1)[C@H](C)CC2
REMARK SMILES IDX 10 1 9 2 15 3 14 4 12 5 13 6 7 7 8 8 6 9 11 11 4 12 5 13
REMARK SMILES IDX 2 15 1 16 3 17
REMARK H PARENT
REMARK Flexibility Score: 80.00
ROOT
ATOM      1  C   UNL     1     102.578 106.713 128.093  1.00  0.00    -0.067 C 
ATOM      2  C   UNL     1     103.058 105.466 128.245  1.00  0.00    -0.068 C 
ATOM      3  C   UNL     1     101.939 104.501 128.501  1.00  0.00     0.032 C 
ATOM      4  C   UNL     1     100.665 105.290 128.216  1.00  0.00     0.012 C 
ATOM      5  C   UNL     1     101.086 106.764 128.227  1.00  0.00     0.012 C 
ATOM      6  C   UNL     1     100.677 107.453 129.536  1.00  0.00     0.012 C 
ENDROOT
BRANCH   2   7
ATOM      7  C   UNL     1     104.531 105.079 128.412  1.00  0.00     0.012 C 
ATOM      8  C   UNL     1     104.692 103.561 128.605  1.00  0.00     0.012 C 
BRANCH   7   9
ATOM      9  C   UNL     1     105.407 105.540 127.226  1.00  0.00     0.008 CG0
ATOM     10  G   UNL     1     105.730 107.046 127.256  1.00  0.00     0.000 G0
ENDBRANCH   7   9
ENDBRANCH   2   7
BRANCH   1  11
ATOM     11  C   UNL     1     103.387 107.963 127.810  1.00  0.00     0.039 C 
BRANCH  11  12
ATOM     12  C   UNL     1     104.849 107.837 128.281  1.00  0.00     0.018 C 
BRANCH  12  13
ATOM     13  C   UNL     1     105.715 107.045 127.275  1.00  0.00     0.009 CG0
ATOM     14  G   UNL     1     105.407 105.537 127.207  1.00  0.00     0.000 G0
ENDBRANCH  12  13
BRANCH  12  15
ATOM     15  C   UNL     1     105.465 109.207 128.530  1.00  0.00    -0.077 C 
ATOM     16  C   UNL     1     104.738 110.321 128.349  1.00  0.00     0.008 C 
ATOM     17  C   UNL     1     106.886 109.344 129.018  1.00  0.00     0.039 C 
ENDBRANCH  12  15
ENDBRANCH  11  12
ENDBRANCH   1  11
TORSDOF 1
ENDMDL
MODEL 3
REMARK VINA RESULT:    -4.574      3.504      7.026
REMARK INTER + INTRA:          -6.098
REMARK INTER:                  -6.188
REMARK INTRA:                   0.090
REMARK UNBOUND:                 0.081
REMARK SMILES C=C(C)[C@@H]1CC[C@H](C)C2=C(C1)[C@H](C)CC2
REMARK SMILES IDX 10 1 9 2 15 3 14 4 12 5 13 6 7 7 8 8 6 9 11 11 4 12 5 13
REMARK SMILES IDX 2 15 1 16 3 17
REMARK H PARENT
REMARK Flexibility Score: 80.00
ROOT
ATOM      1  C   UNL     1     106.689 109.917 128.078  1.00  0.00    -0.067 C 
ATOM      2  C   UNL     1     105.451 109.442 128.307  1.00  0.00    -0.068 C 
ATOM      3  C   UNL     1     104.510 110.565 128.626  1.00  0.00     0.032 C 
ATOM      4  C   UNL     1     105.286 111.836 128.295  1.00  0.00     0.012 C 
ATOM      5  C   UNL     1     106.755 111.409 128.213  1.00  0.00     0.012 C 
ATOM      6  C   UNL     1     107.528 111.811 129.476  1.00  0.00     0.012 C 
ENDROOT
BRANCH   2   7
ATOM      7  C   UNL     1     105.069 107.970 128.494  1.00  0.00     0.012 C 
ATOM      8  C   UNL     1     103.556 107.812 128.729  1.00  0.00     0.012 C 
BRANCH   7   9
ATOM      9  C   UNL     1     105.498 107.086 127.302  1.00  0.00     0.008 CG0
ATOM     10  G   UNL     1     106.997 106.734 127.313  1.00  0.00     0.000 G0
ENDBRANCH   7   9
ENDBRANCH   2   7
BRANCH   1  11
ATOM     11  C   UNL     1     107.915 109.103 127.715  1.00  0.00     0.039 C 
BRANCH  11  12
ATOM     12  C   UNL     1     107.839 107.657 128.244  1.00  0.00     0.018 C 
BRANCH  12  13
ATOM     13  C   UNL     1     106.996 106.747 127.322  1.00  0.00     0.009 CG0
ATOM     14  G   UNL     1     105.491 107.076 127.293  1.00  0.00     0.000 G0
ENDBRANCH  12  13
BRANCH  12  15
ATOM     15  C   UNL     1     109.231 107.066 128.426  1.00  0.00    -0.077 C 
ATOM     16  C   UNL     1     110.302 107.870 128.520  1.00  0.00     0.008 C 
ATOM     17  C   UNL     1     109.434 105.575 128.539  1.00  0.00     0.039 C 
ENDBRANCH  12  15
ENDBRANCH  11  12
ENDBRANCH   1  11
TORSDOF 1
ENDMDL
MODEL 4
REMARK VINA RESULT:    -4.499      3.090      5.031
REMARK INTER + INTRA:          -5.997
REMARK INTER:                  -6.119
REMARK INTRA:                   0.122
REMARK UNBOUND:                 0.081
REMARK SMILES C=C(C)[C@@H]1CC[C@H](C)C2=C(C1)[C@H](C)CC2
REMARK SMILES IDX 10 1 9 2 15 3 14 4 12 5 13 6 7 7 8 8 6 9 11 11 4 12 5 13
REMARK SMILES IDX 2 15 1 16 3 17
REMARK H PARENT
REMARK Flexibility Score: 80.00
ROOT
ATOM      1  C   UNL     1     103.924 107.303 127.816  1.00  0.00    -0.067 C 
ATOM      2  C   UNL     1     104.670 106.557 128.649  1.00  0.00    -0.068 C 
ATOM      3  C   UNL     1     104.032 105.218 128.868  1.00  0.00     0.032 C 
ATOM      4  C   UNL     1     102.913 105.141 127.834  1.00  0.00     0.012 C 
ATOM      5  C   UNL     1     102.689 106.582 127.366  1.00  0.00     0.012 C 
ATOM      6  C   UNL     1     101.434 107.191 128.007  1.00  0.00     0.012 C 
ENDROOT
BRANCH   2   7
ATOM      7  C   UNL     1     105.856 107.049 129.486  1.00  0.00     0.012 C 
ATOM      8  C   UNL     1     106.447 105.913 130.339  1.00  0.00     0.012 C 
BRANCH   7   9
ATOM      9  C   UNL     1     106.974 107.678 128.625  1.00  0.00     0.008 CG0
ATOM     10  G   UNL     1     106.644 109.105 128.145  1.00  0.00     0.000 G0
ENDBRANCH   7   9
ENDBRANCH   2   7
BRANCH   1  11
ATOM     11  C   UNL     1     104.233 108.709 127.341  1.00  0.00     0.039 C 
BRANCH  11  12
ATOM     12  C   UNL     1     105.142 109.475 128.322  1.00  0.00     0.018 C 
BRANCH  12  13
ATOM     13  C   UNL     1     106.630 109.093 128.153  1.00  0.00     0.009 CG0
ATOM     14  G   UNL     1     106.985 107.666 128.614  1.00  0.00     0.000 G0
ENDBRANCH  12  13
BRANCH  12  15
ATOM     15  C   UNL     1     104.971 110.981 128.165  1.00  0.00    -0.077 C 
ATOM     16  C   UNL     1     104.869 111.768 129.248  1.00  0.00     0.008 C 
ATOM     17  C   UNL     1     104.949 111.622 126.800  1.00  0.00     0.039 C 
ENDBRANCH  12  15
ENDBRANCH  11  12
ENDBRANCH   1  11
TORSDOF 1
ENDMDL
MODEL 5
REMARK VINA RESULT:    -4.487      1.666      4.855
REMARK INTER + INTRA:          -5.980
REMARK INTER:                  -6.111
REMARK INTRA:                   0.131
REMARK UNBOUND:                 0.081
REMARK SMILES C=C(C)[C@@H]1CC[C@H](C)C2=C(C1)[C@H](C)CC2
REMARK SMILES IDX 10 1 9 2 15 3 14 4 12 5 13 6 7 7 8 8 6 9 11 11 4 12 5 13
REMARK SMILES IDX 2 15 1 16 3 17
REMARK H PARENT
REMARK Flexibility Score: 80.00
ROOT
ATOM      1  C   UNL     1     102.612 105.300 128.668  1.00  0.00    -0.067 C 
ATOM      2  C   UNL     1     103.097 106.555 128.692  1.00  0.00    -0.068 C 
ATOM      3  C   UNL     1     101.985 107.543 128.877  1.00  0.00     0.032 C 
ATOM      4  C   UNL     1     100.764 106.702 129.235  1.00  0.00     0.012 C 
ATOM      5  C   UNL     1     101.121 105.269 128.826  1.00  0.00     0.012 C 
ATOM      6  C   UNL     1     100.439 104.875 127.510  1.00  0.00     0.012 C 
ENDROOT
BRANCH   2   7
ATOM      7  C   UNL     1     104.522 106.980 128.321  1.00  0.00     0.012 C 
ATOM      8  C   UNL     1     104.713 108.497 128.487  1.00  0.00     0.012 C 
BRANCH   7   9
ATOM      9  C   UNL     1     105.599 106.235 129.141  1.00  0.00     0.008 CG0
ATOM     10  G   UNL     1     105.866 104.803 128.640  1.00  0.00     0.000 G0
ENDBRANCH   7   9
ENDBRANCH   2   7
BRANCH   1  11
ATOM     11  C   UNL     1     103.415 104.025 128.510  1.00  0.00     0.039 C 
BRANCH  11  12
ATOM     12  C   UNL     1     104.726 104.248 127.731  1.00  0.00     0.018 C 
BRANCH  12  13
ATOM     13  C   UNL     1     105.851 104.799 128.636  1.00  0.00     0.009 CG0
ATOM     14  G   UNL     1     105.622 106.233 129.149  1.00  0.00     0.000 G0
ENDBRANCH  12  13
BRANCH  12  15
ATOM     15  C   UNL     1     105.187 102.964 127.053  1.00  0.00    -0.077 C 
ATOM     16  C   UNL     1     105.468 102.953 125.740  1.00  0.00     0.008 C 
ATOM     17  C   UNL     1     105.371 101.691 127.843  1.00  0.00     0.039 C 
ENDBRANCH  12  15
ENDBRANCH  11  12
ENDBRANCH   1  11
TORSDOF 1
ENDMDL
MODEL 6
REMARK VINA RESULT:    -4.485      3.593      5.853
REMARK INTER + INTRA:          -5.977
REMARK INTER:                  -6.107
REMARK INTRA:                   0.129
REMARK UNBOUND:                 0.081
REMARK SMILES C=C(C)[C@@H]1CC[C@H](C)C2=C(C1)[C@H](C)CC2
REMARK SMILES IDX 10 1 9 2 15 3 14 4 12 5 13 6 7 7 8 8 6 9 11 11 4 12 5 13
REMARK SMILES IDX 2 15 1 16 3 17
REMARK H PARENT
REMARK Flexibility Score: 80.00
ROOT
ATOM      1  C   UNL     1     105.176 109.602 128.532  1.00  0.00    -0.067 C 
ATOM      2  C   UNL     1     106.346 108.940 128.590  1.00  0.00    -0.068 C 
ATOM      3  C   UNL     1     107.494 109.904 128.611  1.00  0.00     0.032 C 
ATOM      4  C   UNL     1     106.856 111.272 128.831  1.00  0.00     0.012 C 
ATOM      5  C   UNL     1     105.370 111.088 128.502  1.00  0.00     0.012 C 
ATOM      6  C   UNL     1     105.028 111.657 127.119  1.00  0.00     0.012 C 
ENDROOT
BRANCH   2   7
ATOM      7  C   UNL     1     106.542 107.433 128.392  1.00  0.00     0.012 C 
ATOM      8  C   UNL     1     108.021 107.038 128.540  1.00  0.00     0.012 C 
BRANCH   7   9
ATOM      9  C   UNL     1     105.686 106.588 129.362  1.00  0.00     0.008 CG0
ATOM     10  G   UNL     1     104.206 106.494 128.946  1.00  0.00     0.000 G0
ENDBRANCH   7   9
ENDBRANCH   2   7
BRANCH   1  11
ATOM     11  C   UNL     1     103.792 108.987 128.505  1.00  0.00     0.039 C 
BRANCH  11  12
ATOM     12  C   UNL     1     103.789 107.569 127.900  1.00  0.00     0.018 C 
BRANCH  12  13
ATOM     13  C   UNL     1     104.210 106.498 128.933  1.00  0.00     0.009 CG0
ATOM     14  G   UNL     1     105.684 106.573 129.373  1.00  0.00     0.000 G0
ENDBRANCH  12  13
BRANCH  12  15
ATOM     15  C   UNL     1     102.424 107.223 127.320  1.00  0.00    -0.077 C 
ATOM     16  C   UNL     1     102.292 106.951 126.011  1.00  0.00     0.008 C 
ATOM     17  C   UNL     1     101.202 107.143 128.202  1.00  0.00     0.039 C 
ENDBRANCH  12  15
ENDBRANCH  11  12
ENDBRANCH   1  11
TORSDOF 1
ENDMDL
MODEL 7
REMARK VINA RESULT:    -4.473      3.286      5.470
REMARK INTER + INTRA:          -5.962
REMARK INTER:                  -6.112
REMARK INTRA:                   0.150
REMARK UNBOUND:                 0.081
REMARK SMILES C=C(C)[C@@H]1CC[C@H](C)C2=C(C1)[C@H](C)CC2
REMARK SMILES IDX 10 1 9 2 15 3 14 4 12 5 13 6 7 7 8 8 6 9 11 11 4 12 5 13
REMARK SMILES IDX 2 15 1 16 3 17
REMARK H PARENT
REMARK Flexibility Score: 80.00
ROOT
ATOM      1  C   UNL     1     109.650 107.248 128.421  1.00  0.00    -0.067 C 
ATOM      2  C   UNL     1     109.003 106.070 128.468  1.00  0.00    -0.068 C 
ATOM      3  C   UNL     1     109.979 104.932 128.412  1.00  0.00     0.032 C 
ATOM      4  C   UNL     1     111.348 105.579 128.596  1.00  0.00     0.012 C 
ATOM      5  C   UNL     1     111.136 107.071 128.323  1.00  0.00     0.012 C 
ATOM      6  C   UNL     1     111.644 107.465 126.930  1.00  0.00     0.012 C 
ENDROOT
BRANCH   2   7
ATOM      7  C   UNL     1     107.491 105.864 128.326  1.00  0.00     0.012 C 
ATOM      8  C   UNL     1     107.110 104.385 128.509  1.00  0.00     0.012 C 
BRANCH   7   9
ATOM      9  C   UNL     1     106.676 106.729 129.312  1.00  0.00     0.008 CG0
ATOM     10  G   UNL     1     106.522 108.193 128.856  1.00  0.00     0.000 G0
ENDBRANCH   7   9
ENDBRANCH   2   7
BRANCH   1  11
ATOM     11  C   UNL     1     109.021 108.626 128.465  1.00  0.00     0.039 C 
BRANCH  11  12
ATOM     12  C   UNL     1     107.610 108.648 127.845  1.00  0.00     0.018 C 
BRANCH  12  13
ATOM     13  C   UNL     1     106.528 108.195 128.851  1.00  0.00     0.009 CG0
ATOM     14  G   UNL     1     106.657 106.734 129.321  1.00  0.00     0.000 G0
ENDBRANCH  12  13
BRANCH  12  15
ATOM     15  C   UNL     1     107.271 110.032 127.304  1.00  0.00    -0.077 C 
ATOM     16  C   UNL     1     107.100 110.222 125.986  1.00  0.00     0.008 C 
ATOM     17  C   UNL     1     107.084 111.205 128.234  1.00  0.00     0.039 C 
ENDBRANCH  12  15
ENDBRANCH  11  12
ENDBRANCH   1  11
TORSDOF 1
ENDMDL
MODEL 8
REMARK VINA RESULT:    -4.444      1.592      4.180
REMARK INTER + INTRA:          -5.923
REMARK INTER:                  -6.072
REMARK INTRA:                   0.149
REMARK UNBOUND:                 0.081
REMARK SMILES C=C(C)[C@@H]1CC[C@H](C)C2=C(C1)[C@H](C)CC2
REMARK SMILES IDX 10 1 9 2 15 3 14 4 12 5 13 6 7 7 8 8 6 9 11 11 4 12 5 13
REMARK SMILES IDX 2 15 1 16 3 17
REMARK H PARENT
REMARK Flexibility Score: 80.00
ROOT
ATOM      1  C   UNL     1     107.246 102.850 128.508  1.00  0.00    -0.067 C 
ATOM      2  C   UNL     1     106.046 103.449 128.610  1.00  0.00    -0.068 C 
ATOM      3  C   UNL     1     104.949 102.427 128.629  1.00  0.00     0.032 C 
ATOM      4  C   UNL     1     105.661 101.088 128.796  1.00  0.00     0.012 C 
ATOM      5  C   UNL     1     107.127 101.357 128.440  1.00  0.00     0.012 C 
ATOM      6  C   UNL     1     107.465 100.844 127.034  1.00  0.00     0.012 C 
ENDROOT
BRANCH   2   7
ATOM      7  C   UNL     1     105.770 104.949 128.460  1.00  0.00     0.012 C 
ATOM      8  C   UNL     1     104.282 105.268 128.689  1.00  0.00     0.012 C 
BRANCH   7   9
ATOM      9  C   UNL     1     106.631 105.812 129.409  1.00  0.00     0.008 CG0
ATOM     10  G   UNL     1     108.074 106.014 128.909  1.00  0.00     0.000 G0
ENDBRANCH   7   9
ENDBRANCH   2   7
BRANCH   1  11
ATOM     11  C   UNL     1     108.597 103.535 128.468  1.00  0.00     0.039 C 
BRANCH  11  12
ATOM     12  C   UNL     1     108.521 104.950 127.859  1.00  0.00     0.018 C 
BRANCH  12  13
ATOM     13  C   UNL     1     108.072 106.004 128.896  1.00  0.00     0.009 CG0
ATOM     14  G   UNL     1     106.637 105.815 129.425  1.00  0.00     0.000 G0
ENDBRANCH  12  13
BRANCH  12  15
ATOM     15  C   UNL     1     109.858 105.357 127.251  1.00  0.00    -0.077 C 
ATOM     16  C   UNL     1     109.918 105.811 125.989  1.00  0.00     0.008 C 
ATOM     17  C   UNL     1     111.130 105.293 128.058  1.00  0.00     0.039 C 
ENDBRANCH  12  15
ENDBRANCH  11  12
ENDBRANCH   1  11
TORSDOF 1
ENDMDL
MODEL 9
REMARK VINA RESULT:    -4.391      2.108      4.918
REMARK INTER + INTRA:          -5.851
REMARK INTER:                  -5.973
REMARK INTRA:                   0.122
REMARK UNBOUND:                 0.081
REMARK SMILES C=C(C)[C@@H]1CC[C@H](C)C2=C(C1)[C@H](C)CC2
REMARK SMILES IDX 10 1 9 2 15 3 14 4 12 5 13 6 7 7 8 8 6 9 11 11 4 12 5 13
REMARK SMILES IDX 2 15 1 16 3 17
REMARK H PARENT
REMARK Flexibility Score: 80.00
ROOT
ATOM      1  C   UNL     1     109.741 105.699 127.944  1.00  0.00    -0.067 C 
ATOM      2  C   UNL     1     109.269 106.932 128.201  1.00  0.00    -0.068 C 
ATOM      3  C   UNL     1     110.399 107.880 128.470  1.00  0.00     0.032 C 
ATOM      4  C   UNL     1     111.658 107.115 128.076  1.00  0.00     0.012 C 
ATOM      5  C   UNL     1     111.238 105.643 128.008  1.00  0.00     0.012 C 
ATOM      6  C   UNL     1     111.705 104.868 129.247  1.00  0.00     0.012 C 
ENDROOT
BRANCH   2   7
ATOM      7  C   UNL     1     107.805 107.303 128.459  1.00  0.00     0.012 C 
ATOM      8  C   UNL     1     107.635 108.824 128.620  1.00  0.00     0.012 C 
BRANCH   7   9
ATOM      9  C   UNL     1     106.856 106.795 127.351  1.00  0.00     0.008 CG0
ATOM     10  G   UNL     1     106.491 105.306 127.496  1.00  0.00     0.000 G0
ENDBRANCH   7   9
ENDBRANCH   2   7
BRANCH   1  11
ATOM     11  C   UNL     1     108.919 104.468 127.615  1.00  0.00     0.039 C 
BRANCH  11  12
ATOM     12  C   UNL     1     107.541 104.479 128.306  1.00  0.00     0.018 C 
BRANCH  12  13
ATOM     13  C   UNL     1     106.501 105.299 127.510  1.00  0.00     0.009 CG0
ATOM     14  G   UNL     1     106.855 106.788 127.331  1.00  0.00     0.000 G0
ENDBRANCH  12  13
BRANCH  12  15
ATOM     15  C   UNL     1     107.027 103.062 128.527  1.00  0.00    -0.077 C 
ATOM     16  C   UNL     1     107.871 102.019 128.474  1.00  0.00     0.008 C 
ATOM     17  C   UNL     1     105.575 102.802 128.844  1.00  0.00     0.039 C 
ENDBRANCH  12  15
ENDBRANCH  11  12
ENDBRANCH   1  11
TORSDOF 1
ENDMDL
