MODEL 1
REMARK VINA RESULT:    -3.915      0.000      0.000
REMARK INTER + INTRA:          -6.430
REMARK INTER:                  -5.975
REMARK INTRA:                  -0.455
REMARK UNBOUND:                -0.455
REMARK SMILES CC1=CCC[C@H](C)C(=O)C[C@H](C(C)C)C(=O)C1
REMARK SMILES IDX 8 1 9 2 6 3 7 4 5 5 4 6 3 7 2 8 1 9 10 11 11 12 15 13 16 14
REMARK SMILES IDX 17 15 12 17 13 18 14 19
REMARK H PARENT
REMARK Flexibility Score: 70.00
ROOT
ATOM      1  C   UNL     1     -10.110  -4.476 -15.585  1.00  0.00     0.136 C 
ATOM      2  O   UNL     1     -10.373  -4.520 -16.777  1.00  0.00    -0.299 OA
ENDROOT
BRANCH   1   3
ATOM      3  C   UNL     1     -10.969  -5.237 -14.585  1.00  0.00     0.053 C 
ATOM      4  C   UNL     1     -12.361  -4.605 -14.411  1.00  0.00     0.016 C 
BRANCH   3   5
ATOM      5  C   UNL     1     -11.067  -6.736 -14.944  1.00  0.00     0.015 C 
BRANCH   5   6
ATOM      6  C   UNL     1     -10.155  -7.624 -14.077  1.00  0.00     0.028 C 
BRANCH   6   7
ATOM      7  C   UNL     1      -9.060  -8.319 -14.851  1.00  0.00    -0.028 C 
ATOM      8  C   UNL     1      -7.765  -7.922 -14.961  1.00  0.00    -0.070 CG0
ATOM      9  C   UNL     1      -6.897  -8.691 -15.929  1.00  0.00     0.039 C 
ATOM     10  G   UNL     1      -7.102  -6.847 -14.104  1.00  0.00     0.000 G0
ENDBRANCH   6   7
ENDBRANCH   5   6
ENDBRANCH   3   5
ENDBRANCH   1   3
BRANCH   1  11
ATOM     11  C   UNL     1      -8.922  -3.669 -15.111  1.00  0.00     0.087 C 
BRANCH  11  12
ATOM     12  C   UNL     1      -7.993  -4.378 -14.082  1.00  0.00     0.066 C 
BRANCH  12  13
ATOM     13  C   UNL     1      -7.092  -5.444 -14.700  1.00  0.00     0.140 C 
ATOM     14  O   UNL     1      -6.308  -5.155 -15.591  1.00  0.00    -0.299 OA
BRANCH  13  15
ATOM     15  C   UNL     1      -7.084  -6.835 -14.115  1.00  0.00     0.106 CG0
ATOM     16  G   UNL     1      -7.771  -7.914 -14.949  1.00  0.00     0.000 G0
ENDBRANCH  13  15
ENDBRANCH  12  13
BRANCH  12  17
ATOM     17  C   UNL     1      -7.279  -3.402 -13.092  1.00  0.00    -0.006 C 
ATOM     18  C   UNL     1      -6.717  -4.068 -11.827  1.00  0.00     0.008 C 
ATOM     19  C   UNL     1      -8.177  -2.211 -12.718  1.00  0.00     0.008 C 
ENDBRANCH  12  17
ENDBRANCH  11  12
ENDBRANCH   1  11
TORSDOF 1
ENDMDL
MODEL 2
REMARK VINA RESULT:    -3.619      6.187      9.095
REMARK INTER + INTRA:          -5.978
REMARK INTER:                  -5.523
REMARK INTRA:                  -0.455
REMARK UNBOUND:                -0.455
REMARK SMILES CC1=CCC[C@H](C)C(=O)C[C@H](C(C)C)C(=O)C1
REMARK SMILES IDX 8 1 9 2 6 3 7 4 5 5 4 6 3 7 2 8 1 9 10 11 11 12 15 13 16 14
REMARK SMILES IDX 17 15 12 17 13 18 14 19
REMARK H PARENT
REMARK Flexibility Score: 70.00
ROOT
ATOM      1  C   UNL     1      -6.641   0.605  -9.536  1.00  0.00     0.136 C 
ATOM      2  O   UNL     1      -7.663   0.981  -8.981  1.00  0.00    -0.299 OA
ENDROOT
BRANCH   1   3
ATOM      3  C   UNL     1      -5.749   1.606 -10.255  1.00  0.00     0.053 C 
ATOM      4  C   UNL     1      -6.551   2.762 -10.878  1.00  0.00     0.016 C 
BRANCH   3   5
ATOM      5  C   UNL     1      -4.623   2.127  -9.335  1.00  0.00     0.015 C 
BRANCH   5   6
ATOM      6  C   UNL     1      -3.225   2.018  -9.972  1.00  0.00     0.028 C 
BRANCH   6   7
ATOM      7  C   UNL     1      -2.249   1.191  -9.169  1.00  0.00    -0.028 C 
ATOM      8  C   UNL     1      -2.077  -0.155  -9.236  1.00  0.00    -0.070 CG0
ATOM      9  C   UNL     1      -1.156  -0.777  -8.213  1.00  0.00     0.039 C 
ATOM     10  G   UNL     1      -2.646  -1.059 -10.328  1.00  0.00     0.000 G0
ENDBRANCH   6   7
ENDBRANCH   5   6
ENDBRANCH   3   5
ENDBRANCH   1   3
BRANCH   1  11
ATOM     11  C   UNL     1      -6.268  -0.860  -9.498  1.00  0.00     0.087 C 
BRANCH  11  12
ATOM     12  C   UNL     1      -5.240  -1.321 -10.573  1.00  0.00     0.066 C 
BRANCH  12  13
ATOM     13  C   UNL     1      -3.914  -1.803  -9.990  1.00  0.00     0.140 C 
ATOM     14  O   UNL     1      -3.860  -2.835  -9.337  1.00  0.00    -0.299 OA
BRANCH  13  15
ATOM     15  C   UNL     1      -2.645  -1.064 -10.332  1.00  0.00     0.106 CG0
ATOM     16  G   UNL     1      -2.086  -0.155  -9.239  1.00  0.00     0.000 G0
ENDBRANCH  13  15
ENDBRANCH  12  13
BRANCH  12  17
ATOM     17  C   UNL     1      -5.849  -2.243 -11.679  1.00  0.00    -0.006 C 
ATOM     18  C   UNL     1      -5.162  -2.140 -13.050  1.00  0.00     0.008 C 
ATOM     19  C   UNL     1      -7.366  -2.036 -11.823  1.00  0.00     0.008 C 
ENDBRANCH  12  17
ENDBRANCH  11  12
ENDBRANCH   1  11
TORSDOF 1
ENDMDL
MODEL 3
REMARK VINA RESULT:    -3.545      2.154      5.203
REMARK INTER + INTRA:          -5.864
REMARK INTER:                  -5.433
REMARK INTRA:                  -0.432
REMARK UNBOUND:                -0.455
REMARK SMILES CC1=CCC[C@H](C)C(=O)C[C@H](C(C)C)C(=O)C1
REMARK SMILES IDX 8 1 9 2 6 3 7 4 5 5 4 6 3 7 2 8 1 9 10 11 11 12 15 13 16 14
REMARK SMILES IDX 17 15 12 17 13 18 14 19
REMARK H PARENT
REMARK Flexibility Score: 70.00
ROOT
ATOM      1  C   UNL     1      -6.572  -6.010 -11.798  1.00  0.00     0.136 C 
ATOM      2  O   UNL     1      -5.385  -6.133 -12.060  1.00  0.00    -0.299 OA
ENDROOT
BRANCH   1   3
ATOM      3  C   UNL     1      -7.004  -5.250 -10.552  1.00  0.00     0.053 C 
ATOM      4  C   UNL     1      -6.736  -6.043  -9.262  1.00  0.00     0.016 C 
BRANCH   3   5
ATOM      5  C   UNL     1      -6.368  -3.843 -10.496  1.00  0.00     0.015 C 
BRANCH   5   6
ATOM      6  C   UNL     1      -6.959  -2.872 -11.536  1.00  0.00     0.028 C 
BRANCH   6   7
ATOM      7  C   UNL     1      -6.026  -2.559 -12.681  1.00  0.00    -0.028 C 
ATOM      8  C   UNL     1      -6.207  -2.880 -13.989  1.00  0.00    -0.070 CG0
ATOM      9  C   UNL     1      -5.054  -2.607 -14.925  1.00  0.00     0.039 C 
ATOM     10  G   UNL     1      -7.516  -3.382 -14.595  1.00  0.00     0.000 G0
ENDBRANCH   6   7
ENDBRANCH   5   6
ENDBRANCH   3   5
ENDBRANCH   1   3
BRANCH   1  11
ATOM     11  C   UNL     1      -7.607  -6.609 -12.724  1.00  0.00     0.087 C 
BRANCH  11  12
ATOM     12  C   UNL     1      -8.463  -5.587 -13.528  1.00  0.00     0.066 C 
BRANCH  12  13
ATOM     13  C   UNL     1      -7.693  -4.886 -14.645  1.00  0.00     0.140 C 
ATOM     14  O   UNL     1      -7.299  -5.512 -15.617  1.00  0.00    -0.299 OA
BRANCH  13  15
ATOM     15  C   UNL     1      -7.532  -3.387 -14.603  1.00  0.00     0.106 CG0
ATOM     16  G   UNL     1      -6.223  -2.872 -14.008  1.00  0.00     0.000 G0
ENDBRANCH  13  15
ENDBRANCH  12  13
BRANCH  12  17
ATOM     17  C   UNL     1      -9.875  -6.120 -13.933  1.00  0.00    -0.006 C 
ATOM     18  C   UNL     1      -9.873  -7.509 -14.592  1.00  0.00     0.008 C 
ATOM     19  C   UNL     1     -10.636  -5.111 -14.809  1.00  0.00     0.008 C 
ENDBRANCH  12  17
ENDBRANCH  11  12
ENDBRANCH   1  11
TORSDOF 1
ENDMDL
MODEL 4
REMARK VINA RESULT:    -3.524      7.795      9.439
REMARK INTER + INTRA:          -5.832
REMARK INTER:                  -5.719
REMARK INTRA:                  -0.113
REMARK UNBOUND:                -0.455
REMARK SMILES CC1=CCC[C@H](C)C(=O)C[C@H](C(C)C)C(=O)C1
REMARK SMILES IDX 8 1 9 2 6 3 7 4 5 5 4 6 3 7 2 8 1 9 10 11 11 12 15 13 16 14
REMARK SMILES IDX 17 15 12 17 13 18 14 19
REMARK H PARENT
REMARK Flexibility Score: 70.00
ROOT
ATOM      1  C   UNL     1      -5.143   2.087  -8.629  1.00  0.00     0.136 C 
ATOM      2  O   UNL     1      -4.806   2.031  -7.455  1.00  0.00    -0.299 OA
ENDROOT
BRANCH   1   3
ATOM      3  C   UNL     1      -6.618   2.137  -8.999  1.00  0.00     0.053 C 
ATOM      4  C   UNL     1      -6.859   2.832 -10.349  1.00  0.00     0.016 C 
BRANCH   3   5
ATOM      5  C   UNL     1      -7.262   0.733  -8.959  1.00  0.00     0.015 C 
BRANCH   5   6
ATOM      6  C   UNL     1      -6.759  -0.193 -10.082  1.00  0.00     0.028 C 
BRANCH   6   7
ATOM      7  C   UNL     1      -5.928  -1.355  -9.593  1.00  0.00    -0.028 C 
ATOM      8  C   UNL     1      -4.629  -1.612  -9.899  1.00  0.00    -0.070 CG0
ATOM      9  C   UNL     1      -4.063  -2.928  -9.420  1.00  0.00     0.039 C 
ATOM     10  G   UNL     1      -3.678  -0.631 -10.581  1.00  0.00     0.000 G0
ENDBRANCH   6   7
ENDBRANCH   5   6
ENDBRANCH   3   5
ENDBRANCH   1   3
BRANCH   1  11
ATOM     11  C   UNL     1      -4.084   2.114  -9.708  1.00  0.00     0.087 C 
BRANCH  11  12
ATOM     12  C   UNL     1      -2.718   1.470  -9.328  1.00  0.00     0.066 C 
BRANCH  12  13
ATOM     13  C   UNL     1      -2.601  -0.001  -9.723  1.00  0.00     0.140 C 
ATOM     14  O   UNL     1      -1.707  -0.698  -9.267  1.00  0.00    -0.299 OA
BRANCH  13  15
ATOM     15  C   UNL     1      -3.673  -0.622 -10.583  1.00  0.00     0.106 CG0
ATOM     16  G   UNL     1      -4.608  -1.603  -9.879  1.00  0.00     0.000 G0
ENDBRANCH  13  15
ENDBRANCH  12  13
BRANCH  12  17
ATOM     17  C   UNL     1      -1.478   2.351  -9.685  1.00  0.00    -0.006 C 
ATOM     18  C   UNL     1      -1.178   3.476  -8.682  1.00  0.00     0.008 C 
ATOM     19  C   UNL     1      -1.573   2.916 -11.112  1.00  0.00     0.008 C 
ENDBRANCH  12  17
ENDBRANCH  11  12
ENDBRANCH   1  11
TORSDOF 1
ENDMDL
MODEL 5
REMARK VINA RESULT:    -3.519      6.011      7.779
REMARK INTER + INTRA:          -5.825
REMARK INTER:                  -5.262
REMARK INTRA:                  -0.563
REMARK UNBOUND:                -0.455
REMARK SMILES CC1=CCC[C@H](C)C(=O)C[C@H](C(C)C)C(=O)C1
REMARK SMILES IDX 8 1 9 2 6 3 7 4 5 5 4 6 3 7 2 8 1 9 10 11 11 12 15 13 16 14
REMARK SMILES IDX 17 15 12 17 13 18 14 19
REMARK H PARENT
REMARK Flexibility Score: 70.00
ROOT
ATOM      1  C   UNL     1      -5.676   1.463 -10.432  1.00  0.00     0.136 C 
ATOM      2  O   UNL     1      -6.177   2.570 -10.304  1.00  0.00    -0.299 OA
ENDROOT
BRANCH   1   3
ATOM      3  C   UNL     1      -6.342   0.246  -9.805  1.00  0.00     0.053 C 
ATOM      4  C   UNL     1      -7.355   0.632  -8.714  1.00  0.00     0.016 C 
BRANCH   3   5
ATOM      5  C   UNL     1      -6.980  -0.667 -10.876  1.00  0.00     0.015 C 
BRANCH   5   6
ATOM      6  C   UNL     1      -6.406  -2.097 -10.868  1.00  0.00     0.028 C 
BRANCH   6   7
ATOM      7  C   UNL     1      -5.809  -2.524 -12.187  1.00  0.00    -0.028 C 
ATOM      8  C   UNL     1      -4.507  -2.415 -12.564  1.00  0.00    -0.070 CG0
ATOM      9  C   UNL     1      -4.181  -2.758 -13.998  1.00  0.00     0.039 C 
ATOM     10  G   UNL     1      -3.348  -2.088 -11.625  1.00  0.00     0.000 G0
ENDBRANCH   6   7
ENDBRANCH   5   6
ENDBRANCH   3   5
ENDBRANCH   1   3
BRANCH   1  11
ATOM     11  C   UNL     1      -4.397   1.310 -11.224  1.00  0.00     0.087 C 
BRANCH  11  12
ATOM     12  C   UNL     1      -3.349   0.326 -10.626  1.00  0.00     0.066 C 
BRANCH  12  13
ATOM     13  C   UNL     1      -2.811  -0.687 -11.634  1.00  0.00     0.140 C 
ATOM     14  O   UNL     1      -1.892  -0.392 -12.382  1.00  0.00    -0.299 OA
BRANCH  13  15
ATOM     15  C   UNL     1      -3.339  -2.100 -11.613  1.00  0.00     0.106 CG0
ATOM     16  G   UNL     1      -4.491  -2.396 -12.571  1.00  0.00     0.000 G0
ENDBRANCH  13  15
ENDBRANCH  12  13
BRANCH  12  17
ATOM     17  C   UNL     1      -2.262   1.016  -9.740  1.00  0.00    -0.006 C 
ATOM     18  C   UNL     1      -2.569   1.022  -8.234  1.00  0.00     0.008 C 
ATOM     19  C   UNL     1      -1.948   2.440 -10.228  1.00  0.00     0.008 C 
ENDBRANCH  12  17
ENDBRANCH  11  12
ENDBRANCH   1  11
TORSDOF 1
ENDMDL
MODEL 6
REMARK VINA RESULT:    -3.343      1.976      4.179
REMARK INTER + INTRA:          -5.557
REMARK INTER:                  -5.428
REMARK INTRA:                  -0.130
REMARK UNBOUND:                -0.455
REMARK SMILES CC1=CCC[C@H](C)C(=O)C[C@H](C(C)C)C(=O)C1
REMARK SMILES IDX 8 1 9 2 6 3 7 4 5 5 4 6 3 7 2 8 1 9 10 11 11 12 15 13 16 14
REMARK SMILES IDX 17 15 12 17 13 18 14 19
REMARK H PARENT
REMARK Flexibility Score: 70.00
ROOT
ATOM      1  C   UNL     1      -6.598  -3.345 -13.628  1.00  0.00     0.136 C 
ATOM      2  O   UNL     1      -6.041  -3.085 -12.572  1.00  0.00    -0.299 OA
ENDROOT
BRANCH   1   3
ATOM      3  C   UNL     1      -5.777  -3.569 -14.890  1.00  0.00     0.053 C 
ATOM      4  C   UNL     1      -4.965  -2.325 -15.287  1.00  0.00     0.016 C 
BRANCH   3   5
ATOM      5  C   UNL     1      -4.877  -4.819 -14.768  1.00  0.00     0.015 C 
BRANCH   5   6
ATOM      6  C   UNL     1      -5.009  -5.776 -15.967  1.00  0.00     0.028 C 
BRANCH   6   7
ATOM      7  C   UNL     1      -5.476  -7.164 -15.596  1.00  0.00    -0.028 C 
ATOM      8  C   UNL     1      -6.754  -7.552 -15.346  1.00  0.00    -0.070 CG0
ATOM      9  C   UNL     1      -6.952  -8.957 -14.829  1.00  0.00     0.039 C 
ATOM     10  G   UNL     1      -7.999  -6.723 -15.658  1.00  0.00     0.000 G0
ENDBRANCH   6   7
ENDBRANCH   5   6
ENDBRANCH   3   5
ENDBRANCH   1   3
BRANCH   1  11
ATOM     11  C   UNL     1      -8.106  -3.449 -13.671  1.00  0.00     0.087 C 
BRANCH  11  12
ATOM     12  C   UNL     1      -8.687  -4.343 -14.806  1.00  0.00     0.066 C 
BRANCH  12  13
ATOM     13  C   UNL     1      -8.529  -5.840 -14.551  1.00  0.00     0.140 C 
ATOM     14  O   UNL     1      -8.905  -6.335 -13.499  1.00  0.00    -0.299 OA
BRANCH  13  15
ATOM     15  C   UNL     1      -8.021  -6.728 -15.659  1.00  0.00     0.106 CG0
ATOM     16  G   UNL     1      -6.765  -7.538 -15.343  1.00  0.00     0.000 G0
ENDBRANCH  13  15
ENDBRANCH  12  13
BRANCH  12  17
ATOM     17  C   UNL     1     -10.103  -3.903 -15.299  1.00  0.00    -0.006 C 
ATOM     18  C   UNL     1     -11.213  -4.943 -15.077  1.00  0.00     0.008 C 
ATOM     19  C   UNL     1     -10.080  -3.448 -16.768  1.00  0.00     0.008 C 
ENDBRANCH  12  17
ENDBRANCH  11  12
ENDBRANCH   1  11
TORSDOF 1
ENDMDL
MODEL 7
REMARK VINA RESULT:    -3.287      3.940      6.280
REMARK INTER + INTRA:          -5.471
REMARK INTER:                  -5.200
REMARK INTRA:                  -0.271
REMARK UNBOUND:                -0.455
REMARK SMILES CC1=CCC[C@H](C)C(=O)C[C@H](C(C)C)C(=O)C1
REMARK SMILES IDX 8 1 9 2 6 3 7 4 5 5 4 6 3 7 2 8 1 9 10 11 11 12 15 13 16 14
REMARK SMILES IDX 17 15 12 17 13 18 14 19
REMARK H PARENT
REMARK Flexibility Score: 70.00
ROOT
ATOM      1  C   UNL     1      -6.233  -3.982 -14.594  1.00  0.00     0.136 C 
ATOM      2  O   UNL     1      -6.491  -4.717 -15.536  1.00  0.00    -0.299 OA
ENDROOT
BRANCH   1   3
ATOM      3  C   UNL     1      -7.327  -3.125 -13.973  1.00  0.00     0.053 C 
ATOM      4  C   UNL     1      -8.724  -3.480 -14.510  1.00  0.00     0.016 C 
BRANCH   3   5
ATOM      5  C   UNL     1      -7.282  -3.177 -12.429  1.00  0.00     0.015 C 
BRANCH   5   6
ATOM      6  C   UNL     1      -7.472  -1.796 -11.774  1.00  0.00     0.028 C 
BRANCH   6   7
ATOM      7  C   UNL     1      -6.519  -1.522 -10.635  1.00  0.00    -0.028 C 
ATOM      8  C   UNL     1      -5.187  -1.270 -10.732  1.00  0.00    -0.070 CG0
ATOM      9  C   UNL     1      -4.412  -1.192  -9.438  1.00  0.00     0.039 C 
ATOM     10  G   UNL     1      -4.448  -0.947 -12.029  1.00  0.00     0.000 G0
ENDBRANCH   6   7
ENDBRANCH   5   6
ENDBRANCH   3   5
ENDBRANCH   1   3
BRANCH   1  11
ATOM     11  C   UNL     1      -4.824  -3.937 -14.046  1.00  0.00     0.087 C 
BRANCH  11  12
ATOM     12  C   UNL     1      -4.139  -2.539 -14.065  1.00  0.00     0.066 C 
BRANCH  12  13
ATOM     13  C   UNL     1      -3.686  -2.058 -12.689  1.00  0.00     0.140 C 
ATOM     14  O   UNL     1      -2.676  -2.512 -12.173  1.00  0.00    -0.299 OA
BRANCH  13  15
ATOM     15  C   UNL     1      -4.424  -0.924 -12.023  1.00  0.00     0.106 CG0
ATOM     16  G   UNL     1      -5.184  -1.279 -10.747  1.00  0.00     0.000 G0
ENDBRANCH  13  15
ENDBRANCH  12  13
BRANCH  12  17
ATOM     17  C   UNL     1      -3.086  -2.363 -15.206  1.00  0.00    -0.006 C 
ATOM     18  C   UNL     1      -3.683  -2.063 -16.590  1.00  0.00     0.008 C 
ATOM     19  C   UNL     1      -2.125  -3.561 -15.284  1.00  0.00     0.008 C 
ENDBRANCH  12  17
ENDBRANCH  11  12
ENDBRANCH   1  11
TORSDOF 1
ENDMDL
MODEL 8
REMARK VINA RESULT:    -3.282      7.197     10.140
REMARK INTER + INTRA:          -5.464
REMARK INTER:                  -4.810
REMARK INTRA:                  -0.654
REMARK UNBOUND:                -0.455
REMARK SMILES CC1=CCC[C@H](C)C(=O)C[C@H](C(C)C)C(=O)C1
REMARK SMILES IDX 8 1 9 2 6 3 7 4 5 5 4 6 3 7 2 8 1 9 10 11 11 12 15 13 16 14
REMARK SMILES IDX 17 15 12 17 13 18 14 19
REMARK H PARENT
REMARK Flexibility Score: 70.00
ROOT
ATOM      1  C   UNL     1      -2.733   1.300 -10.319  1.00  0.00     0.136 C 
ATOM      2  O   UNL     1      -2.337   2.400 -10.675  1.00  0.00    -0.299 OA
ENDROOT
BRANCH   1   3
ATOM      3  C   UNL     1      -2.294   0.727  -8.979  1.00  0.00     0.053 C 
ATOM      4  C   UNL     1      -0.803   0.348  -8.966  1.00  0.00     0.016 C 
BRANCH   3   5
ATOM      5  C   UNL     1      -2.649   1.674  -7.812  1.00  0.00     0.015 C 
BRANCH   5   6
ATOM      6  C   UNL     1      -4.031   1.382  -7.198  1.00  0.00     0.028 C 
BRANCH   6   7
ATOM      7  C   UNL     1      -5.166   2.125  -7.861  1.00  0.00    -0.028 C 
ATOM      8  C   UNL     1      -6.091   1.607  -8.711  1.00  0.00    -0.070 CG0
ATOM      9  C   UNL     1      -7.029   2.585  -9.378  1.00  0.00     0.039 C 
ATOM     10  G   UNL     1      -6.325   0.117  -8.950  1.00  0.00     0.000 G0
ENDBRANCH   6   7
ENDBRANCH   5   6
ENDBRANCH   3   5
ENDBRANCH   1   3
BRANCH   1  11
ATOM     11  C   UNL     1      -3.668   0.518 -11.215  1.00  0.00     0.087 C 
BRANCH  11  12
ATOM     12  C   UNL     1      -4.399  -0.680 -10.541  1.00  0.00     0.066 C 
BRANCH  12  13
ATOM     13  C   UNL     1      -5.887  -0.436 -10.301  1.00  0.00     0.140 C 
ATOM     14  O   UNL     1      -6.715  -0.771 -11.135  1.00  0.00    -0.299 OA
BRANCH  13  15
ATOM     15  C   UNL     1      -6.340   0.108  -8.969  1.00  0.00     0.106 CG0
ATOM     16  G   UNL     1      -6.080   1.594  -8.731  1.00  0.00     0.000 G0
ENDBRANCH  13  15
ENDBRANCH  12  13
BRANCH  12  17
ATOM     17  C   UNL     1      -4.050  -2.070 -11.166  1.00  0.00    -0.006 C 
ATOM     18  C   UNL     1      -4.444  -3.279 -10.303  1.00  0.00     0.008 C 
ATOM     19  C   UNL     1      -2.569  -2.158 -11.569  1.00  0.00     0.008 C 
ENDBRANCH  12  17
ENDBRANCH  11  12
ENDBRANCH   1  11
TORSDOF 1
ENDMDL
MODEL 9
REMARK VINA RESULT:    -3.109      4.232      7.140
REMARK INTER + INTRA:          -5.199
REMARK INTER:                  -4.896
REMARK INTRA:                  -0.303
REMARK UNBOUND:                -0.455
REMARK SMILES CC1=CCC[C@H](C)C(=O)C[C@H](C(C)C)C(=O)C1
REMARK SMILES IDX 8 1 9 2 6 3 7 4 5 5 4 6 3 7 2 8 1 9 10 11 11 12 15 13 16 14
REMARK SMILES IDX 17 15 12 17 13 18 14 19
REMARK H PARENT
REMARK Flexibility Score: 70.00
ROOT
ATOM      1  C   UNL     1      -3.736  -1.325 -10.177  1.00  0.00     0.136 C 
ATOM      2  O   UNL     1      -2.889  -1.841  -9.462  1.00  0.00    -0.299 OA
ENDROOT
BRANCH   1   3
ATOM      3  C   UNL     1      -3.316  -0.509 -11.391  1.00  0.00     0.053 C 
ATOM      4  C   UNL     1      -2.092   0.378 -11.104  1.00  0.00     0.016 C 
BRANCH   3   5
ATOM      5  C   UNL     1      -3.090  -1.407 -12.628  1.00  0.00     0.015 C 
BRANCH   5   6
ATOM      6  C   UNL     1      -3.602  -2.846 -12.431  1.00  0.00     0.028 C 
BRANCH   6   7
ATOM      7  C   UNL     1      -4.689  -3.248 -13.399  1.00  0.00    -0.028 C 
ATOM      8  C   UNL     1      -5.991  -3.497 -13.102  1.00  0.00    -0.070 CG0
ATOM      9  C   UNL     1      -6.852  -4.046 -14.215  1.00  0.00     0.039 C 
ATOM     10  G   UNL     1      -6.668  -3.157 -11.776  1.00  0.00     0.000 G0
ENDBRANCH   6   7
ENDBRANCH   5   6
ENDBRANCH   3   5
ENDBRANCH   1   3
BRANCH   1  11
ATOM     11  C   UNL     1      -5.201  -1.510  -9.850  1.00  0.00     0.087 C 
BRANCH  11  12
ATOM     12  C   UNL     1      -6.198  -0.783 -10.800  1.00  0.00     0.066 C 
BRANCH  12  13
ATOM     13  C   UNL     1      -7.108  -1.732 -11.578  1.00  0.00     0.140 C 
ATOM     14  O   UNL     1      -8.117  -1.316 -12.126  1.00  0.00    -0.299 OA
BRANCH  13  15
ATOM     15  C   UNL     1      -6.685  -3.166 -11.773  1.00  0.00     0.106 CG0
ATOM     16  G   UNL     1      -5.996  -3.485 -13.098  1.00  0.00     0.000 G0
ENDBRANCH  13  15
ENDBRANCH  12  13
BRANCH  12  17
ATOM     17  C   UNL     1      -6.922   0.439 -10.148  1.00  0.00    -0.006 C 
ATOM     18  C   UNL     1      -6.526   1.805 -10.729  1.00  0.00     0.008 C 
ATOM     19  C   UNL     1      -6.768   0.442  -8.618  1.00  0.00     0.008 C 
ENDBRANCH  12  17
ENDBRANCH  11  12
ENDBRANCH   1  11
TORSDOF 1
ENDMDL
