MODEL 1
REMARK VINA RESULT:    -4.162      0.000      0.000
REMARK INTER + INTRA:          -9.194
REMARK INTER:                  -7.082
REMARK INTRA:                  -2.113
REMARK UNBOUND:                -2.113
REMARK SMILES CCCCCCCCCCCCCC(=O)[O-]
REMARK SMILES IDX 8 1 9 2 10 3 11 4 12 5 13 6 14 7 15 8 16 9 7 10 6 11 5 12
REMARK SMILES IDX 4 13 3 14 2 15 1 16
REMARK H PARENT
REMARK Flexibility Score: inf
ROOT
ATOM      1  C   UNL     1     204.569 206.728 156.155  1.00  0.00     0.000 C 
ENDROOT
BRANCH   1   2
ATOM      2  C   UNL     1     205.202 207.033 154.786  1.00  0.00     0.000 C 
BRANCH   2   3
ATOM      3  C   UNL     1     206.427 206.140 154.490  1.00  0.00     0.000 C 
BRANCH   3   4
ATOM      4  C   UNL     1     206.363 204.752 155.155  1.00  0.00     0.000 C 
BRANCH   4   5
ATOM      5  C   UNL     1     207.521 204.437 156.121  1.00  0.00     0.006 C 
BRANCH   5   6
ATOM      6  C   UNL     1     207.134 204.475 157.609  1.00  0.00     0.053 C 
BRANCH   6   7
ATOM      7  C   UNL     1     206.039 203.506 157.929  1.00  0.00     0.041 C 
ATOM      8  O   UNL     1     204.948 203.917 158.405  1.00  0.00    -0.550 OA
ATOM      9  O   UNL     1     206.209 202.152 157.668  1.00  0.00    -0.550 OA
ENDBRANCH   6   7
ENDBRANCH   5   6
ENDBRANCH   4   5
ENDBRANCH   3   4
ENDBRANCH   2   3
ENDBRANCH   1   2
BRANCH   1  10
ATOM     10  C   UNL     1     205.192 207.570 157.289  1.00  0.00     0.000 C 
BRANCH  10  11
ATOM     11  C   UNL     1     205.645 208.971 156.843  1.00  0.00    -0.000 C 
BRANCH  11  12
ATOM     12  C   UNL     1     207.154 209.193 157.010  1.00  0.00    -0.000 C 
BRANCH  12  13
ATOM     13  C   UNL     1     207.820 207.984 157.676  1.00  0.00    -0.000 C 
BRANCH  13  14
ATOM     14  C   UNL     1     209.242 207.773 157.136  1.00  0.00    -0.000 C 
BRANCH  14  15
ATOM     15  C   UNL     1     209.282 207.668 155.604  1.00  0.00    -0.003 C 
ATOM     16  C   UNL     1     210.579 207.046 155.088  1.00  0.00     0.004 C 
ENDBRANCH  14  15
ENDBRANCH  13  14
ENDBRANCH  12  13
ENDBRANCH  11  12
ENDBRANCH  10  11
ENDBRANCH   1  10
TORSDOF 12
ENDMDL
MODEL 2
REMARK VINA RESULT:    -4.034      1.809      3.972
REMARK INTER + INTRA:          -8.976
REMARK INTER:                  -6.735
REMARK INTRA:                  -2.241
REMARK UNBOUND:                -2.113
REMARK SMILES CCCCCCCCCCCCCC(=O)[O-]
REMARK SMILES IDX 8 1 9 2 10 3 11 4 12 5 13 6 14 7 15 8 16 9 7 10 6 11 5 12
REMARK SMILES IDX 4 13 3 14 2 15 1 16
REMARK H PARENT
REMARK Flexibility Score: inf
ROOT
ATOM      1  C   UNL     1     206.682 205.354 159.689  1.00  0.00     0.000 C 
ENDROOT
BRANCH   1   2
ATOM      2  C   UNL     1     208.167 205.452 159.299  1.00  0.00     0.000 C 
BRANCH   2   3
ATOM      3  C   UNL     1     208.447 206.619 158.328  1.00  0.00     0.000 C 
BRANCH   3   4
ATOM      4  C   UNL     1     208.493 206.200 156.846  1.00  0.00     0.000 C 
BRANCH   4   5
ATOM      5  C   UNL     1     208.735 204.700 156.598  1.00  0.00     0.006 C 
BRANCH   5   6
ATOM      6  C   UNL     1     207.639 204.007 155.772  1.00  0.00     0.053 C 
BRANCH   6   7
ATOM      7  C   UNL     1     207.759 202.515 155.820  1.00  0.00     0.041 C 
ATOM      8  O   UNL     1     208.879 201.964 155.648  1.00  0.00    -0.550 OA
ATOM      9  O   UNL     1     206.642 201.734 156.090  1.00  0.00    -0.550 OA
ENDBRANCH   6   7
ENDBRANCH   5   6
ENDBRANCH   4   5
ENDBRANCH   3   4
ENDBRANCH   2   3
ENDBRANCH   1   2
BRANCH   1  10
ATOM     10  C   UNL     1     205.989 204.129 159.055  1.00  0.00     0.000 C 
BRANCH  10  11
ATOM     11  C   UNL     1     204.890 204.493 158.042  1.00  0.00    -0.000 C 
BRANCH  11  12
ATOM     12  C   UNL     1     204.790 206.002 157.785  1.00  0.00    -0.000 C 
BRANCH  12  13
ATOM     13  C   UNL     1     204.776 206.307 156.283  1.00  0.00    -0.000 C 
BRANCH  13  14
ATOM     14  C   UNL     1     205.233 207.747 156.011  1.00  0.00    -0.000 C 
BRANCH  14  15
ATOM     15  C   UNL     1     205.523 208.529 157.301  1.00  0.00    -0.003 C 
ATOM     16  C   UNL     1     206.595 209.602 157.114  1.00  0.00     0.004 C 
ENDBRANCH  14  15
ENDBRANCH  13  14
ENDBRANCH  12  13
ENDBRANCH  11  12
ENDBRANCH  10  11
ENDBRANCH   1  10
TORSDOF 12
ENDMDL
MODEL 3
REMARK VINA RESULT:    -3.983      1.831      4.139
REMARK INTER + INTRA:          -8.889
REMARK INTER:                  -7.021
REMARK INTRA:                  -1.868
REMARK UNBOUND:                -2.113
REMARK SMILES CCCCCCCCCCCCCC(=O)[O-]
REMARK SMILES IDX 8 1 9 2 10 3 11 4 12 5 13 6 14 7 15 8 16 9 7 10 6 11 5 12
REMARK SMILES IDX 4 13 3 14 2 15 1 16
REMARK H PARENT
REMARK Flexibility Score: inf
ROOT
ATOM      1  C   UNL     1     208.423 206.739 158.618  1.00  0.00     0.000 C 
ENDROOT
BRANCH   1   2
ATOM      2  C   UNL     1     208.302 205.397 159.361  1.00  0.00     0.000 C 
BRANCH   2   3
ATOM      3  C   UNL     1     206.859 205.108 159.827  1.00  0.00     0.000 C 
BRANCH   3   4
ATOM      4  C   UNL     1     206.302 203.760 159.331  1.00  0.00     0.000 C 
BRANCH   4   5
ATOM      5  C   UNL     1     205.210 203.863 158.250  1.00  0.00     0.006 C 
BRANCH   5   6
ATOM      6  C   UNL     1     205.746 203.931 156.810  1.00  0.00     0.053 C 
BRANCH   6   7
ATOM      7  C   UNL     1     206.792 202.890 156.552  1.00  0.00     0.041 C 
ATOM      8  O   UNL     1     207.981 203.231 156.319  1.00  0.00    -0.550 OA
ATOM      9  O   UNL     1     206.459 201.542 156.603  1.00  0.00    -0.550 OA
ENDBRANCH   6   7
ENDBRANCH   5   6
ENDBRANCH   4   5
ENDBRANCH   3   4
ENDBRANCH   2   3
ENDBRANCH   1   2
BRANCH   1  10
ATOM     10  C   UNL     1     208.480 206.557 157.086  1.00  0.00     0.000 C 
BRANCH  10  11
ATOM     11  C   UNL     1     207.807 207.696 156.301  1.00  0.00    -0.000 C 
BRANCH  11  12
ATOM     12  C   UNL     1     206.325 207.428 156.010  1.00  0.00    -0.000 C 
BRANCH  12  13
ATOM     13  C   UNL     1     205.423 208.328 156.861  1.00  0.00    -0.000 C 
BRANCH  13  14
ATOM     14  C   UNL     1     204.888 207.570 158.085  1.00  0.00    -0.000 C 
BRANCH  14  15
ATOM     15  C   UNL     1     204.589 208.500 159.271  1.00  0.00    -0.003 C 
ATOM     16  C   UNL     1     205.044 209.938 159.025  1.00  0.00     0.004 C 
ENDBRANCH  14  15
ENDBRANCH  13  14
ENDBRANCH  12  13
ENDBRANCH  11  12
ENDBRANCH  10  11
ENDBRANCH   1  10
TORSDOF 12
ENDMDL
MODEL 4
REMARK VINA RESULT:    -3.977      1.464      2.231
REMARK INTER + INTRA:          -8.879
REMARK INTER:                  -7.422
REMARK INTRA:                  -1.457
REMARK UNBOUND:                -2.113
REMARK SMILES CCCCCCCCCCCCCC(=O)[O-]
REMARK SMILES IDX 8 1 9 2 10 3 11 4 12 5 13 6 14 7 15 8 16 9 7 10 6 11 5 12
REMARK SMILES IDX 4 13 3 14 2 15 1 16
REMARK H PARENT
REMARK Flexibility Score: inf
ROOT
ATOM      1  C   UNL     1     204.661 206.976 155.906  1.00  0.00     0.000 C 
ENDROOT
BRANCH   1   2
ATOM      2  C   UNL     1     204.097 206.384 157.209  1.00  0.00     0.000 C 
BRANCH   2   3
ATOM      3  C   UNL     1     204.079 204.840 157.196  1.00  0.00     0.000 C 
BRANCH   3   4
ATOM      4  C   UNL     1     205.027 204.195 158.225  1.00  0.00     0.000 C 
BRANCH   4   5
ATOM      5  C   UNL     1     206.448 203.902 157.710  1.00  0.00     0.006 C 
BRANCH   5   6
ATOM      6  C   UNL     1     206.540 203.681 156.190  1.00  0.00     0.053 C 
BRANCH   6   7
ATOM      7  C   UNL     1     207.075 202.324 155.853  1.00  0.00     0.041 C 
ATOM      8  O   UNL     1     208.172 202.208 155.244  1.00  0.00    -0.550 OA
ATOM      9  O   UNL     1     206.380 201.185 156.240  1.00  0.00    -0.550 OA
ENDBRANCH   6   7
ENDBRANCH   5   6
ENDBRANCH   4   5
ENDBRANCH   3   4
ENDBRANCH   2   3
ENDBRANCH   1   2
BRANCH   1  10
ATOM     10  C   UNL     1     205.368 208.329 156.136  1.00  0.00     0.000 C 
BRANCH  10  11
ATOM     11  C   UNL     1     206.083 208.433 157.494  1.00  0.00    -0.000 C 
BRANCH  11  12
ATOM     12  C   UNL     1     207.555 208.841 157.366  1.00  0.00    -0.000 C 
BRANCH  12  13
ATOM     13  C   UNL     1     208.485 207.676 157.725  1.00  0.00    -0.000 C 
BRANCH  13  14
ATOM     14  C   UNL     1     208.645 206.716 156.537  1.00  0.00    -0.000 C 
BRANCH  14  15
ATOM     15  C   UNL     1     209.208 207.411 155.287  1.00  0.00    -0.003 C 
ATOM     16  C   UNL     1     210.725 207.271 155.165  1.00  0.00     0.004 C 
ENDBRANCH  14  15
ENDBRANCH  13  14
ENDBRANCH  12  13
ENDBRANCH  11  12
ENDBRANCH  10  11
ENDBRANCH   1  10
TORSDOF 12
ENDMDL
MODEL 5
REMARK VINA RESULT:    -3.975      3.047      5.365
REMARK INTER + INTRA:          -8.875
REMARK INTER:                  -6.947
REMARK INTRA:                  -1.928
REMARK UNBOUND:                -2.113
REMARK SMILES CCCCCCCCCCCCCC(=O)[O-]
REMARK SMILES IDX 8 1 9 2 10 3 11 4 12 5 13 6 14 7 15 8 16 9 7 10 6 11 5 12
REMARK SMILES IDX 4 13 3 14 2 15 1 16
REMARK H PARENT
REMARK Flexibility Score: inf
ROOT
ATOM      1  C   UNL     1     206.826 204.727 159.563  1.00  0.00     0.000 C 
ENDROOT
BRANCH   1   2
ATOM      2  C   UNL     1     207.870 205.198 158.535  1.00  0.00     0.000 C 
BRANCH   2   3
ATOM      3  C   UNL     1     208.520 206.542 158.926  1.00  0.00     0.000 C 
BRANCH   3   4
ATOM      4  C   UNL     1     208.827 207.459 157.727  1.00  0.00     0.000 C 
BRANCH   4   5
ATOM      5  C   UNL     1     208.638 206.811 156.343  1.00  0.00     0.006 C 
BRANCH   5   6
ATOM      6  C   UNL     1     209.387 207.519 155.201  1.00  0.00     0.053 C 
BRANCH   6   7
ATOM      7  C   UNL     1     210.849 207.196 155.207  1.00  0.00     0.041 C 
ATOM      8  O   UNL     1     211.281 206.203 154.563  1.00  0.00    -0.550 OA
ATOM      9  O   UNL     1     211.740 208.011 155.894  1.00  0.00    -0.550 OA
ENDBRANCH   6   7
ENDBRANCH   5   6
ENDBRANCH   4   5
ENDBRANCH   3   4
ENDBRANCH   2   3
ENDBRANCH   1   2
BRANCH   1  10
ATOM     10  C   UNL     1     205.622 204.027 158.897  1.00  0.00     0.000 C 
BRANCH  10  11
ATOM     11  C   UNL     1     205.466 204.351 157.402  1.00  0.00    -0.000 C 
BRANCH  11  12
ATOM     12  C   UNL     1     204.065 204.863 157.043  1.00  0.00    -0.000 C 
BRANCH  12  13
ATOM     13  C   UNL     1     203.887 206.326 157.461  1.00  0.00    -0.000 C 
BRANCH  13  14
ATOM     14  C   UNL     1     204.936 207.221 156.785  1.00  0.00    -0.000 C 
BRANCH  14  15
ATOM     15  C   UNL     1     205.408 208.367 157.693  1.00  0.00    -0.003 C 
ATOM     16  C   UNL     1     204.968 208.189 159.146  1.00  0.00     0.004 C 
ENDBRANCH  14  15
ENDBRANCH  13  14
ENDBRANCH  12  13
ENDBRANCH  11  12
ENDBRANCH  10  11
ENDBRANCH   1  10
TORSDOF 12
ENDMDL
MODEL 6
REMARK VINA RESULT:    -3.964      2.572      4.892
REMARK INTER + INTRA:          -8.857
REMARK INTER:                  -6.805
REMARK INTRA:                  -2.052
REMARK UNBOUND:                -2.113
REMARK SMILES CCCCCCCCCCCCCC(=O)[O-]
REMARK SMILES IDX 8 1 9 2 10 3 11 4 12 5 13 6 14 7 15 8 16 9 7 10 6 11 5 12
REMARK SMILES IDX 4 13 3 14 2 15 1 16
REMARK H PARENT
REMARK Flexibility Score: inf
ROOT
ATOM      1  C   UNL     1     208.493 206.617 157.670  1.00  0.00     0.000 C 
ENDROOT
BRANCH   1   2
ATOM      2  C   UNL     1     208.150 205.738 156.455  1.00  0.00     0.000 C 
BRANCH   2   3
ATOM      3  C   UNL     1     207.289 206.483 155.412  1.00  0.00     0.000 C 
BRANCH   3   4
ATOM      4  C   UNL     1     205.778 206.215 155.543  1.00  0.00     0.000 C 
BRANCH   4   5
ATOM      5  C   UNL     1     205.014 207.208 156.440  1.00  0.00     0.006 C 
BRANCH   5   6
ATOM      6  C   UNL     1     205.599 208.630 156.454  1.00  0.00     0.053 C 
BRANCH   6   7
ATOM      7  C   UNL     1     205.659 209.197 157.838  1.00  0.00     0.041 C 
ATOM      8  O   UNL     1     204.894 208.756 158.737  1.00  0.00    -0.550 OA
ATOM      9  O   UNL     1     206.581 210.190 158.145  1.00  0.00    -0.550 OA
ENDBRANCH   6   7
ENDBRANCH   5   6
ENDBRANCH   4   5
ENDBRANCH   3   4
ENDBRANCH   2   3
ENDBRANCH   1   2
BRANCH   1  10
ATOM     10  C   UNL     1     208.174 205.917 159.009  1.00  0.00     0.000 C 
BRANCH  10  11
ATOM     11  C   UNL     1     206.672 205.680 159.241  1.00  0.00    -0.000 C 
BRANCH  11  12
ATOM     12  C   UNL     1     206.318 204.196 159.402  1.00  0.00    -0.000 C 
BRANCH  12  13
ATOM     13  C   UNL     1     205.532 203.681 158.191  1.00  0.00    -0.000 C 
BRANCH  13  14
ATOM     14  C   UNL     1     206.246 202.487 157.541  1.00  0.00    -0.000 C 
BRANCH  14  15
ATOM     15  C   UNL     1     206.235 202.556 156.006  1.00  0.00    -0.003 C 
ATOM     16  C   UNL     1     207.611 202.301 155.393  1.00  0.00     0.004 C 
ENDBRANCH  14  15
ENDBRANCH  13  14
ENDBRANCH  12  13
ENDBRANCH  11  12
ENDBRANCH  10  11
ENDBRANCH   1  10
TORSDOF 12
ENDMDL
MODEL 7
REMARK VINA RESULT:    -3.956      1.932      3.975
REMARK INTER + INTRA:          -8.844
REMARK INTER:                  -6.980
REMARK INTRA:                  -1.864
REMARK UNBOUND:                -2.113
REMARK SMILES CCCCCCCCCCCCCC(=O)[O-]
REMARK SMILES IDX 8 1 9 2 10 3 11 4 12 5 13 6 14 7 15 8 16 9 7 10 6 11 5 12
REMARK SMILES IDX 4 13 3 14 2 15 1 16
REMARK H PARENT
REMARK Flexibility Score: inf
ROOT
ATOM      1  C   UNL     1     206.798 205.618 159.495  1.00  0.00     0.000 C 
ENDROOT
BRANCH   1   2
ATOM      2  C   UNL     1     206.358 204.144 159.493  1.00  0.00     0.000 C 
BRANCH   2   3
ATOM      3  C   UNL     1     205.294 203.846 158.414  1.00  0.00     0.000 C 
BRANCH   3   4
ATOM      4  C   UNL     1     205.287 204.854 157.249  1.00  0.00     0.000 C 
BRANCH   4   5
ATOM      5  C   UNL     1     205.882 204.331 155.929  1.00  0.00     0.006 C 
BRANCH   5   6
ATOM      6  C   UNL     1     207.326 203.814 156.044  1.00  0.00     0.053 C 
BRANCH   6   7
ATOM      7  C   UNL     1     207.436 202.370 155.661  1.00  0.00     0.041 C 
ATOM      8  O   UNL     1     208.398 201.974 154.951  1.00  0.00    -0.550 OA
ATOM      9  O   UNL     1     206.494 201.455 156.116  1.00  0.00    -0.550 OA
ENDBRANCH   6   7
ENDBRANCH   5   6
ENDBRANCH   4   5
ENDBRANCH   3   4
ENDBRANCH   2   3
ENDBRANCH   1   2
BRANCH   1  10
ATOM     10  C   UNL     1     208.289 205.785 159.133  1.00  0.00     0.000 C 
BRANCH  10  11
ATOM     11  C   UNL     1     208.616 207.129 158.458  1.00  0.00    -0.000 C 
BRANCH  11  12
ATOM     12  C   UNL     1     208.047 207.239 157.038  1.00  0.00    -0.000 C 
BRANCH  12  13
ATOM     13  C   UNL     1     207.334 208.580 156.832  1.00  0.00    -0.000 C 
BRANCH  13  14
ATOM     14  C   UNL     1     205.838 208.463 157.158  1.00  0.00    -0.000 C 
BRANCH  14  15
ATOM     15  C   UNL     1     205.427 209.324 158.362  1.00  0.00    -0.003 C 
ATOM     16  C   UNL     1     204.505 208.584 159.331  1.00  0.00     0.004 C 
ENDBRANCH  14  15
ENDBRANCH  13  14
ENDBRANCH  12  13
ENDBRANCH  11  12
ENDBRANCH  10  11
ENDBRANCH   1  10
TORSDOF 12
ENDMDL
MODEL 8
REMARK VINA RESULT:    -3.953      2.765      4.227
REMARK INTER + INTRA:          -8.839
REMARK INTER:                  -7.087
REMARK INTRA:                  -1.753
REMARK UNBOUND:                -2.113
REMARK SMILES CCCCCCCCCCCCCC(=O)[O-]
REMARK SMILES IDX 8 1 9 2 10 3 11 4 12 5 13 6 14 7 15 8 16 9 7 10 6 11 5 12
REMARK SMILES IDX 4 13 3 14 2 15 1 16
REMARK H PARENT
REMARK Flexibility Score: inf
ROOT
ATOM      1  C   UNL     1     206.265 203.876 159.355  1.00  0.00     0.000 C 
ENDROOT
BRANCH   1   2
ATOM      2  C   UNL     1     205.640 203.855 157.949  1.00  0.00     0.000 C 
BRANCH   2   3
ATOM      3  C   UNL     1     204.532 204.917 157.780  1.00  0.00     0.000 C 
BRANCH   3   4
ATOM      4  C   UNL     1     204.639 205.729 156.475  1.00  0.00     0.000 C 
BRANCH   4   5
ATOM      5  C   UNL     1     204.928 207.230 156.662  1.00  0.00     0.006 C 
BRANCH   5   6
ATOM      6  C   UNL     1     204.848 207.716 158.119  1.00  0.00     0.053 C 
BRANCH   6   7
ATOM      7  C   UNL     1     205.334 209.125 158.266  1.00  0.00     0.041 C 
ATOM      8  O   UNL     1     206.415 209.482 157.728  1.00  0.00    -0.550 OA
ATOM      9  O   UNL     1     204.577 210.053 158.970  1.00  0.00    -0.550 OA
ENDBRANCH   6   7
ENDBRANCH   5   6
ENDBRANCH   4   5
ENDBRANCH   3   4
ENDBRANCH   2   3
ENDBRANCH   1   2
BRANCH   1  10
ATOM     10  C   UNL     1     206.806 205.270 159.736  1.00  0.00     0.000 C 
BRANCH  10  11
ATOM     11  C   UNL     1     208.249 205.524 159.269  1.00  0.00    -0.000 C 
BRANCH  11  12
ATOM     12  C   UNL     1     208.333 206.496 158.085  1.00  0.00    -0.000 C 
BRANCH  12  13
ATOM     13  C   UNL     1     208.511 205.742 156.763  1.00  0.00    -0.000 C 
BRANCH  13  14
ATOM     14  C   UNL     1     208.315 206.682 155.564  1.00  0.00    -0.000 C 
BRANCH  14  15
ATOM     15  C   UNL     1     209.536 207.581 155.313  1.00  0.00    -0.003 C 
ATOM     16  C   UNL     1     210.794 206.785 154.967  1.00  0.00     0.004 C 
ENDBRANCH  14  15
ENDBRANCH  13  14
ENDBRANCH  12  13
ENDBRANCH  11  12
ENDBRANCH  10  11
ENDBRANCH   1  10
TORSDOF 12
ENDMDL
MODEL 9
REMARK VINA RESULT:    -3.922      1.693      4.108
REMARK INTER + INTRA:          -8.786
REMARK INTER:                  -6.760
REMARK INTRA:                  -2.026
REMARK UNBOUND:                -2.113
REMARK SMILES CCCCCCCCCCCCCC(=O)[O-]
REMARK SMILES IDX 8 1 9 2 10 3 11 4 12 5 13 6 14 7 15 8 16 9 7 10 6 11 5 12
REMARK SMILES IDX 4 13 3 14 2 15 1 16
REMARK H PARENT
REMARK Flexibility Score: inf
ROOT
ATOM      1  C   UNL     1     208.838 207.398 157.636  1.00  0.00     0.000 C 
ENDROOT
BRANCH   1   2
ATOM      2  C   UNL     1     208.257 206.521 158.759  1.00  0.00     0.000 C 
BRANCH   2   3
ATOM      3  C   UNL     1     207.845 205.119 158.260  1.00  0.00     0.000 C 
BRANCH   3   4
ATOM      4  C   UNL     1     206.708 204.475 159.076  1.00  0.00     0.000 C 
BRANCH   4   5
ATOM      5  C   UNL     1     205.965 203.327 158.367  1.00  0.00     0.006 C 
BRANCH   5   6
ATOM      6  C   UNL     1     205.999 203.402 156.831  1.00  0.00     0.053 C 
BRANCH   6   7
ATOM      7  C   UNL     1     206.781 202.273 156.233  1.00  0.00     0.041 C 
ATOM      8  O   UNL     1     206.265 201.129 156.132  1.00  0.00    -0.550 OA
ATOM      9  O   UNL     1     208.067 202.494 155.755  1.00  0.00    -0.550 OA
ENDBRANCH   6   7
ENDBRANCH   5   6
ENDBRANCH   4   5
ENDBRANCH   3   4
ENDBRANCH   2   3
ENDBRANCH   1   2
BRANCH   1  10
ATOM     10  C   UNL     1     208.808 206.689 156.264  1.00  0.00     0.000 C 
BRANCH  10  11
ATOM     11  C   UNL     1     207.815 207.310 155.267  1.00  0.00    -0.000 C 
BRANCH  11  12
ATOM     12  C   UNL     1     206.795 206.298 154.730  1.00  0.00    -0.000 C 
BRANCH  12  13
ATOM     13  C   UNL     1     205.360 206.788 154.953  1.00  0.00    -0.000 C 
BRANCH  13  14
ATOM     14  C   UNL     1     205.253 207.599 156.252  1.00  0.00    -0.000 C 
BRANCH  14  15
ATOM     15  C   UNL     1     204.562 206.817 157.381  1.00  0.00    -0.003 C 
ATOM     16  C   UNL     1     203.394 205.967 156.881  1.00  0.00     0.004 C 
ENDBRANCH  14  15
ENDBRANCH  13  14
ENDBRANCH  12  13
ENDBRANCH  11  12
ENDBRANCH  10  11
ENDBRANCH   1  10
TORSDOF 12
ENDMDL
