MODEL 1
REMARK VINA RESULT:    -4.657      0.000      0.000
REMARK INTER + INTRA:          -4.953
REMARK INTER:                  -4.929
REMARK INTRA:                  -0.024
REMARK UNBOUND:                -0.024
REMARK SMILES O=C([O-])c1cccnc1
REMARK SMILES IDX 4 1 5 2 9 3 6 4 8 5 7 6 2 7 1 8 3 9
REMARK H PARENT
REMARK Flexibility Score: inf
ROOT
ATOM      1  C   UNL     1      13.976 -48.086  71.454  1.00  0.00     0.016 A 
ATOM      2  C   UNL     1      14.043 -48.794  72.667  1.00  0.00     0.013 A 
ATOM      3  C   UNL     1      15.161 -47.906  70.720  1.00  0.00     0.120 A 
ATOM      4  C   UNL     1      15.265 -49.299  73.116  1.00  0.00     0.021 A 
ATOM      5  N   UNL     1      16.337 -48.409  71.180  1.00  0.00    -0.264 NA
ATOM      6  C   UNL     1      16.414 -49.095  72.351  1.00  0.00     0.111 A 
ENDROOT
BRANCH   1   7
ATOM      7  C   UNL     1      12.692 -47.544  70.960  1.00  0.00     0.073 C 
ATOM      8  O   UNL     1      11.667 -47.559  71.693  1.00  0.00    -0.545 OA
ATOM      9  O   UNL     1      12.600 -47.009  69.681  1.00  0.00    -0.545 OA
ENDBRANCH   1   7
TORSDOF 1
ENDMDL
MODEL 2
REMARK VINA RESULT:    -4.501      0.915      1.600
REMARK INTER + INTRA:          -4.787
REMARK INTER:                  -4.764
REMARK INTRA:                  -0.023
REMARK UNBOUND:                -0.024
REMARK SMILES O=C([O-])c1cccnc1
REMARK SMILES IDX 4 1 5 2 9 3 6 4 8 5 7 6 2 7 1 8 3 9
REMARK H PARENT
REMARK Flexibility Score: inf
ROOT
ATOM      1  C   UNL     1      13.984 -48.102  71.452  1.00  0.00     0.016 A 
ATOM      2  C   UNL     1      15.182 -47.843  70.763  1.00  0.00     0.013 A 
ATOM      3  C   UNL     1      14.043 -48.865  72.631  1.00  0.00     0.120 A 
ATOM      4  C   UNL     1      16.392 -48.339  71.253  1.00  0.00     0.021 A 
ATOM      5  N   UNL     1      15.235 -49.334  73.086  1.00  0.00    -0.264 NA
ATOM      6  C   UNL     1      16.399 -49.090  72.428  1.00  0.00     0.111 A 
ENDROOT
BRANCH   1   7
ATOM      7  C   UNL     1      12.692 -47.587  70.951  1.00  0.00     0.073 C 
ATOM      8  O   UNL     1      11.659 -47.641  71.672  1.00  0.00    -0.545 OA
ATOM      9  O   UNL     1      12.599 -47.036  69.679  1.00  0.00    -0.545 OA
ENDBRANCH   1   7
TORSDOF 1
ENDMDL
MODEL 3
REMARK VINA RESULT:    -4.376      2.907      3.564
REMARK INTER + INTRA:          -4.655
REMARK INTER:                  -4.632
REMARK INTRA:                  -0.023
REMARK UNBOUND:                -0.024
REMARK SMILES O=C([O-])c1cccnc1
REMARK SMILES IDX 4 1 5 2 9 3 6 4 8 5 7 6 2 7 1 8 3 9
REMARK H PARENT
REMARK Flexibility Score: inf
ROOT
ATOM      1  C   UNL     1      15.275 -48.432  71.685  1.00  0.00     0.016 A 
ATOM      2  C   UNL     1      14.386 -48.919  72.659  1.00  0.00     0.013 A 
ATOM      3  C   UNL     1      14.742 -47.932  70.484  1.00  0.00     0.120 A 
ATOM      4  C   UNL     1      13.010 -48.901  72.423  1.00  0.00     0.021 A 
ATOM      5  N   UNL     1      13.397 -47.925  70.281  1.00  0.00    -0.264 NA
ATOM      6  C   UNL     1      12.529 -48.395  71.216  1.00  0.00     0.111 A 
ENDROOT
BRANCH   1   7
ATOM      7  C   UNL     1      16.736 -48.442  71.914  1.00  0.00     0.073 C 
ATOM      8  O   UNL     1      17.200 -48.582  73.078  1.00  0.00    -0.545 OA
ATOM      9  O   UNL     1      17.617 -48.297  70.850  1.00  0.00    -0.545 OA
ENDBRANCH   1   7
TORSDOF 1
ENDMDL
MODEL 4
REMARK VINA RESULT:    -4.237      2.960      3.796
REMARK INTER + INTRA:          -4.509
REMARK INTER:                  -4.490
REMARK INTRA:                  -0.019
REMARK UNBOUND:                -0.024
REMARK SMILES O=C([O-])c1cccnc1
REMARK SMILES IDX 4 1 5 2 9 3 6 4 8 5 7 6 2 7 1 8 3 9
REMARK H PARENT
REMARK Flexibility Score: inf
ROOT
ATOM      1  C   UNL     1      15.671 -48.345  71.786  1.00  0.00     0.016 A 
ATOM      2  C   UNL     1      14.650 -47.792  70.993  1.00  0.00     0.013 A 
ATOM      3  C   UNL     1      15.308 -49.170  72.864  1.00  0.00     0.120 A 
ATOM      4  C   UNL     1      13.312 -48.067  71.285  1.00  0.00     0.021 A 
ATOM      5  N   UNL     1      13.998 -49.422  73.125  1.00  0.00    -0.264 NA
ATOM      6  C   UNL     1      13.002 -48.893  72.365  1.00  0.00     0.111 A 
ENDROOT
BRANCH   1   7
ATOM      7  C   UNL     1      17.094 -48.066  71.495  1.00  0.00     0.073 C 
ATOM      8  O   UNL     1      17.875 -47.700  72.413  1.00  0.00    -0.545 OA
ATOM      9  O   UNL     1      17.589 -48.206  70.204  1.00  0.00    -0.545 OA
ENDBRANCH   1   7
TORSDOF 1
ENDMDL
MODEL 5
REMARK VINA RESULT:    -4.068      2.850      3.476
REMARK INTER + INTRA:          -4.330
REMARK INTER:                  -4.313
REMARK INTRA:                  -0.016
REMARK UNBOUND:                -0.024
REMARK SMILES O=C([O-])c1cccnc1
REMARK SMILES IDX 4 1 5 2 9 3 6 4 8 5 7 6 2 7 1 8 3 9
REMARK H PARENT
REMARK Flexibility Score: inf
ROOT
ATOM      1  C   UNL     1      14.788 -47.450  71.035  1.00  0.00     0.016 A 
ATOM      2  C   UNL     1      14.599 -48.468  71.986  1.00  0.00     0.013 A 
ATOM      3  C   UNL     1      13.653 -46.843  70.472  1.00  0.00     0.120 A 
ATOM      4  C   UNL     1      13.308 -48.854  72.351  1.00  0.00     0.021 A 
ATOM      5  N   UNL     1      12.406 -47.238  70.845  1.00  0.00    -0.264 NA
ATOM      6  C   UNL     1      12.212 -48.222  71.764  1.00  0.00     0.111 A 
ENDROOT
BRANCH   1   7
ATOM      7  C   UNL     1      16.147 -47.025  70.635  1.00  0.00     0.073 C 
ATOM      8  O   UNL     1      16.796 -47.681  69.777  1.00  0.00    -0.545 OA
ATOM      9  O   UNL     1      16.726 -45.895  71.200  1.00  0.00    -0.545 OA
ENDBRANCH   1   7
TORSDOF 1
ENDMDL
MODEL 6
REMARK VINA RESULT:    -4.043      6.041      7.104
REMARK INTER + INTRA:          -4.303
REMARK INTER:                  -4.287
REMARK INTRA:                  -0.016
REMARK UNBOUND:                -0.024
REMARK SMILES O=C([O-])c1cccnc1
REMARK SMILES IDX 4 1 5 2 9 3 6 4 8 5 7 6 2 7 1 8 3 9
REMARK H PARENT
REMARK Flexibility Score: inf
ROOT
ATOM      1  C   UNL     1      19.668 -46.782  67.673  1.00  0.00     0.016 A 
ATOM      2  C   UNL     1      20.290 -46.485  68.898  1.00  0.00     0.013 A 
ATOM      3  C   UNL     1      18.556 -47.642  67.679  1.00  0.00     0.120 A 
ATOM      4  C   UNL     1      19.804 -47.040  70.083  1.00  0.00     0.021 A 
ATOM      5  N   UNL     1      18.102 -48.169  68.848  1.00  0.00    -0.264 NA
ATOM      6  C   UNL     1      18.697 -47.889  70.038  1.00  0.00     0.111 A 
ENDROOT
BRANCH   1   7
ATOM      7  C   UNL     1      20.167 -46.205  66.406  1.00  0.00     0.073 C 
ATOM      8  O   UNL     1      19.704 -45.116  65.973  1.00  0.00    -0.545 OA
ATOM      9  O   UNL     1      21.155 -46.856  65.677  1.00  0.00    -0.545 OA
ENDBRANCH   1   7
TORSDOF 1
ENDMDL
MODEL 7
REMARK VINA RESULT:    -4.037      4.011      4.895
REMARK INTER + INTRA:          -4.296
REMARK INTER:                  -4.279
REMARK INTRA:                  -0.018
REMARK UNBOUND:                -0.024
REMARK SMILES O=C([O-])c1cccnc1
REMARK SMILES IDX 4 1 5 2 9 3 6 4 8 5 7 6 2 7 1 8 3 9
REMARK H PARENT
REMARK Flexibility Score: inf
ROOT
ATOM      1  C   UNL     1      17.723 -47.215  70.968  1.00  0.00     0.016 A 
ATOM      2  C   UNL     1      19.065 -47.388  70.587  1.00  0.00     0.013 A 
ATOM      3  C   UNL     1      17.031 -46.092  70.483  1.00  0.00     0.120 A 
ATOM      4  C   UNL     1      19.680 -46.457  69.747  1.00  0.00     0.021 A 
ATOM      5  N   UNL     1      17.653 -45.202  69.666  1.00  0.00    -0.264 NA
ATOM      6  C   UNL     1      18.951 -45.359  69.292  1.00  0.00     0.111 A 
ENDROOT
BRANCH   1   7
ATOM      7  C   UNL     1      17.053 -48.188  71.857  1.00  0.00     0.073 C 
ATOM      8  O   UNL     1      16.015 -48.793  71.476  1.00  0.00    -0.545 OA
ATOM      9  O   UNL     1      17.559 -48.449  73.124  1.00  0.00    -0.545 OA
ENDBRANCH   1   7
TORSDOF 1
ENDMDL
MODEL 8
REMARK VINA RESULT:    -3.974      1.344      2.247
REMARK INTER + INTRA:          -4.230
REMARK INTER:                  -4.206
REMARK INTRA:                  -0.024
REMARK UNBOUND:                -0.024
REMARK SMILES O=C([O-])c1cccnc1
REMARK SMILES IDX 4 1 5 2 9 3 6 4 8 5 7 6 2 7 1 8 3 9
REMARK H PARENT
REMARK Flexibility Score: inf
ROOT
ATOM      1  C   UNL     1      14.603 -47.748  71.184  1.00  0.00     0.016 A 
ATOM      2  C   UNL     1      15.295 -46.697  70.558  1.00  0.00     0.013 A 
ATOM      3  C   UNL     1      15.316 -48.595  72.050  1.00  0.00     0.120 A 
ATOM      4  C   UNL     1      16.657 -46.512  70.802  1.00  0.00     0.021 A 
ATOM      5  N   UNL     1      16.642 -48.392  72.271  1.00  0.00    -0.264 NA
ATOM      6  C   UNL     1      17.321 -47.378  71.671  1.00  0.00     0.111 A 
ENDROOT
BRANCH   1   7
ATOM      7  C   UNL     1      13.161 -47.962  70.939  1.00  0.00     0.073 C 
ATOM      8  O   UNL     1      12.564 -47.323  70.031  1.00  0.00    -0.545 OA
ATOM      9  O   UNL     1      12.443 -48.870  71.707  1.00  0.00    -0.545 OA
ENDBRANCH   1   7
TORSDOF 1
ENDMDL
MODEL 9
REMARK VINA RESULT:    -3.894      7.363      8.241
REMARK INTER + INTRA:          -4.145
REMARK INTER:                  -4.128
REMARK INTRA:                  -0.017
REMARK UNBOUND:                -0.024
REMARK SMILES O=C([O-])c1cccnc1
REMARK SMILES IDX 4 1 5 2 9 3 6 4 8 5 7 6 2 7 1 8 3 9
REMARK H PARENT
REMARK Flexibility Score: inf
ROOT
ATOM      1  C   UNL     1      20.907 -45.360  69.294  1.00  0.00     0.016 A 
ATOM      2  C   UNL     1      22.028 -45.049  70.083  1.00  0.00     0.013 A 
ATOM      3  C   UNL     1      20.514 -44.444  68.303  1.00  0.00     0.120 A 
ATOM      4  C   UNL     1      22.722 -43.856  69.876  1.00  0.00     0.021 A 
ATOM      5  N   UNL     1      21.208 -43.289  68.121  1.00  0.00    -0.264 NA
ATOM      6  C   UNL     1      22.293 -42.978  68.879  1.00  0.00     0.111 A 
ENDROOT
BRANCH   1   7
ATOM      7  C   UNL     1      20.158 -46.618  69.497  1.00  0.00     0.073 C 
ATOM      8  O   UNL     1      19.473 -46.794  70.540  1.00  0.00    -0.545 OA
ATOM      9  O   UNL     1      20.200 -47.625  68.540  1.00  0.00    -0.545 OA
ENDBRANCH   1   7
TORSDOF 1
ENDMDL
