MODEL 1
REMARK VINA RESULT:    -4.146      0.000      0.000
REMARK INTER + INTRA:          -4.975
REMARK INTER:                  -4.873
REMARK INTRA:                  -0.101
REMARK UNBOUND:                -0.101
REMARK SMILES CCCCC(=O)[O-]
REMARK SMILES IDX 4 1 5 2 6 3 7 4 3 5 2 6 1 7
REMARK H PARENT
REMARK Flexibility Score: inf
ROOT
ATOM      1  C   UNL     1      52.989  51.099   5.049  1.00  0.00     0.053 C 
ENDROOT
BRANCH   1   2
ATOM      2  C   UNL     1      52.599  50.673   6.430  1.00  0.00     0.041 C 
ATOM      3  O   UNL     1      53.484  50.446   7.297  1.00  0.00    -0.550 OA
ATOM      4  O   UNL     1      51.257  50.574   6.773  1.00  0.00    -0.550 OA
ENDBRANCH   1   2
BRANCH   1   5
ATOM      5  C   UNL     1      53.625  49.930   4.287  1.00  0.00     0.006 C 
BRANCH   5   6
ATOM      6  C   UNL     1      55.077  50.214   3.876  1.00  0.00    -0.003 C 
ATOM      7  C   UNL     1      55.542  51.614   4.275  1.00  0.00     0.004 C 
ENDBRANCH   5   6
ENDBRANCH   1   5
TORSDOF 3
ENDMDL
MODEL 2
REMARK VINA RESULT:    -4.128      1.211      1.702
REMARK INTER + INTRA:          -4.953
REMARK INTER:                  -4.898
REMARK INTRA:                  -0.055
REMARK UNBOUND:                -0.101
REMARK SMILES CCCCC(=O)[O-]
REMARK SMILES IDX 4 1 5 2 6 3 7 4 3 5 2 6 1 7
REMARK H PARENT
REMARK Flexibility Score: inf
ROOT
ATOM      1  C   UNL     1      52.281  49.792   4.331  1.00  0.00     0.053 C 
ENDROOT
BRANCH   1   2
ATOM      2  C   UNL     1      51.693  50.689   5.374  1.00  0.00     0.041 C 
ATOM      3  O   UNL     1      50.952  51.650   5.039  1.00  0.00    -0.550 OA
ATOM      4  O   UNL     1      51.923  50.433   6.720  1.00  0.00    -0.550 OA
ENDBRANCH   1   2
BRANCH   1   5
ATOM      5  C   UNL     1      53.813  49.845   4.381  1.00  0.00     0.006 C 
BRANCH   5   6
ATOM      6  C   UNL     1      54.353  51.283   4.402  1.00  0.00    -0.003 C 
ATOM      7  C   UNL     1      55.846  51.359   4.080  1.00  0.00     0.004 C 
ENDBRANCH   5   6
ENDBRANCH   1   5
TORSDOF 3
ENDMDL
MODEL 3
REMARK VINA RESULT:    -4.125      1.781      2.354
REMARK INTER + INTRA:          -4.950
REMARK INTER:                  -4.911
REMARK INTRA:                  -0.039
REMARK UNBOUND:                -0.101
REMARK SMILES CCCCC(=O)[O-]
REMARK SMILES IDX 4 1 5 2 6 3 7 4 3 5 2 6 1 7
REMARK H PARENT
REMARK Flexibility Score: inf
ROOT
ATOM      1  C   UNL     1      53.405  49.800   4.283  1.00  0.00     0.053 C 
ENDROOT
BRANCH   1   2
ATOM      2  C   UNL     1      51.909  49.789   4.277  1.00  0.00     0.041 C 
ATOM      3  O   UNL     1      51.266  50.742   4.790  1.00  0.00    -0.550 OA
ATOM      4  O   UNL     1      51.224  48.750   3.659  1.00  0.00    -0.550 OA
ENDBRANCH   1   2
BRANCH   1   5
ATOM      5  C   UNL     1      53.929  51.168   4.737  1.00  0.00     0.006 C 
BRANCH   5   6
ATOM      6  C   UNL     1      55.341  51.464   4.210  1.00  0.00    -0.003 C 
ATOM      7  C   UNL     1      56.014  50.236   3.598  1.00  0.00     0.004 C 
ENDBRANCH   5   6
ENDBRANCH   1   5
TORSDOF 3
ENDMDL
MODEL 4
REMARK VINA RESULT:    -4.118      2.701      3.790
REMARK INTER + INTRA:          -4.942
REMARK INTER:                  -4.921
REMARK INTRA:                  -0.021
REMARK UNBOUND:                -0.101
REMARK SMILES CCCCC(=O)[O-]
REMARK SMILES IDX 4 1 5 2 6 3 7 4 3 5 2 6 1 7
REMARK H PARENT
REMARK Flexibility Score: inf
ROOT
ATOM      1  C   UNL     1      53.270  49.798   4.273  1.00  0.00     0.053 C 
ENDROOT
BRANCH   1   2
ATOM      2  C   UNL     1      53.941  51.114   4.514  1.00  0.00     0.041 C 
ATOM      3  O   UNL     1      53.325  52.042   5.100  1.00  0.00    -0.550 OA
ATOM      4  O   UNL     1      55.265  51.298   4.135  1.00  0.00    -0.550 OA
ENDBRANCH   1   2
BRANCH   1   5
ATOM      5  C   UNL     1      51.747  49.946   4.388  1.00  0.00     0.006 C 
BRANCH   5   6
ATOM      6  C   UNL     1      50.990  48.810   3.683  1.00  0.00    -0.003 C 
ATOM      7  C   UNL     1      49.918  49.321   2.722  1.00  0.00     0.004 C 
ENDBRANCH   5   6
ENDBRANCH   1   5
TORSDOF 3
ENDMDL
MODEL 5
REMARK VINA RESULT:    -4.071      2.049      3.214
REMARK INTER + INTRA:          -4.886
REMARK INTER:                  -4.841
REMARK INTRA:                  -0.045
REMARK UNBOUND:                -0.101
REMARK SMILES CCCCC(=O)[O-]
REMARK SMILES IDX 4 1 5 2 6 3 7 4 3 5 2 6 1 7
REMARK H PARENT
REMARK Flexibility Score: inf
ROOT
ATOM      1  C   UNL     1      54.497  50.900   4.251  1.00  0.00     0.053 C 
ENDROOT
BRANCH   1   2
ATOM      2  C   UNL     1      54.440  52.001   5.263  1.00  0.00     0.041 C 
ATOM      3  O   UNL     1      53.817  53.065   5.007  1.00  0.00    -0.550 OA
ATOM      4  O   UNL     1      55.032  51.833   6.508  1.00  0.00    -0.550 OA
ENDBRANCH   1   2
BRANCH   1   5
ATOM      5  C   UNL     1      53.574  49.746   4.663  1.00  0.00     0.006 C 
BRANCH   5   6
ATOM      6  C   UNL     1      52.088  50.130   4.603  1.00  0.00    -0.003 C 
ATOM      7  C   UNL     1      51.237  49.089   3.875  1.00  0.00     0.004 C 
ENDBRANCH   5   6
ENDBRANCH   1   5
TORSDOF 3
ENDMDL
MODEL 6
REMARK VINA RESULT:    -4.063      1.622      2.014
REMARK INTER + INTRA:          -4.877
REMARK INTER:                  -4.763
REMARK INTRA:                  -0.114
REMARK UNBOUND:                -0.101
REMARK SMILES CCCCC(=O)[O-]
REMARK SMILES IDX 4 1 5 2 6 3 7 4 3 5 2 6 1 7
REMARK H PARENT
REMARK Flexibility Score: inf
ROOT
ATOM      1  C   UNL     1      53.255  50.516   6.482  1.00  0.00     0.053 C 
ENDROOT
BRANCH   1   2
ATOM      2  C   UNL     1      54.178  51.242   7.410  1.00  0.00     0.041 C 
ATOM      3  O   UNL     1      54.408  50.785   8.561  1.00  0.00    -0.550 OA
ATOM      4  O   UNL     1      54.822  52.397   6.986  1.00  0.00    -0.550 OA
ENDBRANCH   1   2
BRANCH   1   5
ATOM      5  C   UNL     1      53.409  51.046   5.051  1.00  0.00     0.006 C 
BRANCH   5   6
ATOM      6  C   UNL     1      54.292  50.142   4.178  1.00  0.00    -0.003 C 
ATOM      7  C   UNL     1      55.656  50.761   3.877  1.00  0.00     0.004 C 
ENDBRANCH   5   6
ENDBRANCH   1   5
TORSDOF 3
ENDMDL
MODEL 7
REMARK VINA RESULT:    -3.981      1.656      2.428
REMARK INTER + INTRA:          -4.781
REMARK INTER:                  -4.673
REMARK INTRA:                  -0.107
REMARK UNBOUND:                -0.101
REMARK SMILES CCCCC(=O)[O-]
REMARK SMILES IDX 4 1 5 2 6 3 7 4 3 5 2 6 1 7
REMARK H PARENT
REMARK Flexibility Score: inf
ROOT
ATOM      1  C   UNL     1      55.100  52.024   6.179  1.00  0.00     0.053 C 
ENDROOT
BRANCH   1   2
ATOM      2  C   UNL     1      54.289  51.808   7.417  1.00  0.00     0.041 C 
ATOM      3  O   UNL     1      53.924  52.791   8.116  1.00  0.00    -0.550 OA
ATOM      4  O   UNL     1      53.891  50.525   7.773  1.00  0.00    -0.550 OA
ENDBRANCH   1   2
BRANCH   1   5
ATOM      5  C   UNL     1      54.217  51.899   4.931  1.00  0.00     0.006 C 
BRANCH   5   6
ATOM      6  C   UNL     1      54.340  50.525   4.256  1.00  0.00    -0.003 C 
ATOM      7  C   UNL     1      53.033  49.732   4.284  1.00  0.00     0.004 C 
ENDBRANCH   5   6
ENDBRANCH   1   5
TORSDOF 3
ENDMDL
MODEL 8
REMARK VINA RESULT:    -3.922      2.964      3.405
REMARK INTER + INTRA:          -4.712
REMARK INTER:                  -4.695
REMARK INTRA:                  -0.017
REMARK UNBOUND:                -0.101
REMARK SMILES CCCCC(=O)[O-]
REMARK SMILES IDX 4 1 5 2 6 3 7 4 3 5 2 6 1 7
REMARK H PARENT
REMARK Flexibility Score: inf
ROOT
ATOM      1  C   UNL     1      51.207  49.899   4.257  1.00  0.00     0.053 C 
ENDROOT
BRANCH   1   2
ATOM      2  C   UNL     1      50.457  48.928   3.400  1.00  0.00     0.041 C 
ATOM      3  O   UNL     1      50.462  47.700   3.679  1.00  0.00    -0.550 OA
ATOM      4  O   UNL     1      49.711  49.386   2.321  1.00  0.00    -0.550 OA
ENDBRANCH   1   2
BRANCH   1   5
ATOM      5  C   UNL     1      52.715  49.631   4.176  1.00  0.00     0.006 C 
BRANCH   5   6
ATOM      6  C   UNL     1      53.532  50.584   5.062  1.00  0.00    -0.003 C 
ATOM      7  C   UNL     1      54.708  51.219   4.320  1.00  0.00     0.004 C 
ENDBRANCH   5   6
ENDBRANCH   1   5
TORSDOF 3
ENDMDL
MODEL 9
REMARK VINA RESULT:    -3.896      2.412      2.982
REMARK INTER + INTRA:          -4.681
REMARK INTER:                  -4.665
REMARK INTRA:                  -0.015
REMARK UNBOUND:                -0.101
REMARK SMILES CCCCC(=O)[O-]
REMARK SMILES IDX 4 1 5 2 6 3 7 4 3 5 2 6 1 7
REMARK H PARENT
REMARK Flexibility Score: inf
ROOT
ATOM      1  C   UNL     1      51.463  49.269   3.896  1.00  0.00     0.053 C 
ENDROOT
BRANCH   1   2
ATOM      2  C   UNL     1      50.049  49.605   4.254  1.00  0.00     0.041 C 
ATOM      3  O   UNL     1      49.362  50.342   3.499  1.00  0.00    -0.550 OA
ATOM      4  O   UNL     1      49.474  49.064   5.398  1.00  0.00    -0.550 OA
ENDBRANCH   1   2
BRANCH   1   5
ATOM      5  C   UNL     1      52.439  50.147   4.689  1.00  0.00     0.006 C 
BRANCH   5   6
ATOM      6  C   UNL     1      53.904  49.897   4.304  1.00  0.00    -0.003 C 
ATOM      7  C   UNL     1      54.756  51.165   4.357  1.00  0.00     0.004 C 
ENDBRANCH   5   6
ENDBRANCH   1   5
TORSDOF 3
ENDMDL
