MODEL 1
REMARK VINA RESULT:    -4.688      0.000      0.000
REMARK INTER + INTRA:          -4.688
REMARK INTER:                  -4.688
REMARK INTRA:                   0.000
REMARK UNBOUND:                 0.000
REMARK SMILES CC1=CC(=O)[C@@H]2C[C@H]1C2(C)C
REMARK SMILES IDX 1 1 2 2 3 3 4 4 5 5 6 6 7 7 8 8 9 9 10 10 11 11
REMARK H PARENT
REMARK Flexibility Score: inf
ROOT
ATOM      1  C   UNL     1     -14.561  15.653 -30.888  1.00  0.00     0.040 C 
ATOM      2  C   UNL     1     -14.811  14.183 -31.010  1.00  0.00    -0.066 C 
ATOM      3  C   UNL     1     -13.918  13.253 -30.568  1.00  0.00     0.047 C 
ATOM      4  C   UNL     1     -14.307  11.818 -30.756  1.00  0.00     0.159 C 
ATOM      5  O   UNL     1     -13.587  10.868 -30.352  1.00  0.00    -0.295 OA
ATOM      6  C   UNL     1     -15.637  11.590 -31.474  1.00  0.00     0.067 C 
ATOM      7  C   UNL     1     -15.590  12.558 -32.675  1.00  0.00     0.021 C 
ATOM      8  C   UNL     1     -16.084  13.652 -31.701  1.00  0.00     0.022 C 
ATOM      9  C   UNL     1     -16.709  12.520 -30.837  1.00  0.00    -0.019 C 
ATOM     10  C   UNL     1     -16.713  12.693 -29.291  1.00  0.00     0.012 C 
ATOM     11  C   UNL     1     -18.147  12.159 -31.288  1.00  0.00     0.012 C 
ENDROOT
TORSDOF 0
ENDMDL
MODEL 2
REMARK VINA RESULT:    -4.564      2.427      4.078
REMARK INTER + INTRA:          -4.564
REMARK INTER:                  -4.564
REMARK INTRA:                   0.000
REMARK UNBOUND:                 0.000
REMARK SMILES CC1=CC(=O)[C@@H]2C[C@H]1C2(C)C
REMARK SMILES IDX 1 1 2 2 3 3 4 4 5 5 6 6 7 7 8 8 9 9 10 10 11 11
REMARK H PARENT
REMARK Flexibility Score: inf
ROOT
ATOM      1  C   UNL     1     -20.576  11.500 -30.082  1.00  0.00     0.040 C 
ATOM      2  C   UNL     1     -19.096  11.605 -30.272  1.00  0.00    -0.066 C 
ATOM      3  C   UNL     1     -18.542  12.169 -31.384  1.00  0.00     0.047 C 
ATOM      4  C   UNL     1     -17.044  12.205 -31.432  1.00  0.00     0.159 C 
ATOM      5  O   UNL     1     -16.416  12.736 -32.384  1.00  0.00    -0.295 OA
ATOM      6  C   UNL     1     -16.335  11.552 -30.246  1.00  0.00     0.067 C 
ATOM      7  C   UNL     1     -17.086  10.218 -30.045  1.00  0.00     0.021 C 
ATOM      8  C   UNL     1     -18.121  11.023 -29.227  1.00  0.00     0.022 C 
ATOM      9  C   UNL     1     -16.999  12.058 -28.933  1.00  0.00    -0.019 C 
ATOM     10  C   UNL     1     -17.391  13.561 -28.835  1.00  0.00     0.012 C 
ATOM     11  C   UNL     1     -16.172  11.690 -27.674  1.00  0.00     0.012 C 
ENDROOT
TORSDOF 0
ENDMDL
MODEL 3
REMARK VINA RESULT:    -4.545      2.521      3.766
REMARK INTER + INTRA:          -4.545
REMARK INTER:                  -4.545
REMARK INTRA:                   0.000
REMARK UNBOUND:                 0.000
REMARK SMILES CC1=CC(=O)[C@@H]2C[C@H]1C2(C)C
REMARK SMILES IDX 1 1 2 2 3 3 4 4 5 5 6 6 7 7 8 8 9 9 10 10 11 11
REMARK H PARENT
REMARK Flexibility Score: inf
ROOT
ATOM      1  C   UNL     1     -15.729  12.525 -32.773  1.00  0.00     0.040 C 
ATOM      2  C   UNL     1     -16.565  12.477 -31.534  1.00  0.00    -0.066 C 
ATOM      3  C   UNL     1     -17.921  12.338 -31.576  1.00  0.00     0.047 C 
ATOM      4  C   UNL     1     -18.625  12.304 -30.252  1.00  0.00     0.159 C 
ATOM      5  O   UNL     1     -19.869  12.138 -30.157  1.00  0.00    -0.295 OA
ATOM      6  C   UNL     1     -17.727  12.488 -29.029  1.00  0.00     0.067 C 
ATOM      7  C   UNL     1     -16.812  13.673 -29.406  1.00  0.00     0.021 C 
ATOM      8  C   UNL     1     -15.925  12.642 -30.140  1.00  0.00     0.022 C 
ATOM      9  C   UNL     1     -16.490  11.557 -29.179  1.00  0.00    -0.019 C 
ATOM     10  C   UNL     1     -16.709  10.121 -29.738  1.00  0.00     0.012 C 
ATOM     11  C   UNL     1     -15.671  11.447 -27.867  1.00  0.00     0.012 C 
ENDROOT
TORSDOF 0
ENDMDL
MODEL 4
REMARK VINA RESULT:    -4.306      1.966      3.198
REMARK INTER + INTRA:          -4.306
REMARK INTER:                  -4.306
REMARK INTRA:                   0.000
REMARK UNBOUND:                 0.000
REMARK SMILES CC1=CC(=O)[C@@H]2C[C@H]1C2(C)C
REMARK SMILES IDX 1 1 2 2 3 3 4 4 5 5 6 6 7 7 8 8 9 9 10 10 11 11
REMARK H PARENT
REMARK Flexibility Score: inf
ROOT
ATOM      1  C   UNL     1     -15.854  11.230 -26.828  1.00  0.00     0.040 C 
ATOM      2  C   UNL     1     -16.155  11.588 -28.248  1.00  0.00    -0.066 C 
ATOM      3  C   UNL     1     -15.332  11.239 -29.278  1.00  0.00     0.047 C 
ATOM      4  C   UNL     1     -15.766  11.666 -30.648  1.00  0.00     0.159 C 
ATOM      5  O   UNL     1     -15.114  11.368 -31.682  1.00  0.00    -0.295 OA
ATOM      6  C   UNL     1     -17.054  12.488 -30.699  1.00  0.00     0.067 C 
ATOM      7  C   UNL     1     -16.886  13.523 -29.566  1.00  0.00     0.021 C 
ATOM      8  C   UNL     1     -17.400  12.427 -28.606  1.00  0.00     0.022 C 
ATOM      9  C   UNL     1     -18.127  11.783 -29.821  1.00  0.00    -0.019 C 
ATOM     10  C   UNL     1     -18.227  10.232 -29.880  1.00  0.00     0.012 C 
ATOM     11  C   UNL     1     -19.545  12.369 -30.038  1.00  0.00     0.012 C 
ENDROOT
TORSDOF 0
ENDMDL
MODEL 5
REMARK VINA RESULT:    -4.259      1.876      3.376
REMARK INTER + INTRA:          -4.259
REMARK INTER:                  -4.259
REMARK INTRA:                   0.000
REMARK UNBOUND:                 0.000
REMARK SMILES CC1=CC(=O)[C@@H]2C[C@H]1C2(C)C
REMARK SMILES IDX 1 1 2 2 3 3 4 4 5 5 6 6 7 7 8 8 9 9 10 10 11 11
REMARK H PARENT
REMARK Flexibility Score: inf
ROOT
ATOM      1  C   UNL     1     -15.319  11.734 -27.905  1.00  0.00     0.040 C 
ATOM      2  C   UNL     1     -15.615  12.047 -29.338  1.00  0.00    -0.066 C 
ATOM      3  C   UNL     1     -16.888  12.087 -29.826  1.00  0.00     0.047 C 
ATOM      4  C   UNL     1     -17.029  12.417 -31.281  1.00  0.00     0.159 C 
ATOM      5  O   UNL     1     -18.152  12.525 -31.840  1.00  0.00    -0.295 OA
ATOM      6  C   UNL     1     -15.715  12.612 -32.039  1.00  0.00     0.067 C 
ATOM      7  C   UNL     1     -14.836  11.429 -31.580  1.00  0.00     0.021 C 
ATOM      8  C   UNL     1     -14.474  12.288 -30.347  1.00  0.00     0.022 C 
ATOM      9  C   UNL     1     -14.796  13.547 -31.202  1.00  0.00    -0.019 C 
ATOM     10  C   UNL     1     -15.439  14.774 -30.492  1.00  0.00     0.012 C 
ATOM     11  C   UNL     1     -13.568  14.043 -32.008  1.00  0.00     0.012 C 
ENDROOT
TORSDOF 0
ENDMDL
MODEL 6
REMARK VINA RESULT:    -4.251      2.261      3.533
REMARK INTER + INTRA:          -4.251
REMARK INTER:                  -4.251
REMARK INTRA:                   0.000
REMARK UNBOUND:                 0.000
REMARK SMILES CC1=CC(=O)[C@@H]2C[C@H]1C2(C)C
REMARK SMILES IDX 1 1 2 2 3 3 4 4 5 5 6 6 7 7 8 8 9 9 10 10 11 11
REMARK H PARENT
REMARK Flexibility Score: inf
ROOT
ATOM      1  C   UNL     1     -14.973  11.056 -27.095  1.00  0.00     0.040 C 
ATOM      2  C   UNL     1     -15.746  11.240 -28.363  1.00  0.00    -0.066 C 
ATOM      3  C   UNL     1     -16.896  10.554 -28.619  1.00  0.00     0.047 C 
ATOM      4  C   UNL     1     -17.562  10.845 -29.930  1.00  0.00     0.159 C 
ATOM      5  O   UNL     1     -18.650  10.308 -30.264  1.00  0.00    -0.295 OA
ATOM      6  C   UNL     1     -16.827  11.836 -30.832  1.00  0.00     0.067 C 
ATOM      7  C   UNL     1     -15.355  11.373 -30.780  1.00  0.00     0.021 C 
ATOM      8  C   UNL     1     -15.237  12.185 -29.470  1.00  0.00     0.022 C 
ATOM      9  C   UNL     1     -16.412  13.068 -29.978  1.00  0.00    -0.019 C 
ATOM     10  C   UNL     1     -17.424  13.618 -28.933  1.00  0.00     0.012 C 
ATOM     11  C   UNL     1     -15.925  14.253 -30.851  1.00  0.00     0.012 C 
ENDROOT
TORSDOF 0
ENDMDL
MODEL 7
REMARK VINA RESULT:    -4.231      2.329      3.081
REMARK INTER + INTRA:          -4.231
REMARK INTER:                  -4.231
REMARK INTRA:                   0.000
REMARK UNBOUND:                 0.000
REMARK SMILES CC1=CC(=O)[C@@H]2C[C@H]1C2(C)C
REMARK SMILES IDX 1 1 2 2 3 3 4 4 5 5 6 6 7 7 8 8 9 9 10 10 11 11
REMARK H PARENT
REMARK Flexibility Score: inf
ROOT
ATOM      1  C   UNL     1     -14.061  12.203 -30.730  1.00  0.00     0.040 C 
ATOM      2  C   UNL     1     -15.183  11.785 -29.834  1.00  0.00    -0.066 C 
ATOM      3  C   UNL     1     -15.019  11.621 -28.490  1.00  0.00     0.047 C 
ATOM      4  C   UNL     1     -16.235  11.201 -27.721  1.00  0.00     0.159 C 
ATOM      5  O   UNL     1     -16.223  11.057 -26.471  1.00  0.00    -0.295 OA
ATOM      6  C   UNL     1     -17.490  10.958 -28.561  1.00  0.00     0.067 C 
ATOM      7  C   UNL     1     -16.987  10.124 -29.759  1.00  0.00     0.021 C 
ATOM      8  C   UNL     1     -16.578  11.465 -30.410  1.00  0.00     0.022 C 
ATOM      9  C   UNL     1     -17.668  12.154 -29.540  1.00  0.00    -0.019 C 
ATOM     10  C   UNL     1     -17.388  13.590 -29.012  1.00  0.00     0.012 C 
ATOM     11  C   UNL     1     -19.058  12.152 -30.226  1.00  0.00     0.012 C 
ENDROOT
TORSDOF 0
ENDMDL
MODEL 8
REMARK VINA RESULT:    -4.025     10.833     12.354
REMARK INTER + INTRA:          -4.025
REMARK INTER:                  -4.025
REMARK INTRA:                   0.000
REMARK UNBOUND:                 0.000
REMARK SMILES CC1=CC(=O)[C@@H]2C[C@H]1C2(C)C
REMARK SMILES IDX 1 1 2 2 3 3 4 4 5 5 6 6 7 7 8 8 9 9 10 10 11 11
REMARK H PARENT
REMARK Flexibility Score: inf
ROOT
ATOM      1  C   UNL     1     -25.966  13.556 -30.328  1.00  0.00     0.040 C 
ATOM      2  C   UNL     1     -26.574  12.290 -29.811  1.00  0.00    -0.066 C 
ATOM      3  C   UNL     1     -26.195  11.731 -28.627  1.00  0.00     0.047 C 
ATOM      4  C   UNL     1     -26.894  10.463 -28.239  1.00  0.00     0.159 C 
ATOM      5  O   UNL     1     -26.663   9.875 -27.151  1.00  0.00    -0.295 OA
ATOM      6  C   UNL     1     -27.904   9.935 -29.257  1.00  0.00     0.067 C 
ATOM      7  C   UNL     1     -27.171  10.049 -30.611  1.00  0.00     0.021 C 
ATOM      8  C   UNL     1     -27.630  11.526 -30.636  1.00  0.00     0.022 C 
ATOM      9  C   UNL     1     -28.811  11.115 -29.711  1.00  0.00    -0.019 C 
ATOM     10  C   UNL     1     -29.293  12.133 -28.638  1.00  0.00     0.012 C 
ATOM     11  C   UNL     1     -30.048  10.634 -30.513  1.00  0.00     0.012 C 
ENDROOT
TORSDOF 0
ENDMDL
