MODEL 1
REMARK VINA RESULT:    -8.199      0.000      0.000
REMARK INTER + INTRA:         -10.874
REMARK INTER:                 -10.116
REMARK INTRA:                  -0.758
REMARK UNBOUND:                -0.758
REMARK SMILES CC(C)=CCC[C@@H](C)c1ccc(C)cc1
REMARK SMILES IDX 6 1 7 2 8 3 9 4 13 5 12 6 11 7 14 8 10 9 15 10 5 11 4 12
REMARK SMILES IDX 2 13 1 14 3 15
REMARK H PARENT
REMARK Flexibility Score: inf
ROOT
ATOM      1  C   UNL     1     101.615 101.125 101.014  1.00  0.00     0.012 C 
ENDROOT
BRANCH   1   2
ATOM      2  C   UNL     1     102.631 100.689 102.098  1.00  0.00     0.016 C 
ATOM      3  C   UNL     1     102.407 101.411 103.437  1.00  0.00     0.013 C 
BRANCH   2   4
ATOM      4  C   UNL     1     102.577  99.184 102.293  1.00  0.00    -0.045 A 
ATOM      5  C   UNL     1     102.397  94.908 102.872  1.00  0.00     0.044 C 
ATOM      6  C   UNL     1     102.479  96.394 102.695  1.00  0.00    -0.051 A 
ATOM      7  C   UNL     1     101.558  97.234 103.336  1.00  0.00     0.004 A 
ATOM      8  C   UNL     1     103.437  96.952 101.836  1.00  0.00     0.004 A 
ATOM      9  C   UNL     1     101.610  98.618 103.143  1.00  0.00     0.004 A 
ATOM     10  C   UNL     1     103.490  98.335 101.642  1.00  0.00     0.004 A 
ENDBRANCH   2   4
ENDBRANCH   1   2
BRANCH   1  11
ATOM     11  C   UNL     1     100.263 101.605 101.571  1.00  0.00     0.028 C 
BRANCH  11  12
ATOM     12  C   UNL     1      99.130 100.675 101.210  1.00  0.00    -0.028 C 
ATOM     13  C   UNL     1      98.299 100.847 100.158  1.00  0.00    -0.080 C 
ATOM     14  C   UNL     1      98.464 101.989  99.182  1.00  0.00     0.039 C 
ATOM     15  C   UNL     1      97.188  99.849  99.950  1.00  0.00     0.039 C 
ENDBRANCH  11  12
ENDBRANCH   1  11
TORSDOF 4
ENDMDL
MODEL 2
REMARK VINA RESULT:    -8.183      0.067      1.252
REMARK INTER + INTRA:         -10.855
REMARK INTER:                 -10.107
REMARK INTRA:                  -0.748
REMARK UNBOUND:                -0.758
REMARK SMILES CC(C)=CCC[C@@H](C)c1ccc(C)cc1
REMARK SMILES IDX 6 1 7 2 8 3 9 4 13 5 12 6 11 7 14 8 10 9 15 10 5 11 4 12
REMARK SMILES IDX 2 13 1 14 3 15
REMARK H PARENT
REMARK Flexibility Score: inf
ROOT
ATOM      1  C   UNL     1     101.641 101.157 101.030  1.00  0.00     0.012 C 
ENDROOT
BRANCH   1   2
ATOM      2  C   UNL     1     102.656 100.728 102.117  1.00  0.00     0.016 C 
ATOM      3  C   UNL     1     102.431 101.458 103.452  1.00  0.00     0.013 C 
BRANCH   2   4
ATOM      4  C   UNL     1     102.601  99.224 102.321  1.00  0.00    -0.045 A 
ATOM      5  C   UNL     1     102.471  94.943 102.879  1.00  0.00     0.044 C 
ATOM      6  C   UNL     1     102.498  96.426 102.661  1.00  0.00    -0.051 A 
ATOM      7  C   UNL     1     103.502  97.007 101.873  1.00  0.00     0.004 A 
ATOM      8  C   UNL     1     101.558  97.251 103.296  1.00  0.00     0.004 A 
ATOM      9  C   UNL     1     103.549  98.393 101.698  1.00  0.00     0.004 A 
ATOM     10  C   UNL     1     101.604  98.637 103.122  1.00  0.00     0.004 A 
ENDBRANCH   2   4
ENDBRANCH   1   2
BRANCH   1  11
ATOM     11  C   UNL     1     100.287 101.639 101.582  1.00  0.00     0.028 C 
BRANCH  11  12
ATOM     12  C   UNL     1      99.151 100.721 101.199  1.00  0.00    -0.028 C 
ATOM     13  C   UNL     1      98.329 100.913 100.144  1.00  0.00    -0.080 C 
ATOM     14  C   UNL     1      98.509 102.068  99.186  1.00  0.00     0.039 C 
ATOM     15  C   UNL     1      97.214  99.925  99.913  1.00  0.00     0.039 C 
ENDBRANCH  11  12
ENDBRANCH   1  11
TORSDOF 4
ENDMDL
MODEL 3
REMARK VINA RESULT:    -8.020      1.014      5.604
REMARK INTER + INTRA:         -10.653
REMARK INTER:                  -9.890
REMARK INTRA:                  -0.762
REMARK UNBOUND:                -0.758
REMARK SMILES CC(C)=CCC[C@@H](C)c1ccc(C)cc1
REMARK SMILES IDX 6 1 7 2 8 3 9 4 13 5 12 6 11 7 14 8 10 9 15 10 5 11 4 12
REMARK SMILES IDX 2 13 1 14 3 15
REMARK H PARENT
REMARK Flexibility Score: inf
ROOT
ATOM      1  C   UNL     1     103.325  99.534 101.810  1.00  0.00     0.012 C 
ENDROOT
BRANCH   1   2
ATOM      2  C   UNL     1     102.193 100.170 102.652  1.00  0.00     0.016 C 
ATOM      3  C   UNL     1     102.679 101.375 103.474  1.00  0.00     0.013 C 
BRANCH   2   4
ATOM      4  C   UNL     1     101.035 100.574 101.756  1.00  0.00    -0.045 A 
ATOM      5  C   UNL     1      97.765 101.740  99.186  1.00  0.00     0.044 C 
ATOM      6  C   UNL     1      98.898 101.362 100.093  1.00  0.00    -0.051 A 
ATOM      7  C   UNL     1     100.221 101.656  99.733  1.00  0.00     0.004 A 
ATOM      8  C   UNL     1      98.649 100.653 101.277  1.00  0.00     0.004 A 
ATOM      9  C   UNL     1     101.280 101.273 100.561  1.00  0.00     0.004 A 
ATOM     10  C   UNL     1      99.707 100.269 102.105  1.00  0.00     0.004 A 
ENDBRANCH   2   4
ENDBRANCH   1   2
BRANCH   1  11
ATOM     11  C   UNL     1     103.360  97.996 101.856  1.00  0.00     0.028 C 
BRANCH  11  12
ATOM     12  C   UNL     1     102.563  97.437 103.011  1.00  0.00    -0.028 C 
ATOM     13  C   UNL     1     102.350  96.122 103.233  1.00  0.00    -0.080 C 
ATOM     14  C   UNL     1     102.953  95.050 102.355  1.00  0.00     0.039 C 
ATOM     15  C   UNL     1     101.498  95.722 104.411  1.00  0.00     0.039 C 
ENDBRANCH  11  12
ENDBRANCH   1  11
TORSDOF 4
ENDMDL
MODEL 4
REMARK VINA RESULT:    -7.975      1.029      5.494
REMARK INTER + INTRA:         -10.598
REMARK INTER:                  -9.838
REMARK INTRA:                  -0.760
REMARK UNBOUND:                -0.758
REMARK SMILES CC(C)=CCC[C@@H](C)c1ccc(C)cc1
REMARK SMILES IDX 6 1 7 2 8 3 9 4 13 5 12 6 11 7 14 8 10 9 15 10 5 11 4 12
REMARK SMILES IDX 2 13 1 14 3 15
REMARK H PARENT
REMARK Flexibility Score: inf
ROOT
ATOM      1  C   UNL     1     103.298  99.534 101.689  1.00  0.00     0.012 C 
ENDROOT
BRANCH   1   2
ATOM      2  C   UNL     1     102.169 100.145 102.556  1.00  0.00     0.016 C 
ATOM      3  C   UNL     1     102.657 101.328 103.408  1.00  0.00     0.013 C 
BRANCH   2   4
ATOM      4  C   UNL     1     101.005 100.570 101.677  1.00  0.00    -0.045 A 
ATOM      5  C   UNL     1      97.674 101.761  99.201  1.00  0.00     0.044 C 
ATOM      6  C   UNL     1      98.832 101.321 100.045  1.00  0.00    -0.051 A 
ATOM      7  C   UNL     1      98.609 100.647 101.254  1.00  0.00     0.004 A 
ATOM      8  C   UNL     1     100.144 101.637  99.665  1.00  0.00     0.004 A 
ATOM      9  C   UNL     1      99.687 100.267 102.060  1.00  0.00     0.004 A 
ATOM     10  C   UNL     1     101.222 101.258 100.470  1.00  0.00     0.004 A 
ENDBRANCH   2   4
ENDBRANCH   1   2
BRANCH   1  11
ATOM     11  C   UNL     1     103.533  98.031 101.924  1.00  0.00     0.028 C 
BRANCH  11  12
ATOM     12  C   UNL     1     102.667  97.480 103.031  1.00  0.00    -0.028 C 
ATOM     13  C   UNL     1     102.382  96.170 103.204  1.00  0.00    -0.080 C 
ATOM     14  C   UNL     1     102.966  95.096 102.316  1.00  0.00     0.039 C 
ATOM     15  C   UNL     1     101.468  95.779 104.337  1.00  0.00     0.039 C 
ENDBRANCH  11  12
ENDBRANCH   1  11
TORSDOF 4
ENDMDL
MODEL 5
REMARK VINA RESULT:    -7.800      0.994      1.905
REMARK INTER + INTRA:         -10.381
REMARK INTER:                  -9.726
REMARK INTRA:                  -0.655
REMARK UNBOUND:                -0.758
REMARK SMILES CC(C)=CCC[C@@H](C)c1ccc(C)cc1
REMARK SMILES IDX 6 1 7 2 8 3 9 4 13 5 12 6 11 7 14 8 10 9 15 10 5 11 4 12
REMARK SMILES IDX 2 13 1 14 3 15
REMARK H PARENT
REMARK Flexibility Score: inf
ROOT
ATOM      1  C   UNL     1     100.400 101.837 101.465  1.00  0.00     0.012 C 
ENDROOT
BRANCH   1   2
ATOM      2  C   UNL     1     101.839 101.584 101.975  1.00  0.00     0.016 C 
ATOM      3  C   UNL     1     102.158 102.380 103.252  1.00  0.00     0.013 C 
BRANCH   2   4
ATOM      4  C   UNL     1     102.059 100.100 102.208  1.00  0.00    -0.045 A 
ATOM      5  C   UNL     1     102.715  95.879 102.852  1.00  0.00     0.044 C 
ATOM      6  C   UNL     1     102.473  97.338 102.602  1.00  0.00    -0.051 A 
ATOM      7  C   UNL     1     103.439  98.112 101.942  1.00  0.00     0.004 A 
ATOM      8  C   UNL     1     101.310  97.954 103.083  1.00  0.00     0.004 A 
ATOM      9  C   UNL     1     103.231  99.479 101.740  1.00  0.00     0.004 A 
ATOM     10  C   UNL     1     101.100  99.321 102.882  1.00  0.00     0.004 A 
ENDBRANCH   2   4
ENDBRANCH   1   2
BRANCH   1  11
ATOM     11  C   UNL     1     100.212 101.597  99.956  1.00  0.00     0.028 C 
BRANCH  11  12
ATOM     12  C   UNL     1      98.850 102.033  99.470  1.00  0.00    -0.028 C 
ATOM     13  C   UNL     1      97.757 101.239  99.432  1.00  0.00    -0.080 C 
ATOM     14  C   UNL     1      97.780  99.816  99.940  1.00  0.00     0.039 C 
ATOM     15  C   UNL     1      96.475 101.810  98.883  1.00  0.00     0.039 C 
ENDBRANCH  11  12
ENDBRANCH   1  11
TORSDOF 4
ENDMDL
MODEL 6
REMARK VINA RESULT:    -7.361      1.929      6.991
REMARK INTER + INTRA:          -9.840
REMARK INTER:                  -9.429
REMARK INTRA:                  -0.411
REMARK UNBOUND:                -0.758
REMARK SMILES CC(C)=CCC[C@@H](C)c1ccc(C)cc1
REMARK SMILES IDX 6 1 7 2 8 3 9 4 13 5 12 6 11 7 14 8 10 9 15 10 5 11 4 12
REMARK SMILES IDX 2 13 1 14 3 15
REMARK H PARENT
REMARK Flexibility Score: inf
ROOT
ATOM      1  C   UNL     1      99.983 101.714  99.708  1.00  0.00     0.012 C 
ENDROOT
BRANCH   1   2
ATOM      2  C   UNL     1      98.857 100.753 100.159  1.00  0.00     0.016 C 
ATOM      3  C   UNL     1      98.764 100.634 101.689  1.00  0.00     0.013 C 
BRANCH   2   4
ATOM      4  C   UNL     1      97.524 101.198  99.582  1.00  0.00    -0.045 A 
ATOM      5  C   UNL     1      93.752 102.492  97.924  1.00  0.00     0.044 C 
ATOM      6  C   UNL     1      95.057 102.062  98.524  1.00  0.00    -0.051 A 
ATOM      7  C   UNL     1      96.246 102.719  98.175  1.00  0.00     0.004 A 
ATOM      8  C   UNL     1      95.109 100.958  99.387  1.00  0.00     0.004 A 
ATOM      9  C   UNL     1      97.468 102.296  98.705  1.00  0.00     0.004 A 
ATOM     10  C   UNL     1      96.330 100.534  99.917  1.00  0.00     0.004 A 
ENDBRANCH   2   4
ENDBRANCH   1   2
BRANCH   1  11
ATOM     11  C   UNL     1     101.136 101.857 100.718  1.00  0.00     0.028 C 
BRANCH  11  12
ATOM     12  C   UNL     1     101.907 100.570 100.896  1.00  0.00    -0.028 C 
ATOM     13  C   UNL     1     102.605 100.238 102.004  1.00  0.00    -0.080 C 
ATOM     14  C   UNL     1     102.635 101.123 103.229  1.00  0.00     0.039 C 
ATOM     15  C   UNL     1     103.356  98.932 102.015  1.00  0.00     0.039 C 
ENDBRANCH  11  12
ENDBRANCH   1  11
TORSDOF 4
ENDMDL
MODEL 7
REMARK VINA RESULT:    -7.284      2.856      4.811
REMARK INTER + INTRA:          -9.745
REMARK INTER:                  -9.073
REMARK INTRA:                  -0.672
REMARK UNBOUND:                -0.758
REMARK SMILES CC(C)=CCC[C@@H](C)c1ccc(C)cc1
REMARK SMILES IDX 6 1 7 2 8 3 9 4 13 5 12 6 11 7 14 8 10 9 15 10 5 11 4 12
REMARK SMILES IDX 2 13 1 14 3 15
REMARK H PARENT
REMARK Flexibility Score: inf
ROOT
ATOM      1  C   UNL     1      98.245 102.052  98.518  1.00  0.00     0.012 C 
ENDROOT
BRANCH   1   2
ATOM      2  C   UNL     1      97.931 101.314  99.842  1.00  0.00     0.016 C 
ATOM      3  C   UNL     1      97.386  99.896  99.609  1.00  0.00     0.013 C 
BRANCH   2   4
ATOM      4  C   UNL     1      99.167 101.268 100.723  1.00  0.00    -0.045 A 
ATOM      5  C   UNL     1     102.664 101.125 103.254  1.00  0.00     0.044 C 
ATOM      6  C   UNL     1     101.443 101.203 102.387  1.00  0.00    -0.051 A 
ATOM      7  C   UNL     1     100.222 100.683 102.838  1.00  0.00     0.004 A 
ATOM      8  C   UNL     1     101.528 101.736 101.093  1.00  0.00     0.004 A 
ATOM      9  C   UNL     1      99.091 100.722 102.016  1.00  0.00     0.004 A 
ATOM     10  C   UNL     1     100.399 101.775 100.270  1.00  0.00     0.004 A 
ENDBRANCH   2   4
ENDBRANCH   1   2
BRANCH   1  11
ATOM     11  C   UNL     1      97.407 103.323  98.287  1.00  0.00     0.028 C 
BRANCH  11  12
ATOM     12  C   UNL     1      95.933 103.088  98.513  1.00  0.00    -0.028 C 
ATOM     13  C   UNL     1      95.131 102.386  97.683  1.00  0.00    -0.080 C 
ATOM     14  C   UNL     1      95.659 101.700  96.444  1.00  0.00     0.039 C 
ATOM     15  C   UNL     1      93.668 102.271  98.026  1.00  0.00     0.039 C 
ENDBRANCH  11  12
ENDBRANCH   1  11
TORSDOF 4
ENDMDL
MODEL 8
REMARK VINA RESULT:    -7.218      1.247      6.132
REMARK INTER + INTRA:          -9.663
REMARK INTER:                  -8.949
REMARK INTRA:                  -0.715
REMARK UNBOUND:                -0.758
REMARK SMILES CC(C)=CCC[C@@H](C)c1ccc(C)cc1
REMARK SMILES IDX 6 1 7 2 8 3 9 4 13 5 12 6 11 7 14 8 10 9 15 10 5 11 4 12
REMARK SMILES IDX 2 13 1 14 3 15
REMARK H PARENT
REMARK Flexibility Score: inf
ROOT
ATOM      1  C   UNL     1     100.144 100.895 102.134  1.00  0.00     0.012 C 
ENDROOT
BRANCH   1   2
ATOM      2  C   UNL     1      99.959 101.802 100.893  1.00  0.00     0.016 C 
ATOM      3  C   UNL     1     101.159 101.738  99.935  1.00  0.00     0.013 C 
BRANCH   2   4
ATOM      4  C   UNL     1      98.679 101.436 100.163  1.00  0.00    -0.045 A 
ATOM      5  C   UNL     1      95.040 100.425  98.067  1.00  0.00     0.044 C 
ATOM      6  C   UNL     1      96.286 100.792  98.815  1.00  0.00    -0.051 A 
ATOM      7  C   UNL     1      97.024 101.926  98.445  1.00  0.00     0.004 A 
ATOM      8  C   UNL     1      96.760  99.969  99.846  1.00  0.00     0.004 A 
ATOM      9  C   UNL     1      98.206 102.250  99.118  1.00  0.00     0.004 A 
ATOM     10  C   UNL     1      97.942 100.292 100.520  1.00  0.00     0.004 A 
ENDBRANCH   2   4
ENDBRANCH   1   2
BRANCH   1  11
ATOM     11  C   UNL     1     101.581 100.864 102.687  1.00  0.00     0.028 C 
BRANCH  11  12
ATOM     12  C   UNL     1     101.955  99.508 103.236  1.00  0.00    -0.028 C 
ATOM     13  C   UNL     1     102.572  98.535 102.529  1.00  0.00    -0.080 C 
ATOM     14  C   UNL     1     103.010  98.738 101.096  1.00  0.00     0.039 C 
ATOM     15  C   UNL     1     102.846  97.218 103.208  1.00  0.00     0.039 C 
ENDBRANCH  11  12
ENDBRANCH   1  11
TORSDOF 4
ENDMDL
MODEL 9
REMARK VINA RESULT:    -7.140      2.923      5.087
REMARK INTER + INTRA:          -9.567
REMARK INTER:                  -8.813
REMARK INTRA:                  -0.754
REMARK UNBOUND:                -0.758
REMARK SMILES CC(C)=CCC[C@@H](C)c1ccc(C)cc1
REMARK SMILES IDX 6 1 7 2 8 3 9 4 13 5 12 6 11 7 14 8 10 9 15 10 5 11 4 12
REMARK SMILES IDX 2 13 1 14 3 15
REMARK H PARENT
REMARK Flexibility Score: inf
ROOT
ATOM      1  C   UNL     1      96.763 100.612 100.053  1.00  0.00     0.012 C 
ENDROOT
BRANCH   1   2
ATOM      2  C   UNL     1      98.081 101.098  99.404  1.00  0.00     0.016 C 
ATOM      3  C   UNL     1      97.938 102.481  98.749  1.00  0.00     0.013 C 
BRANCH   2   4
ATOM      4  C   UNL     1      99.198 101.112 100.433  1.00  0.00    -0.045 A 
ATOM      5  C   UNL     1     102.397 101.164 103.334  1.00  0.00     0.044 C 
ATOM      6  C   UNL     1     101.295 101.117 102.318  1.00  0.00    -0.051 A 
ATOM      7  C   UNL     1     101.514 101.586 101.015  1.00  0.00     0.004 A 
ATOM      8  C   UNL     1     100.018 100.666 102.682  1.00  0.00     0.004 A 
ATOM      9  C   UNL     1     100.477 101.576 100.078  1.00  0.00     0.004 A 
ATOM     10  C   UNL     1      98.980 100.657 101.746  1.00  0.00     0.004 A 
ENDBRANCH   2   4
ENDBRANCH   1   2
BRANCH   1  11
ATOM     11  C   UNL     1      95.509 100.842  99.189  1.00  0.00     0.028 C 
BRANCH  11  12
ATOM     12  C   UNL     1      95.289  99.732  98.189  1.00  0.00    -0.028 C 
ATOM     13  C   UNL     1      95.260  99.900  96.849  1.00  0.00    -0.080 C 
ATOM     14  C   UNL     1      95.509 101.242  96.201  1.00  0.00     0.039 C 
ATOM     15  C   UNL     1      94.990  98.697  95.981  1.00  0.00     0.039 C 
ENDBRANCH  11  12
ENDBRANCH   1  11
TORSDOF 4
ENDMDL
