MODEL 1
REMARK VINA RESULT:    -3.172      0.000      0.000
REMARK INTER + INTRA:          -4.537
REMARK INTER:                  -4.100
REMARK INTRA:                  -0.437
REMARK UNBOUND:                -0.437
REMARK SMILES CCCCCCC(=O)[O-]
REMARK SMILES IDX 5 1 6 2 7 3 8 4 9 5 4 6 3 7 2 8 1 9
REMARK H PARENT
REMARK Flexibility Score: inf
ROOT
ATOM      1  C   UNL     1       7.671 -15.907  22.399  1.00  0.00     0.006 C 
ENDROOT
BRANCH   1   2
ATOM      2  C   UNL     1       7.670 -14.727  23.381  1.00  0.00     0.053 C 
BRANCH   2   3
ATOM      3  C   UNL     1       8.905 -14.708  24.228  1.00  0.00     0.041 C 
ATOM      4  O   UNL     1      10.021 -14.431  23.714  1.00  0.00    -0.550 OA
ATOM      5  O   UNL     1       8.830 -15.028  25.577  1.00  0.00    -0.550 OA
ENDBRANCH   2   3
ENDBRANCH   1   2
BRANCH   1   6
ATOM      6  C   UNL     1       7.548 -17.261  23.120  1.00  0.00     0.000 C 
BRANCH   6   7
ATOM      7  C   UNL     1       6.291 -17.350  23.999  1.00  0.00    -0.000 C 
BRANCH   7   8
ATOM      8  C   UNL     1       6.610 -17.756  25.445  1.00  0.00    -0.003 C 
ATOM      9  C   UNL     1       7.960 -18.460  25.533  1.00  0.00     0.004 C 
ENDBRANCH   7   8
ENDBRANCH   6   7
ENDBRANCH   1   6
TORSDOF 5
ENDMDL
MODEL 2
REMARK VINA RESULT:    -3.090      1.334      1.598
REMARK INTER + INTRA:          -4.430
REMARK INTER:                  -4.204
REMARK INTRA:                  -0.226
REMARK UNBOUND:                -0.437
REMARK SMILES CCCCCCC(=O)[O-]
REMARK SMILES IDX 5 1 6 2 7 3 8 4 9 5 4 6 3 7 2 8 1 9
REMARK H PARENT
REMARK Flexibility Score: inf
ROOT
ATOM      1  C   UNL     1       7.487 -16.440  22.869  1.00  0.00     0.006 C 
ENDROOT
BRANCH   1   2
ATOM      2  C   UNL     1       7.549 -15.023  23.455  1.00  0.00     0.053 C 
BRANCH   2   3
ATOM      3  C   UNL     1       8.732 -14.846  24.357  1.00  0.00     0.041 C 
ATOM      4  O   UNL     1       9.829 -14.440  23.890  1.00  0.00    -0.550 OA
ATOM      5  O   UNL     1       8.634 -15.164  25.705  1.00  0.00    -0.550 OA
ENDBRANCH   2   3
ENDBRANCH   1   2
BRANCH   1   6
ATOM      6  C   UNL     1       6.549 -17.358  23.671  1.00  0.00     0.000 C 
BRANCH   6   7
ATOM      7  C   UNL     1       7.313 -18.408  24.495  1.00  0.00    -0.000 C 
BRANCH   7   8
ATOM      8  C   UNL     1       6.839 -19.840  24.211  1.00  0.00    -0.003 C 
ATOM      9  C   UNL     1       6.411 -19.999  22.755  1.00  0.00     0.004 C 
ENDBRANCH   7   8
ENDBRANCH   6   7
ENDBRANCH   1   6
TORSDOF 5
ENDMDL
MODEL 3
REMARK VINA RESULT:    -3.070      2.184      3.446
REMARK INTER + INTRA:          -4.405
REMARK INTER:                  -3.971
REMARK INTRA:                  -0.435
REMARK UNBOUND:                -0.437
REMARK SMILES CCCCCCC(=O)[O-]
REMARK SMILES IDX 5 1 6 2 7 3 8 4 9 5 4 6 3 7 2 8 1 9
REMARK H PARENT
REMARK Flexibility Score: inf
ROOT
ATOM      1  C   UNL     1       7.511 -15.598  23.120  1.00  0.00     0.006 C 
ENDROOT
BRANCH   1   2
ATOM      2  C   UNL     1       6.462 -16.601  23.619  1.00  0.00     0.053 C 
BRANCH   2   3
ATOM      3  C   UNL     1       7.074 -17.666  24.475  1.00  0.00     0.041 C 
ATOM      4  O   UNL     1       7.881 -18.494  23.976  1.00  0.00    -0.550 OA
ATOM      5  O   UNL     1       6.728 -17.766  25.816  1.00  0.00    -0.550 OA
ENDBRANCH   2   3
ENDBRANCH   1   2
BRANCH   1   6
ATOM      6  C   UNL     1       8.288 -14.947  24.278  1.00  0.00     0.000 C 
BRANCH   6   7
ATOM      7  C   UNL     1       9.782 -14.772  23.962  1.00  0.00    -0.000 C 
BRANCH   7   8
ATOM      8  C   UNL     1      10.623 -15.980  24.398  1.00  0.00    -0.003 C 
ATOM      9  C   UNL     1      10.259 -16.422  25.812  1.00  0.00     0.004 C 
ENDBRANCH   7   8
ENDBRANCH   6   7
ENDBRANCH   1   6
TORSDOF 5
ENDMDL
MODEL 4
REMARK VINA RESULT:    -3.063      3.314      4.225
REMARK INTER + INTRA:          -4.396
REMARK INTER:                  -4.265
REMARK INTRA:                  -0.131
REMARK UNBOUND:                -0.437
REMARK SMILES CCCCCCC(=O)[O-]
REMARK SMILES IDX 5 1 6 2 7 3 8 4 9 5 4 6 3 7 2 8 1 9
REMARK H PARENT
REMARK Flexibility Score: inf
ROOT
ATOM      1  C   UNL     1       7.111 -18.618  23.200  1.00  0.00     0.006 C 
ENDROOT
BRANCH   1   2
ATOM      2  C   UNL     1       6.360 -17.650  24.124  1.00  0.00     0.053 C 
BRANCH   2   3
ATOM      3  C   UNL     1       6.910 -17.671  25.516  1.00  0.00     0.041 C 
ATOM      4  O   UNL     1       7.587 -16.699  25.946  1.00  0.00    -0.550 OA
ATOM      5  O   UNL     1       6.707 -18.779  26.329  1.00  0.00    -0.550 OA
ENDBRANCH   2   3
ENDBRANCH   1   2
BRANCH   1   6
ATOM      6  C   UNL     1       6.327 -19.920  22.964  1.00  0.00     0.000 C 
BRANCH   6   7
ATOM      7  C   UNL     1       6.580 -20.518  21.571  1.00  0.00    -0.000 C 
BRANCH   7   8
ATOM      8  C   UNL     1       7.972 -21.152  21.444  1.00  0.00    -0.003 C 
ATOM      9  C   UNL     1       7.876 -22.601  20.977  1.00  0.00     0.004 C 
ENDBRANCH   7   8
ENDBRANCH   6   7
ENDBRANCH   1   6
TORSDOF 5
ENDMDL
MODEL 5
REMARK VINA RESULT:    -3.060      1.347      2.788
REMARK INTER + INTRA:          -4.392
REMARK INTER:                  -3.975
REMARK INTRA:                  -0.417
REMARK UNBOUND:                -0.437
REMARK SMILES CCCCCCC(=O)[O-]
REMARK SMILES IDX 5 1 6 2 7 3 8 4 9 5 4 6 3 7 2 8 1 9
REMARK H PARENT
REMARK Flexibility Score: inf
ROOT
ATOM      1  C   UNL     1       7.557 -17.528  25.175  1.00  0.00     0.006 C 
ENDROOT
BRANCH   1   2
ATOM      2  C   UNL     1       7.929 -16.217  25.880  1.00  0.00     0.053 C 
BRANCH   2   3
ATOM      3  C   UNL     1       9.279 -15.724  25.461  1.00  0.00     0.041 C 
ATOM      4  O   UNL     1       9.380 -14.806  24.604  1.00  0.00    -0.550 OA
ATOM      5  O   UNL     1      10.426 -16.301  25.988  1.00  0.00    -0.550 OA
ENDBRANCH   2   3
ENDBRANCH   1   2
BRANCH   1   6
ATOM      6  C   UNL     1       6.507 -17.316  24.071  1.00  0.00     0.000 C 
BRANCH   6   7
ATOM      7  C   UNL     1       7.080 -17.527  22.661  1.00  0.00    -0.000 C 
BRANCH   7   8
ATOM      8  C   UNL     1       7.524 -16.213  22.002  1.00  0.00    -0.003 C 
ATOM      9  C   UNL     1       6.607 -15.061  22.400  1.00  0.00     0.004 C 
ENDBRANCH   7   8
ENDBRANCH   6   7
ENDBRANCH   1   6
TORSDOF 5
ENDMDL
MODEL 6
REMARK VINA RESULT:    -3.014      2.349      3.772
REMARK INTER + INTRA:          -4.332
REMARK INTER:                  -4.000
REMARK INTRA:                  -0.331
REMARK UNBOUND:                -0.437
REMARK SMILES CCCCCCC(=O)[O-]
REMARK SMILES IDX 5 1 6 2 7 3 8 4 9 5 4 6 3 7 2 8 1 9
REMARK H PARENT
REMARK Flexibility Score: inf
ROOT
ATOM      1  C   UNL     1      10.762 -16.076  24.431  1.00  0.00     0.006 C 
ENDROOT
BRANCH   1   2
ATOM      2  C   UNL     1      10.303 -16.375  25.865  1.00  0.00     0.053 C 
BRANCH   2   3
ATOM      3  C   UNL     1      10.003 -17.829  26.061  1.00  0.00     0.041 C 
ATOM      4  O   UNL     1      10.925 -18.630  26.367  1.00  0.00    -0.550 OA
ATOM      5  O   UNL     1       8.713 -18.306  25.872  1.00  0.00    -0.550 OA
ENDBRANCH   2   3
ENDBRANCH   1   2
BRANCH   1   6
ATOM      6  C   UNL     1      10.039 -14.857  23.832  1.00  0.00     0.000 C 
BRANCH   6   7
ATOM      7  C   UNL     1       8.612 -14.690  24.377  1.00  0.00    -0.000 C 
BRANCH   7   8
ATOM      8  C   UNL     1       7.538 -14.974  23.317  1.00  0.00    -0.003 C 
ATOM      9  C   UNL     1       6.868 -16.322  23.560  1.00  0.00     0.004 C 
ENDBRANCH   7   8
ENDBRANCH   6   7
ENDBRANCH   1   6
TORSDOF 5
ENDMDL
MODEL 7
REMARK VINA RESULT:    -3.010      1.534      2.076
REMARK INTER + INTRA:          -4.327
REMARK INTER:                  -4.072
REMARK INTRA:                  -0.254
REMARK UNBOUND:                -0.437
REMARK SMILES CCCCCCC(=O)[O-]
REMARK SMILES IDX 5 1 6 2 7 3 8 4 9 5 4 6 3 7 2 8 1 9
REMARK H PARENT
REMARK Flexibility Score: inf
ROOT
ATOM      1  C   UNL     1       8.039 -15.175  23.291  1.00  0.00     0.006 C 
ENDROOT
BRANCH   1   2
ATOM      2  C   UNL     1       9.028 -14.692  24.360  1.00  0.00     0.053 C 
BRANCH   2   3
ATOM      3  C   UNL     1       9.069 -15.616  25.538  1.00  0.00     0.041 C 
ATOM      4  O   UNL     1       8.026 -15.835  26.208  1.00  0.00    -0.550 OA
ATOM      5  O   UNL     1      10.267 -16.209  25.917  1.00  0.00    -0.550 OA
ENDBRANCH   2   3
ENDBRANCH   1   2
BRANCH   1   6
ATOM      6  C   UNL     1       8.367 -16.595  22.796  1.00  0.00     0.000 C 
BRANCH   6   7
ATOM      7  C   UNL     1       7.107 -17.429  22.518  1.00  0.00    -0.000 C 
BRANCH   7   8
ATOM      8  C   UNL     1       6.691 -18.290  23.719  1.00  0.00    -0.003 C 
ATOM      9  C   UNL     1       6.468 -19.741  23.305  1.00  0.00     0.004 C 
ENDBRANCH   7   8
ENDBRANCH   6   7
ENDBRANCH   1   6
TORSDOF 5
ENDMDL
MODEL 8
REMARK VINA RESULT:    -3.004      1.199      2.467
REMARK INTER + INTRA:          -4.319
REMARK INTER:                  -3.959
REMARK INTRA:                  -0.360
REMARK UNBOUND:                -0.437
REMARK SMILES CCCCCCC(=O)[O-]
REMARK SMILES IDX 5 1 6 2 7 3 8 4 9 5 4 6 3 7 2 8 1 9
REMARK H PARENT
REMARK Flexibility Score: inf
ROOT
ATOM      1  C   UNL     1       7.895 -16.487  25.832  1.00  0.00     0.006 C 
ENDROOT
BRANCH   1   2
ATOM      2  C   UNL     1       9.221 -15.777  25.528  1.00  0.00     0.053 C 
BRANCH   2   3
ATOM      3  C   UNL     1       9.103 -14.860  24.350  1.00  0.00     0.041 C 
ATOM      4  O   UNL     1       7.968 -14.503  23.937  1.00  0.00    -0.550 OA
ATOM      5  O   UNL     1      10.243 -14.429  23.686  1.00  0.00    -0.550 OA
ENDBRANCH   2   3
ENDBRANCH   1   2
BRANCH   1   6
ATOM      6  C   UNL     1       8.025 -18.018  25.750  1.00  0.00     0.000 C 
BRANCH   6   7
ATOM      7  C   UNL     1       7.014 -18.645  24.777  1.00  0.00    -0.000 C 
BRANCH   7   8
ATOM      8  C   UNL     1       6.363 -17.608  23.852  1.00  0.00    -0.003 C 
ATOM      9  C   UNL     1       6.990 -17.641  22.462  1.00  0.00     0.004 C 
ENDBRANCH   7   8
ENDBRANCH   6   7
ENDBRANCH   1   6
TORSDOF 5
ENDMDL
MODEL 9
REMARK VINA RESULT:    -2.959      2.385      3.871
REMARK INTER + INTRA:          -4.262
REMARK INTER:                  -3.802
REMARK INTRA:                  -0.460
REMARK UNBOUND:                -0.437
REMARK SMILES CCCCCCC(=O)[O-]
REMARK SMILES IDX 5 1 6 2 7 3 8 4 9 5 4 6 3 7 2 8 1 9
REMARK H PARENT
REMARK Flexibility Score: inf
ROOT
ATOM      1  C   UNL     1       7.875 -16.338  25.918  1.00  0.00     0.006 C 
ENDROOT
BRANCH   1   2
ATOM      2  C   UNL     1       7.565 -17.420  24.875  1.00  0.00     0.053 C 
BRANCH   2   3
ATOM      3  C   UNL     1       7.316 -16.830  23.521  1.00  0.00     0.041 C 
ATOM      4  O   UNL     1       8.042 -17.155  22.545  1.00  0.00    -0.550 OA
ATOM      5  O   UNL     1       6.304 -15.896  23.344  1.00  0.00    -0.550 OA
ENDBRANCH   2   3
ENDBRANCH   1   2
BRANCH   1   6
ATOM      6  C   UNL     1       9.100 -15.492  25.531  1.00  0.00     0.000 C 
BRANCH   6   7
ATOM      7  C   UNL     1      10.411 -16.292  25.583  1.00  0.00    -0.000 C 
BRANCH   7   8
ATOM      8  C   UNL     1      11.170 -16.269  24.249  1.00  0.00    -0.003 C 
ATOM      9  C   UNL     1      10.773 -15.057  23.411  1.00  0.00     0.004 C 
ENDBRANCH   7   8
ENDBRANCH   6   7
ENDBRANCH   1   6
TORSDOF 5
ENDMDL
