MODEL 1
REMARK VINA RESULT:    -4.063      0.000      0.000
REMARK INTER + INTRA:         -11.062
REMARK INTER:                  -7.863
REMARK INTRA:                  -3.199
REMARK UNBOUND:                -3.199
REMARK SMILES CCCCCCCCCCCCCCCCCC(=O)[O-]
REMARK SMILES IDX 10 1 11 2 12 3 13 4 14 5 15 6 16 7 17 8 18 9 19 10 20 11
REMARK SMILES IDX 9 12 8 13 7 14 6 15 5 16 4 17 3 18 2 19 1 20
REMARK H PARENT
REMARK Flexibility Score: inf
ROOT
ATOM      1  C   UNL     1     -15.837  11.517 -15.115  1.00  0.00     0.000 C 
ENDROOT
BRANCH   1   2
ATOM      2  C   UNL     1     -17.368  11.601 -15.240  1.00  0.00     0.000 C 
BRANCH   2   3
ATOM      3  C   UNL     1     -17.844  11.545 -16.701  1.00  0.00     0.000 C 
BRANCH   3   4
ATOM      4  C   UNL     1     -18.555  12.834 -17.145  1.00  0.00     0.000 C 
BRANCH   4   5
ATOM      5  C   UNL     1     -17.563  14.000 -17.245  1.00  0.00     0.000 C 
BRANCH   5   6
ATOM      6  C   UNL     1     -17.922  15.115 -16.254  1.00  0.00     0.000 C 
BRANCH   6   7
ATOM      7  C   UNL     1     -16.740  15.531 -15.358  1.00  0.00     0.006 C 
BRANCH   7   8
ATOM      8  C   UNL     1     -16.789  14.931 -13.942  1.00  0.00     0.053 C 
BRANCH   8   9
ATOM      9  C   UNL     1     -16.677  15.975 -12.872  1.00  0.00     0.041 C 
ATOM     10  O   UNL     1     -16.434  17.172 -13.180  1.00  0.00    -0.550 OA
ATOM     11  O   UNL     1     -16.878  15.636 -11.539  1.00  0.00    -0.550 OA
ENDBRANCH   8   9
ENDBRANCH   7   8
ENDBRANCH   6   7
ENDBRANCH   5   6
ENDBRANCH   4   5
ENDBRANCH   3   4
ENDBRANCH   2   3
ENDBRANCH   1   2
BRANCH   1  12
ATOM     12  C   UNL     1     -15.164  11.046 -16.414  1.00  0.00     0.000 C 
BRANCH  12  13
ATOM     13  C   UNL     1     -13.946  11.900 -16.797  1.00  0.00    -0.000 C 
BRANCH  13  14
ATOM     14  C   UNL     1     -13.975  13.252 -16.073  1.00  0.00    -0.000 C 
BRANCH  14  15
ATOM     15  C   UNL     1     -13.638  14.399 -17.035  1.00  0.00    -0.000 C 
BRANCH  15  16
ATOM     16  C   UNL     1     -13.977  14.021 -18.481  1.00  0.00    -0.000 C 
BRANCH  16  17
ATOM     17  C   UNL     1     -14.423  15.250 -19.282  1.00  0.00    -0.000 C 
BRANCH  17  18
ATOM     18  C   UNL     1     -14.536  16.483 -18.379  1.00  0.00    -0.000 C 
BRANCH  18  19
ATOM     19  C   UNL     1     -15.846  17.237 -18.637  1.00  0.00    -0.003 C 
ATOM     20  C   UNL     1     -16.644  16.588 -19.765  1.00  0.00     0.004 C 
ENDBRANCH  18  19
ENDBRANCH  17  18
ENDBRANCH  16  17
ENDBRANCH  15  16
ENDBRANCH  14  15
ENDBRANCH  13  14
ENDBRANCH  12  13
ENDBRANCH   1  12
TORSDOF 16
ENDMDL
MODEL 2
REMARK VINA RESULT:    -3.972      2.817      5.266
REMARK INTER + INTRA:         -10.887
REMARK INTER:                  -7.664
REMARK INTRA:                  -3.223
REMARK UNBOUND:                -3.199
REMARK SMILES CCCCCCCCCCCCCCCCCC(=O)[O-]
REMARK SMILES IDX 10 1 11 2 12 3 13 4 14 5 15 6 16 7 17 8 18 9 19 10 20 11
REMARK SMILES IDX 9 12 8 13 7 14 6 15 5 16 4 17 3 18 2 19 1 20
REMARK H PARENT
REMARK Flexibility Score: inf
ROOT
ATOM      1  C   UNL     1     -19.275  17.210 -14.366  1.00  0.00     0.000 C 
ENDROOT
BRANCH   1   2
ATOM      2  C   UNL     1     -18.714  17.659 -13.005  1.00  0.00     0.000 C 
BRANCH   2   3
ATOM      3  C   UNL     1     -17.189  17.486 -12.911  1.00  0.00     0.000 C 
BRANCH   3   4
ATOM      4  C   UNL     1     -16.781  16.144 -12.282  1.00  0.00     0.000 C 
BRANCH   4   5
ATOM      5  C   UNL     1     -16.004  15.281 -13.285  1.00  0.00     0.000 C 
BRANCH   5   6
ATOM      6  C   UNL     1     -16.857  14.104 -13.776  1.00  0.00     0.000 C 
BRANCH   6   7
ATOM      7  C   UNL     1     -16.250  13.384 -14.994  1.00  0.00     0.006 C 
BRANCH   7   8
ATOM      8  C   UNL     1     -17.296  12.774 -15.943  1.00  0.00     0.053 C 
BRANCH   8   9
ATOM      9  C   UNL     1     -16.952  11.373 -16.352  1.00  0.00     0.041 C 
ATOM     10  O   UNL     1     -15.762  10.967 -16.279  1.00  0.00    -0.550 OA
ATOM     11  O   UNL     1     -17.949  10.504 -16.780  1.00  0.00    -0.550 OA
ENDBRANCH   8   9
ENDBRANCH   7   8
ENDBRANCH   6   7
ENDBRANCH   5   6
ENDBRANCH   4   5
ENDBRANCH   3   4
ENDBRANCH   2   3
ENDBRANCH   1   2
BRANCH   1  12
ATOM     12  C   UNL     1     -18.375  17.626 -15.541  1.00  0.00     0.000 C 
BRANCH  12  13
ATOM     13  C   UNL     1     -18.044  16.455 -16.479  1.00  0.00    -0.000 C 
BRANCH  13  14
ATOM     14  C   UNL     1     -16.575  16.504 -16.920  1.00  0.00    -0.000 C 
BRANCH  14  15
ATOM     15  C   UNL     1     -15.825  17.637 -16.210  1.00  0.00    -0.000 C 
BRANCH  15  16
ATOM     16  C   UNL     1     -14.367  17.246 -15.939  1.00  0.00    -0.000 C 
BRANCH  16  17
ATOM     17  C   UNL     1     -13.916  16.120 -16.876  1.00  0.00    -0.000 C 
BRANCH  17  18
ATOM     18  C   UNL     1     -13.091  15.072 -16.121  1.00  0.00    -0.000 C 
BRANCH  18  19
ATOM     19  C   UNL     1     -13.143  13.713 -16.830  1.00  0.00    -0.003 C 
ATOM     20  C   UNL     1     -13.969  13.791 -18.111  1.00  0.00     0.004 C 
ENDBRANCH  18  19
ENDBRANCH  17  18
ENDBRANCH  16  17
ENDBRANCH  15  16
ENDBRANCH  14  15
ENDBRANCH  13  14
ENDBRANCH  12  13
ENDBRANCH   1  12
TORSDOF 16
ENDMDL
MODEL 3
REMARK VINA RESULT:    -3.928     12.857     15.019
REMARK INTER + INTRA:         -10.801
REMARK INTER:                  -8.143
REMARK INTRA:                  -2.658
REMARK UNBOUND:                -3.199
REMARK SMILES CCCCCCCCCCCCCCCCCC(=O)[O-]
REMARK SMILES IDX 10 1 11 2 12 3 13 4 14 5 15 6 16 7 17 8 18 9 19 10 20 11
REMARK SMILES IDX 9 12 8 13 7 14 6 15 5 16 4 17 3 18 2 19 1 20
REMARK H PARENT
REMARK Flexibility Score: inf
ROOT
ATOM      1  C   UNL     1      -0.813  11.588 -11.986  1.00  0.00     0.000 C 
ENDROOT
BRANCH   1   2
ATOM      2  C   UNL     1      -0.667  13.049 -12.447  1.00  0.00     0.000 C 
BRANCH   2   3
ATOM      3  C   UNL     1      -1.180  14.052 -11.400  1.00  0.00     0.000 C 
BRANCH   3   4
ATOM      4  C   UNL     1      -2.636  14.478 -11.650  1.00  0.00     0.000 C 
BRANCH   4   5
ATOM      5  C   UNL     1      -3.581  13.823 -10.635  1.00  0.00     0.000 C 
BRANCH   5   6
ATOM      6  C   UNL     1      -2.844  13.487  -9.333  1.00  0.00     0.000 C 
BRANCH   6   7
ATOM      7  C   UNL     1      -3.778  13.411  -8.111  1.00  0.00     0.006 C 
BRANCH   7   8
ATOM      8  C   UNL     1      -5.111  14.157  -8.297  1.00  0.00     0.053 C 
BRANCH   8   9
ATOM      9  C   UNL     1      -5.708  14.601  -6.995  1.00  0.00     0.041 C 
ATOM     10  O   UNL     1      -5.407  14.007  -5.926  1.00  0.00    -0.550 OA
ATOM     11  O   UNL     1      -6.566  15.693  -6.956  1.00  0.00    -0.550 OA
ENDBRANCH   8   9
ENDBRANCH   7   8
ENDBRANCH   6   7
ENDBRANCH   5   6
ENDBRANCH   4   5
ENDBRANCH   3   4
ENDBRANCH   2   3
ENDBRANCH   1   2
BRANCH   1  12
ATOM     12  C   UNL     1      -0.309  11.371 -10.549  1.00  0.00     0.000 C 
BRANCH  12  13
ATOM     13  C   UNL     1      -0.678   9.987  -9.994  1.00  0.00    -0.000 C 
BRANCH  13  14
ATOM     14  C   UNL     1      -1.156  10.089  -8.540  1.00  0.00    -0.000 C 
BRANCH  14  15
ATOM     15  C   UNL     1      -2.686  10.040  -8.458  1.00  0.00    -0.000 C 
BRANCH  15  16
ATOM     16  C   UNL     1      -3.229   8.751  -9.086  1.00  0.00    -0.000 C 
BRANCH  16  17
ATOM     17  C   UNL     1      -4.511   9.025  -9.882  1.00  0.00    -0.000 C 
BRANCH  17  18
ATOM     18  C   UNL     1      -4.305  10.169 -10.882  1.00  0.00    -0.000 C 
BRANCH  18  19
ATOM     19  C   UNL     1      -5.644  10.804 -11.275  1.00  0.00    -0.003 C 
ATOM     20  C   UNL     1      -6.500  11.093 -10.046  1.00  0.00     0.004 C 
ENDBRANCH  18  19
ENDBRANCH  17  18
ENDBRANCH  16  17
ENDBRANCH  15  16
ENDBRANCH  14  15
ENDBRANCH  13  14
ENDBRANCH  12  13
ENDBRANCH   1  12
TORSDOF 16
ENDMDL
MODEL 4
REMARK VINA RESULT:    -3.881     13.027     15.751
REMARK INTER + INTRA:         -10.709
REMARK INTER:                  -8.622
REMARK INTRA:                  -2.088
REMARK UNBOUND:                -3.199
REMARK SMILES CCCCCCCCCCCCCCCCCC(=O)[O-]
REMARK SMILES IDX 10 1 11 2 12 3 13 4 14 5 15 6 16 7 17 8 18 9 19 10 20 11
REMARK SMILES IDX 9 12 8 13 7 14 6 15 5 16 4 17 3 18 2 19 1 20
REMARK H PARENT
REMARK Flexibility Score: inf
ROOT
ATOM      1  C   UNL     1      -2.365  13.444 -10.230  1.00  0.00     0.000 C 
ENDROOT
BRANCH   1   2
ATOM      2  C   UNL     1      -1.205  13.601 -11.230  1.00  0.00     0.000 C 
BRANCH   2   3
ATOM      3  C   UNL     1      -0.561  12.255 -11.600  1.00  0.00     0.000 C 
BRANCH   3   4
ATOM      4  C   UNL     1      -0.717  11.912 -13.091  1.00  0.00     0.000 C 
BRANCH   4   5
ATOM      5  C   UNL     1      -2.198  11.808 -13.477  1.00  0.00     0.000 C 
BRANCH   5   6
ATOM      6  C   UNL     1      -2.544  10.392 -13.956  1.00  0.00     0.000 C 
BRANCH   6   7
ATOM      7  C   UNL     1      -2.023  10.089 -15.373  1.00  0.00     0.006 C 
BRANCH   7   8
ATOM      8  C   UNL     1      -2.828  10.770 -16.493  1.00  0.00     0.053 C 
BRANCH   8   9
ATOM      9  C   UNL     1      -3.623   9.793 -17.307  1.00  0.00     0.041 C 
ATOM     10  O   UNL     1      -3.033   8.939 -18.021  1.00  0.00    -0.550 OA
ATOM     11  O   UNL     1      -5.011   9.800 -17.249  1.00  0.00    -0.550 OA
ENDBRANCH   8   9
ENDBRANCH   7   8
ENDBRANCH   6   7
ENDBRANCH   5   6
ENDBRANCH   4   5
ENDBRANCH   3   4
ENDBRANCH   2   3
ENDBRANCH   1   2
BRANCH   1  12
ATOM     12  C   UNL     1      -3.690  14.005 -10.773  1.00  0.00     0.000 C 
BRANCH  12  13
ATOM     13  C   UNL     1      -4.761  12.920 -10.962  1.00  0.00    -0.000 C 
BRANCH  13  14
ATOM     14  C   UNL     1      -4.899  12.060  -9.699  1.00  0.00    -0.000 C 
BRANCH  14  15
ATOM     15  C   UNL     1      -5.154  10.591 -10.059  1.00  0.00    -0.000 C 
BRANCH  15  16
ATOM     16  C   UNL     1      -3.899   9.945 -10.656  1.00  0.00    -0.000 C 
BRANCH  16  17
ATOM     17  C   UNL     1      -2.971   9.422  -9.553  1.00  0.00    -0.000 C 
BRANCH  17  18
ATOM     18  C   UNL     1      -1.540   9.249 -10.074  1.00  0.00    -0.000 C 
BRANCH  18  19
ATOM     19  C   UNL     1      -0.712   8.372  -9.128  1.00  0.00    -0.003 C 
ATOM     20  C   UNL     1      -1.471   7.107  -8.741  1.00  0.00     0.004 C 
ENDBRANCH  18  19
ENDBRANCH  17  18
ENDBRANCH  16  17
ENDBRANCH  15  16
ENDBRANCH  14  15
ENDBRANCH  13  14
ENDBRANCH  12  13
ENDBRANCH   1  12
TORSDOF 16
ENDMDL
MODEL 5
REMARK VINA RESULT:    -3.864     13.130     15.557
REMARK INTER + INTRA:         -10.676
REMARK INTER:                  -8.213
REMARK INTRA:                  -2.463
REMARK UNBOUND:                -3.199
REMARK SMILES CCCCCCCCCCCCCCCCCC(=O)[O-]
REMARK SMILES IDX 10 1 11 2 12 3 13 4 14 5 15 6 16 7 17 8 18 9 19 10 20 11
REMARK SMILES IDX 9 12 8 13 7 14 6 15 5 16 4 17 3 18 2 19 1 20
REMARK H PARENT
REMARK Flexibility Score: inf
ROOT
ATOM      1  C   UNL     1      -0.832  10.489  -9.722  1.00  0.00     0.000 C 
ENDROOT
BRANCH   1   2
ATOM      2  C   UNL     1      -0.133  11.848  -9.909  1.00  0.00     0.000 C 
BRANCH   2   3
ATOM      3  C   UNL     1      -1.085  12.932 -10.439  1.00  0.00     0.000 C 
BRANCH   3   4
ATOM      4  C   UNL     1      -0.735  13.385 -11.866  1.00  0.00     0.000 C 
BRANCH   4   5
ATOM      5  C   UNL     1      -1.794  12.908 -12.868  1.00  0.00     0.000 C 
BRANCH   5   6
ATOM      6  C   UNL     1      -1.493  11.483 -13.352  1.00  0.00     0.000 C 
BRANCH   6   7
ATOM      7  C   UNL     1      -2.593  10.909 -14.265  1.00  0.00     0.006 C 
BRANCH   7   8
ATOM      8  C   UNL     1      -2.054  10.118 -15.469  1.00  0.00     0.053 C 
BRANCH   8   9
ATOM      9  C   UNL     1      -2.870  10.332 -16.709  1.00  0.00     0.041 C 
ATOM     10  O   UNL     1      -3.035   9.389 -17.528  1.00  0.00    -0.550 OA
ATOM     11  O   UNL     1      -3.478  11.559 -16.943  1.00  0.00    -0.550 OA
ENDBRANCH   8   9
ENDBRANCH   7   8
ENDBRANCH   6   7
ENDBRANCH   5   6
ENDBRANCH   4   5
ENDBRANCH   3   4
ENDBRANCH   2   3
ENDBRANCH   1   2
BRANCH   1  12
ATOM     12  C   UNL     1      -1.593  10.398  -8.389  1.00  0.00     0.000 C 
BRANCH  12  13
ATOM     13  C   UNL     1      -3.023   9.860  -8.558  1.00  0.00    -0.000 C 
BRANCH  13  14
ATOM     14  C   UNL     1      -3.372   9.688 -10.042  1.00  0.00    -0.000 C 
BRANCH  14  15
ATOM     15  C   UNL     1      -4.735  10.313 -10.363  1.00  0.00    -0.000 C 
BRANCH  15  16
ATOM     16  C   UNL     1      -4.574  11.744 -10.888  1.00  0.00    -0.000 C 
BRANCH  16  17
ATOM     17  C   UNL     1      -5.403  12.731 -10.057  1.00  0.00    -0.000 C 
BRANCH  17  18
ATOM     18  C   UNL     1      -4.507  13.791  -9.406  1.00  0.00    -0.000 C 
BRANCH  18  19
ATOM     19  C   UNL     1      -3.949  13.293  -8.067  1.00  0.00    -0.003 C 
ATOM     20  C   UNL     1      -4.409  14.180  -6.914  1.00  0.00     0.004 C 
ENDBRANCH  18  19
ENDBRANCH  17  18
ENDBRANCH  16  17
ENDBRANCH  15  16
ENDBRANCH  14  15
ENDBRANCH  13  14
ENDBRANCH  12  13
ENDBRANCH   1  12
TORSDOF 16
ENDMDL
MODEL 6
REMARK VINA RESULT:    -3.855      4.169      5.990
REMARK INTER + INTRA:         -10.659
REMARK INTER:                  -8.026
REMARK INTRA:                  -2.633
REMARK UNBOUND:                -3.199
REMARK SMILES CCCCCCCCCCCCCCCCCC(=O)[O-]
REMARK SMILES IDX 10 1 11 2 12 3 13 4 14 5 15 6 16 7 17 8 18 9 19 10 20 11
REMARK SMILES IDX 9 12 8 13 7 14 6 15 5 16 4 17 3 18 2 19 1 20
REMARK H PARENT
REMARK Flexibility Score: inf
ROOT
ATOM      1  C   UNL     1     -18.330  17.370 -20.292  1.00  0.00     0.000 C 
ENDROOT
BRANCH   1   2
ATOM      2  C   UNL     1     -19.131  18.447 -19.540  1.00  0.00     0.000 C 
BRANCH   2   3
ATOM      3  C   UNL     1     -19.122  18.233 -18.018  1.00  0.00     0.000 C 
BRANCH   3   4
ATOM      4  C   UNL     1     -18.063  19.090 -17.304  1.00  0.00     0.000 C 
BRANCH   4   5
ATOM      5  C   UNL     1     -17.186  18.228 -16.388  1.00  0.00     0.000 C 
BRANCH   5   6
ATOM      6  C   UNL     1     -15.776  18.819 -16.258  1.00  0.00     0.000 C 
BRANCH   6   7
ATOM      7  C   UNL     1     -15.570  20.084 -17.111  1.00  0.00     0.006 C 
BRANCH   7   8
ATOM      8  C   UNL     1     -14.105  20.338 -17.509  1.00  0.00     0.053 C 
BRANCH   8   9
ATOM      9  C   UNL     1     -13.427  21.323 -16.605  1.00  0.00     0.041 C 
ATOM     10  O   UNL     1     -13.608  22.559 -16.768  1.00  0.00    -0.550 OA
ATOM     11  O   UNL     1     -12.626  20.879 -15.561  1.00  0.00    -0.550 OA
ENDBRANCH   8   9
ENDBRANCH   7   8
ENDBRANCH   6   7
ENDBRANCH   5   6
ENDBRANCH   4   5
ENDBRANCH   3   4
ENDBRANCH   2   3
ENDBRANCH   1   2
BRANCH   1  12
ATOM     12  C   UNL     1     -16.987  17.897 -20.823  1.00  0.00     0.000 C 
BRANCH  12  13
ATOM     13  C   UNL     1     -15.808  17.553 -19.900  1.00  0.00    -0.000 C 
BRANCH  13  14
ATOM     14  C   UNL     1     -16.018  16.192 -19.225  1.00  0.00    -0.000 C 
BRANCH  14  15
ATOM     15  C   UNL     1     -14.878  15.880 -18.248  1.00  0.00    -0.000 C 
BRANCH  15  16
ATOM     16  C   UNL     1     -13.632  16.713 -18.573  1.00  0.00    -0.000 C 
BRANCH  16  17
ATOM     17  C   UNL     1     -12.607  15.887 -19.358  1.00  0.00    -0.000 C 
BRANCH  17  18
ATOM     18  C   UNL     1     -12.087  16.663 -20.573  1.00  0.00    -0.000 C 
BRANCH  18  19
ATOM     19  C   UNL     1     -12.842  16.264 -21.846  1.00  0.00    -0.003 C 
ATOM     20  C   UNL     1     -11.912  16.237 -23.054  1.00  0.00     0.004 C 
ENDBRANCH  18  19
ENDBRANCH  17  18
ENDBRANCH  16  17
ENDBRANCH  15  16
ENDBRANCH  14  15
ENDBRANCH  13  14
ENDBRANCH  12  13
ENDBRANCH   1  12
TORSDOF 16
ENDMDL
MODEL 7
REMARK VINA RESULT:    -3.821     12.278     13.960
REMARK INTER + INTRA:         -10.593
REMARK INTER:                  -7.751
REMARK INTRA:                  -2.843
REMARK UNBOUND:                -3.199
REMARK SMILES CCCCCCCCCCCCCCCCCC(=O)[O-]
REMARK SMILES IDX 10 1 11 2 12 3 13 4 14 5 15 6 16 7 17 8 18 9 19 10 20 11
REMARK SMILES IDX 9 12 8 13 7 14 6 15 5 16 4 17 3 18 2 19 1 20
REMARK H PARENT
REMARK Flexibility Score: inf
ROOT
ATOM      1  C   UNL     1      -4.765  10.176 -10.722  1.00  0.00     0.000 C 
ENDROOT
BRANCH   1   2
ATOM      2  C   UNL     1      -6.150  10.639 -10.237  1.00  0.00     0.000 C 
BRANCH   2   3
ATOM      3  C   UNL     1      -6.143  12.092  -9.734  1.00  0.00     0.000 C 
BRANCH   3   4
ATOM      4  C   UNL     1      -5.307  13.025 -10.626  1.00  0.00     0.000 C 
BRANCH   4   5
ATOM      5  C   UNL     1      -4.257  13.778  -9.798  1.00  0.00     0.000 C 
BRANCH   5   6
ATOM      6  C   UNL     1      -4.002  13.074  -8.459  1.00  0.00     0.000 C 
BRANCH   6   7
ATOM      7  C   UNL     1      -3.930  14.047  -7.268  1.00  0.00     0.006 C 
BRANCH   7   8
ATOM      8  C   UNL     1      -5.182  14.032  -6.373  1.00  0.00     0.053 C 
BRANCH   8   9
ATOM      9  C   UNL     1      -6.112  15.170  -6.666  1.00  0.00     0.041 C 
ATOM     10  O   UNL     1      -5.947  16.283  -6.101  1.00  0.00    -0.550 OA
ATOM     11  O   UNL     1      -7.139  15.015  -7.590  1.00  0.00    -0.550 OA
ENDBRANCH   8   9
ENDBRANCH   7   8
ENDBRANCH   6   7
ENDBRANCH   5   6
ENDBRANCH   4   5
ENDBRANCH   3   4
ENDBRANCH   2   3
ENDBRANCH   1   2
BRANCH   1  12
ATOM     12  C   UNL     1      -4.000   9.384  -9.648  1.00  0.00     0.000 C 
BRANCH  12  13
ATOM     13  C   UNL     1      -2.498   9.709  -9.628  1.00  0.00    -0.000 C 
BRANCH  13  14
ATOM     14  C   UNL     1      -2.150  10.759 -10.691  1.00  0.00    -0.000 C 
BRANCH  14  15
ATOM     15  C   UNL     1      -0.746  11.332 -10.460  1.00  0.00    -0.000 C 
BRANCH  15  16
ATOM     16  C   UNL     1      -0.707  12.833 -10.770  1.00  0.00    -0.000 C 
BRANCH  16  17
ATOM     17  C   UNL     1      -0.951  13.093 -12.261  1.00  0.00    -0.000 C 
BRANCH  17  18
ATOM     18  C   UNL     1      -1.959  14.230 -12.465  1.00  0.00    -0.000 C 
BRANCH  18  19
ATOM     19  C   UNL     1      -2.867  13.952 -13.668  1.00  0.00    -0.003 C 
ATOM     20  C   UNL     1      -3.325  12.497 -13.690  1.00  0.00     0.004 C 
ENDBRANCH  18  19
ENDBRANCH  17  18
ENDBRANCH  16  17
ENDBRANCH  15  16
ENDBRANCH  14  15
ENDBRANCH  13  14
ENDBRANCH  12  13
ENDBRANCH   1  12
TORSDOF 16
ENDMDL
MODEL 8
REMARK VINA RESULT:    -3.797      2.710      5.372
REMARK INTER + INTRA:         -10.548
REMARK INTER:                  -7.574
REMARK INTRA:                  -2.974
REMARK UNBOUND:                -3.199
REMARK SMILES CCCCCCCCCCCCCCCCCC(=O)[O-]
REMARK SMILES IDX 10 1 11 2 12 3 13 4 14 5 15 6 16 7 17 8 18 9 19 10 20 11
REMARK SMILES IDX 9 12 8 13 7 14 6 15 5 16 4 17 3 18 2 19 1 20
REMARK H PARENT
REMARK Flexibility Score: inf
ROOT
ATOM      1  C   UNL     1     -19.272  17.617 -13.773  1.00  0.00     0.000 C 
ENDROOT
BRANCH   1   2
ATOM      2  C   UNL     1     -18.025  17.594 -12.872  1.00  0.00     0.000 C 
BRANCH   2   3
ATOM      3  C   UNL     1     -16.734  17.312 -13.659  1.00  0.00     0.000 C 
BRANCH   3   4
ATOM      4  C   UNL     1     -15.928  16.139 -13.077  1.00  0.00     0.000 C 
BRANCH   4   5
ATOM      5  C   UNL     1     -16.773  14.859 -13.037  1.00  0.00     0.000 C 
BRANCH   5   6
ATOM      6  C   UNL     1     -16.344  13.881 -14.139  1.00  0.00     0.000 C 
BRANCH   6   7
ATOM      7  C   UNL     1     -16.966  14.205 -15.510  1.00  0.00     0.006 C 
BRANCH   7   8
ATOM      8  C   UNL     1     -16.841  13.066 -16.537  1.00  0.00     0.053 C 
BRANCH   8   9
ATOM      9  C   UNL     1     -18.114  12.288 -16.690  1.00  0.00     0.041 C 
ATOM     10  O   UNL     1     -19.082  12.778 -17.330  1.00  0.00    -0.550 OA
ATOM     11  O   UNL     1     -18.220  11.008 -16.160  1.00  0.00    -0.550 OA
ENDBRANCH   8   9
ENDBRANCH   7   8
ENDBRANCH   6   7
ENDBRANCH   5   6
ENDBRANCH   4   5
ENDBRANCH   3   4
ENDBRANCH   2   3
ENDBRANCH   1   2
BRANCH   1  12
ATOM     12  C   UNL     1     -18.924  17.492 -15.265  1.00  0.00     0.000 C 
BRANCH  12  13
ATOM     13  C   UNL     1     -19.812  16.476 -15.999  1.00  0.00    -0.000 C 
BRANCH  13  14
ATOM     14  C   UNL     1     -19.392  16.341 -17.469  1.00  0.00    -0.000 C 
BRANCH  14  15
ATOM     15  C   UNL     1     -18.271  17.329 -17.814  1.00  0.00    -0.000 C 
BRANCH  15  16
ATOM     16  C   UNL     1     -17.023  16.592 -18.313  1.00  0.00    -0.000 C 
BRANCH  16  17
ATOM     17  C   UNL     1     -15.745  17.245 -17.772  1.00  0.00    -0.000 C 
BRANCH  17  18
ATOM     18  C   UNL     1     -14.623  16.212 -17.615  1.00  0.00    -0.000 C 
BRANCH  18  19
ATOM     19  C   UNL     1     -13.951  16.332 -16.242  1.00  0.00    -0.003 C 
ATOM     20  C   UNL     1     -13.265  15.028 -15.848  1.00  0.00     0.004 C 
ENDBRANCH  18  19
ENDBRANCH  17  18
ENDBRANCH  16  17
ENDBRANCH  15  16
ENDBRANCH  14  15
ENDBRANCH  13  14
ENDBRANCH  12  13
ENDBRANCH   1  12
TORSDOF 16
ENDMDL
MODEL 9
REMARK VINA RESULT:    -3.744     12.440     14.412
REMARK INTER + INTRA:         -10.445
REMARK INTER:                  -7.812
REMARK INTRA:                  -2.632
REMARK UNBOUND:                -3.199
REMARK SMILES CCCCCCCCCCCCCCCCCC(=O)[O-]
REMARK SMILES IDX 10 1 11 2 12 3 13 4 14 5 15 6 16 7 17 8 18 9 19 10 20 11
REMARK SMILES IDX 9 12 8 13 7 14 6 15 5 16 4 17 3 18 2 19 1 20
REMARK H PARENT
REMARK Flexibility Score: inf
ROOT
ATOM      1  C   UNL     1      -0.265  12.874 -12.263  1.00  0.00     0.000 C 
ENDROOT
BRANCH   1   2
ATOM      2  C   UNL     1      -0.159  11.847 -11.121  1.00  0.00     0.000 C 
BRANCH   2   3
ATOM      3  C   UNL     1      -1.271  12.013 -10.074  1.00  0.00     0.000 C 
BRANCH   3   4
ATOM      4  C   UNL     1      -2.446  11.047 -10.297  1.00  0.00     0.000 C 
BRANCH   4   5
ATOM      5  C   UNL     1      -3.770  11.681  -9.851  1.00  0.00     0.000 C 
BRANCH   5   6
ATOM      6  C   UNL     1      -3.526  12.997  -9.102  1.00  0.00     0.000 C 
BRANCH   6   7
ATOM      7  C   UNL     1      -4.816  13.617  -8.533  1.00  0.00     0.006 C 
BRANCH   7   8
ATOM      8  C   UNL     1      -4.626  14.315  -7.175  1.00  0.00     0.053 C 
BRANCH   8   9
ATOM      9  C   UNL     1      -5.894  14.931  -6.663  1.00  0.00     0.041 C 
ATOM     10  O   UNL     1      -7.001  14.614  -7.174  1.00  0.00    -0.550 OA
ATOM     11  O   UNL     1      -5.859  15.825  -5.600  1.00  0.00    -0.550 OA
ENDBRANCH   8   9
ENDBRANCH   7   8
ENDBRANCH   6   7
ENDBRANCH   5   6
ENDBRANCH   4   5
ENDBRANCH   3   4
ENDBRANCH   2   3
ENDBRANCH   1   2
BRANCH   1  12
ATOM     12  C   UNL     1      -0.997  14.157 -11.836  1.00  0.00     0.000 C 
BRANCH  12  13
ATOM     13  C   UNL     1      -2.051  14.609 -12.858  1.00  0.00    -0.000 C 
BRANCH  13  14
ATOM     14  C   UNL     1      -3.464  14.512 -12.269  1.00  0.00    -0.000 C 
BRANCH  14  15
ATOM     15  C   UNL     1      -4.328  13.530 -13.070  1.00  0.00    -0.000 C 
BRANCH  15  16
ATOM     16  C   UNL     1      -3.476  12.732 -14.064  1.00  0.00    -0.000 C 
BRANCH  16  17
ATOM     17  C   UNL     1      -3.769  11.230 -13.959  1.00  0.00    -0.000 C 
BRANCH  17  18
ATOM     18  C   UNL     1      -2.471  10.415 -13.956  1.00  0.00    -0.000 C 
BRANCH  18  19
ATOM     19  C   UNL     1      -1.811  10.425 -15.340  1.00  0.00    -0.003 C 
ATOM     20  C   UNL     1      -2.810  10.052 -16.431  1.00  0.00     0.004 C 
ENDBRANCH  18  19
ENDBRANCH  17  18
ENDBRANCH  16  17
ENDBRANCH  15  16
ENDBRANCH  14  15
ENDBRANCH  13  14
ENDBRANCH  12  13
ENDBRANCH   1  12
TORSDOF 16
ENDMDL
