MODEL 1
REMARK VINA RESULT:    -6.105      0.000      0.000
REMARK INTER + INTRA:          -8.784
REMARK INTER:                  -8.246
REMARK INTRA:                  -0.538
REMARK UNBOUND:                -0.538
REMARK SMILES COc1ccc(-c2cc(=O)c3c(OC)c(OC)c(OC)c(OC)c3o2)cc1
REMARK SMILES IDX 7 1 8 2 9 3 10 4 11 5 24 6 25 7 21 8 18 9 15 10 12 11 6 12
REMARK SMILES IDX 3 13 4 14 27 15 5 16 26 17 2 18 1 19 22 20 23 21 13 22 14 23
REMARK SMILES IDX 19 24 20 25 16 26 17 27
REMARK H PARENT
REMARK Flexibility Score: inf
ROOT
ATOM      1  C   UNL     1      20.203  -7.264  22.445  1.00  0.00     0.138 A 
ATOM      2  C   UNL     1      20.450  -6.074  21.753  1.00  0.00     0.100 A 
ATOM      3  C   UNL     1      20.600  -6.107  20.369  1.00  0.00     0.197 A 
ATOM      4  O   UNL     1      20.816  -5.024  19.762  1.00  0.00    -0.289 OA
ATOM      5  C   UNL     1      20.510  -7.341  19.680  1.00  0.00     0.115 A 
ATOM      6  C   UNL     1      20.257  -8.503  20.451  1.00  0.00     0.188 A 
ATOM      7  O   UNL     1      20.114  -8.406  21.770  1.00  0.00    -0.452 OA
ATOM      8  C   UNL     1      20.169  -9.764  19.825  1.00  0.00     0.209 A 
ATOM      9  C   UNL     1      20.337  -9.864  18.436  1.00  0.00     0.211 A 
ATOM     10  C   UNL     1      20.627  -8.718  17.656  1.00  0.00     0.208 A 
ATOM     11  C   UNL     1      20.667  -7.443  18.276  1.00  0.00     0.179 A 
ENDROOT
BRANCH   1  12
ATOM     12  C   UNL     1      20.021  -7.283  23.916  1.00  0.00     0.018 A 
ATOM     13  C   UNL     1      19.694  -7.283  26.720  1.00  0.00     0.118 A 
ATOM     14  C   UNL     1      18.960  -8.166  25.920  1.00  0.00     0.047 A 
ATOM     15  C   UNL     1      20.589  -6.388  26.107  1.00  0.00     0.047 A 
ATOM     16  C   UNL     1      19.119  -8.170  24.532  1.00  0.00     0.016 A 
ATOM     17  C   UNL     1      20.745  -6.386  24.718  1.00  0.00     0.016 A 
BRANCH  13  18
ATOM     18  O   UNL     1      19.506  -7.327  28.110  1.00  0.00    -0.497 OA
ATOM     19  C   UNL     1      20.286  -8.118  28.999  1.00  0.00     0.278 C 
ENDBRANCH  13  18
ENDBRANCH   1  12
BRANCH   8  20
ATOM     20  O   UNL     1      19.946 -10.960  20.533  1.00  0.00    -0.490 OA
ATOM     21  C   UNL     1      18.692 -11.440  21.012  1.00  0.00     0.278 C 
ENDBRANCH   8  20
BRANCH  11  22
ATOM     22  O   UNL     1      20.873  -6.255  17.544  1.00  0.00    -0.492 OA
ATOM     23  C   UNL     1      22.113  -5.764  17.044  1.00  0.00     0.278 C 
ENDBRANCH  11  22
BRANCH   9  24
ATOM     24  O   UNL     1      20.219 -11.120  17.833  1.00  0.00    -0.490 OA
ATOM     25  C   UNL     1      18.997 -11.584  17.269  1.00  0.00     0.279 C 
ENDBRANCH   9  24
BRANCH  10  26
ATOM     26  O   UNL     1      20.889  -8.798  16.275  1.00  0.00    -0.490 OA
ATOM     27  C   UNL     1      22.122  -9.149  15.656  1.00  0.00     0.278 C 
ENDBRANCH  10  26
TORSDOF 6
ENDMDL
MODEL 2
REMARK VINA RESULT:    -6.098      3.757      6.325
REMARK INTER + INTRA:          -8.776
REMARK INTER:                  -8.221
REMARK INTRA:                  -0.555
REMARK UNBOUND:                -0.538
REMARK SMILES COc1ccc(-c2cc(=O)c3c(OC)c(OC)c(OC)c(OC)c3o2)cc1
REMARK SMILES IDX 7 1 8 2 9 3 10 4 11 5 24 6 25 7 21 8 18 9 15 10 12 11 6 12
REMARK SMILES IDX 3 13 4 14 27 15 5 16 26 17 2 18 1 19 22 20 23 21 13 22 14 23
REMARK SMILES IDX 19 24 20 25 16 26 17 27
REMARK H PARENT
REMARK Flexibility Score: inf
ROOT
ATOM      1  C   UNL     1      20.294 -10.262  19.447  1.00  0.00     0.138 A 
ATOM      2  C   UNL     1      21.093 -11.082  20.249  1.00  0.00     0.100 A 
ATOM      3  C   UNL     1      21.396 -12.371  19.820  1.00  0.00     0.197 A 
ATOM      4  O   UNL     1      22.124 -13.094  20.554  1.00  0.00    -0.289 OA
ATOM      5  C   UNL     1      20.887 -12.840  18.585  1.00  0.00     0.115 A 
ATOM      6  C   UNL     1      20.084 -11.951  17.828  1.00  0.00     0.188 A 
ATOM      7  O   UNL     1      19.838 -10.726  18.288  1.00  0.00    -0.452 OA
ATOM      8  C   UNL     1      19.537 -12.363  16.596  1.00  0.00     0.209 A 
ATOM      9  C   UNL     1      19.787 -13.660  16.124  1.00  0.00     0.211 A 
ATOM     10  C   UNL     1      20.555 -14.574  16.884  1.00  0.00     0.208 A 
ATOM     11  C   UNL     1      21.147 -14.146  18.100  1.00  0.00     0.179 A 
ENDROOT
BRANCH   1  12
ATOM     12  C   UNL     1      19.953  -8.877  19.849  1.00  0.00     0.018 A 
ATOM     13  C   UNL     1      19.264  -6.249  20.619  1.00  0.00     0.118 A 
ATOM     14  C   UNL     1      20.602  -6.660  20.616  1.00  0.00     0.047 A 
ATOM     15  C   UNL     1      18.266  -7.166  20.244  1.00  0.00     0.047 A 
ATOM     16  C   UNL     1      20.947  -7.959  20.236  1.00  0.00     0.016 A 
ATOM     17  C   UNL     1      18.609  -8.468  19.868  1.00  0.00     0.016 A 
BRANCH  13  18
ATOM     18  O   UNL     1      18.971  -4.931  20.999  1.00  0.00    -0.497 OA
ATOM     19  C   UNL     1      19.760  -3.801  20.642  1.00  0.00     0.278 C 
ENDBRANCH  13  18
ENDBRANCH   1  12
BRANCH   8  20
ATOM     20  O   UNL     1      18.712 -11.539  15.807  1.00  0.00    -0.490 OA
ATOM     21  C   UNL     1      19.137 -10.469  14.967  1.00  0.00     0.278 C 
ENDBRANCH   8  20
BRANCH  11  22
ATOM     22  O   UNL     1      21.988 -14.982  18.865  1.00  0.00    -0.492 OA
ATOM     23  C   UNL     1      21.590 -16.093  19.662  1.00  0.00     0.278 C 
ENDBRANCH  11  22
BRANCH   9  24
ATOM     24  O   UNL     1      19.256 -14.038  14.886  1.00  0.00    -0.490 OA
ATOM     25  C   UNL     1      20.002 -13.951  13.677  1.00  0.00     0.279 C 
ENDBRANCH   9  24
BRANCH  10  26
ATOM     26  O   UNL     1      20.748 -15.908  16.481  1.00  0.00    -0.490 OA
ATOM     27  C   UNL     1      19.821 -16.982  16.598  1.00  0.00     0.278 C 
ENDBRANCH  10  26
TORSDOF 6
ENDMDL
MODEL 3
REMARK VINA RESULT:    -6.075      2.381      3.739
REMARK INTER + INTRA:          -8.744
REMARK INTER:                  -8.142
REMARK INTRA:                  -0.602
REMARK UNBOUND:                -0.538
REMARK SMILES COc1ccc(-c2cc(=O)c3c(OC)c(OC)c(OC)c(OC)c3o2)cc1
REMARK SMILES IDX 7 1 8 2 9 3 10 4 11 5 24 6 25 7 21 8 18 9 15 10 12 11 6 12
REMARK SMILES IDX 3 13 4 14 27 15 5 16 26 17 2 18 1 19 22 20 23 21 13 22 14 23
REMARK SMILES IDX 19 24 20 25 16 26 17 27
REMARK H PARENT
REMARK Flexibility Score: inf
ROOT
ATOM      1  C   UNL     1      19.773  -9.158  20.485  1.00  0.00     0.138 A 
ATOM      2  C   UNL     1      18.927  -8.711  19.465  1.00  0.00     0.100 A 
ATOM      3  C   UNL     1      18.841  -9.438  18.282  1.00  0.00     0.197 A 
ATOM      4  O   UNL     1      18.069  -9.024  17.376  1.00  0.00    -0.289 OA
ATOM      5  C   UNL     1      19.615 -10.613  18.119  1.00  0.00     0.115 A 
ATOM      6  C   UNL     1      20.448 -11.002  19.197  1.00  0.00     0.188 A 
ATOM      7  O   UNL     1      20.479 -10.270  20.308  1.00  0.00    -0.452 OA
ATOM      8  C   UNL     1      21.252 -12.155  19.091  1.00  0.00     0.209 A 
ATOM      9  C   UNL     1      21.228 -12.915  17.912  1.00  0.00     0.211 A 
ATOM     10  C   UNL     1      20.430 -12.520  16.812  1.00  0.00     0.208 A 
ATOM     11  C   UNL     1      19.583 -11.388  16.934  1.00  0.00     0.179 A 
ENDROOT
BRANCH   1  12
ATOM     12  C   UNL     1      19.891  -8.430  21.771  1.00  0.00     0.018 A 
ATOM     13  C   UNL     1      20.110  -7.007  24.200  1.00  0.00     0.118 A 
ATOM     14  C   UNL     1      19.919  -8.394  24.204  1.00  0.00     0.047 A 
ATOM     15  C   UNL     1      20.181  -6.330  22.969  1.00  0.00     0.047 A 
ATOM     16  C   UNL     1      19.810  -9.101  23.005  1.00  0.00     0.016 A 
ATOM     17  C   UNL     1      20.067  -7.037  21.768  1.00  0.00     0.016 A 
BRANCH  13  18
ATOM     18  O   UNL     1      20.224  -6.345  25.432  1.00  0.00    -0.497 OA
ATOM     19  C   UNL     1      19.809  -6.895  26.677  1.00  0.00     0.278 C 
ENDBRANCH  13  18
ENDBRANCH   1  12
BRANCH   8  20
ATOM     20  O   UNL     1      22.121 -12.583  20.114  1.00  0.00    -0.490 OA
ATOM     21  C   UNL     1      21.754 -13.288  21.298  1.00  0.00     0.278 C 
ENDBRANCH   8  20
BRANCH  11  22
ATOM     22  O   UNL     1      18.705 -10.989  15.903  1.00  0.00    -0.492 OA
ATOM     23  C   UNL     1      19.063 -10.383  14.665  1.00  0.00     0.278 C 
ENDBRANCH  11  22
BRANCH   9  24
ATOM     24  O   UNL     1      22.013 -14.070  17.840  1.00  0.00    -0.490 OA
ATOM     25  C   UNL     1      21.507 -15.359  18.170  1.00  0.00     0.279 C 
ENDBRANCH   9  24
BRANCH  10  26
ATOM     26  O   UNL     1      20.451 -13.209  15.585  1.00  0.00    -0.490 OA
ATOM     27  C   UNL     1      19.617 -14.296  15.198  1.00  0.00     0.278 C 
ENDBRANCH  10  26
TORSDOF 6
ENDMDL
MODEL 4
REMARK VINA RESULT:    -6.065      2.233      7.432
REMARK INTER + INTRA:          -8.731
REMARK INTER:                  -8.178
REMARK INTRA:                  -0.552
REMARK UNBOUND:                -0.538
REMARK SMILES COc1ccc(-c2cc(=O)c3c(OC)c(OC)c(OC)c(OC)c3o2)cc1
REMARK SMILES IDX 7 1 8 2 9 3 10 4 11 5 24 6 25 7 21 8 18 9 15 10 12 11 6 12
REMARK SMILES IDX 3 13 4 14 27 15 5 16 26 17 2 18 1 19 22 20 23 21 13 22 14 23
REMARK SMILES IDX 19 24 20 25 16 26 17 27
REMARK H PARENT
REMARK Flexibility Score: inf
ROOT
ATOM      1  C   UNL     1      20.280 -10.876  17.809  1.00  0.00     0.138 A 
ATOM      2  C   UNL     1      21.062 -10.046  16.999  1.00  0.00     0.100 A 
ATOM      3  C   UNL     1      21.339  -8.748  17.418  1.00  0.00     0.197 A 
ATOM      4  O   UNL     1      22.051  -8.016  16.678  1.00  0.00    -0.289 OA
ATOM      5  C   UNL     1      20.819  -8.279  18.649  1.00  0.00     0.115 A 
ATOM      6  C   UNL     1      20.035  -9.178  19.413  1.00  0.00     0.188 A 
ATOM      7  O   UNL     1      19.814 -10.412  18.963  1.00  0.00    -0.452 OA
ATOM      8  C   UNL     1      19.479  -8.767  20.641  1.00  0.00     0.209 A 
ATOM      9  C   UNL     1      19.701  -7.461  21.103  1.00  0.00     0.211 A 
ATOM     10  C   UNL     1      20.450  -6.538  20.335  1.00  0.00     0.208 A 
ATOM     11  C   UNL     1      21.052  -6.965  19.123  1.00  0.00     0.179 A 
ENDROOT
BRANCH   1  12
ATOM     12  C   UNL     1      19.968 -12.272  17.418  1.00  0.00     0.018 A 
ATOM     13  C   UNL     1      19.335 -14.918  16.664  1.00  0.00     0.118 A 
ATOM     14  C   UNL     1      20.668 -14.526  16.825  1.00  0.00     0.047 A 
ATOM     15  C   UNL     1      18.314 -13.973  16.873  1.00  0.00     0.047 A 
ATOM     16  C   UNL     1      20.986 -13.217  17.198  1.00  0.00     0.016 A 
ATOM     17  C   UNL     1      18.630 -12.662  17.241  1.00  0.00     0.016 A 
BRANCH  13  18
ATOM     18  O   UNL     1      19.069 -16.246  16.299  1.00  0.00    -0.497 OA
ATOM     19  C   UNL     1      19.910 -17.349  16.621  1.00  0.00     0.278 C 
ENDBRANCH  13  18
ENDBRANCH   1  12
BRANCH   8  20
ATOM     20  O   UNL     1      18.670  -9.602  21.437  1.00  0.00    -0.490 OA
ATOM     21  C   UNL     1      19.119 -10.639  22.305  1.00  0.00     0.278 C 
ENDBRANCH   8  20
BRANCH  11  22
ATOM     22  O   UNL     1      21.876  -6.117  18.352  1.00  0.00    -0.492 OA
ATOM     23  C   UNL     1      21.455  -5.019  17.548  1.00  0.00     0.278 C 
ENDBRANCH  11  22
BRANCH   9  24
ATOM     24  O   UNL     1      19.162  -7.084  22.337  1.00  0.00    -0.490 OA
ATOM     25  C   UNL     1      19.930  -7.078  23.535  1.00  0.00     0.279 C 
ENDBRANCH   9  24
BRANCH  10  26
ATOM     26  O   UNL     1      20.616  -5.197  20.727  1.00  0.00    -0.490 OA
ATOM     27  C   UNL     1      19.654  -4.152  20.632  1.00  0.00     0.278 C 
ENDBRANCH  10  26
TORSDOF 6
ENDMDL
MODEL 5
REMARK VINA RESULT:    -5.984      2.822      9.101
REMARK INTER + INTRA:          -8.620
REMARK INTER:                  -8.360
REMARK INTRA:                  -0.261
REMARK UNBOUND:                -0.538
REMARK SMILES COc1ccc(-c2cc(=O)c3c(OC)c(OC)c(OC)c(OC)c3o2)cc1
REMARK SMILES IDX 7 1 8 2 9 3 10 4 11 5 24 6 25 7 21 8 18 9 15 10 12 11 6 12
REMARK SMILES IDX 3 13 4 14 27 15 5 16 26 17 2 18 1 19 22 20 23 21 13 22 14 23
REMARK SMILES IDX 19 24 20 25 16 26 17 27
REMARK H PARENT
REMARK Flexibility Score: inf
ROOT
ATOM      1  C   UNL     1      19.824 -11.746  16.875  1.00  0.00     0.138 A 
ATOM      2  C   UNL     1      18.992 -12.181  17.912  1.00  0.00     0.100 A 
ATOM      3  C   UNL     1      18.905 -11.427  19.078  1.00  0.00     0.197 A 
ATOM      4  O   UNL     1      18.146 -11.832  20.000  1.00  0.00    -0.289 OA
ATOM      5  C   UNL     1      19.663 -10.238  19.208  1.00  0.00     0.115 A 
ATOM      6  C   UNL     1      20.482  -9.863  18.114  1.00  0.00     0.188 A 
ATOM      7  O   UNL     1      20.515 -10.621  17.020  1.00  0.00    -0.452 OA
ATOM      8  C   UNL     1      21.271  -8.696  18.187  1.00  0.00     0.209 A 
ATOM      9  C   UNL     1      21.244  -7.910  19.348  1.00  0.00     0.211 A 
ATOM     10  C   UNL     1      20.460  -8.290  20.463  1.00  0.00     0.208 A 
ATOM     11  C   UNL     1      19.629  -9.436  20.375  1.00  0.00     0.179 A 
ENDROOT
BRANCH   1  12
ATOM     12  C   UNL     1      19.942 -12.502  15.605  1.00  0.00     0.018 A 
ATOM     13  C   UNL     1      20.163 -13.978  13.209  1.00  0.00     0.118 A 
ATOM     14  C   UNL     1      19.956 -12.595  13.174  1.00  0.00     0.047 A 
ATOM     15  C   UNL     1      20.249 -14.626  14.454  1.00  0.00     0.047 A 
ATOM     16  C   UNL     1      19.846 -11.861  14.357  1.00  0.00     0.016 A 
ATOM     17  C   UNL     1      20.134 -13.893  15.640  1.00  0.00     0.016 A 
BRANCH  13  18
ATOM     18  O   UNL     1      20.277 -14.668  11.992  1.00  0.00    -0.497 OA
ATOM     19  C   UNL     1      19.857 -14.148  10.735  1.00  0.00     0.278 C 
ENDBRANCH  13  18
ENDBRANCH   1  12
BRANCH   8  20
ATOM     20  O   UNL     1      22.125  -8.280  17.147  1.00  0.00    -0.490 OA
ATOM     21  C   UNL     1      21.812  -8.243  15.757  1.00  0.00     0.278 C 
ENDBRANCH   8  20
BRANCH  11  22
ATOM     22  O   UNL     1      18.765  -9.823  21.421  1.00  0.00    -0.492 OA
ATOM     23  C   UNL     1      19.141 -10.386  22.674  1.00  0.00     0.278 C 
ENDBRANCH  11  22
BRANCH   9  24
ATOM     24  O   UNL     1      22.013  -6.743  19.387  1.00  0.00    -0.490 OA
ATOM     25  C   UNL     1      21.544  -5.502  18.871  1.00  0.00     0.279 C 
ENDBRANCH   9  24
BRANCH  10  26
ATOM     26  O   UNL     1      20.481  -7.572  21.674  1.00  0.00    -0.490 OA
ATOM     27  C   UNL     1      19.730  -6.405  21.991  1.00  0.00     0.278 C 
ENDBRANCH  10  26
TORSDOF 6
ENDMDL
MODEL 6
REMARK VINA RESULT:    -5.934      1.694      3.004
REMARK INTER + INTRA:          -8.554
REMARK INTER:                  -8.142
REMARK INTRA:                  -0.412
REMARK UNBOUND:                -0.538
REMARK SMILES COc1ccc(-c2cc(=O)c3c(OC)c(OC)c(OC)c(OC)c3o2)cc1
REMARK SMILES IDX 7 1 8 2 9 3 10 4 11 5 24 6 25 7 21 8 18 9 15 10 12 11 6 12
REMARK SMILES IDX 3 13 4 14 27 15 5 16 26 17 2 18 1 19 22 20 23 21 13 22 14 23
REMARK SMILES IDX 19 24 20 25 16 26 17 27
REMARK H PARENT
REMARK Flexibility Score: inf
ROOT
ATOM      1  C   UNL     1      20.098  -8.456  20.382  1.00  0.00     0.138 A 
ATOM      2  C   UNL     1      20.948  -7.853  19.449  1.00  0.00     0.100 A 
ATOM      3  C   UNL     1      20.946  -8.305  18.132  1.00  0.00     0.197 A 
ATOM      4  O   UNL     1      21.714  -7.745  17.304  1.00  0.00    -0.289 OA
ATOM      5  C   UNL     1      20.095  -9.371  17.754  1.00  0.00     0.115 A 
ATOM      6  C   UNL     1      19.263  -9.931  18.755  1.00  0.00     0.188 A 
ATOM      7  O   UNL     1      19.303  -9.449  19.995  1.00  0.00    -0.452 OA
ATOM      8  C   UNL     1      18.403 -11.003  18.445  1.00  0.00     0.209 A 
ATOM      9  C   UNL     1      18.376 -11.518  17.140  1.00  0.00     0.211 A 
ATOM     10  C   UNL     1      19.227 -10.996  16.137  1.00  0.00     0.208 A 
ATOM     11  C   UNL     1      20.058  -9.886  16.435  1.00  0.00     0.179 A 
ENDROOT
BRANCH   1  12
ATOM     12  C   UNL     1      20.049  -8.005  21.793  1.00  0.00     0.018 A 
ATOM     13  C   UNL     1      19.958  -7.184  24.492  1.00  0.00     0.118 A 
ATOM     14  C   UNL     1      20.214  -6.256  23.477  1.00  0.00     0.047 A 
ATOM     15  C   UNL     1      19.758  -8.533  24.151  1.00  0.00     0.047 A 
ATOM     16  C   UNL     1      20.260  -6.658  22.140  1.00  0.00     0.016 A 
ATOM     17  C   UNL     1      19.808  -8.938  22.814  1.00  0.00     0.016 A 
BRANCH  13  18
ATOM     18  O   UNL     1      19.912  -6.727  25.818  1.00  0.00    -0.497 OA
ATOM     19  C   UNL     1      19.857  -7.579  26.957  1.00  0.00     0.278 C 
ENDBRANCH  13  18
ENDBRANCH   1  12
BRANCH   8  20
ATOM     20  O   UNL     1      17.570 -11.621  19.397  1.00  0.00    -0.490 OA
ATOM     21  C   UNL     1      17.987 -12.461  20.471  1.00  0.00     0.278 C 
ENDBRANCH   8  20
BRANCH  11  22
ATOM     22  O   UNL     1      20.870  -9.269  15.459  1.00  0.00    -0.492 OA
ATOM     23  C   UNL     1      22.124  -9.737  14.973  1.00  0.00     0.278 C 
ENDBRANCH  11  22
BRANCH   9  24
ATOM     24  O   UNL     1      17.495 -12.564  16.848  1.00  0.00    -0.490 OA
ATOM     25  C   UNL     1      17.853 -13.932  17.011  1.00  0.00     0.279 C 
ENDBRANCH   9  24
BRANCH  10  26
ATOM     26  O   UNL     1      19.289 -11.549  14.844  1.00  0.00    -0.490 OA
ATOM     27  C   UNL     1      19.985 -12.726  14.447  1.00  0.00     0.278 C 
ENDBRANCH  10  26
TORSDOF 6
ENDMDL
MODEL 7
REMARK VINA RESULT:    -5.930      3.341      9.371
REMARK INTER + INTRA:          -8.547
REMARK INTER:                  -8.271
REMARK INTRA:                  -0.277
REMARK UNBOUND:                -0.538
REMARK SMILES COc1ccc(-c2cc(=O)c3c(OC)c(OC)c(OC)c(OC)c3o2)cc1
REMARK SMILES IDX 7 1 8 2 9 3 10 4 11 5 24 6 25 7 21 8 18 9 15 10 12 11 6 12
REMARK SMILES IDX 3 13 4 14 27 15 5 16 26 17 2 18 1 19 22 20 23 21 13 22 14 23
REMARK SMILES IDX 19 24 20 25 16 26 17 27
REMARK H PARENT
REMARK Flexibility Score: inf
ROOT
ATOM      1  C   UNL     1      20.147 -12.538  16.823  1.00  0.00     0.138 A 
ATOM      2  C   UNL     1      20.990 -13.121  17.775  1.00  0.00     0.100 A 
ATOM      3  C   UNL     1      20.974 -12.645  19.083  1.00  0.00     0.197 A 
ATOM      4  O   UNL     1      21.737 -13.186  19.929  1.00  0.00    -0.289 OA
ATOM      5  C   UNL     1      20.116 -11.575  19.433  1.00  0.00     0.115 A 
ATOM      6  C   UNL     1      19.291 -11.037  18.414  1.00  0.00     0.188 A 
ATOM      7  O   UNL     1      19.345 -11.542  17.184  1.00  0.00    -0.452 OA
ATOM      8  C   UNL     1      18.424  -9.963  18.697  1.00  0.00     0.209 A 
ATOM      9  C   UNL     1      18.384  -9.424  19.991  1.00  0.00     0.211 A 
ATOM     10  C   UNL     1      19.227  -9.924  21.012  1.00  0.00     0.208 A 
ATOM     11  C   UNL     1      20.064 -11.037  20.743  1.00  0.00     0.179 A 
ENDROOT
BRANCH   1  12
ATOM     12  C   UNL     1      20.113 -13.016  15.420  1.00  0.00     0.018 A 
ATOM     13  C   UNL     1      20.045 -13.965  12.762  1.00  0.00     0.118 A 
ATOM     14  C   UNL     1      19.881 -12.602  13.033  1.00  0.00     0.047 A 
ATOM     15  C   UNL     1      20.233 -14.858  13.832  1.00  0.00     0.047 A 
ATOM     16  C   UNL     1      19.915 -12.128  14.347  1.00  0.00     0.016 A 
ATOM     17  C   UNL     1      20.261 -14.386  15.148  1.00  0.00     0.016 A 
BRANCH  13  18
ATOM     18  O   UNL     1      20.014 -14.388  11.425  1.00  0.00    -0.497 OA
ATOM     19  C   UNL     1      19.758 -13.529  10.319  1.00  0.00     0.278 C 
ENDBRANCH  13  18
ENDBRANCH   1  12
BRANCH   8  20
ATOM     20  O   UNL     1      17.598  -9.366  17.725  1.00  0.00    -0.490 OA
ATOM     21  C   UNL     1      18.012  -8.842  16.466  1.00  0.00     0.278 C 
ENDBRANCH   8  20
BRANCH  11  22
ATOM     22  O   UNL     1      20.869 -11.632  21.737  1.00  0.00    -0.492 OA
ATOM     23  C   UNL     1      22.125 -11.159  22.215  1.00  0.00     0.278 C 
ENDBRANCH  11  22
BRANCH   9  24
ATOM     24  O   UNL     1      17.496  -8.376  20.256  1.00  0.00    -0.490 OA
ATOM     25  C   UNL     1      17.862  -7.009  20.104  1.00  0.00     0.279 C 
ENDBRANCH   9  24
BRANCH  10  26
ATOM     26  O   UNL     1      19.275  -9.347  22.295  1.00  0.00    -0.490 OA
ATOM     27  C   UNL     1      20.014  -8.197  22.690  1.00  0.00     0.278 C 
ENDBRANCH  10  26
TORSDOF 6
ENDMDL
MODEL 8
REMARK VINA RESULT:    -5.663      3.187      7.979
REMARK INTER + INTRA:          -8.187
REMARK INTER:                  -7.777
REMARK INTRA:                  -0.410
REMARK UNBOUND:                -0.538
REMARK SMILES COc1ccc(-c2cc(=O)c3c(OC)c(OC)c(OC)c(OC)c3o2)cc1
REMARK SMILES IDX 7 1 8 2 9 3 10 4 11 5 24 6 25 7 21 8 18 9 15 10 12 11 6 12
REMARK SMILES IDX 3 13 4 14 27 15 5 16 26 17 2 18 1 19 22 20 23 21 13 22 14 23
REMARK SMILES IDX 19 24 20 25 16 26 17 27
REMARK H PARENT
REMARK Flexibility Score: inf
ROOT
ATOM      1  C   UNL     1      19.134 -12.254  17.889  1.00  0.00     0.138 A 
ATOM      2  C   UNL     1      18.620 -11.398  16.909  1.00  0.00     0.100 A 
ATOM      3  C   UNL     1      18.301 -10.087  17.247  1.00  0.00     0.197 A 
ATOM      4  O   UNL     1      17.845  -9.328  16.350  1.00  0.00    -0.289 OA
ATOM      5  C   UNL     1      18.490  -9.636  18.576  1.00  0.00     0.115 A 
ATOM      6  C   UNL     1      19.014 -10.561  19.512  1.00  0.00     0.188 A 
ATOM      7  O   UNL     1      19.310 -11.800  19.125  1.00  0.00    -0.452 OA
ATOM      8  C   UNL     1      19.213 -10.177  20.854  1.00  0.00     0.209 A 
ATOM      9  C   UNL     1      18.885  -8.875  21.261  1.00  0.00     0.211 A 
ATOM     10  C   UNL     1      18.325  -7.950  20.348  1.00  0.00     0.208 A 
ATOM     11  C   UNL     1      18.170  -8.318  18.987  1.00  0.00     0.179 A 
ENDROOT
BRANCH   1  12
ATOM     12  C   UNL     1      19.505 -13.655  17.579  1.00  0.00     0.018 A 
ATOM     13  C   UNL     1      20.233 -16.326  17.023  1.00  0.00     0.118 A 
ATOM     14  C   UNL     1      19.178 -15.719  16.331  1.00  0.00     0.047 A 
ATOM     15  C   UNL     1      20.919 -15.591  18.006  1.00  0.00     0.047 A 
ATOM     16  C   UNL     1      18.814 -14.398  16.604  1.00  0.00     0.016 A 
ATOM     17  C   UNL     1      20.553 -14.270  18.283  1.00  0.00     0.016 A 
BRANCH  13  18
ATOM     18  O   UNL     1      20.565 -17.651  16.704  1.00  0.00    -0.497 OA
ATOM     19  C   UNL     1      19.762 -18.779  17.035  1.00  0.00     0.278 C 
ENDBRANCH  13  18
ENDBRANCH   1  12
BRANCH   8  20
ATOM     20  O   UNL     1      19.707 -11.054  21.840  1.00  0.00    -0.490 OA
ATOM     21  C   UNL     1      21.049 -11.516  21.967  1.00  0.00     0.278 C 
ENDBRANCH   8  20
BRANCH  11  22
ATOM     22  O   UNL     1      17.693  -7.417  18.011  1.00  0.00    -0.492 OA
ATOM     23  C   UNL     1      16.332  -7.107  17.729  1.00  0.00     0.278 C 
ENDBRANCH  11  22
BRANCH   9  24
ATOM     24  O   UNL     1      19.116  -8.508  22.590  1.00  0.00    -0.490 OA
ATOM     25  C   UNL     1      20.282  -7.799  22.995  1.00  0.00     0.279 C 
ENDBRANCH   9  24
BRANCH  10  26
ATOM     26  O   UNL     1      17.903  -6.667  20.744  1.00  0.00    -0.490 OA
ATOM     27  C   UNL     1      18.691  -5.482  20.791  1.00  0.00     0.278 C 
ENDBRANCH  10  26
TORSDOF 6
ENDMDL
MODEL 9
REMARK VINA RESULT:    -5.533      3.924      5.915
REMARK INTER + INTRA:          -8.012
REMARK INTER:                  -7.355
REMARK INTRA:                  -0.657
REMARK UNBOUND:                -0.538
REMARK SMILES COc1ccc(-c2cc(=O)c3c(OC)c(OC)c(OC)c(OC)c3o2)cc1
REMARK SMILES IDX 7 1 8 2 9 3 10 4 11 5 24 6 25 7 21 8 18 9 15 10 12 11 6 12
REMARK SMILES IDX 3 13 4 14 27 15 5 16 26 17 2 18 1 19 22 20 23 21 13 22 14 23
REMARK SMILES IDX 19 24 20 25 16 26 17 27
REMARK H PARENT
REMARK Flexibility Score: inf
ROOT
ATOM      1  C   UNL     1      20.420  -8.511  17.777  1.00  0.00     0.138 A 
ATOM      2  C   UNL     1      21.165  -8.778  16.623  1.00  0.00     0.100 A 
ATOM      3  C   UNL     1      21.030 -10.012  15.994  1.00  0.00     0.197 A 
ATOM      4  O   UNL     1      21.704 -10.233  14.952  1.00  0.00    -0.289 OA
ATOM      5  C   UNL     1      20.151 -10.984  16.531  1.00  0.00     0.115 A 
ATOM      6  C   UNL     1      19.432 -10.640  17.702  1.00  0.00     0.188 A 
ATOM      7  O   UNL     1      19.596  -9.439  18.252  1.00  0.00    -0.452 OA
ATOM      8  C   UNL     1      18.551 -11.569  18.292  1.00  0.00     0.209 A 
ATOM      9  C   UNL     1      18.393 -12.839  17.718  1.00  0.00     0.211 A 
ATOM     10  C   UNL     1      19.132 -13.213  16.570  1.00  0.00     0.208 A 
ATOM     11  C   UNL     1      19.981 -12.263  15.947  1.00  0.00     0.179 A 
ENDROOT
BRANCH   1  12
ATOM     12  C   UNL     1      20.515  -7.208  18.477  1.00  0.00     0.018 A 
ATOM     13  C   UNL     1      20.668  -4.739  19.839  1.00  0.00     0.118 A 
ATOM     14  C   UNL     1      21.623  -5.077  18.873  1.00  0.00     0.047 A 
ATOM     15  C   UNL     1      19.636  -5.650  20.130  1.00  0.00     0.047 A 
ATOM     16  C   UNL     1      21.551  -6.298  18.197  1.00  0.00     0.016 A 
ATOM     17  C   UNL     1      19.566  -6.874  19.457  1.00  0.00     0.016 A 
BRANCH  13  18
ATOM     18  O   UNL     1      20.779  -3.497  20.482  1.00  0.00    -0.497 OA
ATOM     19  C   UNL     1      19.764  -2.499  20.477  1.00  0.00     0.278 C 
ENDBRANCH  13  18
ENDBRANCH   1  12
BRANCH   8  20
ATOM     20  O   UNL     1      17.825 -11.300  19.469  1.00  0.00    -0.490 OA
ATOM     21  C   UNL     1      18.308 -11.410  20.806  1.00  0.00     0.278 C 
ENDBRANCH   8  20
BRANCH  11  22
ATOM     22  O   UNL     1      20.683 -12.547  14.756  1.00  0.00    -0.492 OA
ATOM     23  C   UNL     1      20.119 -12.819  13.477  1.00  0.00     0.278 C 
ENDBRANCH  11  22
BRANCH   9  24
ATOM     24  O   UNL     1      17.494 -13.735  18.305  1.00  0.00    -0.490 OA
ATOM     25  C   UNL     1      16.120 -13.790  17.936  1.00  0.00     0.279 C 
ENDBRANCH   9  24
BRANCH  10  26
ATOM     26  O   UNL     1      19.063 -14.508  16.024  1.00  0.00    -0.490 OA
ATOM     27  C   UNL     1      19.853 -15.635  16.388  1.00  0.00     0.278 C 
ENDBRANCH  10  26
TORSDOF 6
ENDMDL
