MODEL 1
REMARK VINA RESULT:    -3.686      0.000      0.000
REMARK INTER + INTRA:          -4.442
REMARK INTER:                  -4.332
REMARK INTRA:                  -0.110
REMARK UNBOUND:                -0.110
REMARK SMILES O=C([O-])CCC(=O)[O-]
REMARK SMILES IDX 4 1 2 2 1 3 3 4 5 5 6 6 7 7 8 8
REMARK H PARENT
REMARK Flexibility Score: inf
ROOT
ATOM      1  C   UNL     1      26.142   8.255   5.433  1.00  0.00     0.059 C 
ENDROOT
BRANCH   1   2
ATOM      2  C   UNL     1      24.683   8.592   5.478  1.00  0.00     0.042 C 
ATOM      3  O   UNL     1      23.829   7.690   5.682  1.00  0.00    -0.550 OA
ATOM      4  O   UNL     1      24.270   9.910   5.333  1.00  0.00    -0.550 OA
ENDBRANCH   1   2
BRANCH   1   5
ATOM      5  C   UNL     1      26.370   6.784   5.069  1.00  0.00     0.059 C 
BRANCH   5   6
ATOM      6  C   UNL     1      27.071   6.045   6.166  1.00  0.00     0.042 C 
ATOM      7  O   UNL     1      27.865   5.107   5.892  1.00  0.00    -0.550 OA
ATOM      8  O   UNL     1      26.815   6.365   7.494  1.00  0.00    -0.550 OA
ENDBRANCH   5   6
ENDBRANCH   1   5
TORSDOF 3
ENDMDL
MODEL 2
REMARK VINA RESULT:    -3.681      0.060      3.934
REMARK INTER + INTRA:          -4.436
REMARK INTER:                  -4.328
REMARK INTRA:                  -0.108
REMARK UNBOUND:                -0.110
REMARK SMILES O=C([O-])CCC(=O)[O-]
REMARK SMILES IDX 4 1 2 2 1 3 3 4 5 5 6 6 7 7 8 8
REMARK H PARENT
REMARK Flexibility Score: inf
ROOT
ATOM      1  C   UNL     1      26.372   6.755   5.113  1.00  0.00     0.059 C 
ENDROOT
BRANCH   1   2
ATOM      2  C   UNL     1      27.057   5.998   6.208  1.00  0.00     0.042 C 
ATOM      3  O   UNL     1      27.904   5.108   5.931  1.00  0.00    -0.550 OA
ATOM      4  O   UNL     1      26.789   6.302   7.537  1.00  0.00    -0.550 OA
ENDBRANCH   1   2
BRANCH   1   5
ATOM      5  C   UNL     1      26.152   8.223   5.495  1.00  0.00     0.059 C 
BRANCH   5   6
ATOM      6  C   UNL     1      24.697   8.574   5.530  1.00  0.00     0.042 C 
ATOM      7  O   UNL     1      23.830   7.670   5.657  1.00  0.00    -0.550 OA
ATOM      8  O   UNL     1      24.296   9.896   5.380  1.00  0.00    -0.550 OA
ENDBRANCH   5   6
ENDBRANCH   1   5
TORSDOF 3
ENDMDL
MODEL 3
REMARK VINA RESULT:    -3.562     10.147     12.545
REMARK INTER + INTRA:          -4.297
REMARK INTER:                  -4.270
REMARK INTRA:                  -0.027
REMARK UNBOUND:                -0.110
REMARK SMILES O=C([O-])CCC(=O)[O-]
REMARK SMILES IDX 4 1 2 2 1 3 3 4 5 5 6 6 7 7 8 8
REMARK H PARENT
REMARK Flexibility Score: inf
ROOT
ATOM      1  C   UNL     1      18.708  16.499   7.286  1.00  0.00     0.059 C 
ENDROOT
BRANCH   1   2
ATOM      2  C   UNL     1      19.722  15.792   6.441  1.00  0.00     0.042 C 
ATOM      3  O   UNL     1      20.053  14.606   6.704  1.00  0.00    -0.550 OA
ATOM      4  O   UNL     1      20.274  16.431   5.337  1.00  0.00    -0.550 OA
ENDBRANCH   1   2
BRANCH   1   5
ATOM      5  C   UNL     1      19.369  17.499   8.242  1.00  0.00     0.059 C 
BRANCH   5   6
ATOM      6  C   UNL     1      18.354  18.254   9.042  1.00  0.00     0.042 C 
ATOM      7  O   UNL     1      17.628  19.121   8.488  1.00  0.00    -0.550 OA
ATOM      8  O   UNL     1      18.237  18.030  10.408  1.00  0.00    -0.550 OA
ENDBRANCH   5   6
ENDBRANCH   1   5
TORSDOF 3
ENDMDL
MODEL 4
REMARK VINA RESULT:    -3.555     10.004     12.194
REMARK INTER + INTRA:          -4.288
REMARK INTER:                  -4.256
REMARK INTRA:                  -0.032
REMARK UNBOUND:                -0.110
REMARK SMILES O=C([O-])CCC(=O)[O-]
REMARK SMILES IDX 4 1 2 2 1 3 3 4 5 5 6 6 7 7 8 8
REMARK H PARENT
REMARK Flexibility Score: inf
ROOT
ATOM      1  C   UNL     1      19.458  17.616   8.163  1.00  0.00     0.059 C 
ENDROOT
BRANCH   1   2
ATOM      2  C   UNL     1      18.430  18.302   9.010  1.00  0.00     0.042 C 
ATOM      3  O   UNL     1      17.628  19.125   8.494  1.00  0.00    -0.550 OA
ATOM      4  O   UNL     1      18.332  18.002  10.363  1.00  0.00    -0.550 OA
ENDBRANCH   1   2
BRANCH   1   5
ATOM      5  C   UNL     1      18.955  16.262   7.653  1.00  0.00     0.059 C 
BRANCH   5   6
ATOM      6  C   UNL     1      19.776  15.764   6.504  1.00  0.00     0.042 C 
ATOM      7  O   UNL     1      19.974  16.499   5.501  1.00  0.00    -0.550 OA
ATOM      8  O   UNL     1      20.288  14.472   6.522  1.00  0.00    -0.550 OA
ENDBRANCH   5   6
ENDBRANCH   1   5
TORSDOF 3
ENDMDL
MODEL 5
REMARK VINA RESULT:    -3.275      2.058      3.785
REMARK INTER + INTRA:          -3.959
REMARK INTER:                  -3.812
REMARK INTRA:                  -0.147
REMARK UNBOUND:                -0.110
REMARK SMILES O=C([O-])CCC(=O)[O-]
REMARK SMILES IDX 4 1 2 2 1 3 3 4 5 5 6 6 7 7 8 8
REMARK H PARENT
REMARK Flexibility Score: inf
ROOT
ATOM      1  C   UNL     1      26.340   7.209   7.348  1.00  0.00     0.059 C 
ENDROOT
BRANCH   1   2
ATOM      2  C   UNL     1      26.808   8.372   8.169  1.00  0.00     0.042 C 
ATOM      3  O   UNL     1      27.733   9.115   7.748  1.00  0.00    -0.550 OA
ATOM      4  O   UNL     1      26.194   8.658   9.382  1.00  0.00    -0.550 OA
ENDBRANCH   1   2
BRANCH   1   5
ATOM      5  C   UNL     1      26.128   7.603   5.883  1.00  0.00     0.059 C 
BRANCH   5   6
ATOM      6  C   UNL     1      24.847   8.355   5.692  1.00  0.00     0.042 C 
ATOM      7  O   UNL     1      23.752   7.737   5.629  1.00  0.00    -0.550 OA
ATOM      8  O   UNL     1      24.867   9.737   5.543  1.00  0.00    -0.550 OA
ENDBRANCH   5   6
ENDBRANCH   1   5
TORSDOF 3
ENDMDL
MODEL 6
REMARK VINA RESULT:    -3.254     12.458     13.122
REMARK INTER + INTRA:          -3.934
REMARK INTER:                  -3.763
REMARK INTRA:                  -0.171
REMARK UNBOUND:                -0.110
REMARK SMILES O=C([O-])CCC(=O)[O-]
REMARK SMILES IDX 4 1 2 2 1 3 3 4 5 5 6 6 7 7 8 8
REMARK H PARENT
REMARK Flexibility Score: inf
ROOT
ATOM      1  C   UNL     1      15.185   2.168  -0.791  1.00  0.00     0.059 C 
ENDROOT
BRANCH   1   2
ATOM      2  C   UNL     1      15.632   3.537  -1.205  1.00  0.00     0.042 C 
ATOM      3  O   UNL     1      16.436   4.187  -0.485  1.00  0.00    -0.550 OA
ATOM      4  O   UNL     1      15.191   4.079  -2.406  1.00  0.00    -0.550 OA
ENDBRANCH   1   2
BRANCH   1   5
ATOM      5  C   UNL     1      16.377   1.243  -0.524  1.00  0.00     0.059 C 
BRANCH   5   6
ATOM      6  C   UNL     1      17.196   1.026  -1.759  1.00  0.00     0.042 C 
ATOM      7  O   UNL     1      16.671   0.530  -2.790  1.00  0.00    -0.550 OA
ATOM      8  O   UNL     1      18.551   1.334  -1.757  1.00  0.00    -0.550 OA
ENDBRANCH   5   6
ENDBRANCH   1   5
TORSDOF 3
ENDMDL
MODEL 7
REMARK VINA RESULT:    -3.234     12.483     13.541
REMARK INTER + INTRA:          -3.911
REMARK INTER:                  -3.737
REMARK INTRA:                  -0.175
REMARK UNBOUND:                -0.110
REMARK SMILES O=C([O-])CCC(=O)[O-]
REMARK SMILES IDX 4 1 2 2 1 3 3 4 5 5 6 6 7 7 8 8
REMARK H PARENT
REMARK Flexibility Score: inf
ROOT
ATOM      1  C   UNL     1      16.319   1.255  -0.513  1.00  0.00     0.059 C 
ENDROOT
BRANCH   1   2
ATOM      2  C   UNL     1      17.122   0.978  -1.746  1.00  0.00     0.042 C 
ATOM      3  O   UNL     1      16.574   0.469  -2.760  1.00  0.00    -0.550 OA
ATOM      4  O   UNL     1      18.468   1.318  -1.790  1.00  0.00    -0.550 OA
ENDBRANCH   1   2
BRANCH   1   5
ATOM      5  C   UNL     1      15.153   2.207  -0.801  1.00  0.00     0.059 C 
BRANCH   5   6
ATOM      6  C   UNL     1      15.636   3.556  -1.237  1.00  0.00     0.042 C 
ATOM      7  O   UNL     1      16.442   4.203  -0.518  1.00  0.00    -0.550 OA
ATOM      8  O   UNL     1      15.163   4.117  -2.417  1.00  0.00    -0.550 OA
ENDBRANCH   5   6
ENDBRANCH   1   5
TORSDOF 3
ENDMDL
MODEL 8
REMARK VINA RESULT:    -3.224      1.341      2.213
REMARK INTER + INTRA:          -3.899
REMARK INTER:                  -3.795
REMARK INTRA:                  -0.104
REMARK UNBOUND:                -0.110
REMARK SMILES O=C([O-])CCC(=O)[O-]
REMARK SMILES IDX 4 1 2 2 1 3 3 4 5 5 6 6 7 7 8 8
REMARK H PARENT
REMARK Flexibility Score: inf
ROOT
ATOM      1  C   UNL     1      26.590   6.368   5.185  1.00  0.00     0.059 C 
ENDROOT
BRANCH   1   2
ATOM      2  C   UNL     1      25.951   7.599   5.751  1.00  0.00     0.042 C 
ATOM      3  O   UNL     1      26.632   8.417   6.424  1.00  0.00    -0.550 OA
ATOM      4  O   UNL     1      24.609   7.862   5.502  1.00  0.00    -0.550 OA
ENDBRANCH   1   2
BRANCH   1   5
ATOM      5  C   UNL     1      27.832   5.959   5.986  1.00  0.00     0.059 C 
BRANCH   5   6
ATOM      6  C   UNL     1      27.472   5.126   7.177  1.00  0.00     0.042 C 
ATOM      7  O   UNL     1      27.328   5.664   8.307  1.00  0.00    -0.550 OA
ATOM      8  O   UNL     1      27.336   3.749   7.047  1.00  0.00    -0.550 OA
ENDBRANCH   5   6
ENDBRANCH   1   5
TORSDOF 3
ENDMDL
MODEL 9
REMARK VINA RESULT:    -3.173     13.217     14.170
REMARK INTER + INTRA:          -3.839
REMARK INTER:                  -3.714
REMARK INTRA:                  -0.125
REMARK UNBOUND:                -0.110
REMARK SMILES O=C([O-])CCC(=O)[O-]
REMARK SMILES IDX 4 1 2 2 1 3 3 4 5 5 6 6 7 7 8 8
REMARK H PARENT
REMARK Flexibility Score: inf
ROOT
ATOM      1  C   UNL     1      16.898   1.890  -1.643  1.00  0.00     0.059 C 
ENDROOT
BRANCH   1   2
ATOM      2  C   UNL     1      16.155   3.120  -1.219  1.00  0.00     0.042 C 
ATOM      3  O   UNL     1      15.525   3.806  -2.067  1.00  0.00    -0.550 OA
ATOM      4  O   UNL     1      16.125   3.486   0.121  1.00  0.00    -0.550 OA
ENDBRANCH   1   2
BRANCH   1   5
ATOM      5  C   UNL     1      16.069   0.622  -1.410  1.00  0.00     0.059 C 
BRANCH   5   6
ATOM      6  C   UNL     1      15.260   0.260  -2.617  1.00  0.00     0.042 C 
ATOM      7  O   UNL     1      15.738  -0.507  -3.493  1.00  0.00    -0.550 OA
ATOM      8  O   UNL     1      13.994   0.804  -2.795  1.00  0.00    -0.550 OA
ENDBRANCH   5   6
ENDBRANCH   1   5
TORSDOF 3
ENDMDL
