MODEL 1
REMARK VINA RESULT:    -5.388      0.000      0.000
REMARK INTER + INTRA:          -9.198
REMARK INTER:                  -8.539
REMARK INTRA:                  -0.660
REMARK UNBOUND:                -0.660
REMARK SMILES CCCCCCCCCCCC(=O)[O-]
REMARK SMILES IDX 7 1 8 2 9 3 10 4 11 5 12 6 13 7 14 8 6 9 5 10 4 11 3 12 2 13
REMARK SMILES IDX 1 14
REMARK H PARENT
REMARK Flexibility Score: inf
ROOT
ATOM      1  C   UNL     1     104.219 311.593 193.161  1.00  0.00     0.000 C 
ENDROOT
BRANCH   1   2
ATOM      2  C   UNL     1     105.688 311.454 193.585  1.00  0.00     0.000 C 
BRANCH   2   3
ATOM      3  C   UNL     1     105.834 311.595 195.109  1.00  0.00     0.000 C 
BRANCH   3   4
ATOM      4  C   UNL     1     104.625 312.283 195.759  1.00  0.00     0.006 C 
BRANCH   4   5
ATOM      5  C   UNL     1     103.953 311.413 196.829  1.00  0.00     0.053 C 
BRANCH   5   6
ATOM      6  C   UNL     1     103.758 312.195 198.091  1.00  0.00     0.041 C 
ATOM      7  O   UNL     1     104.096 313.407 198.143  1.00  0.00    -0.550 OA
ATOM      8  O   UNL     1     103.252 311.572 199.223  1.00  0.00    -0.550 OA
ENDBRANCH   5   6
ENDBRANCH   4   5
ENDBRANCH   3   4
ENDBRANCH   2   3
ENDBRANCH   1   2
BRANCH   1   9
ATOM      9  C   UNL     1     104.022 312.600 192.017  1.00  0.00     0.000 C 
BRANCH   9  10
ATOM     10  C   UNL     1     103.858 314.044 192.522  1.00  0.00    -0.000 C 
BRANCH  10  11
ATOM     11  C   UNL     1     103.828 315.077 191.381  1.00  0.00    -0.000 C 
BRANCH  11  12
ATOM     12  C   UNL     1     104.526 314.637 190.078  1.00  0.00    -0.000 C 
BRANCH  12  13
ATOM     13  C   UNL     1     103.939 315.240 188.789  1.00  0.00    -0.003 C 
ATOM     14  C   UNL     1     102.638 314.565 188.355  1.00  0.00     0.004 C 
ENDBRANCH  12  13
ENDBRANCH  11  12
ENDBRANCH  10  11
ENDBRANCH   9  10
ENDBRANCH   1   9
TORSDOF 10
ENDMDL
MODEL 2
REMARK VINA RESULT:    -5.324      1.752      2.894
REMARK INTER + INTRA:          -9.096
REMARK INTER:                  -8.376
REMARK INTRA:                  -0.719
REMARK UNBOUND:                -0.660
REMARK SMILES CCCCCCCCCCCC(=O)[O-]
REMARK SMILES IDX 7 1 8 2 9 3 10 4 11 5 12 6 13 7 14 8 6 9 5 10 4 11 3 12 2 13
REMARK SMILES IDX 1 14
REMARK H PARENT
REMARK Flexibility Score: inf
ROOT
ATOM      1  C   UNL     1     103.498 312.172 194.980  1.00  0.00     0.000 C 
ENDROOT
BRANCH   1   2
ATOM      2  C   UNL     1     104.545 311.958 196.082  1.00  0.00     0.000 C 
BRANCH   2   3
ATOM      3  C   UNL     1     103.912 311.302 197.320  1.00  0.00     0.000 C 
BRANCH   3   4
ATOM      4  C   UNL     1     103.634 312.308 198.447  1.00  0.00     0.006 C 
BRANCH   4   5
ATOM      5  C   UNL     1     103.187 311.629 199.748  1.00  0.00     0.053 C 
BRANCH   5   6
ATOM      6  C   UNL     1     104.103 312.001 200.872  1.00  0.00     0.041 C 
ATOM      7  O   UNL     1     105.025 312.839 200.686  1.00  0.00    -0.550 OA
ATOM      8  O   UNL     1     103.971 311.386 202.109  1.00  0.00    -0.550 OA
ENDBRANCH   5   6
ENDBRANCH   4   5
ENDBRANCH   3   4
ENDBRANCH   2   3
ENDBRANCH   1   2
BRANCH   1   9
ATOM      9  C   UNL     1     103.879 311.490 193.656  1.00  0.00     0.000 C 
BRANCH   9  10
ATOM     10  C   UNL     1     105.343 311.748 193.259  1.00  0.00    -0.000 C 
BRANCH  10  11
ATOM     11  C   UNL     1     105.496 312.913 192.265  1.00  0.00    -0.000 C 
BRANCH  11  12
ATOM     12  C   UNL     1     104.225 313.268 191.466  1.00  0.00    -0.000 C 
BRANCH  12  13
ATOM     13  C   UNL     1     103.803 314.746 191.537  1.00  0.00    -0.003 C 
ATOM     14  C   UNL     1     103.727 315.275 192.968  1.00  0.00     0.004 C 
ENDBRANCH  12  13
ENDBRANCH  11  12
ENDBRANCH  10  11
ENDBRANCH   9  10
ENDBRANCH   1   9
TORSDOF 10
ENDMDL
MODEL 3
REMARK VINA RESULT:    -5.305     19.219     20.433
REMARK INTER + INTRA:          -9.065
REMARK INTER:                  -7.890
REMARK INTRA:                  -1.175
REMARK UNBOUND:                -0.660
REMARK SMILES CCCCCCCCCCCC(=O)[O-]
REMARK SMILES IDX 7 1 8 2 9 3 10 4 11 5 12 6 13 7 14 8 6 9 5 10 4 11 3 12 2 13
REMARK SMILES IDX 1 14
REMARK H PARENT
REMARK Flexibility Score: inf
ROOT
ATOM      1  C   UNL     1      88.140 326.734 194.007  1.00  0.00     0.000 C 
ENDROOT
BRANCH   1   2
ATOM      2  C   UNL     1      88.887 326.488 195.326  1.00  0.00     0.000 C 
BRANCH   2   3
ATOM      3  C   UNL     1      87.905 326.122 196.451  1.00  0.00     0.000 C 
BRANCH   3   4
ATOM      4  C   UNL     1      88.442 326.475 197.845  1.00  0.00     0.006 C 
BRANCH   4   5
ATOM      5  C   UNL     1      88.919 325.243 198.625  1.00  0.00     0.053 C 
BRANCH   5   6
ATOM      6  C   UNL     1      89.116 325.583 200.069  1.00  0.00     0.041 C 
ATOM      7  O   UNL     1      89.780 326.602 200.395  1.00  0.00    -0.550 OA
ATOM      8  O   UNL     1      88.609 324.747 201.056  1.00  0.00    -0.550 OA
ENDBRANCH   5   6
ENDBRANCH   4   5
ENDBRANCH   3   4
ENDBRANCH   2   3
ENDBRANCH   1   2
BRANCH   1   9
ATOM      9  C   UNL     1      86.686 326.236 194.043  1.00  0.00     0.000 C 
BRANCH   9  10
ATOM     10  C   UNL     1      86.479 324.955 193.215  1.00  0.00    -0.000 C 
BRANCH  10  11
ATOM     11  C   UNL     1      87.770 324.473 192.529  1.00  0.00    -0.000 C 
BRANCH  11  12
ATOM     12  C   UNL     1      88.364 323.165 193.090  1.00  0.00    -0.000 C 
BRANCH  12  13
ATOM     13  C   UNL     1      87.943 322.825 194.531  1.00  0.00    -0.003 C 
ATOM     14  C   UNL     1      89.126 322.760 195.497  1.00  0.00     0.004 C 
ENDBRANCH  12  13
ENDBRANCH  11  12
ENDBRANCH  10  11
ENDBRANCH   9  10
ENDBRANCH   1   9
TORSDOF 10
ENDMDL
MODEL 4
REMARK VINA RESULT:    -5.257     19.912     20.809
REMARK INTER + INTRA:          -8.990
REMARK INTER:                  -8.497
REMARK INTRA:                  -0.493
REMARK UNBOUND:                -0.660
REMARK SMILES CCCCCCCCCCCC(=O)[O-]
REMARK SMILES IDX 7 1 8 2 9 3 10 4 11 5 12 6 13 7 14 8 6 9 5 10 4 11 3 12 2 13
REMARK SMILES IDX 1 14
REMARK H PARENT
REMARK Flexibility Score: inf
ROOT
ATOM      1  C   UNL     1      88.336 325.734 196.370  1.00  0.00     0.000 C 
ENDROOT
BRANCH   1   2
ATOM      2  C   UNL     1      88.510 326.540 197.665  1.00  0.00     0.000 C 
BRANCH   2   3
ATOM      3  C   UNL     1      88.870 325.618 198.841  1.00  0.00     0.000 C 
BRANCH   3   4
ATOM      4  C   UNL     1      89.567 326.364 199.988  1.00  0.00     0.006 C 
BRANCH   4   5
ATOM      5  C   UNL     1      88.886 326.134 201.343  1.00  0.00     0.053 C 
BRANCH   5   6
ATOM      6  C   UNL     1      89.778 326.584 202.458  1.00  0.00     0.041 C 
ATOM      7  O   UNL     1      89.340 326.634 203.638  1.00  0.00    -0.550 OA
ATOM      8  O   UNL     1      91.076 326.995 202.188  1.00  0.00    -0.550 OA
ENDBRANCH   5   6
ENDBRANCH   4   5
ENDBRANCH   3   4
ENDBRANCH   2   3
ENDBRANCH   1   2
BRANCH   1   9
ATOM      9  C   UNL     1      88.851 326.482 195.129  1.00  0.00     0.000 C 
BRANCH   9  10
ATOM     10  C   UNL     1      87.726 326.824 194.136  1.00  0.00    -0.000 C 
BRANCH  10  11
ATOM     11  C   UNL     1      86.478 325.942 194.322  1.00  0.00    -0.000 C 
BRANCH  11  12
ATOM     12  C   UNL     1      86.274 324.856 193.245  1.00  0.00    -0.000 C 
BRANCH  12  13
ATOM     13  C   UNL     1      87.532 324.042 192.895  1.00  0.00    -0.003 C 
ATOM     14  C   UNL     1      87.954 324.198 191.434  1.00  0.00     0.004 C 
ENDBRANCH  12  13
ENDBRANCH  11  12
ENDBRANCH  10  11
ENDBRANCH   9  10
ENDBRANCH   1   9
TORSDOF 10
ENDMDL
MODEL 5
REMARK VINA RESULT:    -5.229     18.734     20.217
REMARK INTER + INTRA:          -8.945
REMARK INTER:                  -8.264
REMARK INTRA:                  -0.681
REMARK UNBOUND:                -0.660
REMARK SMILES CCCCCCCCCCCC(=O)[O-]
REMARK SMILES IDX 7 1 8 2 9 3 10 4 11 5 12 6 13 7 14 8 6 9 5 10 4 11 3 12 2 13
REMARK SMILES IDX 1 14
REMARK H PARENT
REMARK Flexibility Score: inf
ROOT
ATOM      1  C   UNL     1      88.095 325.384 193.161  1.00  0.00     0.000 C 
ENDROOT
BRANCH   1   2
ATOM      2  C   UNL     1      87.964 326.621 194.062  1.00  0.00     0.000 C 
BRANCH   2   3
ATOM      3  C   UNL     1      86.585 326.662 194.740  1.00  0.00     0.000 C 
BRANCH   3   4
ATOM      4  C   UNL     1      86.659 326.399 196.251  1.00  0.00     0.006 C 
BRANCH   4   5
ATOM      5  C   UNL     1      88.094 326.174 196.743  1.00  0.00     0.053 C 
BRANCH   5   6
ATOM      6  C   UNL     1      88.267 324.767 197.224  1.00  0.00     0.041 C 
ATOM      7  O   UNL     1      88.501 324.537 198.440  1.00  0.00    -0.550 OA
ATOM      8  O   UNL     1      88.220 323.713 196.321  1.00  0.00    -0.550 OA
ENDBRANCH   5   6
ENDBRANCH   4   5
ENDBRANCH   3   4
ENDBRANCH   2   3
ENDBRANCH   1   2
BRANCH   1   9
ATOM      9  C   UNL     1      86.760 324.647 192.965  1.00  0.00     0.000 C 
BRANCH   9  10
ATOM     10  C   UNL     1      86.765 323.736 191.725  1.00  0.00    -0.000 C 
BRANCH  10  11
ATOM     11  C   UNL     1      88.127 323.712 191.007  1.00  0.00    -0.000 C 
BRANCH  11  12
ATOM     12  C   UNL     1      88.090 323.231 189.542  1.00  0.00    -0.000 C 
BRANCH  12  13
ATOM     13  C   UNL     1      89.354 323.544 188.722  1.00  0.00    -0.003 C 
ATOM     14  C   UNL     1      90.323 322.365 188.649  1.00  0.00     0.004 C 
ENDBRANCH  12  13
ENDBRANCH  11  12
ENDBRANCH  10  11
ENDBRANCH   9  10
ENDBRANCH   1   9
TORSDOF 10
ENDMDL
MODEL 6
REMARK VINA RESULT:    -5.226     19.192     21.125
REMARK INTER + INTRA:          -8.942
REMARK INTER:                  -8.045
REMARK INTRA:                  -0.896
REMARK UNBOUND:                -0.660
REMARK SMILES CCCCCCCCCCCC(=O)[O-]
REMARK SMILES IDX 7 1 8 2 9 3 10 4 11 5 12 6 13 7 14 8 6 9 5 10 4 11 3 12 2 13
REMARK SMILES IDX 1 14
REMARK H PARENT
REMARK Flexibility Score: inf
ROOT
ATOM      1  C   UNL     1      88.113 325.038 192.933  1.00  0.00     0.000 C 
ENDROOT
BRANCH   1   2
ATOM      2  C   UNL     1      86.742 324.393 192.681  1.00  0.00     0.000 C 
BRANCH   2   3
ATOM      3  C   UNL     1      86.770 323.526 191.411  1.00  0.00     0.000 C 
BRANCH   3   4
ATOM      4  C   UNL     1      88.170 323.434 190.787  1.00  0.00     0.006 C 
BRANCH   4   5
ATOM      5  C   UNL     1      88.128 323.196 189.272  1.00  0.00     0.053 C 
BRANCH   5   6
ATOM      6  C   UNL     1      87.315 321.980 188.957  1.00  0.00     0.041 C 
ATOM      7  O   UNL     1      86.344 322.056 188.159  1.00  0.00    -0.550 OA
ATOM      8  O   UNL     1      87.598 320.773 189.583  1.00  0.00    -0.550 OA
ENDBRANCH   5   6
ENDBRANCH   4   5
ENDBRANCH   3   4
ENDBRANCH   2   3
ENDBRANCH   1   2
BRANCH   1   9
ATOM      9  C   UNL     1      88.020 326.325 193.768  1.00  0.00     0.000 C 
BRANCH   9  10
ATOM     10  C   UNL     1      86.621 326.538 194.373  1.00  0.00    -0.000 C 
BRANCH  10  11
ATOM     11  C   UNL     1      86.593 326.332 195.898  1.00  0.00    -0.000 C 
BRANCH  11  12
ATOM     12  C   UNL     1      87.969 326.096 196.556  1.00  0.00    -0.000 C 
BRANCH  12  13
ATOM     13  C   UNL     1      88.185 324.681 197.121  1.00  0.00    -0.003 C 
ATOM     14  C   UNL     1      89.237 323.886 196.348  1.00  0.00     0.004 C 
ENDBRANCH  12  13
ENDBRANCH  11  12
ENDBRANCH  10  11
ENDBRANCH   9  10
ENDBRANCH   1   9
TORSDOF 10
ENDMDL
MODEL 7
REMARK VINA RESULT:    -5.208      2.155      2.888
REMARK INTER + INTRA:          -8.913
REMARK INTER:                  -7.680
REMARK INTRA:                  -1.233
REMARK UNBOUND:                -0.660
REMARK SMILES CCCCCCCCCCCC(=O)[O-]
REMARK SMILES IDX 7 1 8 2 9 3 10 4 11 5 12 6 13 7 14 8 6 9 5 10 4 11 3 12 2 13
REMARK SMILES IDX 1 14
REMARK H PARENT
REMARK Flexibility Score: inf
ROOT
ATOM      1  C   UNL     1     105.728 311.560 193.707  1.00  0.00     0.000 C 
ENDROOT
BRANCH   1   2
ATOM      2  C   UNL     1     105.747 311.627 195.241  1.00  0.00     0.000 C 
BRANCH   2   3
ATOM      3  C   UNL     1     104.342 311.914 195.795  1.00  0.00     0.000 C 
BRANCH   3   4
ATOM      4  C   UNL     1     104.231 313.304 196.439  1.00  0.00     0.006 C 
BRANCH   4   5
ATOM      5  C   UNL     1     103.201 314.200 195.739  1.00  0.00     0.053 C 
BRANCH   5   6
ATOM      6  C   UNL     1     103.859 315.014 194.669  1.00  0.00     0.041 C 
ATOM      7  O   UNL     1     105.105 315.196 194.688  1.00  0.00    -0.550 OA
ATOM      8  O   UNL     1     103.091 315.614 193.680  1.00  0.00    -0.550 OA
ENDBRANCH   5   6
ENDBRANCH   4   5
ENDBRANCH   3   4
ENDBRANCH   2   3
ENDBRANCH   1   2
BRANCH   1   9
ATOM      9  C   UNL     1     104.304 311.526 193.130  1.00  0.00     0.000 C 
BRANCH   9  10
ATOM     10  C   UNL     1     104.085 312.583 192.033  1.00  0.00    -0.000 C 
BRANCH  10  11
ATOM     11  C   UNL     1     105.375 313.338 191.666  1.00  0.00    -0.000 C 
BRANCH  11  12
ATOM     12  C   UNL     1     105.203 314.472 190.634  1.00  0.00    -0.000 C 
BRANCH  12  13
ATOM     13  C   UNL     1     103.745 314.820 190.287  1.00  0.00    -0.003 C 
ATOM     14  C   UNL     1     103.450 314.728 188.791  1.00  0.00     0.004 C 
ENDBRANCH  12  13
ENDBRANCH  11  12
ENDBRANCH  10  11
ENDBRANCH   9  10
ENDBRANCH   1   9
TORSDOF 10
ENDMDL
MODEL 8
REMARK VINA RESULT:    -5.187      4.207      6.641
REMARK INTER + INTRA:          -8.879
REMARK INTER:                  -7.744
REMARK INTRA:                  -1.135
REMARK UNBOUND:                -0.660
REMARK SMILES CCCCCCCCCCCC(=O)[O-]
REMARK SMILES IDX 7 1 8 2 9 3 10 4 11 5 12 6 13 7 14 8 6 9 5 10 4 11 3 12 2 13
REMARK SMILES IDX 1 14
REMARK H PARENT
REMARK Flexibility Score: inf
ROOT
ATOM      1  C   UNL     1     105.679 311.930 193.452  1.00  0.00     0.000 C 
ENDROOT
BRANCH   1   2
ATOM      2  C   UNL     1     105.983 312.917 192.315  1.00  0.00     0.000 C 
BRANCH   2   3
ATOM      3  C   UNL     1     104.693 313.325 191.586  1.00  0.00     0.000 C 
BRANCH   3   4
ATOM      4  C   UNL     1     104.921 314.448 190.563  1.00  0.00     0.006 C 
BRANCH   4   5
ATOM      5  C   UNL     1     103.614 315.117 190.117  1.00  0.00     0.053 C 
BRANCH   5   6
ATOM      6  C   UNL     1     103.387 314.895 188.655  1.00  0.00     0.041 C 
ATOM      7  O   UNL     1     104.159 315.415 187.808  1.00  0.00    -0.550 OA
ATOM      8  O   UNL     1     102.293 314.155 188.225  1.00  0.00    -0.550 OA
ENDBRANCH   5   6
ENDBRANCH   4   5
ENDBRANCH   3   4
ENDBRANCH   2   3
ENDBRANCH   1   2
BRANCH   1   9
ATOM      9  C   UNL     1     104.224 311.434 193.437  1.00  0.00     0.000 C 
BRANCH   9  10
ATOM     10  C   UNL     1     103.503 311.678 194.774  1.00  0.00    -0.000 C 
BRANCH  10  11
ATOM     11  C   UNL     1     104.442 312.213 195.870  1.00  0.00    -0.000 C 
BRANCH  11  12
ATOM     12  C   UNL     1     104.168 313.664 196.320  1.00  0.00    -0.000 C 
BRANCH  12  13
ATOM     13  C   UNL     1     103.155 314.433 195.454  1.00  0.00    -0.003 C 
ATOM     14  C   UNL     1     103.822 315.384 194.460  1.00  0.00     0.004 C 
ENDBRANCH  12  13
ENDBRANCH  11  12
ENDBRANCH  10  11
ENDBRANCH   9  10
ENDBRANCH   1   9
TORSDOF 10
ENDMDL
MODEL 9
REMARK VINA RESULT:    -5.170     18.967     20.733
REMARK INTER + INTRA:          -8.853
REMARK INTER:                  -7.580
REMARK INTRA:                  -1.272
REMARK UNBOUND:                -0.660
REMARK SMILES CCCCCCCCCCCC(=O)[O-]
REMARK SMILES IDX 7 1 8 2 9 3 10 4 11 5 12 6 13 7 14 8 6 9 5 10 4 11 3 12 2 13
REMARK SMILES IDX 1 14
REMARK H PARENT
REMARK Flexibility Score: inf
ROOT
ATOM      1  C   UNL     1      88.044 326.761 194.394  1.00  0.00     0.000 C 
ENDROOT
BRANCH   1   2
ATOM      2  C   UNL     1      88.074 325.647 193.338  1.00  0.00     0.000 C 
BRANCH   2   3
ATOM      3  C   UNL     1      86.698 324.975 193.212  1.00  0.00     0.000 C 
BRANCH   3   4
ATOM      4  C   UNL     1      86.658 323.909 192.107  1.00  0.00     0.006 C 
BRANCH   4   5
ATOM      5  C   UNL     1      87.945 323.872 191.273  1.00  0.00     0.053 C 
BRANCH   5   6
ATOM      6  C   UNL     1      87.709 323.156 189.980  1.00  0.00     0.041 C 
ATOM      7  O   UNL     1      88.464 323.366 188.994  1.00  0.00    -0.550 OA
ATOM      8  O   UNL     1      86.627 322.297 189.848  1.00  0.00    -0.550 OA
ENDBRANCH   5   6
ENDBRANCH   4   5
ENDBRANCH   3   4
ENDBRANCH   2   3
ENDBRANCH   1   2
BRANCH   1   9
ATOM      9  C   UNL     1      88.912 326.441 195.623  1.00  0.00     0.000 C 
BRANCH   9  10
ATOM     10  C   UNL     1      88.072 326.079 196.861  1.00  0.00    -0.000 C 
BRANCH  10  11
ATOM     11  C   UNL     1      88.362 324.661 197.385  1.00  0.00    -0.000 C 
BRANCH  11  12
ATOM     12  C   UNL     1      89.158 323.754 196.424  1.00  0.00    -0.000 C 
BRANCH  12  13
ATOM     13  C   UNL     1      88.328 322.672 195.712  1.00  0.00    -0.003 C 
ATOM     14  C   UNL     1      88.982 322.170 194.426  1.00  0.00     0.004 C 
ENDBRANCH  12  13
ENDBRANCH  11  12
ENDBRANCH  10  11
ENDBRANCH   9  10
ENDBRANCH   1   9
TORSDOF 10
ENDMDL
