MODEL 1
REMARK VINA RESULT:    -2.730      0.000      0.000
REMARK INTER + INTRA:          -3.320
REMARK INTER:                  -3.288
REMARK INTRA:                  -0.032
REMARK UNBOUND:                -0.032
REMARK SMILES OCC(O)CO
REMARK SMILES IDX 3 1 5 2 6 3 2 5 1 6 4 8
REMARK H PARENT 6 4 1 7 4 9
REMARK Flexibility Score: inf
ROOT
ATOM      1  C   UNL     1       2.565  -0.178  -6.307  1.00  0.00     0.165 C 
ENDROOT
BRANCH   1   2
ATOM      2  C   UNL     1       2.303   1.062  -5.433  1.00  0.00     0.190 C 
BRANCH   2   3
ATOM      3  O   UNL     1       1.159   1.740  -5.876  1.00  0.00    -0.394 OA
ATOM      4  H   UNL     1       1.437   2.286  -6.658  1.00  0.00     0.210 HD
ENDBRANCH   2   3
ENDBRANCH   1   2
BRANCH   1   5
ATOM      5  C   UNL     1       1.891  -0.057  -7.685  1.00  0.00     0.190 C 
BRANCH   5   6
ATOM      6  O   UNL     1       2.832   0.252  -8.678  1.00  0.00    -0.394 OA
ATOM      7  H   UNL     1       2.501   1.066  -9.140  1.00  0.00     0.210 HD
ENDBRANCH   5   6
ENDBRANCH   1   5
BRANCH   1   8
ATOM      8  O   UNL     1       3.946  -0.394  -6.458  1.00  0.00    -0.388 OA
ATOM      9  H   UNL     1       4.148  -1.301  -6.104  1.00  0.00     0.211 HD
ENDBRANCH   1   8
TORSDOF 5
ENDMDL
MODEL 2
REMARK VINA RESULT:    -2.727      0.956      2.632
REMARK INTER + INTRA:          -3.317
REMARK INTER:                  -3.132
REMARK INTRA:                  -0.185
REMARK UNBOUND:                -0.032
REMARK SMILES OCC(O)CO
REMARK SMILES IDX 3 1 5 2 6 3 2 5 1 6 4 8
REMARK H PARENT 6 4 1 7 4 9
REMARK Flexibility Score: inf
ROOT
ATOM      1  C   UNL     1       2.040  -0.015  -6.692  1.00  0.00     0.165 C 
ENDROOT
BRANCH   1   2
ATOM      2  C   UNL     1       1.998  -0.396  -8.183  1.00  0.00     0.190 C 
BRANCH   2   3
ATOM      3  O   UNL     1       2.524   0.640  -8.968  1.00  0.00    -0.394 OA
ATOM      4  H   UNL     1       3.053   0.208  -9.690  1.00  0.00     0.210 HD
ENDBRANCH   2   3
ENDBRANCH   1   2
BRANCH   1   5
ATOM      5  C   UNL     1       3.476  -0.035  -6.139  1.00  0.00     0.190 C 
BRANCH   5   6
ATOM      6  O   UNL     1       4.412  -0.138  -7.178  1.00  0.00    -0.394 OA
ATOM      7  H   UNL     1       4.454  -1.098  -7.428  1.00  0.00     0.210 HD
ENDBRANCH   5   6
ENDBRANCH   1   5
BRANCH   1   8
ATOM      8  O   UNL     1       1.456   1.246  -6.488  1.00  0.00    -0.388 OA
ATOM      9  H   UNL     1       1.218   1.615  -7.380  1.00  0.00     0.211 HD
ENDBRANCH   1   8
TORSDOF 5
ENDMDL
MODEL 3
REMARK VINA RESULT:    -2.701      1.120      2.845
REMARK INTER + INTRA:          -3.286
REMARK INTER:                  -3.255
REMARK INTRA:                  -0.031
REMARK UNBOUND:                -0.032
REMARK SMILES OCC(O)CO
REMARK SMILES IDX 3 1 5 2 6 3 2 5 1 6 4 8
REMARK H PARENT 6 4 1 7 4 9
REMARK Flexibility Score: inf
ROOT
ATOM      1  C   UNL     1       2.402  -0.085  -6.482  1.00  0.00     0.165 C 
ENDROOT
BRANCH   1   2
ATOM      2  C   UNL     1       3.880  -0.202  -6.068  1.00  0.00     0.190 C 
BRANCH   2   3
ATOM      3  O   UNL     1       4.715  -0.047  -7.184  1.00  0.00    -0.394 OA
ATOM      4  H   UNL     1       4.338   0.702  -7.718  1.00  0.00     0.210 HD
ENDBRANCH   2   3
ENDBRANCH   1   2
BRANCH   1   5
ATOM      5  C   UNL     1       1.704   1.092  -5.778  1.00  0.00     0.190 C 
BRANCH   5   6
ATOM      6  O   UNL     1       2.587   1.749  -4.909  1.00  0.00    -0.394 OA
ATOM      7  H   UNL     1       3.443   1.248  -4.940  1.00  0.00     0.210 HD
ENDBRANCH   5   6
ENDBRANCH   1   5
BRANCH   1   8
ATOM      8  O   UNL     1       2.287   0.044  -7.877  1.00  0.00    -0.388 OA
ATOM      9  H   UNL     1       2.655   0.933  -8.127  1.00  0.00     0.211 HD
ENDBRANCH   1   8
TORSDOF 5
ENDMDL
MODEL 4
REMARK VINA RESULT:    -2.375      0.703      2.211
REMARK INTER + INTRA:          -2.893
REMARK INTER:                  -2.719
REMARK INTRA:                  -0.174
REMARK UNBOUND:                -0.032
REMARK SMILES OCC(O)CO
REMARK SMILES IDX 3 1 5 2 6 3 2 5 1 6 4 8
REMARK H PARENT 6 4 1 7 4 9
REMARK Flexibility Score: inf
ROOT
ATOM      1  C   UNL     1       2.082   0.771  -6.791  1.00  0.00     0.165 C 
ENDROOT
BRANCH   1   2
ATOM      2  C   UNL     1       2.867  -0.126  -5.815  1.00  0.00     0.190 C 
BRANCH   2   3
ATOM      3  O   UNL     1       4.144  -0.403  -6.324  1.00  0.00    -0.394 OA
ATOM      4  H   UNL     1       4.447   0.419  -6.792  1.00  0.00     0.210 HD
ENDBRANCH   2   3
ENDBRANCH   1   2
BRANCH   1   5
ATOM      5  C   UNL     1       1.665   0.004  -8.058  1.00  0.00     0.190 C 
BRANCH   5   6
ATOM      6  O   UNL     1       2.630   0.140  -9.066  1.00  0.00    -0.394 OA
ATOM      7  H   UNL     1       2.256  -0.291  -9.878  1.00  0.00     0.210 HD
ENDBRANCH   5   6
ENDBRANCH   1   5
BRANCH   1   8
ATOM      8  O   UNL     1       0.953   1.319  -6.159  1.00  0.00    -0.388 OA
ATOM      9  H   UNL     1       1.049   2.308  -6.179  1.00  0.00     0.211 HD
ENDBRANCH   1   8
TORSDOF 5
ENDMDL
MODEL 5
REMARK VINA RESULT:    -2.060      5.236      6.589
REMARK INTER + INTRA:          -2.513
REMARK INTER:                  -2.500
REMARK INTRA:                  -0.013
REMARK UNBOUND:                -0.032
REMARK SMILES OCC(O)CO
REMARK SMILES IDX 3 1 5 2 6 3 2 5 1 6 4 8
REMARK H PARENT 6 4 1 7 4 9
REMARK Flexibility Score: inf
ROOT
ATOM      1  C   UNL     1      -1.756   4.408  -3.567  1.00  0.00     0.165 C 
ENDROOT
BRANCH   1   2
ATOM      2  C   UNL     1      -1.933   5.724  -4.347  1.00  0.00     0.190 C 
BRANCH   2   3
ATOM      3  O   UNL     1      -1.663   6.824  -3.520  1.00  0.00    -0.394 OA
ATOM      4  H   UNL     1      -0.766   6.667  -3.123  1.00  0.00     0.210 HD
ENDBRANCH   2   3
ENDBRANCH   1   2
BRANCH   1   5
ATOM      5  C   UNL     1      -1.070   3.328  -4.422  1.00  0.00     0.190 C 
BRANCH   5   6
ATOM      6  O   UNL     1      -1.121   3.659  -5.783  1.00  0.00    -0.394 OA
ATOM      7  H   UNL     1      -1.389   2.835  -6.267  1.00  0.00     0.210 HD
ENDBRANCH   5   6
ENDBRANCH   1   5
BRANCH   1   8
ATOM      8  O   UNL     1      -1.029   4.629  -2.385  1.00  0.00    -0.388 OA
ATOM      9  H   UNL     1      -0.123   4.945  -2.644  1.00  0.00     0.211 HD
ENDBRANCH   1   8
TORSDOF 5
ENDMDL
MODEL 6
REMARK VINA RESULT:    -1.974      5.167      7.049
REMARK INTER + INTRA:          -2.409
REMARK INTER:                  -2.407
REMARK INTRA:                  -0.002
REMARK UNBOUND:                -0.032
REMARK SMILES OCC(O)CO
REMARK SMILES IDX 3 1 5 2 6 3 2 5 1 6 4 8
REMARK H PARENT 6 4 1 7 4 9
REMARK Flexibility Score: inf
ROOT
ATOM      1  C   UNL     1      -1.884   4.698  -4.187  1.00  0.00     0.165 C 
ENDROOT
BRANCH   1   2
ATOM      2  C   UNL     1      -1.043   3.417  -4.345  1.00  0.00     0.190 C 
BRANCH   2   3
ATOM      3  O   UNL     1      -0.950   3.057  -5.697  1.00  0.00    -0.394 OA
ATOM      4  H   UNL     1      -1.879   3.018  -6.045  1.00  0.00     0.210 HD
ENDBRANCH   2   3
ENDBRANCH   1   2
BRANCH   1   5
ATOM      5  C   UNL     1      -1.378   5.571  -3.025  1.00  0.00     0.190 C 
BRANCH   5   6
ATOM      6  O   UNL     1      -1.550   6.934  -3.311  1.00  0.00    -0.394 OA
ATOM      7  H   UNL     1      -2.343   7.001  -3.906  1.00  0.00     0.210 HD
ENDBRANCH   5   6
ENDBRANCH   1   5
BRANCH   1   8
ATOM      8  O   UNL     1      -1.891   5.435  -5.384  1.00  0.00    -0.388 OA
ATOM      9  H   UNL     1      -2.812   5.787  -5.514  1.00  0.00     0.211 HD
ENDBRANCH   1   8
TORSDOF 5
ENDMDL
MODEL 7
REMARK VINA RESULT:    -1.836      1.175      1.907
REMARK INTER + INTRA:          -2.244
REMARK INTER:                  -2.228
REMARK INTRA:                  -0.016
REMARK UNBOUND:                -0.032
REMARK SMILES OCC(O)CO
REMARK SMILES IDX 3 1 5 2 6 3 2 5 1 6 4 8
REMARK H PARENT 6 4 1 7 4 9
REMARK Flexibility Score: inf
ROOT
ATOM      1  C   UNL     1       2.448   0.462  -6.939  1.00  0.00     0.165 C 
ENDROOT
BRANCH   1   2
ATOM      2  C   UNL     1       1.540   1.065  -5.851  1.00  0.00     0.190 C 
BRANCH   2   3
ATOM      3  O   UNL     1       2.275   1.922  -5.019  1.00  0.00    -0.394 OA
ATOM      4  H   UNL     1       1.979   1.738  -4.089  1.00  0.00     0.210 HD
ENDBRANCH   2   3
ENDBRANCH   1   2
BRANCH   1   5
ATOM      5  C   UNL     1       3.617  -0.331  -6.330  1.00  0.00     0.190 C 
BRANCH   5   6
ATOM      6  O   UNL     1       4.781  -0.175  -7.097  1.00  0.00    -0.394 OA
ATOM      7  H   UNL     1       5.035  -1.080  -7.416  1.00  0.00     0.210 HD
ENDBRANCH   5   6
ENDBRANCH   1   5
BRANCH   1   8
ATOM      8  O   UNL     1       1.703  -0.355  -7.806  1.00  0.00    -0.388 OA
ATOM      9  H   UNL     1       1.205  -1.009  -7.248  1.00  0.00     0.211 HD
ENDBRANCH   1   8
TORSDOF 5
ENDMDL
MODEL 8
REMARK VINA RESULT:    -1.290      5.197      6.629
REMARK INTER + INTRA:          -1.586
REMARK INTER:                  -1.583
REMARK INTRA:                  -0.003
REMARK UNBOUND:                -0.032
REMARK SMILES OCC(O)CO
REMARK SMILES IDX 3 1 5 2 6 3 2 5 1 6 4 8
REMARK H PARENT 6 4 1 7 4 9
REMARK Flexibility Score: inf
ROOT
ATOM      1  C   UNL     1      -1.563   4.870  -4.592  1.00  0.00     0.165 C 
ENDROOT
BRANCH   1   2
ATOM      2  C   UNL     1      -1.558   5.553  -3.212  1.00  0.00     0.190 C 
BRANCH   2   3
ATOM      3  O   UNL     1      -1.575   6.948  -3.357  1.00  0.00    -0.394 OA
ATOM      4  H   UNL     1      -1.358   7.328  -2.465  1.00  0.00     0.210 HD
ENDBRANCH   2   3
ENDBRANCH   1   2
BRANCH   1   5
ATOM      5  C   UNL     1      -1.205   3.377  -4.490  1.00  0.00     0.190 C 
BRANCH   5   6
ATOM      6  O   UNL     1      -0.871   2.854  -5.748  1.00  0.00    -0.394 OA
ATOM      7  H   UNL     1      -0.107   2.236  -5.605  1.00  0.00     0.210 HD
ENDBRANCH   5   6
ENDBRANCH   1   5
BRANCH   1   8
ATOM      8  O   UNL     1      -2.811   5.029  -5.218  1.00  0.00    -0.388 OA
ATOM      9  H   UNL     1      -3.449   4.405  -4.780  1.00  0.00     0.211 HD
ENDBRANCH   1   8
TORSDOF 5
ENDMDL
MODEL 9
REMARK VINA RESULT:    -1.252      1.014      2.512
REMARK INTER + INTRA:          -1.539
REMARK INTER:                  -1.364
REMARK INTRA:                  -0.176
REMARK UNBOUND:                -0.032
REMARK SMILES OCC(O)CO
REMARK SMILES IDX 3 1 5 2 6 3 2 5 1 6 4 8
REMARK H PARENT 6 4 1 7 4 9
REMARK Flexibility Score: inf
ROOT
ATOM      1  C   UNL     1       3.090   0.414  -7.021  1.00  0.00     0.165 C 
ENDROOT
BRANCH   1   2
ATOM      2  C   UNL     1       2.650   0.025  -8.444  1.00  0.00     0.190 C 
BRANCH   2   3
ATOM      3  O   UNL     1       1.464  -0.722  -8.403  1.00  0.00    -0.394 OA
ATOM      4  H   UNL     1       1.620  -1.467  -7.765  1.00  0.00     0.210 HD
ENDBRANCH   2   3
ENDBRANCH   1   2
BRANCH   1   5
ATOM      5  C   UNL     1       1.919   0.351  -6.025  1.00  0.00     0.190 C 
BRANCH   5   6
ATOM      6  O   UNL     1       1.099   1.483  -6.145  1.00  0.00    -0.394 OA
ATOM      7  H   UNL     1       0.901   1.589  -7.112  1.00  0.00     0.210 HD
ENDBRANCH   5   6
ENDBRANCH   1   5
BRANCH   1   8
ATOM      8  O   UNL     1       4.143  -0.409  -6.587  1.00  0.00    -0.388 OA
ATOM      9  H   UNL     1       4.992   0.089  -6.728  1.00  0.00     0.211 HD
ENDBRANCH   1   8
TORSDOF 5
ENDMDL
