MODEL 1
REMARK VINA RESULT:    -3.966      0.000      0.000
REMARK INTER + INTRA:          -9.021
REMARK INTER:                  -6.980
REMARK INTRA:                  -2.042
REMARK UNBOUND:                -2.042
REMARK SMILES CCCCCCCCCCCCCCC(=O)[O-]
REMARK SMILES IDX 9 1 10 2 11 3 12 4 13 5 14 6 15 7 16 8 17 9 8 10 7 11 6 12
REMARK SMILES IDX 5 13 4 14 3 15 2 16 1 17
REMARK H PARENT
REMARK Flexibility Score: inf
ROOT
ATOM      1  C   UNL     1     113.347 110.173 121.216  1.00  0.00     0.000 C 
ENDROOT
BRANCH   1   2
ATOM      2  C   UNL     1     112.064 109.832 121.991  1.00  0.00     0.000 C 
BRANCH   2   3
ATOM      3  C   UNL     1     111.506 111.033 122.769  1.00  0.00     0.000 C 
BRANCH   3   4
ATOM      4  C   UNL     1     111.815 112.349 122.041  1.00  0.00     0.000 C 
BRANCH   4   5
ATOM      5  C   UNL     1     110.657 112.821 121.143  1.00  0.00     0.006 C 
BRANCH   5   6
ATOM      6  C   UNL     1     110.857 112.532 119.647  1.00  0.00     0.053 C 
BRANCH   6   7
ATOM      7  C   UNL     1     109.868 111.531 119.132  1.00  0.00     0.041 C 
ATOM      8  O   UNL     1     110.115 110.299 119.208  1.00  0.00    -0.550 OA
ATOM      9  O   UNL     1     108.689 111.961 118.538  1.00  0.00    -0.550 OA
ENDBRANCH   6   7
ENDBRANCH   5   6
ENDBRANCH   4   5
ENDBRANCH   3   4
ENDBRANCH   2   3
ENDBRANCH   1   2
BRANCH   1  10
ATOM     10  C   UNL     1     114.503 109.207 121.533  1.00  0.00     0.000 C 
BRANCH  10  11
ATOM     11  C   UNL     1     115.694 109.909 122.202  1.00  0.00    -0.000 C 
BRANCH  11  12
ATOM     12  C   UNL     1     115.323 111.290 122.770  1.00  0.00    -0.000 C 
BRANCH  12  13
ATOM     13  C   UNL     1     116.105 112.432 122.100  1.00  0.00    -0.000 C 
BRANCH  13  14
ATOM     14  C   UNL     1     115.199 113.365 121.279  1.00  0.00    -0.000 C 
BRANCH  14  15
ATOM     15  C   UNL     1     115.618 113.460 119.801  1.00  0.00    -0.000 C 
BRANCH  15  16
ATOM     16  C   UNL     1     116.169 112.155 119.198  1.00  0.00    -0.003 C 
ATOM     17  C   UNL     1     115.151 111.423 118.325  1.00  0.00     0.004 C 
ENDBRANCH  15  16
ENDBRANCH  14  15
ENDBRANCH  13  14
ENDBRANCH  12  13
ENDBRANCH  11  12
ENDBRANCH  10  11
ENDBRANCH   1  10
TORSDOF 13
ENDMDL
MODEL 2
REMARK VINA RESULT:    -3.902      1.900      3.421
REMARK INTER + INTRA:          -8.909
REMARK INTER:                  -6.759
REMARK INTRA:                  -2.150
REMARK UNBOUND:                -2.042
REMARK SMILES CCCCCCCCCCCCCCC(=O)[O-]
REMARK SMILES IDX 9 1 10 2 11 3 12 4 13 5 14 6 15 7 16 8 17 9 8 10 7 11 6 12
REMARK SMILES IDX 5 13 4 14 3 15 2 16 1 17
REMARK H PARENT
REMARK Flexibility Score: inf
ROOT
ATOM      1  C   UNL     1     113.761 110.786 119.214  1.00  0.00     0.000 C 
ENDROOT
BRANCH   1   2
ATOM      2  C   UNL     1     114.151 109.581 120.084  1.00  0.00     0.000 C 
BRANCH   2   3
ATOM      3  C   UNL     1     113.762 109.764 121.558  1.00  0.00     0.000 C 
BRANCH   3   4
ATOM      4  C   UNL     1     112.238 109.699 121.735  1.00  0.00     0.000 C 
BRANCH   4   5
ATOM      5  C   UNL     1     111.670 110.924 122.474  1.00  0.00     0.006 C 
BRANCH   5   6
ATOM      6  C   UNL     1     112.564 112.173 122.413  1.00  0.00     0.053 C 
BRANCH   6   7
ATOM      7  C   UNL     1     111.884 113.318 121.728  1.00  0.00     0.041 C 
ATOM      8  O   UNL     1     112.161 114.503 122.049  1.00  0.00    -0.550 OA
ATOM      9  O   UNL     1     110.920 113.075 120.757  1.00  0.00    -0.550 OA
ENDBRANCH   6   7
ENDBRANCH   5   6
ENDBRANCH   4   5
ENDBRANCH   3   4
ENDBRANCH   2   3
ENDBRANCH   1   2
BRANCH   1  10
ATOM     10  C   UNL     1     114.970 111.668 118.850  1.00  0.00     0.000 C 
BRANCH  10  11
ATOM     11  C   UNL     1     114.660 113.169 118.956  1.00  0.00    -0.000 C 
BRANCH  11  12
ATOM     12  C   UNL     1     115.180 113.787 120.266  1.00  0.00    -0.000 C 
BRANCH  12  13
ATOM     13  C   UNL     1     116.711 113.935 120.281  1.00  0.00    -0.000 C 
BRANCH  13  14
ATOM     14  C   UNL     1     117.356 113.254 121.500  1.00  0.00    -0.000 C 
BRANCH  14  15
ATOM     15  C   UNL     1     116.335 112.510 122.381  1.00  0.00    -0.000 C 
BRANCH  15  16
ATOM     16  C   UNL     1     116.723 111.066 122.746  1.00  0.00    -0.003 C 
ATOM     17  C   UNL     1     117.513 110.362 121.644  1.00  0.00     0.004 C 
ENDBRANCH  15  16
ENDBRANCH  14  15
ENDBRANCH  13  14
ENDBRANCH  12  13
ENDBRANCH  11  12
ENDBRANCH  10  11
ENDBRANCH   1  10
TORSDOF 13
ENDMDL
MODEL 3
REMARK VINA RESULT:    -3.854      1.641      3.449
REMARK INTER + INTRA:          -8.825
REMARK INTER:                  -7.445
REMARK INTRA:                  -1.380
REMARK UNBOUND:                -2.042
REMARK SMILES CCCCCCCCCCCCCCC(=O)[O-]
REMARK SMILES IDX 9 1 10 2 11 3 12 4 13 5 14 6 15 7 16 8 17 9 8 10 7 11 6 12
REMARK SMILES IDX 5 13 4 14 3 15 2 16 1 17
REMARK H PARENT
REMARK Flexibility Score: inf
ROOT
ATOM      1  C   UNL     1     111.834 112.626 121.689  1.00  0.00     0.000 C 
ENDROOT
BRANCH   1   2
ATOM      2  C   UNL     1     110.537 112.864 120.900  1.00  0.00     0.000 C 
BRANCH   2   3
ATOM      3  C   UNL     1     110.675 112.506 119.413  1.00  0.00     0.000 C 
BRANCH   3   4
ATOM      4  C   UNL     1     109.316 112.587 118.702  1.00  0.00     0.000 C 
BRANCH   4   5
ATOM      5  C   UNL     1     108.479 111.306 118.865  1.00  0.00     0.006 C 
BRANCH   5   6
ATOM      6  C   UNL     1     109.269 110.002 118.665  1.00  0.00     0.053 C 
BRANCH   6   7
ATOM      7  C   UNL     1     108.372 108.804 118.612  1.00  0.00     0.041 C 
ATOM      8  O   UNL     1     108.665 107.825 117.878  1.00  0.00    -0.550 OA
ATOM      9  O   UNL     1     107.195 108.783 119.350  1.00  0.00    -0.550 OA
ENDBRANCH   6   7
ENDBRANCH   5   6
ENDBRANCH   4   5
ENDBRANCH   3   4
ENDBRANCH   2   3
ENDBRANCH   1   2
BRANCH   1  10
ATOM     10  C   UNL     1     111.794 111.327 122.515  1.00  0.00     0.000 C 
BRANCH  10  11
ATOM     11  C   UNL     1     112.071 110.077 121.666  1.00  0.00    -0.000 C 
BRANCH  11  12
ATOM     12  C   UNL     1     113.463 110.105 121.012  1.00  0.00    -0.000 C 
BRANCH  12  13
ATOM     13  C   UNL     1     114.451 109.140 121.689  1.00  0.00    -0.000 C 
BRANCH  13  14
ATOM     14  C   UNL     1     115.724 109.850 122.181  1.00  0.00    -0.000 C 
BRANCH  14  15
ATOM     15  C   UNL     1     115.459 111.289 122.660  1.00  0.00    -0.000 C 
BRANCH  15  16
ATOM     16  C   UNL     1     116.275 112.375 121.935  1.00  0.00    -0.003 C 
ATOM     17  C   UNL     1     115.400 113.413 121.233  1.00  0.00     0.004 C 
ENDBRANCH  15  16
ENDBRANCH  14  15
ENDBRANCH  13  14
ENDBRANCH  12  13
ENDBRANCH  11  12
ENDBRANCH  10  11
ENDBRANCH   1  10
TORSDOF 13
ENDMDL
MODEL 4
REMARK VINA RESULT:    -3.813      1.954      3.039
REMARK INTER + INTRA:          -8.753
REMARK INTER:                  -6.902
REMARK INTRA:                  -1.851
REMARK UNBOUND:                -2.042
REMARK SMILES CCCCCCCCCCCCCCC(=O)[O-]
REMARK SMILES IDX 9 1 10 2 11 3 12 4 13 5 14 6 15 7 16 8 17 9 8 10 7 11 6 12
REMARK SMILES IDX 5 13 4 14 3 15 2 16 1 17
REMARK H PARENT
REMARK Flexibility Score: inf
ROOT
ATOM      1  C   UNL     1     111.568 111.080 122.675  1.00  0.00     0.000 C 
ENDROOT
BRANCH   1   2
ATOM      2  C   UNL     1     111.894 112.373 121.911  1.00  0.00     0.000 C 
BRANCH   2   3
ATOM      3  C   UNL     1     110.645 113.044 121.322  1.00  0.00     0.000 C 
BRANCH   3   4
ATOM      4  C   UNL     1     110.364 112.531 119.903  1.00  0.00     0.000 C 
BRANCH   4   5
ATOM      5  C   UNL     1     111.625 112.492 119.021  1.00  0.00     0.006 C 
BRANCH   5   6
ATOM      6  C   UNL     1     111.343 112.335 117.518  1.00  0.00     0.053 C 
BRANCH   6   7
ATOM      7  C   UNL     1     112.497 112.792 116.679  1.00  0.00     0.041 C 
ATOM      8  O   UNL     1     112.575 113.993 116.309  1.00  0.00    -0.550 OA
ATOM      9  O   UNL     1     113.468 111.883 116.278  1.00  0.00    -0.550 OA
ENDBRANCH   6   7
ENDBRANCH   5   6
ENDBRANCH   4   5
ENDBRANCH   3   4
ENDBRANCH   2   3
ENDBRANCH   1   2
BRANCH   1  10
ATOM     10  C   UNL     1     112.036 109.818 121.927  1.00  0.00     0.000 C 
BRANCH  10  11
ATOM     11  C   UNL     1     113.346 110.039 121.156  1.00  0.00    -0.000 C 
BRANCH  11  12
ATOM     12  C   UNL     1     114.501 109.177 121.695  1.00  0.00    -0.000 C 
BRANCH  12  13
ATOM     13  C   UNL     1     115.770 110.000 121.973  1.00  0.00    -0.000 C 
BRANCH  13  14
ATOM     14  C   UNL     1     115.481 111.272 122.789  1.00  0.00    -0.000 C 
BRANCH  14  15
ATOM     15  C   UNL     1     116.077 112.541 122.151  1.00  0.00    -0.000 C 
BRANCH  15  16
ATOM     16  C   UNL     1     115.114 113.322 121.238  1.00  0.00    -0.003 C 
ATOM     17  C   UNL     1     115.246 112.941 119.764  1.00  0.00     0.004 C 
ENDBRANCH  15  16
ENDBRANCH  14  15
ENDBRANCH  13  14
ENDBRANCH  12  13
ENDBRANCH  11  12
ENDBRANCH  10  11
ENDBRANCH   1  10
TORSDOF 13
ENDMDL
MODEL 5
REMARK VINA RESULT:    -3.794      3.079      6.569
REMARK INTER + INTRA:          -8.719
REMARK INTER:                  -7.296
REMARK INTRA:                  -1.423
REMARK UNBOUND:                -2.042
REMARK SMILES CCCCCCCCCCCCCCC(=O)[O-]
REMARK SMILES IDX 9 1 10 2 11 3 12 4 13 5 14 6 15 7 16 8 17 9 8 10 7 11 6 12
REMARK SMILES IDX 5 13 4 14 3 15 2 16 1 17
REMARK H PARENT
REMARK Flexibility Score: inf
ROOT
ATOM      1  C   UNL     1     111.163 113.332 121.318  1.00  0.00     0.000 C 
ENDROOT
BRANCH   1   2
ATOM      2  C   UNL     1     112.246 112.428 121.928  1.00  0.00     0.000 C 
BRANCH   2   3
ATOM      3  C   UNL     1     111.665 111.169 122.586  1.00  0.00     0.000 C 
BRANCH   3   4
ATOM      4  C   UNL     1     112.066 109.908 121.807  1.00  0.00     0.000 C 
BRANCH   4   5
ATOM      5  C   UNL     1     113.420 110.054 121.089  1.00  0.00     0.006 C 
BRANCH   5   6
ATOM      6  C   UNL     1     114.588 109.340 121.787  1.00  0.00     0.053 C 
BRANCH   6   7
ATOM      7  C   UNL     1     115.657 110.298 122.215  1.00  0.00     0.041 C 
ATOM      8  O   UNL     1     115.396 111.523 122.340  1.00  0.00    -0.550 OA
ATOM      9  O   UNL     1     116.948 109.842 122.445  1.00  0.00    -0.550 OA
ENDBRANCH   6   7
ENDBRANCH   5   6
ENDBRANCH   4   5
ENDBRANCH   3   4
ENDBRANCH   2   3
ENDBRANCH   1   2
BRANCH   1  10
ATOM     10  C   UNL     1     110.368 112.630 120.203  1.00  0.00     0.000 C 
BRANCH  10  11
ATOM     11  C   UNL     1     111.215 112.364 118.949  1.00  0.00    -0.000 C 
BRANCH  11  12
ATOM     12  C   UNL     1     110.968 110.966 118.355  1.00  0.00    -0.000 C 
BRANCH  12  13
ATOM     13  C   UNL     1     109.729 110.281 118.958  1.00  0.00    -0.000 C 
BRANCH  13  14
ATOM     14  C   UNL     1     108.490 110.404 118.054  1.00  0.00    -0.000 C 
BRANCH  14  15
ATOM     15  C   UNL     1     107.597 109.150 118.090  1.00  0.00    -0.000 C 
BRANCH  15  16
ATOM     16  C   UNL     1     107.713 108.306 119.372  1.00  0.00    -0.003 C 
ATOM     17  C   UNL     1     106.374 107.738 119.839  1.00  0.00     0.004 C 
ENDBRANCH  15  16
ENDBRANCH  14  15
ENDBRANCH  13  14
ENDBRANCH  12  13
ENDBRANCH  11  12
ENDBRANCH  10  11
ENDBRANCH   1  10
TORSDOF 13
ENDMDL
MODEL 6
REMARK VINA RESULT:    -3.714      1.488      3.326
REMARK INTER + INTRA:          -8.578
REMARK INTER:                  -6.076
REMARK INTRA:                  -2.502
REMARK UNBOUND:                -2.042
REMARK SMILES CCCCCCCCCCCCCCC(=O)[O-]
REMARK SMILES IDX 9 1 10 2 11 3 12 4 13 5 14 6 15 7 16 8 17 9 8 10 7 11 6 12
REMARK SMILES IDX 5 13 4 14 3 15 2 16 1 17
REMARK H PARENT
REMARK Flexibility Score: inf
ROOT
ATOM      1  C   UNL     1     116.072 110.062 118.814  1.00  0.00     0.000 C 
ENDROOT
BRANCH   1   2
ATOM      2  C   UNL     1     114.666 109.444 118.871  1.00  0.00     0.000 C 
BRANCH   2   3
ATOM      3  C   UNL     1     114.142 109.295 120.306  1.00  0.00     0.000 C 
BRANCH   3   4
ATOM      4  C   UNL     1     112.937 110.216 120.549  1.00  0.00     0.000 C 
BRANCH   4   5
ATOM      5  C   UNL     1     112.350 110.788 119.246  1.00  0.00     0.006 C 
BRANCH   5   6
ATOM      6  C   UNL     1     111.967 112.275 119.323  1.00  0.00     0.053 C 
BRANCH   6   7
ATOM      7  C   UNL     1     110.640 112.479 119.986  1.00  0.00     0.041 C 
ATOM      8  O   UNL     1     109.596 111.990 119.479  1.00  0.00    -0.550 OA
ATOM      9  O   UNL     1     110.550 113.237 121.146  1.00  0.00    -0.550 OA
ENDBRANCH   6   7
ENDBRANCH   5   6
ENDBRANCH   4   5
ENDBRANCH   3   4
ENDBRANCH   2   3
ENDBRANCH   1   2
BRANCH   1  10
ATOM     10  C   UNL     1     116.055 111.526 118.339  1.00  0.00     0.000 C 
BRANCH  10  11
ATOM     11  C   UNL     1     116.504 112.508 119.432  1.00  0.00    -0.000 C 
BRANCH  11  12
ATOM     12  C   UNL     1     115.365 113.432 119.899  1.00  0.00    -0.000 C 
BRANCH  12  13
ATOM     13  C   UNL     1     115.011 113.227 121.382  1.00  0.00    -0.000 C 
BRANCH  13  14
ATOM     14  C   UNL     1     116.136 112.530 122.165  1.00  0.00    -0.000 C 
BRANCH  14  15
ATOM     15  C   UNL     1     115.662 111.256 122.889  1.00  0.00    -0.000 C 
BRANCH  15  16
ATOM     16  C   UNL     1     116.558 110.022 122.685  1.00  0.00    -0.003 C 
ATOM     17  C   UNL     1     117.919 110.363 122.080  1.00  0.00     0.004 C 
ENDBRANCH  15  16
ENDBRANCH  14  15
ENDBRANCH  13  14
ENDBRANCH  12  13
ENDBRANCH  11  12
ENDBRANCH  10  11
ENDBRANCH   1  10
TORSDOF 13
ENDMDL
MODEL 7
REMARK VINA RESULT:    -3.694      2.255      3.390
REMARK INTER + INTRA:          -8.544
REMARK INTER:                  -6.207
REMARK INTRA:                  -2.336
REMARK UNBOUND:                -2.042
REMARK SMILES CCCCCCCCCCCCCCC(=O)[O-]
REMARK SMILES IDX 9 1 10 2 11 3 12 4 13 5 14 6 15 7 16 8 17 9 8 10 7 11 6 12
REMARK SMILES IDX 5 13 4 14 3 15 2 16 1 17
REMARK H PARENT
REMARK Flexibility Score: inf
ROOT
ATOM      1  C   UNL     1     115.594 109.900 122.262  1.00  0.00     0.000 C 
ENDROOT
BRANCH   1   2
ATOM      2  C   UNL     1     114.340 109.395 121.531  1.00  0.00     0.000 C 
BRANCH   2   3
ATOM      3  C   UNL     1     114.536 109.309 120.010  1.00  0.00     0.000 C 
BRANCH   3   4
ATOM      4  C   UNL     1     113.556 110.237 119.277  1.00  0.00     0.000 C 
BRANCH   4   5
ATOM      5  C   UNL     1     112.447 110.782 120.197  1.00  0.00     0.006 C 
BRANCH   5   6
ATOM      6  C   UNL     1     112.417 112.314 120.312  1.00  0.00     0.053 C 
BRANCH   6   7
ATOM      7  C   UNL     1     112.093 112.766 121.703  1.00  0.00     0.041 C 
ATOM      8  O   UNL     1     112.088 113.993 121.986  1.00  0.00    -0.550 OA
ATOM      9  O   UNL     1     111.829 111.830 122.695  1.00  0.00    -0.550 OA
ENDBRANCH   6   7
ENDBRANCH   5   6
ENDBRANCH   4   5
ENDBRANCH   3   4
ENDBRANCH   2   3
ENDBRANCH   1   2
BRANCH   1  10
ATOM     10  C   UNL     1     115.402 111.304 122.865  1.00  0.00     0.000 C 
BRANCH  10  11
ATOM     11  C   UNL     1     116.323 112.354 122.225  1.00  0.00    -0.000 C 
BRANCH  11  12
ATOM     12  C   UNL     1     115.828 112.809 120.841  1.00  0.00    -0.000 C 
BRANCH  12  13
ATOM     13  C   UNL     1     116.841 112.504 119.724  1.00  0.00    -0.000 C 
BRANCH  13  14
ATOM     14  C   UNL     1     118.079 111.752 120.241  1.00  0.00    -0.000 C 
BRANCH  14  15
ATOM     15  C   UNL     1     118.250 110.365 119.596  1.00  0.00    -0.000 C 
BRANCH  15  16
ATOM     16  C   UNL     1     118.149 110.347 118.060  1.00  0.00    -0.003 C 
ATOM     17  C   UNL     1     117.162 109.304 117.537  1.00  0.00     0.004 C 
ENDBRANCH  15  16
ENDBRANCH  14  15
ENDBRANCH  13  14
ENDBRANCH  12  13
ENDBRANCH  11  12
ENDBRANCH  10  11
ENDBRANCH   1  10
TORSDOF 13
ENDMDL
MODEL 8
REMARK VINA RESULT:    -3.685      3.049      5.371
REMARK INTER + INTRA:          -8.527
REMARK INTER:                  -6.500
REMARK INTRA:                  -2.027
REMARK UNBOUND:                -2.042
REMARK SMILES CCCCCCCCCCCCCCC(=O)[O-]
REMARK SMILES IDX 9 1 10 2 11 3 12 4 13 5 14 6 15 7 16 8 17 9 8 10 7 11 6 12
REMARK SMILES IDX 5 13 4 14 3 15 2 16 1 17
REMARK H PARENT
REMARK Flexibility Score: inf
ROOT
ATOM      1  C   UNL     1     114.009 110.555 119.322  1.00  0.00     0.000 C 
ENDROOT
BRANCH   1   2
ATOM      2  C   UNL     1     115.253 111.456 119.284  1.00  0.00     0.000 C 
BRANCH   2   3
ATOM      3  C   UNL     1     114.920 112.935 119.528  1.00  0.00     0.000 C 
BRANCH   3   4
ATOM      4  C   UNL     1     115.031 113.284 121.019  1.00  0.00     0.000 C 
BRANCH   4   5
ATOM      5  C   UNL     1     116.426 112.990 121.599  1.00  0.00     0.006 C 
BRANCH   5   6
ATOM      6  C   UNL     1     116.433 111.961 122.742  1.00  0.00     0.053 C 
BRANCH   6   7
ATOM      7  C   UNL     1     117.098 110.680 122.339  1.00  0.00     0.041 C 
ATOM      8  O   UNL     1     116.709 109.585 122.824  1.00  0.00    -0.550 OA
ATOM      9  O   UNL     1     118.168 110.699 121.454  1.00  0.00    -0.550 OA
ENDBRANCH   6   7
ENDBRANCH   5   6
ENDBRANCH   4   5
ENDBRANCH   3   4
ENDBRANCH   2   3
ENDBRANCH   1   2
BRANCH   1  10
ATOM     10  C   UNL     1     114.141 109.409 120.341  1.00  0.00     0.000 C 
BRANCH  10  11
ATOM     11  C   UNL     1     113.546 109.765 121.713  1.00  0.00    -0.000 C 
BRANCH  11  12
ATOM     12  C   UNL     1     112.076 110.207 121.622  1.00  0.00    -0.000 C 
BRANCH  12  13
ATOM     13  C   UNL     1     111.809 111.524 122.371  1.00  0.00    -0.000 C 
BRANCH  13  14
ATOM     14  C   UNL     1     111.700 112.730 121.421  1.00  0.00    -0.000 C 
BRANCH  14  15
ATOM     15  C   UNL     1     110.316 112.845 120.757  1.00  0.00    -0.000 C 
BRANCH  15  16
ATOM     16  C   UNL     1     110.190 112.142 119.393  1.00  0.00    -0.003 C 
ATOM     17  C   UNL     1     111.256 112.583 118.392  1.00  0.00     0.004 C 
ENDBRANCH  15  16
ENDBRANCH  14  15
ENDBRANCH  13  14
ENDBRANCH  12  13
ENDBRANCH  11  12
ENDBRANCH  10  11
ENDBRANCH   1  10
TORSDOF 13
ENDMDL
MODEL 9
REMARK VINA RESULT:    -3.682      1.900      3.453
REMARK INTER + INTRA:          -8.523
REMARK INTER:                  -6.148
REMARK INTRA:                  -2.374
REMARK UNBOUND:                -2.042
REMARK SMILES CCCCCCCCCCCCCCC(=O)[O-]
REMARK SMILES IDX 9 1 10 2 11 3 12 4 13 5 14 6 15 7 16 8 17 9 8 10 7 11 6 12
REMARK SMILES IDX 5 13 4 14 3 15 2 16 1 17
REMARK H PARENT
REMARK Flexibility Score: inf
ROOT
ATOM      1  C   UNL     1     116.750 111.578 122.754  1.00  0.00     0.000 C 
ENDROOT
BRANCH   1   2
ATOM      2  C   UNL     1     115.314 111.167 122.394  1.00  0.00     0.000 C 
BRANCH   2   3
ATOM      3  C   UNL     1     115.191 109.671 122.072  1.00  0.00     0.000 C 
BRANCH   3   4
ATOM      4  C   UNL     1     113.992 109.405 121.149  1.00  0.00     0.000 C 
BRANCH   4   5
ATOM      5  C   UNL     1     112.678 109.995 121.692  1.00  0.00     0.006 C 
BRANCH   5   6
ATOM      6  C   UNL     1     111.984 110.980 120.737  1.00  0.00     0.053 C 
BRANCH   6   7
ATOM      7  C   UNL     1     111.557 112.234 121.437  1.00  0.00     0.041 C 
ATOM      8  O   UNL     1     112.244 112.695 122.386  1.00  0.00    -0.550 OA
ATOM      9  O   UNL     1     110.383 112.875 121.062  1.00  0.00    -0.550 OA
ENDBRANCH   6   7
ENDBRANCH   5   6
ENDBRANCH   4   5
ENDBRANCH   3   4
ENDBRANCH   2   3
ENDBRANCH   1   2
BRANCH   1  10
ATOM     10  C   UNL     1     117.808 110.780 121.971  1.00  0.00     0.000 C 
BRANCH  10  11
ATOM     11  C   UNL     1     118.152 111.421 120.618  1.00  0.00    -0.000 C 
BRANCH  11  12
ATOM     12  C   UNL     1     117.911 110.467 119.435  1.00  0.00    -0.000 C 
BRANCH  12  13
ATOM     13  C   UNL     1     116.511 110.633 118.820  1.00  0.00    -0.000 C 
BRANCH  13  14
ATOM     14  C   UNL     1     116.199 112.094 118.452  1.00  0.00    -0.000 C 
BRANCH  14  15
ATOM     15  C   UNL     1     114.815 112.554 118.945  1.00  0.00    -0.000 C 
BRANCH  15  16
ATOM     16  C   UNL     1     114.842 113.682 119.993  1.00  0.00    -0.003 C 
ATOM     17  C   UNL     1     116.110 114.531 119.926  1.00  0.00     0.004 C 
ENDBRANCH  15  16
ENDBRANCH  14  15
ENDBRANCH  13  14
ENDBRANCH  12  13
ENDBRANCH  11  12
ENDBRANCH  10  11
ENDBRANCH   1  10
TORSDOF 13
ENDMDL
