MODEL 1
REMARK VINA RESULT:    -4.302      0.000      0.000
REMARK INTER + INTRA:          -6.532
REMARK INTER:                  -5.812
REMARK INTRA:                  -0.720
REMARK UNBOUND:                -0.720
REMARK SMILES O=C[C@H](O)[C@@H](O)[C@@H](O)CO
REMARK SMILES IDX 7 1 9 2 10 3 5 5 3 6 2 7 1 8 4 9 6 11 8 13
REMARK H PARENT 10 4 4 10 6 12 8 14
REMARK Flexibility Score: inf
ROOT
ATOM      1  C   UNL     1       4.915   3.741  12.490  1.00  0.00     0.171 C 
ENDROOT
BRANCH   1   2
ATOM      2  C   UNL     1       5.699   2.634  11.771  1.00  0.00     0.190 C 
BRANCH   2   3
ATOM      3  O   UNL     1       6.876   2.331  12.469  1.00  0.00    -0.394 OA
ATOM      4  H   UNL     1       7.490   1.918  11.807  1.00  0.00     0.210 HD
ENDBRANCH   2   3
ENDBRANCH   1   2
BRANCH   1   5
ATOM      5  C   UNL     1       5.671   5.101  12.578  1.00  0.00     0.181 C 
BRANCH   5   6
ATOM      6  C   UNL     1       6.154   5.489  14.009  1.00  0.00     0.209 C 
BRANCH   6   7
ATOM      7  C   UNL     1       6.836   6.831  14.051  1.00  0.00     0.258 C 
ATOM      8  O   UNL     1       7.655   7.144  13.201  1.00  0.00    -0.300 OA
ENDBRANCH   6   7
BRANCH   6   9
ATOM      9  O   UNL     1       7.021   4.510  14.527  1.00  0.00    -0.383 OA
ATOM     10  H   UNL     1       7.907   4.632  14.095  1.00  0.00     0.211 HD
ENDBRANCH   6   9
ENDBRANCH   5   6
BRANCH   5  11
ATOM     11  O   UNL     1       6.762   5.079  11.689  1.00  0.00    -0.387 OA
ATOM     12  H   UNL     1       7.451   5.703  12.039  1.00  0.00     0.211 HD
ENDBRANCH   5  11
ENDBRANCH   1   5
BRANCH   1  13
ATOM     13  O   UNL     1       3.673   3.902  11.852  1.00  0.00    -0.388 OA
ATOM     14  H   UNL     1       3.797   4.574  11.132  1.00  0.00     0.211 HD
ENDBRANCH   1  13
TORSDOF 8
ENDMDL
MODEL 2
REMARK VINA RESULT:    -4.071      1.359      4.178
REMARK INTER + INTRA:          -6.220
REMARK INTER:                  -5.696
REMARK INTRA:                  -0.524
REMARK UNBOUND:                -0.720
REMARK SMILES O=C[C@H](O)[C@@H](O)[C@@H](O)CO
REMARK SMILES IDX 7 1 9 2 10 3 5 5 3 6 2 7 1 8 4 9 6 11 8 13
REMARK H PARENT 10 4 4 10 6 12 8 14
REMARK Flexibility Score: inf
ROOT
ATOM      1  C   UNL     1       7.126   6.635  14.519  1.00  0.00     0.171 C 
ENDROOT
BRANCH   1   2
ATOM      2  C   UNL     1       7.751   6.698  15.920  1.00  0.00     0.190 C 
BRANCH   2   3
ATOM      3  O   UNL     1       9.072   6.229  15.891  1.00  0.00    -0.394 OA
ATOM      4  H   UNL     1       9.593   6.907  15.386  1.00  0.00     0.210 HD
ENDBRANCH   2   3
ENDBRANCH   1   2
BRANCH   1   5
ATOM      5  C   UNL     1       6.180   5.415  14.299  1.00  0.00     0.181 C 
BRANCH   5   6
ATOM      6  C   UNL     1       5.748   5.183  12.819  1.00  0.00     0.209 C 
BRANCH   6   7
ATOM      7  C   UNL     1       5.303   3.768  12.556  1.00  0.00     0.258 C 
ATOM      8  O   UNL     1       6.119   2.890  12.322  1.00  0.00    -0.300 OA
ENDBRANCH   6   7
BRANCH   6   9
ATOM      9  O   UNL     1       6.791   5.515  11.936  1.00  0.00    -0.383 OA
ATOM     10  H   UNL     1       7.559   5.833  12.480  1.00  0.00     0.211 HD
ENDBRANCH   6   9
ENDBRANCH   5   6
BRANCH   5  11
ATOM     11  O   UNL     1       6.795   4.258  14.811  1.00  0.00    -0.387 OA
ATOM     12  H   UNL     1       7.252   3.799  14.058  1.00  0.00     0.211 HD
ENDBRANCH   5  11
ENDBRANCH   1   5
BRANCH   1  13
ATOM     13  O   UNL     1       6.447   7.842  14.274  1.00  0.00    -0.388 OA
ATOM     14  H   UNL     1       6.500   8.383  15.104  1.00  0.00     0.211 HD
ENDBRANCH   1  13
TORSDOF 8
ENDMDL
MODEL 3
REMARK VINA RESULT:    -3.830      2.426      4.993
REMARK INTER + INTRA:          -5.894
REMARK INTER:                  -5.414
REMARK INTRA:                  -0.480
REMARK UNBOUND:                -0.720
REMARK SMILES O=C[C@H](O)[C@@H](O)[C@@H](O)CO
REMARK SMILES IDX 7 1 9 2 10 3 5 5 3 6 2 7 1 8 4 9 6 11 8 13
REMARK H PARENT 10 4 4 10 6 12 8 14
REMARK Flexibility Score: inf
ROOT
ATOM      1  C   UNL     1       5.242   2.630  12.006  1.00  0.00     0.171 C 
ENDROOT
BRANCH   1   2
ATOM      2  C   UNL     1       5.673   4.016  12.505  1.00  0.00     0.190 C 
BRANCH   2   3
ATOM      3  O   UNL     1       6.475   3.901  13.649  1.00  0.00    -0.394 OA
ATOM      4  H   UNL     1       6.503   4.805  14.057  1.00  0.00     0.210 HD
ENDBRANCH   2   3
ENDBRANCH   1   2
BRANCH   1   5
ATOM      5  C   UNL     1       3.837   2.605  11.331  1.00  0.00     0.181 C 
BRANCH   5   6
ATOM      6  C   UNL     1       3.084   1.244  11.438  1.00  0.00     0.209 C 
BRANCH   6   7
ATOM      7  C   UNL     1       1.819   1.338  12.252  1.00  0.00     0.258 C 
ATOM      8  O   UNL     1       0.804   1.823  11.775  1.00  0.00    -0.300 OA
ENDBRANCH   6   7
BRANCH   6   9
ATOM      9  O   UNL     1       3.918   0.254  11.989  1.00  0.00    -0.383 OA
ATOM     10  H   UNL     1       4.618   0.040  11.318  1.00  0.00     0.211 HD
ENDBRANCH   6   9
ENDBRANCH   5   6
BRANCH   5  11
ATOM     11  O   UNL     1       3.049   3.638  11.872  1.00  0.00    -0.387 OA
ATOM     12  H   UNL     1       2.741   4.210  11.120  1.00  0.00     0.211 HD
ENDBRANCH   5  11
ENDBRANCH   1   5
BRANCH   1  13
ATOM     13  O   UNL     1       6.225   2.140  11.128  1.00  0.00    -0.388 OA
ATOM     14  H   UNL     1       6.016   1.186  10.955  1.00  0.00     0.211 HD
ENDBRANCH   1  13
TORSDOF 8
ENDMDL
MODEL 4
REMARK VINA RESULT:    -3.760      1.376      3.966
REMARK INTER + INTRA:          -5.800
REMARK INTER:                  -5.335
REMARK INTRA:                  -0.465
REMARK UNBOUND:                -0.720
REMARK SMILES O=C[C@H](O)[C@@H](O)[C@@H](O)CO
REMARK SMILES IDX 7 1 9 2 10 3 5 5 3 6 2 7 1 8 4 9 6 11 8 13
REMARK H PARENT 10 4 4 10 6 12 8 14
REMARK Flexibility Score: inf
ROOT
ATOM      1  C   UNL     1       5.803   5.133  13.718  1.00  0.00     0.171 C 
ENDROOT
BRANCH   1   2
ATOM      2  C   UNL     1       6.832   6.272  13.676  1.00  0.00     0.190 C 
BRANCH   2   3
ATOM      3  O   UNL     1       6.379   7.372  14.417  1.00  0.00    -0.394 OA
ATOM      4  H   UNL     1       5.398   7.415  14.272  1.00  0.00     0.210 HD
ENDBRANCH   2   3
ENDBRANCH   1   2
BRANCH   1   5
ATOM      5  C   UNL     1       5.224   4.748  12.322  1.00  0.00     0.181 C 
BRANCH   5   6
ATOM      6  C   UNL     1       6.243   4.071  11.357  1.00  0.00     0.209 C 
BRANCH   6   7
ATOM      7  C   UNL     1       5.659   3.785   9.998  1.00  0.00     0.258 C 
ATOM      8  O   UNL     1       4.691   3.050   9.875  1.00  0.00    -0.300 OA
ENDBRANCH   6   7
BRANCH   6   9
ATOM      9  O   UNL     1       6.738   2.876  11.910  1.00  0.00    -0.383 OA
ATOM     10  H   UNL     1       7.446   3.116  12.565  1.00  0.00     0.211 HD
ENDBRANCH   6   9
ENDBRANCH   5   6
BRANCH   5  11
ATOM     11  O   UNL     1       4.103   3.919  12.503  1.00  0.00    -0.387 OA
ATOM     12  H   UNL     1       4.372   2.990  12.276  1.00  0.00     0.211 HD
ENDBRANCH   5  11
ENDBRANCH   1   5
BRANCH   1  13
ATOM     13  O   UNL     1       6.391   4.017  14.338  1.00  0.00    -0.388 OA
ATOM     14  H   UNL     1       5.718   3.639  14.962  1.00  0.00     0.211 HD
ENDBRANCH   1  13
TORSDOF 8
ENDMDL
MODEL 5
REMARK VINA RESULT:    -3.698      2.067      4.655
REMARK INTER + INTRA:          -5.716
REMARK INTER:                  -5.209
REMARK INTRA:                  -0.507
REMARK UNBOUND:                -0.720
REMARK SMILES O=C[C@H](O)[C@@H](O)[C@@H](O)CO
REMARK SMILES IDX 7 1 9 2 10 3 5 5 3 6 2 7 1 8 4 9 6 11 8 13
REMARK H PARENT 10 4 4 10 6 12 8 14
REMARK Flexibility Score: inf
ROOT
ATOM      1  C   UNL     1       5.622   4.056  11.891  1.00  0.00     0.171 C 
ENDROOT
BRANCH   1   2
ATOM      2  C   UNL     1       5.680   4.871  13.191  1.00  0.00     0.190 C 
BRANCH   2   3
ATOM      3  O   UNL     1       6.673   4.369  14.043  1.00  0.00    -0.394 OA
ATOM      4  H   UNL     1       7.038   3.563  13.594  1.00  0.00     0.210 HD
ENDBRANCH   2   3
ENDBRANCH   1   2
BRANCH   1   5
ATOM      5  C   UNL     1       4.997   2.638  12.057  1.00  0.00     0.181 C 
BRANCH   5   6
ATOM      6  C   UNL     1       3.709   2.390  11.215  1.00  0.00     0.209 C 
BRANCH   6   7
ATOM      7  C   UNL     1       2.857   1.275  11.765  1.00  0.00     0.258 C 
ATOM      8  O   UNL     1       3.351   0.197  12.057  1.00  0.00    -0.300 OA
ENDBRANCH   6   7
BRANCH   6   9
ATOM      9  O   UNL     1       4.033   2.109   9.875  1.00  0.00    -0.383 OA
ATOM     10  H   UNL     1       4.466   1.215   9.850  1.00  0.00     0.211 HD
ENDBRANCH   6   9
ENDBRANCH   5   6
BRANCH   5  11
ATOM     11  O   UNL     1       5.970   1.668  11.751  1.00  0.00    -0.387 OA
ATOM     12  H   UNL     1       6.129   1.696  10.771  1.00  0.00     0.211 HD
ENDBRANCH   5  11
ENDBRANCH   1   5
BRANCH   1  13
ATOM     13  O   UNL     1       4.923   4.799  10.924  1.00  0.00    -0.388 OA
ATOM     14  H   UNL     1       4.832   5.724  11.272  1.00  0.00     0.211 HD
ENDBRANCH   1  13
TORSDOF 8
ENDMDL
MODEL 6
REMARK VINA RESULT:    -3.693      1.825      2.826
REMARK INTER + INTRA:          -5.709
REMARK INTER:                  -5.216
REMARK INTRA:                  -0.494
REMARK UNBOUND:                -0.720
REMARK SMILES O=C[C@H](O)[C@@H](O)[C@@H](O)CO
REMARK SMILES IDX 7 1 9 2 10 3 5 5 3 6 2 7 1 8 4 9 6 11 8 13
REMARK H PARENT 10 4 4 10 6 12 8 14
REMARK Flexibility Score: inf
ROOT
ATOM      1  C   UNL     1       3.870   2.601  11.398  1.00  0.00     0.171 C 
ENDROOT
BRANCH   1   2
ATOM      2  C   UNL     1       2.394   2.396  11.769  1.00  0.00     0.190 C 
BRANCH   2   3
ATOM      3  O   UNL     1       1.574   3.239  11.005  1.00  0.00    -0.394 OA
ATOM      4  H   UNL     1       1.256   2.692  10.240  1.00  0.00     0.210 HD
ENDBRANCH   2   3
ENDBRANCH   1   2
BRANCH   1   5
ATOM      5  C   UNL     1       4.526   3.848  12.065  1.00  0.00     0.181 C 
BRANCH   5   6
ATOM      6  C   UNL     1       5.665   3.523  13.079  1.00  0.00     0.209 C 
BRANCH   6   7
ATOM      7  C   UNL     1       6.076   4.719  13.899  1.00  0.00     0.258 C 
ATOM      8  O   UNL     1       6.294   5.797  13.367  1.00  0.00    -0.300 OA
ENDBRANCH   6   7
BRANCH   6   9
ATOM      9  O   UNL     1       6.792   3.006  12.415  1.00  0.00    -0.383 OA
ATOM     10  H   UNL     1       7.373   3.771  12.164  1.00  0.00     0.211 HD
ENDBRANCH   6   9
ENDBRANCH   5   6
BRANCH   5  11
ATOM     11  O   UNL     1       5.003   4.710  11.060  1.00  0.00    -0.387 OA
ATOM     12  H   UNL     1       4.889   5.643  11.381  1.00  0.00     0.211 HD
ENDBRANCH   5  11
ENDBRANCH   1   5
BRANCH   1  13
ATOM     13  O   UNL     1       4.582   1.432  11.720  1.00  0.00    -0.388 OA
ATOM     14  H   UNL     1       5.544   1.623  11.570  1.00  0.00     0.211 HD
ENDBRANCH   1  13
TORSDOF 8
ENDMDL
MODEL 7
REMARK VINA RESULT:    -3.688      2.834      5.128
REMARK INTER + INTRA:          -5.702
REMARK INTER:                  -5.062
REMARK INTRA:                  -0.640
REMARK UNBOUND:                -0.720
REMARK SMILES O=C[C@H](O)[C@@H](O)[C@@H](O)CO
REMARK SMILES IDX 7 1 9 2 10 3 5 5 3 6 2 7 1 8 4 9 6 11 8 13
REMARK H PARENT 10 4 4 10 6 12 8 14
REMARK Flexibility Score: inf
ROOT
ATOM      1  C   UNL     1       4.662   3.419  11.362  1.00  0.00     0.171 C 
ENDROOT
BRANCH   1   2
ATOM      2  C   UNL     1       6.074   3.096  11.871  1.00  0.00     0.190 C 
BRANCH   2   3
ATOM      3  O   UNL     1       6.317   1.717  11.806  1.00  0.00    -0.394 OA
ATOM      4  H   UNL     1       6.849   1.570  10.982  1.00  0.00     0.210 HD
ENDBRANCH   2   3
ENDBRANCH   1   2
BRANCH   1   5
ATOM      5  C   UNL     1       3.705   2.189  11.319  1.00  0.00     0.181 C 
BRANCH   5   6
ATOM      6  C   UNL     1       2.254   2.474  11.814  1.00  0.00     0.209 C 
BRANCH   6   7
ATOM      7  C   UNL     1       1.473   1.215  12.089  1.00  0.00     0.258 C 
ATOM      8  O   UNL     1       1.962   0.117  11.874  1.00  0.00    -0.300 OA
ENDBRANCH   6   7
BRANCH   6   9
ATOM      9  O   UNL     1       1.553   3.261  10.882  1.00  0.00    -0.383 OA
ATOM     10  H   UNL     1       0.773   2.733  10.566  1.00  0.00     0.211 HD
ENDBRANCH   6   9
ENDBRANCH   5   6
BRANCH   5  11
ATOM     11  O   UNL     1       3.678   1.673  10.011  1.00  0.00    -0.387 OA
ATOM     12  H   UNL     1       3.721   2.440   9.381  1.00  0.00     0.211 HD
ENDBRANCH   5  11
ENDBRANCH   1   5
BRANCH   1  13
ATOM     13  O   UNL     1       4.120   4.445  12.157  1.00  0.00    -0.388 OA
ATOM     14  H   UNL     1       4.252   5.298  11.667  1.00  0.00     0.211 HD
ENDBRANCH   1  13
TORSDOF 8
ENDMDL
MODEL 8
REMARK VINA RESULT:    -3.683      2.072      2.745
REMARK INTER + INTRA:          -5.695
REMARK INTER:                  -5.375
REMARK INTRA:                  -0.320
REMARK UNBOUND:                -0.720
REMARK SMILES O=C[C@H](O)[C@@H](O)[C@@H](O)CO
REMARK SMILES IDX 7 1 9 2 10 3 5 5 3 6 2 7 1 8 4 9 6 11 8 13
REMARK H PARENT 10 4 4 10 6 12 8 14
REMARK Flexibility Score: inf
ROOT
ATOM      1  C   UNL     1       3.188   2.533  11.824  1.00  0.00     0.171 C 
ENDROOT
BRANCH   1   2
ATOM      2  C   UNL     1       3.018   1.082  11.352  1.00  0.00     0.190 C 
BRANCH   2   3
ATOM      3  O   UNL     1       3.927   0.241  12.009  1.00  0.00    -0.394 OA
ATOM      4  H   UNL     1       3.383  -0.463  12.447  1.00  0.00     0.210 HD
ENDBRANCH   2   3
ENDBRANCH   1   2
BRANCH   1   5
ATOM      5  C   UNL     1       4.522   3.199  11.369  1.00  0.00     0.181 C 
BRANCH   5   6
ATOM      6  C   UNL     1       5.516   3.526  12.524  1.00  0.00     0.209 C 
BRANCH   6   7
ATOM      7  C   UNL     1       5.825   4.997  12.629  1.00  0.00     0.258 C 
ATOM      8  O   UNL     1       5.941   5.536  13.719  1.00  0.00    -0.300 OA
ENDBRANCH   6   7
BRANCH   6   9
ATOM      9  O   UNL     1       6.716   2.809  12.370  1.00  0.00    -0.383 OA
ATOM     10  H   UNL     1       7.242   3.251  11.652  1.00  0.00     0.211 HD
ENDBRANCH   6   9
ENDBRANCH   5   6
BRANCH   5  11
ATOM     11  O   UNL     1       5.144   2.374  10.414  1.00  0.00    -0.387 OA
ATOM     12  H   UNL     1       5.415   2.947   9.648  1.00  0.00     0.211 HD
ENDBRANCH   5  11
ENDBRANCH   1   5
BRANCH   1  13
ATOM     13  O   UNL     1       2.082   3.282  11.385  1.00  0.00    -0.388 OA
ATOM     14  H   UNL     1       1.417   2.641  11.023  1.00  0.00     0.211 HD
ENDBRANCH   1  13
TORSDOF 8
ENDMDL
MODEL 9
REMARK VINA RESULT:    -3.661      2.981      4.206
REMARK INTER + INTRA:          -5.666
REMARK INTER:                  -5.398
REMARK INTRA:                  -0.268
REMARK UNBOUND:                -0.720
REMARK SMILES O=C[C@H](O)[C@@H](O)[C@@H](O)CO
REMARK SMILES IDX 7 1 9 2 10 3 5 5 3 6 2 7 1 8 4 9 6 11 8 13
REMARK H PARENT 10 4 4 10 6 12 8 14
REMARK Flexibility Score: inf
ROOT
ATOM      1  C   UNL     1       3.064   0.870  11.557  1.00  0.00     0.171 C 
ENDROOT
BRANCH   1   2
ATOM      2  C   UNL     1       1.814   0.379  12.302  1.00  0.00     0.190 C 
BRANCH   2   3
ATOM      3  O   UNL     1       1.968  -0.958  12.694  1.00  0.00    -0.394 OA
ATOM      4  H   UNL     1       1.810  -0.976  13.674  1.00  0.00     0.210 HD
ENDBRANCH   2   3
ENDBRANCH   1   2
BRANCH   1   5
ATOM      5  C   UNL     1       3.268   2.414  11.607  1.00  0.00     0.181 C 
BRANCH   5   6
ATOM      6  C   UNL     1       4.743   2.871  11.820  1.00  0.00     0.209 C 
BRANCH   6   7
ATOM      7  C   UNL     1       4.867   4.354  12.060  1.00  0.00     0.258 C 
ATOM      8  O   UNL     1       5.416   4.781  13.064  1.00  0.00    -0.300 OA
ENDBRANCH   6   7
BRANCH   6   9
ATOM      9  O   UNL     1       5.542   2.511  10.719  1.00  0.00    -0.383 OA
ATOM     10  H   UNL     1       6.346   3.093  10.725  1.00  0.00     0.211 HD
ENDBRANCH   6   9
ENDBRANCH   5   6
BRANCH   5  11
ATOM     11  O   UNL     1       2.749   2.986  10.431  1.00  0.00    -0.387 OA
ATOM     12  H   UNL     1       3.509   3.156   9.815  1.00  0.00     0.211 HD
ENDBRANCH   5  11
ENDBRANCH   1   5
BRANCH   1  13
ATOM     13  O   UNL     1       4.188   0.201  12.073  1.00  0.00    -0.388 OA
ATOM     14  H   UNL     1       4.728  -0.108  11.300  1.00  0.00     0.211 HD
ENDBRANCH   1  13
TORSDOF 8
ENDMDL
