MODEL 1
REMARK VINA RESULT:    -5.384      0.000      0.000
REMARK INTER + INTRA:          -7.517
REMARK INTER:                  -7.587
REMARK INTRA:                   0.070
REMARK UNBOUND:                 0.070
REMARK SMILES CC1=CCC(=C(C)C)C(=O)CC(C)=CCC1
REMARK SMILES IDX 12 1 14 2 13 3 15 4 16 5 2 6 1 7 3 8 11 10 9 11 10 12 5 13
REMARK SMILES IDX 6 14 7 15 8 16 4 17
REMARK H PARENT
REMARK Flexibility Score: 60.00
ROOT
ATOM      1  C   UNL     1       4.786  13.746  29.007  1.00  0.00    -0.070 C 
ATOM      2  C   UNL     1       4.953  14.450  30.162  1.00  0.00    -0.027 C 
ATOM      3  C   UNL     1       4.916  14.522  27.717  1.00  0.00     0.039 C 
ENDROOT
BRANCH   2   4
ATOM      4  C   UNL     1       4.842  14.033  31.624  1.00  0.00     0.032 C 
BRANCH   4   5
ATOM      5  C   UNL     1       3.592  13.247  32.038  1.00  0.00     0.034 C 
BRANCH   5   6
ATOM      6  C   UNL     1       3.699  11.721  32.162  1.00  0.00    -0.077 C 
ATOM      7  C   UNL     1       4.793  11.219  33.078  1.00  0.00     0.039 C 
ATOM      8  C   UNL     1       2.999  10.752  31.498  1.00  0.00    -0.023 CG0
ATOM      9  G   UNL     1       1.890  10.858  30.470  1.00  0.00     0.000 G0
ENDBRANCH   5   6
ENDBRANCH   4   5
ENDBRANCH   2   4
BRANCH   1  10
ATOM     10  C   UNL     1       4.490  12.260  28.879  1.00  0.00     0.111 C 
BRANCH  10  11
ATOM     11  C   UNL     1       3.055  12.006  28.531  1.00  0.00     0.163 C 
ATOM     12  O   UNL     1       2.748  11.779  27.330  1.00  0.00    -0.294 OA
BRANCH  11  13
ATOM     13  C   UNL     1       1.998  12.062  29.575  1.00  0.00    -0.002 C 
ATOM     14  C   UNL     1       1.198  13.157  29.723  1.00  0.00    -0.069 C 
ATOM     15  C   UNL     1       0.195  13.262  30.850  1.00  0.00     0.039 C 
ATOM     16  C   UNL     1       1.269  14.313  28.750  1.00  0.00     0.039 C 
BRANCH  13  17
ATOM     17  C   UNL     1       1.880  10.844  30.467  1.00  0.00     0.066 CG0
ATOM     18  G   UNL     1       3.003  10.769  31.482  1.00  0.00     0.000 G0
ENDBRANCH  13  17
ENDBRANCH  11  13
ENDBRANCH  10  11
ENDBRANCH   1  10
TORSDOF 0
ENDMDL
MODEL 2
REMARK VINA RESULT:    -4.919      2.246      4.236
REMARK INTER + INTRA:          -6.862
REMARK INTER:                  -7.216
REMARK INTRA:                   0.354
REMARK UNBOUND:                 0.070
REMARK SMILES CC1=CCC(=C(C)C)C(=O)CC(C)=CCC1
REMARK SMILES IDX 12 1 14 2 13 3 15 4 16 5 2 6 1 7 3 8 11 10 9 11 10 12 5 13
REMARK SMILES IDX 6 14 7 15 8 16 4 17
REMARK H PARENT
REMARK Flexibility Score: 60.00
ROOT
ATOM      1  C   UNL     1       4.071  10.640  31.888  1.00  0.00    -0.070 C 
ATOM      2  C   UNL     1       4.593  10.095  30.753  1.00  0.00    -0.027 C 
ATOM      3  C   UNL     1       4.870  10.455  33.157  1.00  0.00     0.039 C 
ENDROOT
BRANCH   2   4
ATOM      4  C   UNL     1       4.059  10.029  29.326  1.00  0.00     0.032 C 
BRANCH   4   5
ATOM      5  C   UNL     1       4.468  11.156  28.369  1.00  0.00     0.034 C 
BRANCH   5   6
ATOM      6  C   UNL     1       3.360  11.921  27.630  1.00  0.00    -0.077 C 
ATOM      7  C   UNL     1       3.000  11.380  26.264  1.00  0.00     0.039 C 
ATOM      8  C   UNL     1       2.713  13.067  27.997  1.00  0.00    -0.023 CG0
ATOM      9  G   UNL     1       2.844  13.926  29.240  1.00  0.00     0.000 G0
ENDBRANCH   5   6
ENDBRANCH   4   5
ENDBRANCH   2   4
BRANCH   1  10
ATOM     10  C   UNL     1       2.772  11.420  32.012  1.00  0.00     0.111 C 
BRANCH  10  11
ATOM     11  C   UNL     1       2.924  12.834  31.540  1.00  0.00     0.163 C 
ATOM     12  O   UNL     1       3.747  13.588  32.125  1.00  0.00    -0.294 OA
BRANCH  11  13
ATOM     13  C   UNL     1       2.088  13.359  30.429  1.00  0.00    -0.002 C 
ATOM     14  C   UNL     1       0.726  13.310  30.476  1.00  0.00    -0.069 C 
ATOM     15  C   UNL     1      -0.125  13.744  29.303  1.00  0.00     0.039 C 
ATOM     16  C   UNL     1       0.003  12.831  31.716  1.00  0.00     0.039 C 
BRANCH  13  17
ATOM     17  C   UNL     1       2.840  13.931  29.245  1.00  0.00     0.066 CG0
ATOM     18  G   UNL     1       2.699  13.065  28.009  1.00  0.00     0.000 G0
ENDBRANCH  13  17
ENDBRANCH  11  13
ENDBRANCH  10  11
ENDBRANCH   1  10
TORSDOF 0
ENDMDL
MODEL 3
REMARK VINA RESULT:    -4.752      1.442      3.260
REMARK INTER + INTRA:          -6.627
REMARK INTER:                  -6.657
REMARK INTRA:                   0.031
REMARK UNBOUND:                 0.070
REMARK SMILES CC1=CCC(=C(C)C)C(=O)CC(C)=CCC1
REMARK SMILES IDX 12 1 14 2 13 3 15 4 16 5 2 6 1 7 3 8 11 10 9 11 10 12 5 13
REMARK SMILES IDX 6 14 7 15 8 16 4 17
REMARK H PARENT
REMARK Flexibility Score: 60.00
ROOT
ATOM      1  C   UNL     1       2.505  12.660  27.892  1.00  0.00    -0.070 C 
ATOM      2  C   UNL     1       1.707  13.746  28.095  1.00  0.00    -0.027 C 
ATOM      3  C   UNL     1       3.334  12.655  26.628  1.00  0.00     0.039 C 
ENDROOT
BRANCH   2   4
ATOM      4  C   UNL     1       0.709  14.074  29.200  1.00  0.00     0.032 C 
BRANCH   4   5
ATOM      5  C   UNL     1       1.223  14.036  30.645  1.00  0.00     0.034 C 
BRANCH   5   6
ATOM      6  C   UNL     1       0.914  12.796  31.495  1.00  0.00    -0.077 C 
ATOM      7  C   UNL     1      -0.552  12.557  31.786  1.00  0.00     0.039 C 
ATOM      8  C   UNL     1       1.780  11.925  32.094  1.00  0.00    -0.023 CG0
ATOM      9  G   UNL     1       3.295  11.873  32.091  1.00  0.00     0.000 G0
ENDBRANCH   5   6
ENDBRANCH   4   5
ENDBRANCH   2   4
BRANCH   1  10
ATOM     10  C   UNL     1       2.656  11.455  28.807  1.00  0.00     0.111 C 
BRANCH  10  11
ATOM     11  C   UNL     1       3.890  11.548  29.652  1.00  0.00     0.163 C 
ATOM     12  O   UNL     1       4.889  10.838  29.356  1.00  0.00    -0.294 OA
BRANCH  11  13
ATOM     13  C   UNL     1       3.927  12.429  30.849  1.00  0.00    -0.002 C 
ATOM     14  C   UNL     1       4.500  13.667  30.805  1.00  0.00    -0.069 C 
ATOM     15  C   UNL     1       4.635  14.522  32.045  1.00  0.00     0.039 C 
ATOM     16  C   UNL     1       5.013  14.246  29.505  1.00  0.00     0.039 C 
BRANCH  13  17
ATOM     17  C   UNL     1       3.309  11.864  32.110  1.00  0.00     0.066 CG0
ATOM     18  G   UNL     1       1.795  11.938  32.085  1.00  0.00     0.000 G0
ENDBRANCH  13  17
ENDBRANCH  11  13
ENDBRANCH  10  11
ENDBRANCH   1  10
TORSDOF 0
ENDMDL
MODEL 4
REMARK VINA RESULT:    -4.728      1.381      3.508
REMARK INTER + INTRA:          -6.593
REMARK INTER:                  -7.081
REMARK INTRA:                   0.488
REMARK UNBOUND:                 0.070
REMARK SMILES CC1=CCC(=C(C)C)C(=O)CC(C)=CCC1
REMARK SMILES IDX 12 1 14 2 13 3 15 4 16 5 2 6 1 7 3 8 11 10 9 11 10 12 5 13
REMARK SMILES IDX 6 14 7 15 8 16 4 17
REMARK H PARENT
REMARK Flexibility Score: 60.00
ROOT
ATOM      1  C   UNL     1       1.419  13.219  28.959  1.00  0.00    -0.070 C 
ATOM      2  C   UNL     1       1.141  12.300  29.927  1.00  0.00    -0.027 C 
ATOM      3  C   UNL     1       0.418  14.337  28.780  1.00  0.00     0.039 C 
ENDROOT
BRANCH   2   4
ATOM      4  C   UNL     1       1.869  11.029  30.351  1.00  0.00     0.032 C 
BRANCH   4   5
ATOM      5  C   UNL     1       2.298  10.923  31.820  1.00  0.00     0.034 C 
BRANCH   5   6
ATOM      6  C   UNL     1       3.720  11.360  32.197  1.00  0.00    -0.077 C 
ATOM      7  C   UNL     1       4.494  10.382  33.054  1.00  0.00     0.039 C 
ATOM      8  C   UNL     1       4.355  12.542  31.937  1.00  0.00    -0.023 CG0
ATOM      9  G   UNL     1       3.891  13.771  31.180  1.00  0.00     0.000 G0
ENDBRANCH   5   6
ENDBRANCH   4   5
ENDBRANCH   2   4
BRANCH   1  10
ATOM     10  C   UNL     1       2.633  13.243  28.045  1.00  0.00     0.111 C 
BRANCH  10  11
ATOM     11  C   UNL     1       3.891  12.893  28.779  1.00  0.00     0.163 C 
ATOM     12  O   UNL     1       4.427  11.770  28.574  1.00  0.00    -0.294 OA
BRANCH  11  13
ATOM     13  C   UNL     1       4.480  13.832  29.769  1.00  0.00    -0.002 C 
ATOM     14  C   UNL     1       5.492  14.683  29.430  1.00  0.00    -0.069 C 
ATOM     15  C   UNL     1       6.166  15.564  30.459  1.00  0.00     0.039 C 
ATOM     16  C   UNL     1       5.975  14.793  28.001  1.00  0.00     0.039 C 
BRANCH  13  17
ATOM     17  C   UNL     1       3.902  13.774  31.167  1.00  0.00     0.066 CG0
ATOM     18  G   UNL     1       4.353  12.536  31.918  1.00  0.00     0.000 G0
ENDBRANCH  13  17
ENDBRANCH  11  13
ENDBRANCH  10  11
ENDBRANCH   1  10
TORSDOF 0
ENDMDL
MODEL 5
REMARK VINA RESULT:    -4.696      1.784      3.720
REMARK INTER + INTRA:          -6.548
REMARK INTER:                  -6.790
REMARK INTRA:                   0.242
REMARK UNBOUND:                 0.070
REMARK SMILES CC1=CCC(=C(C)C)C(=O)CC(C)=CCC1
REMARK SMILES IDX 12 1 14 2 13 3 15 4 16 5 2 6 1 7 3 8 11 10 9 11 10 12 5 13
REMARK SMILES IDX 6 14 7 15 8 16 4 17
REMARK H PARENT
REMARK Flexibility Score: 60.00
ROOT
ATOM      1  C   UNL     1       4.195  10.448  29.388  1.00  0.00    -0.070 C 
ATOM      2  C   UNL     1       3.348  10.017  30.365  1.00  0.00    -0.027 C 
ATOM      3  C   UNL     1       5.634   9.998  29.492  1.00  0.00     0.039 C 
ENDROOT
BRANCH   2   4
ATOM      4  C   UNL     1       1.872  10.304  30.621  1.00  0.00     0.032 C 
BRANCH   4   5
ATOM      5  C   UNL     1       1.525  11.168  31.841  1.00  0.00     0.034 C 
BRANCH   5   6
ATOM      6  C   UNL     1       1.397  12.685  31.646  1.00  0.00    -0.077 C 
ATOM      7  C   UNL     1      -0.005  13.239  31.768  1.00  0.00     0.039 C 
ATOM      8  C   UNL     1       2.358  13.592  31.296  1.00  0.00    -0.023 CG0
ATOM      9  G   UNL     1       3.839  13.414  31.025  1.00  0.00     0.000 G0
ENDBRANCH   5   6
ENDBRANCH   4   5
ENDBRANCH   2   4
BRANCH   1  10
ATOM     10  C   UNL     1       3.844  11.329  28.199  1.00  0.00     0.111 C 
BRANCH  10  11
ATOM     11  C   UNL     1       3.345  12.674  28.629  1.00  0.00     0.163 C 
ATOM     12  O   UNL     1       2.242  13.089  28.182  1.00  0.00    -0.294 OA
BRANCH  11  13
ATOM     13  C   UNL     1       4.153  13.530  29.537  1.00  0.00    -0.002 C 
ATOM     14  C   UNL     1       5.125  14.359  29.057  1.00  0.00    -0.069 C 
ATOM     15  C   UNL     1       6.021  15.151  29.983  1.00  0.00     0.039 C 
ATOM     16  C   UNL     1       5.340  14.534  27.570  1.00  0.00     0.039 C 
BRANCH  13  17
ATOM     17  C   UNL     1       3.842  13.412  31.014  1.00  0.00     0.066 CG0
ATOM     18  G   UNL     1       2.364  13.587  31.300  1.00  0.00     0.000 G0
ENDBRANCH  13  17
ENDBRANCH  11  13
ENDBRANCH  10  11
ENDBRANCH   1  10
TORSDOF 0
ENDMDL
MODEL 6
REMARK VINA RESULT:    -4.479      1.790      3.451
REMARK INTER + INTRA:          -6.242
REMARK INTER:                  -6.446
REMARK INTRA:                   0.205
REMARK UNBOUND:                 0.070
REMARK SMILES CC1=CCC(=C(C)C)C(=O)CC(C)=CCC1
REMARK SMILES IDX 12 1 14 2 13 3 15 4 16 5 2 6 1 7 3 8 11 10 9 11 10 12 5 13
REMARK SMILES IDX 6 14 7 15 8 16 4 17
REMARK H PARENT
REMARK Flexibility Score: 60.00
ROOT
ATOM      1  C   UNL     1       4.077  11.208  31.773  1.00  0.00    -0.070 C 
ATOM      2  C   UNL     1       4.135  12.384  32.460  1.00  0.00    -0.027 C 
ATOM      3  C   UNL     1       3.646   9.989  32.554  1.00  0.00     0.039 C 
ENDROOT
BRANCH   2   4
ATOM      4  C   UNL     1       4.571  13.782  32.035  1.00  0.00     0.032 C 
BRANCH   4   5
ATOM      5  C   UNL     1       3.931  14.363  30.768  1.00  0.00     0.034 C 
BRANCH   5   6
ATOM      6  C   UNL     1       4.742  14.337  29.465  1.00  0.00    -0.077 C 
ATOM      7  C   UNL     1       6.030  15.132  29.486  1.00  0.00     0.039 C 
ATOM      8  C   UNL     1       4.425  13.766  28.265  1.00  0.00    -0.023 CG0
ATOM      9  G   UNL     1       3.214  12.960  27.839  1.00  0.00     0.000 G0
ENDBRANCH   5   6
ENDBRANCH   4   5
ENDBRANCH   2   4
BRANCH   1  10
ATOM     10  C   UNL     1       4.395  10.995  30.302  1.00  0.00     0.111 C 
BRANCH  10  11
ATOM     11  C   UNL     1       3.155  10.988  29.459  1.00  0.00     0.163 C 
ATOM     12  O   UNL     1       2.659   9.883  29.111  1.00  0.00    -0.294 OA
BRANCH  11  13
ATOM     13  C   UNL     1       2.541  12.262  29.001  1.00  0.00    -0.002 C 
ATOM     14  C   UNL     1       1.423  12.769  29.596  1.00  0.00    -0.069 C 
ATOM     15  C   UNL     1       0.734  14.006  29.066  1.00  0.00     0.039 C 
ATOM     16  C   UNL     1       0.832  12.122  30.829  1.00  0.00     0.039 C 
BRANCH  13  17
ATOM     17  C   UNL     1       3.219  12.943  27.831  1.00  0.00     0.066 CG0
ATOM     18  G   UNL     1       4.403  13.782  28.269  1.00  0.00     0.000 G0
ENDBRANCH  13  17
ENDBRANCH  11  13
ENDBRANCH  10  11
ENDBRANCH   1  10
TORSDOF 0
ENDMDL
MODEL 7
REMARK VINA RESULT:    -4.475      2.164      4.489
REMARK INTER + INTRA:          -6.237
REMARK INTER:                  -6.506
REMARK INTRA:                   0.268
REMARK UNBOUND:                 0.070
REMARK SMILES CC1=CCC(=C(C)C)C(=O)CC(C)=CCC1
REMARK SMILES IDX 12 1 14 2 13 3 15 4 16 5 2 6 1 7 3 8 11 10 9 11 10 12 5 13
REMARK SMILES IDX 6 14 7 15 8 16 4 17
REMARK H PARENT
REMARK Flexibility Score: 60.00
ROOT
ATOM      1  C   UNL     1       2.964  10.295  31.289  1.00  0.00    -0.070 C 
ATOM      2  C   UNL     1       4.096   9.962  30.606  1.00  0.00    -0.027 C 
ATOM      3  C   UNL     1       2.915   9.906  32.748  1.00  0.00     0.039 C 
ENDROOT
BRANCH   2   4
ATOM      4  C   UNL     1       4.479  10.134  29.140  1.00  0.00     0.032 C 
BRANCH   4   5
ATOM      5  C   UNL     1       4.478  11.560  28.576  1.00  0.00     0.034 C 
BRANCH   5   6
ATOM      6  C   UNL     1       3.239  12.037  27.805  1.00  0.00    -0.077 C 
ATOM      7  C   UNL     1       2.971  11.320  26.500  1.00  0.00     0.039 C 
ATOM      8  C   UNL     1       2.394  13.072  28.090  1.00  0.00    -0.023 CG0
ATOM      9  G   UNL     1       2.375  14.048  29.251  1.00  0.00     0.000 G0
ENDBRANCH   5   6
ENDBRANCH   4   5
ENDBRANCH   2   4
BRANCH   1  10
ATOM     10  C   UNL     1       1.749  11.024  30.740  1.00  0.00     0.111 C 
BRANCH  10  11
ATOM     11  C   UNL     1       1.740  12.470  31.134  1.00  0.00     0.163 C 
ATOM     12  O   UNL     1       0.848  12.883  31.923  1.00  0.00    -0.294 OA
BRANCH  11  13
ATOM     13  C   UNL     1       2.738  13.417  30.572  1.00  0.00    -0.002 C 
ATOM     14  C   UNL     1       3.899  13.703  31.230  1.00  0.00    -0.069 C 
ATOM     15  C   UNL     1       4.867  14.745  30.716  1.00  0.00     0.039 C 
ATOM     16  C   UNL     1       4.277  12.974  32.501  1.00  0.00     0.039 C 
BRANCH  13  17
ATOM     17  C   UNL     1       2.380  14.051  29.244  1.00  0.00     0.066 CG0
ATOM     18  G   UNL     1       2.387  13.043  28.112  1.00  0.00     0.000 G0
ENDBRANCH  13  17
ENDBRANCH  11  13
ENDBRANCH  10  11
ENDBRANCH   1  10
TORSDOF 0
ENDMDL
MODEL 8
REMARK VINA RESULT:    -4.372      1.831      3.381
REMARK INTER + INTRA:          -6.092
REMARK INTER:                  -6.330
REMARK INTRA:                   0.238
REMARK UNBOUND:                 0.070
REMARK SMILES CC1=CCC(=C(C)C)C(=O)CC(C)=CCC1
REMARK SMILES IDX 12 1 14 2 13 3 15 4 16 5 2 6 1 7 3 8 11 10 9 11 10 12 5 13
REMARK SMILES IDX 6 14 7 15 8 16 4 17
REMARK H PARENT
REMARK Flexibility Score: 60.00
ROOT
ATOM      1  C   UNL     1       1.010  13.641  29.632  1.00  0.00    -0.070 C 
ATOM      2  C   UNL     1       0.868  12.820  30.712  1.00  0.00    -0.027 C 
ATOM      3  C   UNL     1      -0.216  13.851  28.775  1.00  0.00     0.039 C 
ENDROOT
BRANCH   2   4
ATOM      4  C   UNL     1       1.872  12.335  31.751  1.00  0.00     0.032 C 
BRANCH   4   5
ATOM      5  C   UNL     1       2.256  10.850  31.719  1.00  0.00     0.034 C 
BRANCH   5   6
ATOM      6  C   UNL     1       3.523  10.442  30.954  1.00  0.00    -0.077 C 
ATOM      7  C   UNL     1       4.680   9.981  31.814  1.00  0.00     0.039 C 
ATOM      8  C   UNL     1       3.781  10.514  29.614  1.00  0.00    -0.023 CG0
ATOM      9  G   UNL     1       2.913  10.977  28.461  1.00  0.00     0.000 G0
ENDBRANCH   5   6
ENDBRANCH   4   5
ENDBRANCH   2   4
BRANCH   1  10
ATOM     10  C   UNL     1       2.272  14.374  29.204  1.00  0.00     0.111 C 
BRANCH  10  11
ATOM     11  C   UNL     1       3.414  13.432  28.976  1.00  0.00     0.163 C 
ATOM     12  O   UNL     1       4.474  13.584  29.641  1.00  0.00    -0.294 OA
BRANCH  11  13
ATOM     13  C   UNL     1       3.321  12.358  27.952  1.00  0.00    -0.002 C 
ATOM     14  C   UNL     1       3.585  12.603  26.636  1.00  0.00    -0.069 C 
ATOM     15  C   UNL     1       3.389  11.542  25.576  1.00  0.00     0.039 C 
ATOM     16  C   UNL     1       4.103  13.949  26.180  1.00  0.00     0.039 C 
BRANCH  13  17
ATOM     17  C   UNL     1       2.903  10.993  28.456  1.00  0.00     0.066 CG0
ATOM     18  G   UNL     1       3.787  10.509  29.588  1.00  0.00     0.000 G0
ENDBRANCH  13  17
ENDBRANCH  11  13
ENDBRANCH  10  11
ENDBRANCH   1  10
TORSDOF 0
ENDMDL
MODEL 9
REMARK VINA RESULT:    -4.228      1.961      4.365
REMARK INTER + INTRA:          -5.889
REMARK INTER:                  -6.027
REMARK INTRA:                   0.139
REMARK UNBOUND:                 0.070
REMARK SMILES CC1=CCC(=C(C)C)C(=O)CC(C)=CCC1
REMARK SMILES IDX 12 1 14 2 13 3 15 4 16 5 2 6 1 7 3 8 11 10 9 11 10 12 5 13
REMARK SMILES IDX 6 14 7 15 8 16 4 17
REMARK H PARENT
REMARK Flexibility Score: 60.00
ROOT
ATOM      1  C   UNL     1       0.741  12.628  30.475  1.00  0.00    -0.070 C 
ATOM      2  C   UNL     1       0.629  13.587  29.512  1.00  0.00    -0.027 C 
ATOM      3  C   UNL     1      -0.001  12.877  31.767  1.00  0.00     0.039 C 
ENDROOT
BRANCH   2   4
ATOM      4  C   UNL     1       1.265  13.711  28.132  1.00  0.00     0.032 C 
BRANCH   4   5
ATOM      5  C   UNL     1       2.794  13.610  28.051  1.00  0.00     0.034 C 
BRANCH   5   6
ATOM      6  C   UNL     1       3.413  12.279  27.603  1.00  0.00    -0.077 C 
ATOM      7  C   UNL     1       2.955  11.772  26.253  1.00  0.00     0.039 C 
ATOM      8  C   UNL     1       4.255  11.448  28.287  1.00  0.00    -0.023 CG0
ATOM      9  G   UNL     1       4.871  11.576  29.666  1.00  0.00     0.000 G0
ENDBRANCH   5   6
ENDBRANCH   4   5
ENDBRANCH   2   4
BRANCH   1  10
ATOM     10  C   UNL     1       1.529  11.331  30.384  1.00  0.00     0.111 C 
BRANCH  10  11
ATOM     11  C   UNL     1       2.812  11.402  31.154  1.00  0.00     0.163 C 
ATOM     12  O   UNL     1       2.905  10.776  32.245  1.00  0.00    -0.294 OA
BRANCH  11  13
ATOM     13  C   UNL     1       3.946  12.230  30.668  1.00  0.00    -0.002 C 
ATOM     14  C   UNL     1       4.122  13.516  31.089  1.00  0.00    -0.069 C 
ATOM     15  C   UNL     1       5.211  14.396  30.517  1.00  0.00     0.039 C 
ATOM     16  C   UNL     1       3.242  14.114  32.164  1.00  0.00     0.039 C 
BRANCH  13  17
ATOM     17  C   UNL     1       4.874  11.567  29.672  1.00  0.00     0.066 CG0
ATOM     18  G   UNL     1       4.243  11.448  28.298  1.00  0.00     0.000 G0
ENDBRANCH  13  17
ENDBRANCH  11  13
ENDBRANCH  10  11
ENDBRANCH   1  10
TORSDOF 0
ENDMDL
