MODEL 1
REMARK VINA RESULT:    -4.503      0.000      0.000
REMARK INTER + INTRA:          -8.803
REMARK INTER:                  -7.925
REMARK INTRA:                  -0.878
REMARK UNBOUND:                -0.878
REMARK SMILES CCCCCCCCCCCCCCC(=O)[O-]
REMARK SMILES IDX 9 1 10 2 11 3 12 4 13 5 14 6 15 7 16 8 17 9 8 10 7 11 6 12
REMARK SMILES IDX 5 13 4 14 3 15 2 16 1 17
REMARK H PARENT
REMARK Flexibility Score: inf
ROOT
ATOM      1  C   UNL     1     -43.782  27.092   0.055  1.00  0.00     0.000 C 
ENDROOT
BRANCH   1   2
ATOM      2  C   UNL     1     -42.734  28.217   0.085  1.00  0.00     0.000 C 
BRANCH   2   3
ATOM      3  C   UNL     1     -43.323  29.564   0.531  1.00  0.00     0.000 C 
BRANCH   3   4
ATOM      4  C   UNL     1     -44.013  29.434   1.899  1.00  0.00     0.000 C 
BRANCH   4   5
ATOM      5  C   UNL     1     -43.092  28.829   2.970  1.00  0.00     0.006 C 
BRANCH   5   6
ATOM      6  C   UNL     1     -43.858  28.371   4.217  1.00  0.00     0.053 C 
BRANCH   6   7
ATOM      7  C   UNL     1     -44.716  27.187   3.897  1.00  0.00     0.041 C 
ATOM      8  O   UNL     1     -44.212  26.168   3.357  1.00  0.00    -0.550 OA
ATOM      9  O   UNL     1     -46.063  27.191   4.238  1.00  0.00    -0.550 OA
ENDBRANCH   6   7
ENDBRANCH   5   6
ENDBRANCH   4   5
ENDBRANCH   3   4
ENDBRANCH   2   3
ENDBRANCH   1   2
BRANCH   1  10
ATOM     10  C   UNL     1     -44.830  27.291  -1.054  1.00  0.00     0.000 C 
BRANCH  10  11
ATOM     11  C   UNL     1     -45.201  25.976  -1.758  1.00  0.00    -0.000 C 
BRANCH  11  12
ATOM     12  C   UNL     1     -46.318  26.153  -2.798  1.00  0.00    -0.000 C 
BRANCH  12  13
ATOM     13  C   UNL     1     -46.568  27.638  -3.087  1.00  0.00    -0.000 C 
BRANCH  13  14
ATOM     14  C   UNL     1     -46.404  27.944  -4.583  1.00  0.00    -0.000 C 
BRANCH  14  15
ATOM     15  C   UNL     1     -46.125  26.686  -5.425  1.00  0.00    -0.000 C 
BRANCH  15  16
ATOM     16  C   UNL     1     -45.682  26.963  -6.873  1.00  0.00    -0.003 C 
ATOM     17  C   UNL     1     -45.337  28.430  -7.122  1.00  0.00     0.004 C 
ENDBRANCH  15  16
ENDBRANCH  14  15
ENDBRANCH  13  14
ENDBRANCH  12  13
ENDBRANCH  11  12
ENDBRANCH  10  11
ENDBRANCH   1  10
TORSDOF 13
ENDMDL
MODEL 2
REMARK VINA RESULT:    -4.361      1.814      2.051
REMARK INTER + INTRA:          -8.554
REMARK INTER:                  -7.845
REMARK INTRA:                  -0.709
REMARK UNBOUND:                -0.878
REMARK SMILES CCCCCCCCCCCCCCC(=O)[O-]
REMARK SMILES IDX 9 1 10 2 11 3 12 4 13 5 14 6 15 7 16 8 17 9 8 10 7 11 6 12
REMARK SMILES IDX 5 13 4 14 3 15 2 16 1 17
REMARK H PARENT
REMARK Flexibility Score: inf
ROOT
ATOM      1  C   UNL     1     -43.080  27.698  -0.179  1.00  0.00     0.000 C 
ENDROOT
BRANCH   1   2
ATOM      2  C   UNL     1     -43.031  28.267   1.248  1.00  0.00     0.000 C 
BRANCH   2   3
ATOM      3  C   UNL     1     -43.741  27.367   2.271  1.00  0.00     0.000 C 
BRANCH   3   4
ATOM      4  C   UNL     1     -44.215  28.184   3.484  1.00  0.00     0.000 C 
BRANCH   4   5
ATOM      5  C   UNL     1     -43.056  28.862   4.229  1.00  0.00     0.006 C 
BRANCH   5   6
ATOM      6  C   UNL     1     -43.400  29.183   5.690  1.00  0.00     0.053 C 
BRANCH   6   7
ATOM      7  C   UNL     1     -42.887  28.106   6.594  1.00  0.00     0.041 C 
ATOM      8  O   UNL     1     -42.001  28.365   7.449  1.00  0.00    -0.550 OA
ATOM      9  O   UNL     1     -43.424  26.826   6.525  1.00  0.00    -0.550 OA
ENDBRANCH   6   7
ENDBRANCH   5   6
ENDBRANCH   4   5
ENDBRANCH   3   4
ENDBRANCH   2   3
ENDBRANCH   1   2
BRANCH   1  10
ATOM     10  C   UNL     1     -44.504  27.691  -0.762  1.00  0.00     0.000 C 
BRANCH  10  11
ATOM     11  C   UNL     1     -44.923  26.305  -1.281  1.00  0.00    -0.000 C 
BRANCH  11  12
ATOM     12  C   UNL     1     -46.041  26.376  -2.332  1.00  0.00    -0.000 C 
BRANCH  12  13
ATOM     13  C   UNL     1     -46.253  27.818  -2.810  1.00  0.00    -0.000 C 
BRANCH  13  14
ATOM     14  C   UNL     1     -46.316  27.886  -4.343  1.00  0.00    -0.000 C 
BRANCH  14  15
ATOM     15  C   UNL     1     -46.127  26.513  -5.013  1.00  0.00    -0.000 C 
BRANCH  15  16
ATOM     16  C   UNL     1     -45.861  26.564  -6.528  1.00  0.00    -0.003 C 
ATOM     17  C   UNL     1     -45.444  27.951  -7.015  1.00  0.00     0.004 C 
ENDBRANCH  15  16
ENDBRANCH  14  15
ENDBRANCH  13  14
ENDBRANCH  12  13
ENDBRANCH  11  12
ENDBRANCH  10  11
ENDBRANCH   1  10
TORSDOF 13
ENDMDL
MODEL 3
REMARK VINA RESULT:    -4.161      1.922      2.763
REMARK INTER + INTRA:          -8.201
REMARK INTER:                  -7.222
REMARK INTRA:                  -0.980
REMARK UNBOUND:                -0.878
REMARK SMILES CCCCCCCCCCCCCCC(=O)[O-]
REMARK SMILES IDX 9 1 10 2 11 3 12 4 13 5 14 6 15 7 16 8 17 9 8 10 7 11 6 12
REMARK SMILES IDX 5 13 4 14 3 15 2 16 1 17
REMARK H PARENT
REMARK Flexibility Score: inf
ROOT
ATOM      1  C   UNL     1     -43.002  27.466   1.063  1.00  0.00     0.000 C 
ENDROOT
BRANCH   1   2
ATOM      2  C   UNL     1     -42.983  28.844   1.745  1.00  0.00     0.000 C 
BRANCH   2   3
ATOM      3  C   UNL     1     -43.713  28.847   3.097  1.00  0.00     0.000 C 
BRANCH   3   4
ATOM      4  C   UNL     1     -44.103  27.420   3.513  1.00  0.00     0.000 C 
BRANCH   4   5
ATOM      5  C   UNL     1     -44.753  27.366   4.904  1.00  0.00     0.006 C 
BRANCH   5   6
ATOM      6  C   UNL     1     -43.912  26.582   5.919  1.00  0.00     0.053 C 
BRANCH   6   7
ATOM      7  C   UNL     1     -43.289  27.513   6.911  1.00  0.00     0.041 C 
ATOM      8  O   UNL     1     -43.734  27.577   8.087  1.00  0.00    -0.550 OA
ATOM      9  O   UNL     1     -42.185  28.276   6.550  1.00  0.00    -0.550 OA
ENDBRANCH   6   7
ENDBRANCH   5   6
ENDBRANCH   4   5
ENDBRANCH   3   4
ENDBRANCH   2   3
ENDBRANCH   1   2
BRANCH   1  10
ATOM     10  C   UNL     1     -43.774  27.477  -0.268  1.00  0.00     0.000 C 
BRANCH  10  11
ATOM     11  C   UNL     1     -45.270  27.775  -0.080  1.00  0.00    -0.000 C 
BRANCH  11  12
ATOM     12  C   UNL     1     -46.172  26.811  -0.865  1.00  0.00    -0.000 C 
BRANCH  12  13
ATOM     13  C   UNL     1     -45.337  25.871  -1.743  1.00  0.00    -0.000 C 
BRANCH  13  14
ATOM     14  C   UNL     1     -45.847  25.872  -3.191  1.00  0.00    -0.000 C 
BRANCH  14  15
ATOM     15  C   UNL     1     -46.600  27.163  -3.561  1.00  0.00    -0.000 C 
BRANCH  15  16
ATOM     16  C   UNL     1     -46.345  27.673  -4.991  1.00  0.00    -0.003 C 
ATOM     17  C   UNL     1     -46.017  26.552  -5.975  1.00  0.00     0.004 C 
ENDBRANCH  15  16
ENDBRANCH  14  15
ENDBRANCH  13  14
ENDBRANCH  12  13
ENDBRANCH  11  12
ENDBRANCH  10  11
ENDBRANCH   1  10
TORSDOF 13
ENDMDL
MODEL 4
REMARK VINA RESULT:    -4.160      1.548      1.942
REMARK INTER + INTRA:          -8.200
REMARK INTER:                  -7.477
REMARK INTRA:                  -0.723
REMARK UNBOUND:                -0.878
REMARK SMILES CCCCCCCCCCCCCCC(=O)[O-]
REMARK SMILES IDX 9 1 10 2 11 3 12 4 13 5 14 6 15 7 16 8 17 9 8 10 7 11 6 12
REMARK SMILES IDX 5 13 4 14 3 15 2 16 1 17
REMARK H PARENT
REMARK Flexibility Score: inf
ROOT
ATOM      1  C   UNL     1     -43.658  27.377  -0.302  1.00  0.00     0.000 C 
ENDROOT
BRANCH   1   2
ATOM      2  C   UNL     1     -43.484  28.673   0.507  1.00  0.00     0.000 C 
BRANCH   2   3
ATOM      3  C   UNL     1     -43.052  28.413   1.959  1.00  0.00     0.000 C 
BRANCH   3   4
ATOM      4  C   UNL     1     -43.653  27.099   2.482  1.00  0.00     0.000 C 
BRANCH   4   5
ATOM      5  C   UNL     1     -44.424  27.284   3.798  1.00  0.00     0.006 C 
BRANCH   5   6
ATOM      6  C   UNL     1     -43.825  28.384   4.684  1.00  0.00     0.053 C 
BRANCH   6   7
ATOM      7  C   UNL     1     -43.483  27.838   6.034  1.00  0.00     0.041 C 
ATOM      8  O   UNL     1     -44.287  27.078   6.633  1.00  0.00    -0.550 OA
ATOM      9  O   UNL     1     -42.252  28.130   6.610  1.00  0.00    -0.550 OA
ENDBRANCH   6   7
ENDBRANCH   5   6
ENDBRANCH   4   5
ENDBRANCH   3   4
ENDBRANCH   2   3
ENDBRANCH   1   2
BRANCH   1  10
ATOM     10  C   UNL     1     -45.023  27.302  -1.008  1.00  0.00     0.000 C 
BRANCH  10  11
ATOM     11  C   UNL     1     -45.247  25.955  -1.716  1.00  0.00    -0.000 C 
BRANCH  11  12
ATOM     12  C   UNL     1     -46.370  26.014  -2.763  1.00  0.00    -0.000 C 
BRANCH  12  13
ATOM     13  C   UNL     1     -46.633  27.459  -3.204  1.00  0.00    -0.000 C 
BRANCH  13  14
ATOM     14  C   UNL     1     -46.202  27.678  -4.662  1.00  0.00    -0.000 C 
BRANCH  14  15
ATOM     15  C   UNL     1     -46.521  26.475  -5.569  1.00  0.00    -0.000 C 
BRANCH  15  16
ATOM     16  C   UNL     1     -45.828  26.499  -6.943  1.00  0.00    -0.003 C 
ATOM     17  C   UNL     1     -46.728  26.005  -8.074  1.00  0.00     0.004 C 
ENDBRANCH  15  16
ENDBRANCH  14  15
ENDBRANCH  13  14
ENDBRANCH  12  13
ENDBRANCH  11  12
ENDBRANCH  10  11
ENDBRANCH   1  10
TORSDOF 13
ENDMDL
MODEL 5
REMARK VINA RESULT:    -4.056      2.565      4.511
REMARK INTER + INTRA:          -8.017
REMARK INTER:                  -6.994
REMARK INTRA:                  -1.023
REMARK UNBOUND:                -0.878
REMARK SMILES CCCCCCCCCCCCCCC(=O)[O-]
REMARK SMILES IDX 9 1 10 2 11 3 12 4 13 5 14 6 15 7 16 8 17 9 8 10 7 11 6 12
REMARK SMILES IDX 5 13 4 14 3 15 2 16 1 17
REMARK H PARENT
REMARK Flexibility Score: inf
ROOT
ATOM      1  C   UNL     1     -44.242  28.845   3.597  1.00  0.00     0.000 C 
ENDROOT
BRANCH   1   2
ATOM      2  C   UNL     1     -44.745  27.468   4.062  1.00  0.00     0.000 C 
BRANCH   2   3
ATOM      3  C   UNL     1     -45.996  27.563   4.950  1.00  0.00     0.000 C 
BRANCH   3   4
ATOM      4  C   UNL     1     -45.692  27.079   6.377  1.00  0.00     0.000 C 
BRANCH   4   5
ATOM      5  C   UNL     1     -44.970  28.142   7.220  1.00  0.00     0.006 C 
BRANCH   5   6
ATOM      6  C   UNL     1     -43.730  27.589   7.933  1.00  0.00     0.053 C 
BRANCH   6   7
ATOM      7  C   UNL     1     -42.501  28.311   7.478  1.00  0.00     0.041 C 
ATOM      8  O   UNL     1     -42.125  28.228   6.280  1.00  0.00    -0.550 OA
ATOM      9  O   UNL     1     -41.797  29.114   8.367  1.00  0.00    -0.550 OA
ENDBRANCH   6   7
ENDBRANCH   5   6
ENDBRANCH   4   5
ENDBRANCH   3   4
ENDBRANCH   2   3
ENDBRANCH   1   2
BRANCH   1  10
ATOM     10  C   UNL     1     -43.183  28.741   2.485  1.00  0.00     0.000 C 
BRANCH  10  11
ATOM     11  C   UNL     1     -43.236  27.395   1.744  1.00  0.00    -0.000 C 
BRANCH  11  12
ATOM     12  C   UNL     1     -43.117  27.550   0.221  1.00  0.00    -0.000 C 
BRANCH  12  13
ATOM     13  C   UNL     1     -44.347  28.264  -0.355  1.00  0.00    -0.000 C 
BRANCH  13  14
ATOM     14  C   UNL     1     -45.501  27.277  -0.582  1.00  0.00    -0.000 C 
BRANCH  14  15
ATOM     15  C   UNL     1     -45.123  26.117  -1.521  1.00  0.00    -0.000 C 
BRANCH  15  16
ATOM     16  C   UNL     1     -46.178  25.780  -2.590  1.00  0.00    -0.003 C 
ATOM     17  C   UNL     1     -46.348  26.886  -3.630  1.00  0.00     0.004 C 
ENDBRANCH  15  16
ENDBRANCH  14  15
ENDBRANCH  13  14
ENDBRANCH  12  13
ENDBRANCH  11  12
ENDBRANCH  10  11
ENDBRANCH   1  10
TORSDOF 13
ENDMDL
MODEL 6
REMARK VINA RESULT:    -4.037      3.637      8.275
REMARK INTER + INTRA:          -7.983
REMARK INTER:                  -7.079
REMARK INTRA:                  -0.904
REMARK UNBOUND:                -0.878
REMARK SMILES CCCCCCCCCCCCCCC(=O)[O-]
REMARK SMILES IDX 9 1 10 2 11 3 12 4 13 5 14 6 15 7 16 8 17 9 8 10 7 11 6 12
REMARK SMILES IDX 5 13 4 14 3 15 2 16 1 17
REMARK H PARENT
REMARK Flexibility Score: inf
ROOT
ATOM      1  C   UNL     1     -44.307  27.436   0.187  1.00  0.00     0.000 C 
ENDROOT
BRANCH   1   2
ATOM      2  C   UNL     1     -45.077  27.427  -1.144  1.00  0.00     0.000 C 
BRANCH   2   3
ATOM      3  C   UNL     1     -45.193  26.022  -1.754  1.00  0.00     0.000 C 
BRANCH   3   4
ATOM      4  C   UNL     1     -46.380  25.942  -2.727  1.00  0.00     0.000 C 
BRANCH   4   5
ATOM      5  C   UNL     1     -46.285  26.975  -3.860  1.00  0.00     0.006 C 
BRANCH   5   6
ATOM      6  C   UNL     1     -46.676  26.393  -5.224  1.00  0.00     0.053 C 
BRANCH   6   7
ATOM      7  C   UNL     1     -45.804  26.956  -6.302  1.00  0.00     0.041 C 
ATOM      8  O   UNL     1     -45.464  28.168  -6.273  1.00  0.00    -0.550 OA
ATOM      9  O   UNL     1     -45.325  26.130  -7.312  1.00  0.00    -0.550 OA
ENDBRANCH   6   7
ENDBRANCH   5   6
ENDBRANCH   4   5
ENDBRANCH   3   4
ENDBRANCH   2   3
ENDBRANCH   1   2
BRANCH   1  10
ATOM     10  C   UNL     1     -42.830  27.831   0.011  1.00  0.00     0.000 C 
BRANCH  10  11
ATOM     11  C   UNL     1     -42.563  29.299   0.383  1.00  0.00    -0.000 C 
BRANCH  11  12
ATOM     12  C   UNL     1     -43.439  29.785   1.548  1.00  0.00    -0.000 C 
BRANCH  12  13
ATOM     13  C   UNL     1     -42.602  29.981   2.818  1.00  0.00    -0.000 C 
BRANCH  13  14
ATOM     14  C   UNL     1     -43.178  29.169   3.988  1.00  0.00    -0.000 C 
BRANCH  14  15
ATOM     15  C   UNL     1     -44.522  28.499   3.649  1.00  0.00    -0.000 C 
BRANCH  15  16
ATOM     16  C   UNL     1     -44.810  27.200   4.424  1.00  0.00    -0.003 C 
ATOM     17  C   UNL     1     -44.067  27.122   5.756  1.00  0.00     0.004 C 
ENDBRANCH  15  16
ENDBRANCH  14  15
ENDBRANCH  13  14
ENDBRANCH  12  13
ENDBRANCH  11  12
ENDBRANCH  10  11
ENDBRANCH   1  10
TORSDOF 13
ENDMDL
MODEL 7
REMARK VINA RESULT:    -4.025      3.934      8.473
REMARK INTER + INTRA:          -7.961
REMARK INTER:                  -7.133
REMARK INTRA:                  -0.828
REMARK UNBOUND:                -0.878
REMARK SMILES CCCCCCCCCCCCCCC(=O)[O-]
REMARK SMILES IDX 9 1 10 2 11 3 12 4 13 5 14 6 15 7 16 8 17 9 8 10 7 11 6 12
REMARK SMILES IDX 5 13 4 14 3 15 2 16 1 17
REMARK H PARENT
REMARK Flexibility Score: inf
ROOT
ATOM      1  C   UNL     1     -46.076  26.071  -3.010  1.00  0.00     0.000 C 
ENDROOT
BRANCH   1   2
ATOM      2  C   UNL     1     -46.863  27.002  -3.946  1.00  0.00     0.000 C 
BRANCH   2   3
ATOM      3  C   UNL     1     -46.303  28.432  -3.971  1.00  0.00     0.000 C 
BRANCH   3   4
ATOM      4  C   UNL     1     -46.505  29.077  -5.351  1.00  0.00     0.000 C 
BRANCH   4   5
ATOM      5  C   UNL     1     -45.487  28.582  -6.390  1.00  0.00     0.006 C 
BRANCH   5   6
ATOM      6  C   UNL     1     -46.155  27.947  -7.616  1.00  0.00     0.053 C 
BRANCH   6   7
ATOM      7  C   UNL     1     -45.940  26.466  -7.618  1.00  0.00     0.041 C 
ATOM      8  O   UNL     1     -45.088  25.948  -6.850  1.00  0.00    -0.550 OA
ATOM      9  O   UNL     1     -46.715  25.652  -8.435  1.00  0.00    -0.550 OA
ENDBRANCH   6   7
ENDBRANCH   5   6
ENDBRANCH   4   5
ENDBRANCH   3   4
ENDBRANCH   2   3
ENDBRANCH   1   2
BRANCH   1  10
ATOM     10  C   UNL     1     -45.984  26.619  -1.575  1.00  0.00     0.000 C 
BRANCH  10  11
ATOM     11  C   UNL     1     -44.542  26.634  -1.040  1.00  0.00    -0.000 C 
BRANCH  11  12
ATOM     12  C   UNL     1     -44.221  27.901  -0.232  1.00  0.00    -0.000 C 
BRANCH  12  13
ATOM     13  C   UNL     1     -42.815  27.821   0.376  1.00  0.00    -0.000 C 
BRANCH  13  14
ATOM     14  C   UNL     1     -42.882  27.526   1.882  1.00  0.00    -0.000 C 
BRANCH  14  15
ATOM     15  C   UNL     1     -43.195  28.776   2.725  1.00  0.00    -0.000 C 
BRANCH  15  16
ATOM     16  C   UNL     1     -43.634  28.487   4.171  1.00  0.00    -0.003 C 
ATOM     17  C   UNL     1     -44.426  27.188   4.307  1.00  0.00     0.004 C 
ENDBRANCH  15  16
ENDBRANCH  14  15
ENDBRANCH  13  14
ENDBRANCH  12  13
ENDBRANCH  11  12
ENDBRANCH  10  11
ENDBRANCH   1  10
TORSDOF 13
ENDMDL
MODEL 8
REMARK VINA RESULT:    -4.002      2.993      4.105
REMARK INTER + INTRA:          -7.922
REMARK INTER:                  -6.262
REMARK INTRA:                  -1.660
REMARK UNBOUND:                -0.878
REMARK SMILES CCCCCCCCCCCCCCC(=O)[O-]
REMARK SMILES IDX 9 1 10 2 11 3 12 4 13 5 14 6 15 7 16 8 17 9 8 10 7 11 6 12
REMARK SMILES IDX 5 13 4 14 3 15 2 16 1 17
REMARK H PARENT
REMARK Flexibility Score: inf
ROOT
ATOM      1  C   UNL     1     -42.604  27.688   1.697  1.00  0.00     0.000 C 
ENDROOT
BRANCH   1   2
ATOM      2  C   UNL     1     -43.944  27.106   2.178  1.00  0.00     0.000 C 
BRANCH   2   3
ATOM      3  C   UNL     1     -44.675  28.035   3.160  1.00  0.00     0.000 C 
BRANCH   3   4
ATOM      4  C   UNL     1     -43.675  28.887   3.957  1.00  0.00     0.000 C 
BRANCH   4   5
ATOM      5  C   UNL     1     -43.956  28.871   5.468  1.00  0.00     0.006 C 
BRANCH   5   6
ATOM      6  C   UNL     1     -43.165  27.783   6.205  1.00  0.00     0.053 C 
BRANCH   6   7
ATOM      7  C   UNL     1     -42.895  28.200   7.616  1.00  0.00     0.041 C 
ATOM      8  O   UNL     1     -41.817  28.778   7.911  1.00  0.00    -0.550 OA
ATOM      9  O   UNL     1     -43.856  27.993   8.598  1.00  0.00    -0.550 OA
ENDBRANCH   6   7
ENDBRANCH   5   6
ENDBRANCH   4   5
ENDBRANCH   3   4
ENDBRANCH   2   3
ENDBRANCH   1   2
BRANCH   1  10
ATOM     10  C   UNL     1     -42.601  27.994   0.189  1.00  0.00     0.000 C 
BRANCH  10  11
ATOM     11  C   UNL     1     -42.666  29.502  -0.107  1.00  0.00    -0.000 C 
BRANCH  11  12
ATOM     12  C   UNL     1     -44.106  30.035  -0.161  1.00  0.00    -0.000 C 
BRANCH  12  13
ATOM     13  C   UNL     1     -44.970  29.188  -1.104  1.00  0.00    -0.000 C 
BRANCH  13  14
ATOM     14  C   UNL     1     -46.230  28.681  -0.389  1.00  0.00    -0.000 C 
BRANCH  14  15
ATOM     15  C   UNL     1     -46.399  27.154  -0.483  1.00  0.00    -0.000 C 
BRANCH  15  16
ATOM     16  C   UNL     1     -45.289  26.426  -1.262  1.00  0.00    -0.003 C 
ATOM     17  C   UNL     1     -45.832  25.454  -2.308  1.00  0.00     0.004 C 
ENDBRANCH  15  16
ENDBRANCH  14  15
ENDBRANCH  13  14
ENDBRANCH  12  13
ENDBRANCH  11  12
ENDBRANCH  10  11
ENDBRANCH   1  10
TORSDOF 13
ENDMDL
MODEL 9
REMARK VINA RESULT:    -3.939      3.069      8.289
REMARK INTER + INTRA:          -7.810
REMARK INTER:                  -6.259
REMARK INTRA:                  -1.551
REMARK UNBOUND:                -0.878
REMARK SMILES CCCCCCCCCCCCCCC(=O)[O-]
REMARK SMILES IDX 9 1 10 2 11 3 12 4 13 5 14 6 15 7 16 8 17 9 8 10 7 11 6 12
REMARK SMILES IDX 5 13 4 14 3 15 2 16 1 17
REMARK H PARENT
REMARK Flexibility Score: inf
ROOT
ATOM      1  C   UNL     1     -42.987  29.109   3.632  1.00  0.00     0.000 C 
ENDROOT
BRANCH   1   2
ATOM      2  C   UNL     1     -42.942  29.074   2.096  1.00  0.00     0.000 C 
BRANCH   2   3
ATOM      3  C   UNL     1     -42.973  27.645   1.533  1.00  0.00     0.000 C 
BRANCH   3   4
ATOM      4  C   UNL     1     -44.317  27.356   0.846  1.00  0.00     0.000 C 
BRANCH   4   5
ATOM      5  C   UNL     1     -44.160  27.031  -0.648  1.00  0.00     0.006 C 
BRANCH   5   6
ATOM      6  C   UNL     1     -45.404  27.400  -1.467  1.00  0.00     0.053 C 
BRANCH   6   7
ATOM      7  C   UNL     1     -46.026  26.171  -2.052  1.00  0.00     0.041 C 
ATOM      8  O   UNL     1     -46.862  26.269  -2.987  1.00  0.00    -0.550 OA
ATOM      9  O   UNL     1     -45.645  24.915  -1.597  1.00  0.00    -0.550 OA
ENDBRANCH   6   7
ENDBRANCH   5   6
ENDBRANCH   4   5
ENDBRANCH   3   4
ENDBRANCH   2   3
ENDBRANCH   1   2
BRANCH   1  10
ATOM     10  C   UNL     1     -44.205  29.882   4.169  1.00  0.00     0.000 C 
BRANCH  10  11
ATOM     11  C   UNL     1     -45.490  29.038   4.160  1.00  0.00    -0.000 C 
BRANCH  11  12
ATOM     12  C   UNL     1     -45.260  27.599   4.647  1.00  0.00    -0.000 C 
BRANCH  12  13
ATOM     13  C   UNL     1     -46.022  27.333   5.952  1.00  0.00    -0.000 C 
BRANCH  13  14
ATOM     14  C   UNL     1     -45.076  27.377   7.160  1.00  0.00    -0.000 C 
BRANCH  14  15
ATOM     15  C   UNL     1     -43.611  27.083   6.787  1.00  0.00    -0.000 C 
BRANCH  15  16
ATOM     16  C   UNL     1     -42.611  28.187   7.175  1.00  0.00    -0.003 C 
ATOM     17  C   UNL     1     -43.246  29.304   8.003  1.00  0.00     0.004 C 
ENDBRANCH  15  16
ENDBRANCH  14  15
ENDBRANCH  13  14
ENDBRANCH  12  13
ENDBRANCH  11  12
ENDBRANCH  10  11
ENDBRANCH   1  10
TORSDOF 13
ENDMDL
