MODEL 1
REMARK VINA RESULT:    -1.748      0.000      0.000
REMARK INTER + INTRA:         -10.803
REMARK INTER:                  -4.609
REMARK INTRA:                  -6.194
REMARK UNBOUND:                -6.194
REMARK SMILES CCCCCCCCCCCCCCCCCCCCCCCCCCCCCC(=O)[O-]
REMARK SMILES IDX 16 1 17 2 18 3 19 4 20 5 21 6 22 7 23 8 24 9 25 10 26 11
REMARK SMILES IDX 27 12 28 13 29 14 30 15 31 16 32 17 15 18 14 19 13 20 12 21
REMARK SMILES IDX 11 22 10 23 9 24 8 25 7 26 6 27 5 28 4 29 3 30 2 31 1 32
REMARK H PARENT
REMARK Flexibility Score: inf
ROOT
ATOM      1  C   UNL     1     116.221  12.832  24.570  1.00  0.00     0.000 C 
ENDROOT
BRANCH   1   2
ATOM      2  C   UNL     1     114.770  13.207  24.925  1.00  0.00     0.000 C 
BRANCH   2   3
ATOM      3  C   UNL     1     114.476  13.262  26.436  1.00  0.00     0.000 C 
BRANCH   3   4
ATOM      4  C   UNL     1     115.647  12.840  27.347  1.00  0.00     0.000 C 
BRANCH   4   5
ATOM      5  C   UNL     1     115.650  13.480  28.748  1.00  0.00     0.000 C 
BRANCH   5   6
ATOM      6  C   UNL     1     117.007  14.094  29.125  1.00  0.00     0.000 C 
BRANCH   6   7
ATOM      7  C   UNL     1     117.088  15.558  28.672  1.00  0.00     0.000 C 
BRANCH   7   8
ATOM      8  C   UNL     1     118.070  15.769  27.505  1.00  0.00     0.000 C 
BRANCH   8   9
ATOM      9  C   UNL     1     117.415  15.968  26.122  1.00  0.00     0.000 C 
BRANCH   9  10
ATOM     10  C   UNL     1     116.016  16.613  26.139  1.00  0.00     0.000 C 
BRANCH  10  11
ATOM     11  C   UNL     1     115.383  16.853  24.751  1.00  0.00     0.000 C 
BRANCH  11  12
ATOM     12  C   UNL     1     116.233  16.324  23.578  1.00  0.00     0.000 C 
BRANCH  12  13
ATOM     13  C   UNL     1     115.515  16.385  22.211  1.00  0.00     0.006 C 
BRANCH  13  14
ATOM     14  C   UNL     1     114.050  16.812  22.364  1.00  0.00     0.053 C 
BRANCH  14  15
ATOM     15  C   UNL     1     113.131  15.702  21.964  1.00  0.00     0.041 C 
ATOM     16  O   UNL     1     112.639  14.938  22.834  1.00  0.00    -0.550 OA
ATOM     17  O   UNL     1     112.837  15.496  20.621  1.00  0.00    -0.550 OA
ENDBRANCH  14  15
ENDBRANCH  13  14
ENDBRANCH  12  13
ENDBRANCH  11  12
ENDBRANCH  10  11
ENDBRANCH   9  10
ENDBRANCH   8   9
ENDBRANCH   7   8
ENDBRANCH   6   7
ENDBRANCH   5   6
ENDBRANCH   4   5
ENDBRANCH   3   4
ENDBRANCH   2   3
ENDBRANCH   1   2
BRANCH   1  18
ATOM     18  C   UNL     1     116.378  12.239  23.151  1.00  0.00     0.000 C 
BRANCH  18  19
ATOM     19  C   UNL     1     115.268  12.656  22.165  1.00  0.00     0.000 C 
BRANCH  19  20
ATOM     20  C   UNL     1     115.673  12.651  20.677  1.00  0.00     0.000 C 
BRANCH  20  21
ATOM     21  C   UNL     1     117.019  11.969  20.351  1.00  0.00     0.000 C 
BRANCH  21  22
ATOM     22  C   UNL     1     118.051  12.895  19.672  1.00  0.00     0.000 C 
BRANCH  22  23
ATOM     23  C   UNL     1     117.817  14.381  19.990  1.00  0.00     0.000 C 
BRANCH  23  24
ATOM     24  C   UNL     1     118.653  14.863  21.188  1.00  0.00    -0.000 C 
BRANCH  24  25
ATOM     25  C   UNL     1     119.990  15.489  20.753  1.00  0.00    -0.000 C 
BRANCH  25  26
ATOM     26  C   UNL     1     120.644  16.306  21.888  1.00  0.00    -0.000 C 
BRANCH  26  27
ATOM     27  C   UNL     1     119.813  16.331  23.184  1.00  0.00    -0.000 C 
BRANCH  27  28
ATOM     28  C   UNL     1     120.649  16.707  24.419  1.00  0.00    -0.000 C 
BRANCH  28  29
ATOM     29  C   UNL     1     120.362  18.147  24.905  1.00  0.00    -0.000 C 
BRANCH  29  30
ATOM     30  C   UNL     1     119.220  18.843  24.140  1.00  0.00    -0.000 C 
BRANCH  30  31
ATOM     31  C   UNL     1     118.116  19.436  25.033  1.00  0.00    -0.003 C 
ATOM     32  C   UNL     1     118.511  19.487  26.509  1.00  0.00     0.004 C 
ENDBRANCH  30  31
ENDBRANCH  29  30
ENDBRANCH  28  29
ENDBRANCH  27  28
ENDBRANCH  26  27
ENDBRANCH  25  26
ENDBRANCH  24  25
ENDBRANCH  23  24
ENDBRANCH  22  23
ENDBRANCH  21  22
ENDBRANCH  20  21
ENDBRANCH  19  20
ENDBRANCH  18  19
ENDBRANCH   1  18
TORSDOF 28
ENDMDL
MODEL 2
REMARK VINA RESULT:    -1.556      2.087      6.762
REMARK INTER + INTRA:         -10.297
REMARK INTER:                  -3.748
REMARK INTRA:                  -6.550
REMARK UNBOUND:                -6.194
REMARK SMILES CCCCCCCCCCCCCCCCCCCCCCCCCCCCCC(=O)[O-]
REMARK SMILES IDX 16 1 17 2 18 3 19 4 20 5 21 6 22 7 23 8 24 9 25 10 26 11
REMARK SMILES IDX 27 12 28 13 29 14 30 15 31 16 32 17 15 18 14 19 13 20 12 21
REMARK SMILES IDX 11 22 10 23 9 24 8 25 7 26 6 27 5 28 4 29 3 30 2 31 1 32
REMARK H PARENT
REMARK Flexibility Score: inf
ROOT
ATOM      1  C   UNL     1     115.664  17.507  24.126  1.00  0.00     0.000 C 
ENDROOT
BRANCH   1   2
ATOM      2  C   UNL     1     115.835  16.141  24.815  1.00  0.00     0.000 C 
BRANCH   2   3
ATOM      3  C   UNL     1     117.286  15.627  24.864  1.00  0.00     0.000 C 
BRANCH   3   4
ATOM      4  C   UNL     1     118.108  16.099  26.081  1.00  0.00     0.000 C 
BRANCH   4   5
ATOM      5  C   UNL     1     119.311  17.000  25.749  1.00  0.00     0.000 C 
BRANCH   5   6
ATOM      6  C   UNL     1     118.992  18.498  25.871  1.00  0.00     0.000 C 
BRANCH   6   7
ATOM      7  C   UNL     1     119.551  19.276  24.672  1.00  0.00     0.000 C 
BRANCH   7   8
ATOM      8  C   UNL     1     118.711  19.090  23.396  1.00  0.00     0.000 C 
BRANCH   8   9
ATOM      9  C   UNL     1     119.369  18.236  22.292  1.00  0.00     0.000 C 
BRANCH   9  10
ATOM     10  C   UNL     1     118.496  17.100  21.725  1.00  0.00     0.000 C 
BRANCH  10  11
ATOM     11  C   UNL     1     119.172  15.712  21.671  1.00  0.00     0.000 C 
BRANCH  11  12
ATOM     12  C   UNL     1     120.459  15.678  20.820  1.00  0.00     0.000 C 
BRANCH  12  13
ATOM     13  C   UNL     1     120.302  14.918  19.484  1.00  0.00     0.006 C 
BRANCH  13  14
ATOM     14  C   UNL     1     119.028  14.065  19.468  1.00  0.00     0.053 C 
BRANCH  14  15
ATOM     15  C   UNL     1     118.100  14.521  18.388  1.00  0.00     0.041 C 
ATOM     16  O   UNL     1     117.735  15.723  18.329  1.00  0.00    -0.550 OA
ATOM     17  O   UNL     1     117.618  13.608  17.457  1.00  0.00    -0.550 OA
ENDBRANCH  14  15
ENDBRANCH  13  14
ENDBRANCH  12  13
ENDBRANCH  11  12
ENDBRANCH  10  11
ENDBRANCH   9  10
ENDBRANCH   8   9
ENDBRANCH   7   8
ENDBRANCH   6   7
ENDBRANCH   5   6
ENDBRANCH   4   5
ENDBRANCH   3   4
ENDBRANCH   2   3
ENDBRANCH   1   2
BRANCH   1  18
ATOM     18  C   UNL     1     115.249  18.641  25.092  1.00  0.00     0.000 C 
BRANCH  18  19
ATOM     19  C   UNL     1     114.866  18.158  26.506  1.00  0.00     0.000 C 
BRANCH  19  20
ATOM     20  C   UNL     1     115.814  18.611  27.635  1.00  0.00     0.000 C 
BRANCH  20  21
ATOM     21  C   UNL     1     115.897  17.674  28.858  1.00  0.00     0.000 C 
BRANCH  21  22
ATOM     22  C   UNL     1     115.135  16.341  28.688  1.00  0.00     0.000 C 
BRANCH  22  23
ATOM     23  C   UNL     1     116.012  15.112  28.984  1.00  0.00     0.000 C 
BRANCH  23  24
ATOM     24  C   UNL     1     115.792  13.978  27.968  1.00  0.00    -0.000 C 
BRANCH  24  25
ATOM     25  C   UNL     1     114.382  14.010  27.352  1.00  0.00    -0.000 C 
BRANCH  25  26
ATOM     26  C   UNL     1     114.218  12.970  26.224  1.00  0.00    -0.000 C 
BRANCH  26  27
ATOM     27  C   UNL     1     115.553  12.528  25.597  1.00  0.00    -0.000 C 
BRANCH  27  28
ATOM     28  C   UNL     1     115.387  11.971  24.173  1.00  0.00    -0.000 C 
BRANCH  28  29
ATOM     29  C   UNL     1     116.708  12.005  23.371  1.00  0.00    -0.000 C 
BRANCH  29  30
ATOM     30  C   UNL     1     116.689  12.995  22.190  1.00  0.00    -0.000 C 
BRANCH  30  31
ATOM     31  C   UNL     1     115.412  13.845  22.085  1.00  0.00    -0.003 C 
ATOM     32  C   UNL     1     115.526  14.963  21.048  1.00  0.00     0.004 C 
ENDBRANCH  30  31
ENDBRANCH  29  30
ENDBRANCH  28  29
ENDBRANCH  27  28
ENDBRANCH  26  27
ENDBRANCH  25  26
ENDBRANCH  24  25
ENDBRANCH  23  24
ENDBRANCH  22  23
ENDBRANCH  21  22
ENDBRANCH  20  21
ENDBRANCH  19  20
ENDBRANCH  18  19
ENDBRANCH   1  18
TORSDOF 28
ENDMDL
MODEL 3
REMARK VINA RESULT:    -1.554      1.999      3.193
REMARK INTER + INTRA:         -10.293
REMARK INTER:                  -4.034
REMARK INTRA:                  -6.259
REMARK UNBOUND:                -6.194
REMARK SMILES CCCCCCCCCCCCCCCCCCCCCCCCCCCCCC(=O)[O-]
REMARK SMILES IDX 16 1 17 2 18 3 19 4 20 5 21 6 22 7 23 8 24 9 25 10 26 11
REMARK SMILES IDX 27 12 28 13 29 14 30 15 31 16 32 17 15 18 14 19 13 20 12 21
REMARK SMILES IDX 11 22 10 23 9 24 8 25 7 26 6 27 5 28 4 29 3 30 2 31 1 32
REMARK H PARENT
REMARK Flexibility Score: inf
ROOT
ATOM      1  C   UNL     1     116.265  13.063  24.872  1.00  0.00     0.000 C 
ENDROOT
BRANCH   1   2
ATOM      2  C   UNL     1     115.063  12.583  25.706  1.00  0.00     0.000 C 
BRANCH   2   3
ATOM      3  C   UNL     1     115.222  12.776  27.226  1.00  0.00     0.000 C 
BRANCH   3   4
ATOM      4  C   UNL     1     116.256  13.841  27.646  1.00  0.00     0.000 C 
BRANCH   4   5
ATOM      5  C   UNL     1     115.726  14.929  28.597  1.00  0.00     0.000 C 
BRANCH   5   6
ATOM      6  C   UNL     1     116.787  15.980  28.959  1.00  0.00     0.000 C 
BRANCH   6   7
ATOM      7  C   UNL     1     118.162  15.581  28.405  1.00  0.00     0.000 C 
BRANCH   7   8
ATOM      8  C   UNL     1     118.808  16.688  27.554  1.00  0.00     0.000 C 
BRANCH   8   9
ATOM      9  C   UNL     1     118.840  16.416  26.035  1.00  0.00     0.000 C 
BRANCH   9  10
ATOM     10  C   UNL     1     117.477  16.500  25.320  1.00  0.00     0.000 C 
BRANCH  10  11
ATOM     11  C   UNL     1     116.680  17.799  25.568  1.00  0.00     0.000 C 
BRANCH  11  12
ATOM     12  C   UNL     1     115.179  17.568  25.844  1.00  0.00     0.000 C 
BRANCH  12  13
ATOM     13  C   UNL     1     114.644  16.230  25.287  1.00  0.00     0.006 C 
BRANCH  13  14
ATOM     14  C   UNL     1     114.249  16.352  23.810  1.00  0.00     0.053 C 
BRANCH  14  15
ATOM     15  C   UNL     1     113.501  15.138  23.361  1.00  0.00     0.041 C 
ATOM     16  O   UNL     1     113.730  14.631  22.233  1.00  0.00    -0.550 OA
ATOM     17  O   UNL     1     112.529  14.579  24.183  1.00  0.00    -0.550 OA
ENDBRANCH  14  15
ENDBRANCH  13  14
ENDBRANCH  12  13
ENDBRANCH  11  12
ENDBRANCH  10  11
ENDBRANCH   9  10
ENDBRANCH   8   9
ENDBRANCH   7   8
ENDBRANCH   6   7
ENDBRANCH   5   6
ENDBRANCH   4   5
ENDBRANCH   3   4
ENDBRANCH   2   3
ENDBRANCH   1   2
BRANCH   1  18
ATOM     18  C   UNL     1     116.617  12.123  23.696  1.00  0.00     0.000 C 
BRANCH  18  19
ATOM     19  C   UNL     1     116.971  12.854  22.385  1.00  0.00     0.000 C 
BRANCH  19  20
ATOM     20  C   UNL     1     117.259  14.361  22.529  1.00  0.00     0.000 C 
BRANCH  20  21
ATOM     21  C   UNL     1     118.340  14.931  21.585  1.00  0.00     0.000 C 
BRANCH  21  22
ATOM     22  C   UNL     1     119.468  15.701  22.305  1.00  0.00     0.000 C 
BRANCH  22  23
ATOM     23  C   UNL     1     119.686  17.112  21.731  1.00  0.00     0.000 C 
BRANCH  23  24
ATOM     24  C   UNL     1     119.646  18.198  22.819  1.00  0.00    -0.000 C 
BRANCH  24  25
ATOM     25  C   UNL     1     118.465  19.167  22.635  1.00  0.00    -0.000 C 
BRANCH  25  26
ATOM     26  C   UNL     1     117.360  18.571  21.737  1.00  0.00    -0.000 C 
BRANCH  26  27
ATOM     27  C   UNL     1     115.947  19.071  22.088  1.00  0.00    -0.000 C 
BRANCH  27  28
ATOM     28  C   UNL     1     115.962  20.296  23.017  1.00  0.00    -0.000 C 
BRANCH  28  29
ATOM     29  C   UNL     1     114.582  20.562  23.662  1.00  0.00    -0.000 C 
BRANCH  29  30
ATOM     30  C   UNL     1     114.602  21.671  24.731  1.00  0.00    -0.000 C 
BRANCH  30  31
ATOM     31  C   UNL     1     114.265  21.197  26.155  1.00  0.00    -0.003 C 
ATOM     32  C   UNL     1     115.494  21.118  27.061  1.00  0.00     0.004 C 
ENDBRANCH  30  31
ENDBRANCH  29  30
ENDBRANCH  28  29
ENDBRANCH  27  28
ENDBRANCH  26  27
ENDBRANCH  25  26
ENDBRANCH  24  25
ENDBRANCH  23  24
ENDBRANCH  22  23
ENDBRANCH  21  22
ENDBRANCH  20  21
ENDBRANCH  19  20
ENDBRANCH  18  19
ENDBRANCH   1  18
TORSDOF 28
ENDMDL
MODEL 4
REMARK VINA RESULT:    -1.543      1.857      4.335
REMARK INTER + INTRA:         -10.263
REMARK INTER:                  -3.425
REMARK INTRA:                  -6.837
REMARK UNBOUND:                -6.194
REMARK SMILES CCCCCCCCCCCCCCCCCCCCCCCCCCCCCC(=O)[O-]
REMARK SMILES IDX 16 1 17 2 18 3 19 4 20 5 21 6 22 7 23 8 24 9 25 10 26 11
REMARK SMILES IDX 27 12 28 13 29 14 30 15 31 16 32 17 15 18 14 19 13 20 12 21
REMARK SMILES IDX 11 22 10 23 9 24 8 25 7 26 6 27 5 28 4 29 3 30 2 31 1 32
REMARK H PARENT
REMARK Flexibility Score: inf
ROOT
ATOM      1  C   UNL     1     117.372  13.288  22.004  1.00  0.00     0.000 C 
ENDROOT
BRANCH   1   2
ATOM      2  C   UNL     1     115.948  12.701  21.977  1.00  0.00     0.000 C 
BRANCH   2   3
ATOM      3  C   UNL     1     115.468  12.126  23.322  1.00  0.00     0.000 C 
BRANCH   3   4
ATOM      4  C   UNL     1     116.202  12.670  24.566  1.00  0.00     0.000 C 
BRANCH   4   5
ATOM      5  C   UNL     1     115.326  12.841  25.820  1.00  0.00     0.000 C 
BRANCH   5   6
ATOM      6  C   UNL     1     115.815  13.965  26.747  1.00  0.00     0.000 C 
BRANCH   6   7
ATOM      7  C   UNL     1     116.904  14.802  26.061  1.00  0.00     0.000 C 
BRANCH   7   8
ATOM      8  C   UNL     1     116.626  16.314  26.129  1.00  0.00     0.000 C 
BRANCH   8   9
ATOM      9  C   UNL     1     115.259  16.758  25.565  1.00  0.00     0.000 C 
BRANCH   9  10
ATOM     10  C   UNL     1     115.157  16.790  24.028  1.00  0.00     0.000 C 
BRANCH  10  11
ATOM     11  C   UNL     1     114.225  15.726  23.406  1.00  0.00     0.000 C 
BRANCH  11  12
ATOM     12  C   UNL     1     113.018  15.359  24.295  1.00  0.00     0.000 C 
BRANCH  12  13
ATOM     13  C   UNL     1     112.321  14.043  23.884  1.00  0.00     0.006 C 
BRANCH  13  14
ATOM     14  C   UNL     1     112.313  13.862  22.361  1.00  0.00     0.053 C 
BRANCH  14  15
ATOM     15  C   UNL     1     111.148  14.573  21.750  1.00  0.00     0.041 C 
ATOM     16  O   UNL     1     111.325  15.406  20.825  1.00  0.00    -0.550 OA
ATOM     17  O   UNL     1     109.863  14.331  22.222  1.00  0.00    -0.550 OA
ENDBRANCH  14  15
ENDBRANCH  13  14
ENDBRANCH  12  13
ENDBRANCH  11  12
ENDBRANCH  10  11
ENDBRANCH   9  10
ENDBRANCH   8   9
ENDBRANCH   7   8
ENDBRANCH   6   7
ENDBRANCH   5   6
ENDBRANCH   4   5
ENDBRANCH   3   4
ENDBRANCH   2   3
ENDBRANCH   1   2
BRANCH   1  18
ATOM     18  C   UNL     1     117.418  14.813  21.757  1.00  0.00     0.000 C 
BRANCH  18  19
ATOM     19  C   UNL     1     118.334  15.585  22.728  1.00  0.00     0.000 C 
BRANCH  19  20
ATOM     20  C   UNL     1     119.745  15.901  22.192  1.00  0.00     0.000 C 
BRANCH  20  21
ATOM     21  C   UNL     1     120.772  16.372  23.243  1.00  0.00     0.000 C 
BRANCH  21  22
ATOM     22  C   UNL     1     120.154  16.755  24.606  1.00  0.00     0.000 C 
BRANCH  22  23
ATOM     23  C   UNL     1     120.283  18.256  24.917  1.00  0.00     0.000 C 
BRANCH  23  24
ATOM     24  C   UNL     1     118.921  18.912  25.205  1.00  0.00    -0.000 C 
BRANCH  24  25
ATOM     25  C   UNL     1     118.078  19.094  23.931  1.00  0.00    -0.000 C 
BRANCH  25  26
ATOM     26  C   UNL     1     118.909  19.664  22.762  1.00  0.00    -0.000 C 
BRANCH  26  27
ATOM     27  C   UNL     1     118.335  19.320  21.376  1.00  0.00    -0.000 C 
BRANCH  27  28
ATOM     28  C   UNL     1     116.971  18.615  21.454  1.00  0.00    -0.000 C 
BRANCH  28  29
ATOM     29  C   UNL     1     115.822  19.499  20.917  1.00  0.00    -0.000 C 
BRANCH  29  30
ATOM     30  C   UNL     1     114.938  20.105  22.024  1.00  0.00    -0.000 C 
BRANCH  30  31
ATOM     31  C   UNL     1     113.542  19.470  22.152  1.00  0.00    -0.003 C 
ATOM     32  C   UNL     1     113.241  18.469  21.036  1.00  0.00     0.004 C 
ENDBRANCH  30  31
ENDBRANCH  29  30
ENDBRANCH  28  29
ENDBRANCH  27  28
ENDBRANCH  26  27
ENDBRANCH  25  26
ENDBRANCH  24  25
ENDBRANCH  23  24
ENDBRANCH  22  23
ENDBRANCH  21  22
ENDBRANCH  20  21
ENDBRANCH  19  20
ENDBRANCH  18  19
ENDBRANCH   1  18
TORSDOF 28
ENDMDL
MODEL 5
REMARK VINA RESULT:    -1.516      2.000      3.927
REMARK INTER + INTRA:         -10.191
REMARK INTER:                  -3.519
REMARK INTRA:                  -6.672
REMARK UNBOUND:                -6.194
REMARK SMILES CCCCCCCCCCCCCCCCCCCCCCCCCCCCCC(=O)[O-]
REMARK SMILES IDX 16 1 17 2 18 3 19 4 20 5 21 6 22 7 23 8 24 9 25 10 26 11
REMARK SMILES IDX 27 12 28 13 29 14 30 15 31 16 32 17 15 18 14 19 13 20 12 21
REMARK SMILES IDX 11 22 10 23 9 24 8 25 7 26 6 27 5 28 4 29 3 30 2 31 1 32
REMARK H PARENT
REMARK Flexibility Score: inf
ROOT
ATOM      1  C   UNL     1     114.691  14.078  26.307  1.00  0.00     0.000 C 
ENDROOT
BRANCH   1   2
ATOM      2  C   UNL     1     115.417  14.800  27.457  1.00  0.00     0.000 C 
BRANCH   2   3
ATOM      3  C   UNL     1     116.939  14.571  27.496  1.00  0.00     0.000 C 
BRANCH   3   4
ATOM      4  C   UNL     1     117.714  15.484  28.468  1.00  0.00     0.000 C 
BRANCH   4   5
ATOM      5  C   UNL     1     118.798  16.363  27.817  1.00  0.00     0.000 C 
BRANCH   5   6
ATOM      6  C   UNL     1     118.721  16.373  26.283  1.00  0.00     0.000 C 
BRANCH   6   7
ATOM      7  C   UNL     1     118.613  17.810  25.751  1.00  0.00     0.000 C 
BRANCH   7   8
ATOM      8  C   UNL     1     117.157  18.272  25.569  1.00  0.00     0.000 C 
BRANCH   8   9
ATOM      9  C   UNL     1     116.214  17.238  24.918  1.00  0.00     0.000 C 
BRANCH   9  10
ATOM     10  C   UNL     1     114.712  17.573  24.993  1.00  0.00     0.000 C 
BRANCH  10  11
ATOM     11  C   UNL     1     113.868  17.092  23.792  1.00  0.00     0.000 C 
BRANCH  11  12
ATOM     12  C   UNL     1     114.571  16.032  22.920  1.00  0.00     0.000 C 
BRANCH  12  13
ATOM     13  C   UNL     1     113.654  14.861  22.503  1.00  0.00     0.006 C 
BRANCH  13  14
ATOM     14  C   UNL     1     112.461  14.714  23.455  1.00  0.00     0.053 C 
BRANCH  14  15
ATOM     15  C   UNL     1     111.898  13.330  23.387  1.00  0.00     0.041 C 
ATOM     16  O   UNL     1     111.309  12.934  22.349  1.00  0.00    -0.550 OA
ATOM     17  O   UNL     1     112.005  12.483  24.484  1.00  0.00    -0.550 OA
ENDBRANCH  14  15
ENDBRANCH  13  14
ENDBRANCH  12  13
ENDBRANCH  11  12
ENDBRANCH  10  11
ENDBRANCH   9  10
ENDBRANCH   8   9
ENDBRANCH   7   8
ENDBRANCH   6   7
ENDBRANCH   5   6
ENDBRANCH   4   5
ENDBRANCH   3   4
ENDBRANCH   2   3
ENDBRANCH   1   2
BRANCH   1  18
ATOM     18  C   UNL     1     115.183  12.631  26.076  1.00  0.00     0.000 C 
BRANCH  18  19
ATOM     19  C   UNL     1     115.540  12.309  24.611  1.00  0.00     0.000 C 
BRANCH  19  20
ATOM     20  C   UNL     1     116.611  13.220  23.979  1.00  0.00     0.000 C 
BRANCH  20  21
ATOM     21  C   UNL     1     116.941  12.940  22.497  1.00  0.00     0.000 C 
BRANCH  21  22
ATOM     22  C   UNL     1     117.641  14.110  21.771  1.00  0.00     0.000 C 
BRANCH  22  23
ATOM     23  C   UNL     1     118.170  15.181  22.741  1.00  0.00     0.000 C 
BRANCH  23  24
ATOM     24  C   UNL     1     119.366  15.955  22.162  1.00  0.00    -0.000 C 
BRANCH  24  25
ATOM     25  C   UNL     1     118.926  17.132  21.273  1.00  0.00    -0.000 C 
BRANCH  25  26
ATOM     26  C   UNL     1     118.353  18.302  22.101  1.00  0.00    -0.000 C 
BRANCH  26  27
ATOM     27  C   UNL     1     117.496  19.277  21.275  1.00  0.00    -0.000 C 
BRANCH  27  28
ATOM     28  C   UNL     1     116.035  19.335  21.751  1.00  0.00    -0.000 C 
BRANCH  28  29
ATOM     29  C   UNL     1     115.044  19.542  20.582  1.00  0.00    -0.000 C 
BRANCH  29  30
ATOM     30  C   UNL     1     114.253  18.273  20.209  1.00  0.00    -0.000 C 
BRANCH  30  31
ATOM     31  C   UNL     1     114.823  17.490  19.013  1.00  0.00    -0.003 C 
ATOM     32  C   UNL     1     115.768  16.365  19.436  1.00  0.00     0.004 C 
ENDBRANCH  30  31
ENDBRANCH  29  30
ENDBRANCH  28  29
ENDBRANCH  27  28
ENDBRANCH  26  27
ENDBRANCH  25  26
ENDBRANCH  24  25
ENDBRANCH  23  24
ENDBRANCH  22  23
ENDBRANCH  21  22
ENDBRANCH  20  21
ENDBRANCH  19  20
ENDBRANCH  18  19
ENDBRANCH   1  18
TORSDOF 28
ENDMDL
MODEL 6
REMARK VINA RESULT:    -1.505      1.570      5.311
REMARK INTER + INTRA:         -10.163
REMARK INTER:                  -3.984
REMARK INTRA:                  -6.179
REMARK UNBOUND:                -6.194
REMARK SMILES CCCCCCCCCCCCCCCCCCCCCCCCCCCCCC(=O)[O-]
REMARK SMILES IDX 16 1 17 2 18 3 19 4 20 5 21 6 22 7 23 8 24 9 25 10 26 11
REMARK SMILES IDX 27 12 28 13 29 14 30 15 31 16 32 17 15 18 14 19 13 20 12 21
REMARK SMILES IDX 11 22 10 23 9 24 8 25 7 26 6 27 5 28 4 29 3 30 2 31 1 32
REMARK H PARENT
REMARK Flexibility Score: inf
ROOT
ATOM      1  C   UNL     1     117.824  18.540  24.292  1.00  0.00     0.000 C 
ENDROOT
BRANCH   1   2
ATOM      2  C   UNL     1     116.551  19.403  24.379  1.00  0.00     0.000 C 
BRANCH   2   3
ATOM      3  C   UNL     1     115.556  18.966  25.470  1.00  0.00     0.000 C 
BRANCH   3   4
ATOM      4  C   UNL     1     115.902  17.640  26.179  1.00  0.00     0.000 C 
BRANCH   4   5
ATOM      5  C   UNL     1     116.348  17.780  27.646  1.00  0.00     0.000 C 
BRANCH   5   6
ATOM      6  C   UNL     1     117.594  16.945  27.978  1.00  0.00     0.000 C 
BRANCH   6   7
ATOM      7  C   UNL     1     117.558  15.596  27.245  1.00  0.00     0.000 C 
BRANCH   7   8
ATOM      8  C   UNL     1     117.017  14.453  28.122  1.00  0.00     0.000 C 
BRANCH   8   9
ATOM      9  C   UNL     1     115.910  13.594  27.474  1.00  0.00     0.000 C 
BRANCH   9  10
ATOM     10  C   UNL     1     115.503  14.007  26.047  1.00  0.00     0.000 C 
BRANCH  10  11
ATOM     11  C   UNL     1     114.063  13.628  25.635  1.00  0.00     0.000 C 
BRANCH  11  12
ATOM     12  C   UNL     1     113.633  14.203  24.270  1.00  0.00     0.000 C 
BRANCH  12  13
ATOM     13  C   UNL     1     113.910  15.715  24.116  1.00  0.00     0.006 C 
BRANCH  13  14
ATOM     14  C   UNL     1     112.796  16.414  23.327  1.00  0.00     0.053 C 
BRANCH  14  15
ATOM     15  C   UNL     1     113.262  17.741  22.820  1.00  0.00     0.041 C 
ATOM     16  O   UNL     1     114.175  17.808  21.957  1.00  0.00    -0.550 OA
ATOM     17  O   UNL     1     112.700  18.911  23.320  1.00  0.00    -0.550 OA
ENDBRANCH  14  15
ENDBRANCH  13  14
ENDBRANCH  12  13
ENDBRANCH  11  12
ENDBRANCH  10  11
ENDBRANCH   9  10
ENDBRANCH   8   9
ENDBRANCH   7   8
ENDBRANCH   6   7
ENDBRANCH   5   6
ENDBRANCH   4   5
ENDBRANCH   3   4
ENDBRANCH   2   3
ENDBRANCH   1   2
BRANCH   1  18
ATOM     18  C   UNL     1     119.052  19.178  24.982  1.00  0.00     0.000 C 
BRANCH  18  19
ATOM     19  C   UNL     1     120.107  18.162  25.462  1.00  0.00     0.000 C 
BRANCH  19  20
ATOM     20  C   UNL     1     119.998  16.756  24.840  1.00  0.00     0.000 C 
BRANCH  20  21
ATOM     21  C   UNL     1     121.125  16.367  23.859  1.00  0.00     0.000 C 
BRANCH  21  22
ATOM     22  C   UNL     1     120.795  16.637  22.375  1.00  0.00     0.000 C 
BRANCH  22  23
ATOM     23  C   UNL     1     119.688  15.715  21.834  1.00  0.00     0.000 C 
BRANCH  23  24
ATOM     24  C   UNL     1     118.460  16.501  21.342  1.00  0.00    -0.000 C 
BRANCH  24  25
ATOM     25  C   UNL     1     117.140  15.914  21.870  1.00  0.00    -0.000 C 
BRANCH  25  26
ATOM     26  C   UNL     1     117.370  14.907  23.017  1.00  0.00    -0.000 C 
BRANCH  26  27
ATOM     27  C   UNL     1     116.917  13.475  22.678  1.00  0.00    -0.000 C 
BRANCH  27  28
ATOM     28  C   UNL     1     115.985  13.419  21.456  1.00  0.00    -0.000 C 
BRANCH  28  29
ATOM     29  C   UNL     1     116.325  12.243  20.512  1.00  0.00    -0.000 C 
BRANCH  29  30
ATOM     30  C   UNL     1     117.762  12.289  19.957  1.00  0.00    -0.000 C 
BRANCH  30  31
ATOM     31  C   UNL     1     118.092  13.544  19.130  1.00  0.00    -0.003 C 
ATOM     32  C   UNL     1     119.567  13.626  18.738  1.00  0.00     0.004 C 
ENDBRANCH  30  31
ENDBRANCH  29  30
ENDBRANCH  28  29
ENDBRANCH  27  28
ENDBRANCH  26  27
ENDBRANCH  25  26
ENDBRANCH  24  25
ENDBRANCH  23  24
ENDBRANCH  22  23
ENDBRANCH  21  22
ENDBRANCH  20  21
ENDBRANCH  19  20
ENDBRANCH  18  19
ENDBRANCH   1  18
TORSDOF 28
ENDMDL
MODEL 7
REMARK VINA RESULT:    -1.490      1.761      5.181
REMARK INTER + INTRA:         -10.123
REMARK INTER:                  -3.523
REMARK INTRA:                  -6.600
REMARK UNBOUND:                -6.194
REMARK SMILES CCCCCCCCCCCCCCCCCCCCCCCCCCCCCC(=O)[O-]
REMARK SMILES IDX 16 1 17 2 18 3 19 4 20 5 21 6 22 7 23 8 24 9 25 10 26 11
REMARK SMILES IDX 27 12 28 13 29 14 30 15 31 16 32 17 15 18 14 19 13 20 12 21
REMARK SMILES IDX 11 22 10 23 9 24 8 25 7 26 6 27 5 28 4 29 3 30 2 31 1 32
REMARK H PARENT
REMARK Flexibility Score: inf
ROOT
ATOM      1  C   UNL     1     114.446  16.670  25.946  1.00  0.00     0.000 C 
ENDROOT
BRANCH   1   2
ATOM      2  C   UNL     1     113.301  15.661  25.735  1.00  0.00     0.000 C 
BRANCH   2   3
ATOM      3  C   UNL     1     113.648  14.489  24.798  1.00  0.00     0.000 C 
BRANCH   3   4
ATOM      4  C   UNL     1     113.624  13.094  25.457  1.00  0.00     0.000 C 
BRANCH   4   5
ATOM      5  C   UNL     1     115.007  12.483  25.746  1.00  0.00     0.000 C 
BRANCH   5   6
ATOM      6  C   UNL     1     116.103  13.006  24.805  1.00  0.00     0.000 C 
BRANCH   6   7
ATOM      7  C   UNL     1     116.650  11.875  23.922  1.00  0.00     0.000 C 
BRANCH   7   8
ATOM      8  C   UNL     1     116.805  12.290  22.448  1.00  0.00     0.000 C 
BRANCH   8   9
ATOM      9  C   UNL     1     115.728  13.261  21.921  1.00  0.00     0.000 C 
BRANCH   9  10
ATOM     10  C   UNL     1     114.393  12.609  21.512  1.00  0.00     0.000 C 
BRANCH  10  11
ATOM     11  C   UNL     1     113.256  13.595  21.165  1.00  0.00     0.000 C 
BRANCH  11  12
ATOM     12  C   UNL     1     113.695  15.074  21.150  1.00  0.00     0.000 C 
BRANCH  12  13
ATOM     13  C   UNL     1     112.529  16.068  20.955  1.00  0.00     0.006 C 
BRANCH  13  14
ATOM     14  C   UNL     1     111.834  16.388  22.284  1.00  0.00     0.053 C 
BRANCH  14  15
ATOM     15  C   UNL     1     112.034  17.824  22.651  1.00  0.00     0.041 C 
ATOM     16  O   UNL     1     111.067  18.628  22.624  1.00  0.00    -0.550 OA
ATOM     17  O   UNL     1     113.299  18.281  23.003  1.00  0.00    -0.550 OA
ENDBRANCH  14  15
ENDBRANCH  13  14
ENDBRANCH  12  13
ENDBRANCH  11  12
ENDBRANCH  10  11
ENDBRANCH   9  10
ENDBRANCH   8   9
ENDBRANCH   7   8
ENDBRANCH   6   7
ENDBRANCH   5   6
ENDBRANCH   4   5
ENDBRANCH   3   4
ENDBRANCH   2   3
ENDBRANCH   1   2
BRANCH   1  18
ATOM     18  C   UNL     1     114.946  16.741  27.407  1.00  0.00     0.000 C 
BRANCH  18  19
ATOM     19  C   UNL     1     115.272  15.369  28.032  1.00  0.00     0.000 C 
BRANCH  19  20
ATOM     20  C   UNL     1     116.773  15.043  28.157  1.00  0.00     0.000 C 
BRANCH  20  21
ATOM     21  C   UNL     1     117.664  15.528  26.993  1.00  0.00     0.000 C 
BRANCH  21  22
ATOM     22  C   UNL     1     118.872  16.384  27.433  1.00  0.00     0.000 C 
BRANCH  22  23
ATOM     23  C   UNL     1     118.621  17.893  27.276  1.00  0.00     0.000 C 
BRANCH  23  24
ATOM     24  C   UNL     1     119.561  18.538  26.242  1.00  0.00    -0.000 C 
BRANCH  24  25
ATOM     25  C   UNL     1     118.793  19.156  25.060  1.00  0.00    -0.000 C 
BRANCH  25  26
ATOM     26  C   UNL     1     117.279  18.869  25.138  1.00  0.00    -0.000 C 
BRANCH  26  27
ATOM     27  C   UNL     1     116.557  19.004  23.785  1.00  0.00    -0.000 C 
BRANCH  27  28
ATOM     28  C   UNL     1     116.998  17.939  22.767  1.00  0.00    -0.000 C 
BRANCH  28  29
ATOM     29  C   UNL     1     116.817  16.501  23.306  1.00  0.00    -0.000 C 
BRANCH  29  30
ATOM     30  C   UNL     1     118.131  15.700  23.386  1.00  0.00    -0.000 C 
BRANCH  30  31
ATOM     31  C   UNL     1     119.293  16.289  22.568  1.00  0.00    -0.003 C 
ATOM     32  C   UNL     1     120.595  16.378  23.364  1.00  0.00     0.004 C 
ENDBRANCH  30  31
ENDBRANCH  29  30
ENDBRANCH  28  29
ENDBRANCH  27  28
ENDBRANCH  26  27
ENDBRANCH  25  26
ENDBRANCH  24  25
ENDBRANCH  23  24
ENDBRANCH  22  23
ENDBRANCH  21  22
ENDBRANCH  20  21
ENDBRANCH  19  20
ENDBRANCH  18  19
ENDBRANCH   1  18
TORSDOF 28
ENDMDL
MODEL 8
REMARK VINA RESULT:    -1.483      2.822      6.348
REMARK INTER + INTRA:         -10.105
REMARK INTER:                  -3.122
REMARK INTRA:                  -6.983
REMARK UNBOUND:                -6.194
REMARK SMILES CCCCCCCCCCCCCCCCCCCCCCCCCCCCCC(=O)[O-]
REMARK SMILES IDX 16 1 17 2 18 3 19 4 20 5 21 6 22 7 23 8 24 9 25 10 26 11
REMARK SMILES IDX 27 12 28 13 29 14 30 15 31 16 32 17 15 18 14 19 13 20 12 21
REMARK SMILES IDX 11 22 10 23 9 24 8 25 7 26 6 27 5 28 4 29 3 30 2 31 1 32
REMARK H PARENT
REMARK Flexibility Score: inf
ROOT
ATOM      1  C   UNL     1     115.269  12.335  21.990  1.00  0.00     0.000 C 
ENDROOT
BRANCH   1   2
ATOM      2  C   UNL     1     116.657  12.106  21.365  1.00  0.00     0.000 C 
BRANCH   2   3
ATOM      3  C   UNL     1     117.334  13.380  20.825  1.00  0.00     0.000 C 
BRANCH   3   4
ATOM      4  C   UNL     1     116.509  14.675  20.980  1.00  0.00     0.000 C 
BRANCH   4   5
ATOM      5  C   UNL     1     117.141  15.750  21.883  1.00  0.00     0.000 C 
BRANCH   5   6
ATOM      6  C   UNL     1     118.374  15.243  22.647  1.00  0.00     0.000 C 
BRANCH   6   7
ATOM      7  C   UNL     1     119.482  16.305  22.660  1.00  0.00     0.000 C 
BRANCH   7   8
ATOM      8  C   UNL     1     119.934  16.679  24.083  1.00  0.00     0.000 C 
BRANCH   8   9
ATOM      9  C   UNL     1     118.898  16.410  25.195  1.00  0.00     0.000 C 
BRANCH   9  10
ATOM     10  C   UNL     1     118.103  17.643  25.670  1.00  0.00     0.000 C 
BRANCH  10  11
ATOM     11  C   UNL     1     116.875  18.009  24.807  1.00  0.00     0.000 C 
BRANCH  11  12
ATOM     12  C   UNL     1     116.917  19.444  24.241  1.00  0.00     0.000 C 
BRANCH  12  13
ATOM     13  C   UNL     1     116.537  19.534  22.747  1.00  0.00     0.006 C 
BRANCH  13  14
ATOM     14  C   UNL     1     117.768  19.401  21.844  1.00  0.00     0.053 C 
BRANCH  14  15
ATOM     15  C   UNL     1     118.833  20.366  22.257  1.00  0.00     0.041 C 
ATOM     16  O   UNL     1     119.947  19.948  22.665  1.00  0.00    -0.550 OA
ATOM     17  O   UNL     1     118.585  21.734  22.213  1.00  0.00    -0.550 OA
ENDBRANCH  14  15
ENDBRANCH  13  14
ENDBRANCH  12  13
ENDBRANCH  11  12
ENDBRANCH  10  11
ENDBRANCH   9  10
ENDBRANCH   8   9
ENDBRANCH   7   8
ENDBRANCH   6   7
ENDBRANCH   5   6
ENDBRANCH   4   5
ENDBRANCH   3   4
ENDBRANCH   2   3
ENDBRANCH   1   2
BRANCH   1  18
ATOM     18  C   UNL     1     115.217  12.042  23.507  1.00  0.00     0.000 C 
BRANCH  18  19
ATOM     19  C   UNL     1     116.478  12.481  24.280  1.00  0.00     0.000 C 
BRANCH  19  20
ATOM     20  C   UNL     1     116.251  13.573  25.345  1.00  0.00     0.000 C 
BRANCH  20  21
ATOM     21  C   UNL     1     115.503  13.122  26.618  1.00  0.00     0.000 C 
BRANCH  21  22
ATOM     22  C   UNL     1     114.809  14.269  27.385  1.00  0.00     0.000 C 
BRANCH  22  23
ATOM     23  C   UNL     1     115.098  15.652  26.776  1.00  0.00     0.000 C 
BRANCH  23  24
ATOM     24  C   UNL     1     114.494  16.796  27.609  1.00  0.00    -0.000 C 
BRANCH  24  25
ATOM     25  C   UNL     1     113.289  17.453  26.914  1.00  0.00    -0.000 C 
BRANCH  25  26
ATOM     26  C   UNL     1     113.647  18.827  26.309  1.00  0.00    -0.000 C 
BRANCH  26  27
ATOM     27  C   UNL     1     113.225  18.978  24.836  1.00  0.00    -0.000 C 
BRANCH  27  28
ATOM     28  C   UNL     1     112.715  17.662  24.225  1.00  0.00    -0.000 C 
BRANCH  28  29
ATOM     29  C   UNL     1     113.761  17.005  23.294  1.00  0.00    -0.000 C 
BRANCH  29  30
ATOM     30  C   UNL     1     113.754  15.464  23.348  1.00  0.00    -0.000 C 
BRANCH  30  31
ATOM     31  C   UNL     1     112.365  14.834  23.548  1.00  0.00    -0.003 C 
ATOM     32  C   UNL     1     112.282  13.968  24.805  1.00  0.00     0.004 C 
ENDBRANCH  30  31
ENDBRANCH  29  30
ENDBRANCH  28  29
ENDBRANCH  27  28
ENDBRANCH  26  27
ENDBRANCH  25  26
ENDBRANCH  24  25
ENDBRANCH  23  24
ENDBRANCH  22  23
ENDBRANCH  21  22
ENDBRANCH  20  21
ENDBRANCH  19  20
ENDBRANCH  18  19
ENDBRANCH   1  18
TORSDOF 28
ENDMDL
MODEL 9
REMARK VINA RESULT:    -1.474      2.582      6.408
REMARK INTER + INTRA:         -10.081
REMARK INTER:                  -3.519
REMARK INTRA:                  -6.562
REMARK UNBOUND:                -6.194
REMARK SMILES CCCCCCCCCCCCCCCCCCCCCCCCCCCCCC(=O)[O-]
REMARK SMILES IDX 16 1 17 2 18 3 19 4 20 5 21 6 22 7 23 8 24 9 25 10 26 11
REMARK SMILES IDX 27 12 28 13 29 14 30 15 31 16 32 17 15 18 14 19 13 20 12 21
REMARK SMILES IDX 11 22 10 23 9 24 8 25 7 26 6 27 5 28 4 29 3 30 2 31 1 32
REMARK H PARENT
REMARK Flexibility Score: inf
ROOT
ATOM      1  C   UNL     1     116.036  19.216  22.613  1.00  0.00     0.000 C 
ENDROOT
BRANCH   1   2
ATOM      2  C   UNL     1     114.888  19.016  21.605  1.00  0.00     0.000 C 
BRANCH   2   3
ATOM      3  C   UNL     1     115.232  18.094  20.421  1.00  0.00     0.000 C 
BRANCH   3   4
ATOM      4  C   UNL     1     115.041  16.587  20.687  1.00  0.00     0.000 C 
BRANCH   4   5
ATOM      5  C   UNL     1     113.646  16.185  21.201  1.00  0.00     0.000 C 
BRANCH   5   6
ATOM      6  C   UNL     1     113.700  15.303  22.458  1.00  0.00     0.000 C 
BRANCH   6   7
ATOM      7  C   UNL     1     114.830  15.755  23.394  1.00  0.00     0.000 C 
BRANCH   7   8
ATOM      8  C   UNL     1     114.309  16.351  24.714  1.00  0.00     0.000 C 
BRANCH   8   9
ATOM      9  C   UNL     1     115.389  16.958  25.634  1.00  0.00     0.000 C 
BRANCH   9  10
ATOM     10  C   UNL     1     116.842  16.789  25.148  1.00  0.00     0.000 C 
BRANCH  10  11
ATOM     11  C   UNL     1     117.717  15.843  25.999  1.00  0.00     0.000 C 
BRANCH  11  12
ATOM     12  C   UNL     1     118.768  16.572  26.862  1.00  0.00     0.000 C 
BRANCH  12  13
ATOM     13  C   UNL     1     118.864  18.087  26.576  1.00  0.00     0.006 C 
BRANCH  13  14
ATOM     14  C   UNL     1     118.632  18.915  27.847  1.00  0.00     0.053 C 
BRANCH  14  15
ATOM     15  C   UNL     1     117.210  19.371  27.928  1.00  0.00     0.041 C 
ATOM     16  O   UNL     1     116.850  20.436  27.365  1.00  0.00    -0.550 OA
ATOM     17  O   UNL     1     116.284  18.626  28.650  1.00  0.00    -0.550 OA
ENDBRANCH  14  15
ENDBRANCH  13  14
ENDBRANCH  12  13
ENDBRANCH  11  12
ENDBRANCH  10  11
ENDBRANCH   9  10
ENDBRANCH   8   9
ENDBRANCH   7   8
ENDBRANCH   6   7
ENDBRANCH   5   6
ENDBRANCH   4   5
ENDBRANCH   3   4
ENDBRANCH   2   3
ENDBRANCH   1   2
BRANCH   1  18
ATOM     18  C   UNL     1     117.434  19.276  21.955  1.00  0.00     0.000 C 
BRANCH  18  19
ATOM     19  C   UNL     1     118.606  19.274  22.958  1.00  0.00     0.000 C 
BRANCH  19  20
ATOM     20  C   UNL     1     119.836  18.449  22.530  1.00  0.00     0.000 C 
BRANCH  20  21
ATOM     21  C   UNL     1     120.050  17.121  23.287  1.00  0.00     0.000 C 
BRANCH  21  22
ATOM     22  C   UNL     1     119.850  15.858  22.421  1.00  0.00     0.000 C 
BRANCH  22  23
ATOM     23  C   UNL     1     118.386  15.654  21.995  1.00  0.00     0.000 C 
BRANCH  23  24
ATOM     24  C   UNL     1     117.813  14.316  22.492  1.00  0.00    -0.000 C 
BRANCH  24  25
ATOM     25  C   UNL     1     117.162  13.502  21.360  1.00  0.00    -0.000 C 
BRANCH  25  26
ATOM     26  C   UNL     1     116.753  12.088  21.825  1.00  0.00    -0.000 C 
BRANCH  26  27
ATOM     27  C   UNL     1     116.395  12.012  23.320  1.00  0.00    -0.000 C 
BRANCH  27  28
ATOM     28  C   UNL     1     114.882  11.888  23.565  1.00  0.00    -0.000 C 
BRANCH  28  29
ATOM     29  C   UNL     1     114.486  12.286  25.005  1.00  0.00    -0.000 C 
BRANCH  29  30
ATOM     30  C   UNL     1     115.601  13.022  25.773  1.00  0.00    -0.000 C 
BRANCH  30  31
ATOM     31  C   UNL     1     115.453  12.995  27.304  1.00  0.00    -0.003 C 
ATOM     32  C   UNL     1     114.699  14.207  27.849  1.00  0.00     0.004 C 
ENDBRANCH  30  31
ENDBRANCH  29  30
ENDBRANCH  28  29
ENDBRANCH  27  28
ENDBRANCH  26  27
ENDBRANCH  25  26
ENDBRANCH  24  25
ENDBRANCH  23  24
ENDBRANCH  22  23
ENDBRANCH  21  22
ENDBRANCH  20  21
ENDBRANCH  19  20
ENDBRANCH  18  19
ENDBRANCH   1  18
TORSDOF 28
ENDMDL
