MODEL 1
REMARK VINA RESULT:    -5.035      0.000      0.000
REMARK INTER + INTRA:          -6.407
REMARK INTER:                  -6.212
REMARK INTRA:                  -0.195
REMARK UNBOUND:                -0.195
REMARK SMILES C=CC[C@H](C)C(=O)CC
REMARK SMILES IDX 4 1 5 2 6 3 7 4 8 5 9 6 3 7 2 8 1 9
REMARK H PARENT
REMARK Flexibility Score: inf
ROOT
ATOM      1  C   UNL     1      -4.850 -13.667  28.764  1.00  0.00     0.057 C 
ATOM      2  C   UNL     1      -5.239 -12.239  29.162  1.00  0.00     0.016 C 
ENDROOT
BRANCH   1   3
ATOM      3  C   UNL     1      -3.648 -13.637  27.842  1.00  0.00     0.135 C 
ATOM      4  O   UNL     1      -2.547 -13.949  28.273  1.00  0.00    -0.299 OA
BRANCH   3   5
ATOM      5  C   UNL     1      -3.785 -13.241  26.395  1.00  0.00     0.072 C 
ATOM      6  C   UNL     1      -3.236 -11.838  26.158  1.00  0.00     0.012 C 
ENDBRANCH   3   5
ENDBRANCH   1   3
BRANCH   1   7
ATOM      7  C   UNL     1      -6.045 -14.387  28.103  1.00  0.00     0.038 C 
BRANCH   7   8
ATOM      8  C   UNL     1      -7.102 -14.771  29.105  1.00  0.00    -0.034 C 
ATOM      9  C   UNL     1      -8.270 -15.301  28.728  1.00  0.00     0.004 C 
ENDBRANCH   7   8
ENDBRANCH   1   7
TORSDOF 4
ENDMDL
MODEL 2
REMARK VINA RESULT:    -4.854      1.261      3.977
REMARK INTER + INTRA:          -6.185
REMARK INTER:                  -5.915
REMARK INTRA:                  -0.270
REMARK UNBOUND:                -0.195
REMARK SMILES C=CC[C@H](C)C(=O)CC
REMARK SMILES IDX 4 1 5 2 6 3 7 4 8 5 9 6 3 7 2 8 1 9
REMARK H PARENT
REMARK Flexibility Score: inf
ROOT
ATOM      1  C   UNL     1      -4.970 -12.935  28.718  1.00  0.00     0.057 C 
ATOM      2  C   UNL     1      -5.015 -11.507  29.275  1.00  0.00     0.016 C 
ENDROOT
BRANCH   1   3
ATOM      3  C   UNL     1      -5.175 -13.934  29.839  1.00  0.00     0.135 C 
ATOM      4  O   UNL     1      -4.342 -14.024  30.730  1.00  0.00    -0.299 OA
BRANCH   3   5
ATOM      5  C   UNL     1      -6.398 -14.812  29.886  1.00  0.00     0.072 C 
ATOM      6  C   UNL     1      -7.177 -14.733  28.577  1.00  0.00     0.012 C 
ENDBRANCH   3   5
ENDBRANCH   1   3
BRANCH   1   7
ATOM      7  C   UNL     1      -3.636 -13.184  27.983  1.00  0.00     0.038 C 
BRANCH   7   8
ATOM      8  C   UNL     1      -3.722 -12.843  26.518  1.00  0.00    -0.034 C 
ATOM      9  C   UNL     1      -3.290 -11.672  26.041  1.00  0.00     0.004 C 
ENDBRANCH   7   8
ENDBRANCH   1   7
TORSDOF 4
ENDMDL
MODEL 3
REMARK VINA RESULT:    -4.814      1.822      2.970
REMARK INTER + INTRA:          -6.135
REMARK INTER:                  -5.820
REMARK INTRA:                  -0.316
REMARK UNBOUND:                -0.195
REMARK SMILES C=CC[C@H](C)C(=O)CC
REMARK SMILES IDX 4 1 5 2 6 3 7 4 8 5 9 6 3 7 2 8 1 9
REMARK H PARENT
REMARK Flexibility Score: inf
ROOT
ATOM      1  C   UNL     1      -5.128 -12.938  29.666  1.00  0.00     0.057 C 
ATOM      2  C   UNL     1      -5.029 -11.512  29.112  1.00  0.00     0.016 C 
ENDROOT
BRANCH   1   3
ATOM      3  C   UNL     1      -3.747 -13.450  30.026  1.00  0.00     0.135 C 
ATOM      4  O   UNL     1      -2.929 -13.658  29.142  1.00  0.00    -0.299 OA
BRANCH   3   5
ATOM      5  C   UNL     1      -3.356 -13.693  31.460  1.00  0.00     0.072 C 
ATOM      6  C   UNL     1      -4.538 -14.224  32.266  1.00  0.00     0.012 C 
ENDBRANCH   3   5
ENDBRANCH   1   3
BRANCH   1   7
ATOM      7  C   UNL     1      -5.821 -13.866  28.646  1.00  0.00     0.038 C 
BRANCH   7   8
ATOM      8  C   UNL     1      -6.800 -14.804  29.303  1.00  0.00    -0.034 C 
ATOM      9  C   UNL     1      -7.955 -15.137  28.719  1.00  0.00     0.004 C 
ENDBRANCH   7   8
ENDBRANCH   1   7
TORSDOF 4
ENDMDL
MODEL 4
REMARK VINA RESULT:    -4.766      2.138      2.850
REMARK INTER + INTRA:          -6.076
REMARK INTER:                  -5.898
REMARK INTRA:                  -0.178
REMARK UNBOUND:                -0.195
REMARK SMILES C=CC[C@H](C)C(=O)CC
REMARK SMILES IDX 4 1 5 2 6 3 7 4 8 5 9 6 3 7 2 8 1 9
REMARK H PARENT
REMARK Flexibility Score: inf
ROOT
ATOM      1  C   UNL     1      -4.862 -13.088  30.184  1.00  0.00     0.057 C 
ATOM      2  C   UNL     1      -5.176 -12.106  29.049  1.00  0.00     0.016 C 
ENDROOT
BRANCH   1   3
ATOM      3  C   UNL     1      -3.383 -13.418  30.187  1.00  0.00     0.135 C 
ATOM      4  O   UNL     1      -2.830 -13.732  29.143  1.00  0.00    -0.299 OA
BRANCH   3   5
ATOM      5  C   UNL     1      -2.573 -13.352  31.456  1.00  0.00     0.072 C 
ATOM      6  C   UNL     1      -1.080 -13.440  31.156  1.00  0.00     0.012 C 
ENDBRANCH   3   5
ENDBRANCH   1   3
BRANCH   1   7
ATOM      7  C   UNL     1      -5.720 -14.364  30.046  1.00  0.00     0.038 C 
BRANCH   7   8
ATOM      8  C   UNL     1      -6.517 -14.377  28.768  1.00  0.00    -0.034 C 
ATOM      9  C   UNL     1      -7.689 -15.012  28.675  1.00  0.00     0.004 C 
ENDBRANCH   7   8
ENDBRANCH   1   7
TORSDOF 4
ENDMDL
MODEL 5
REMARK VINA RESULT:    -4.727      1.596      2.202
REMARK INTER + INTRA:          -6.028
REMARK INTER:                  -5.841
REMARK INTRA:                  -0.187
REMARK UNBOUND:                -0.195
REMARK SMILES C=CC[C@H](C)C(=O)CC
REMARK SMILES IDX 4 1 5 2 6 3 7 4 8 5 9 6 3 7 2 8 1 9
REMARK H PARENT
REMARK Flexibility Score: inf
ROOT
ATOM      1  C   UNL     1      -4.628 -13.401  28.106  1.00  0.00     0.057 C 
ATOM      2  C   UNL     1      -4.562 -14.301  26.867  1.00  0.00     0.016 C 
ENDROOT
BRANCH   1   3
ATOM      3  C   UNL     1      -3.406 -13.627  28.974  1.00  0.00     0.135 C 
ATOM      4  O   UNL     1      -3.512 -13.583  30.191  1.00  0.00    -0.299 OA
BRANCH   3   5
ATOM      5  C   UNL     1      -2.060 -13.919  28.363  1.00  0.00     0.072 C 
ATOM      6  C   UNL     1      -0.932 -13.458  29.280  1.00  0.00     0.012 C 
ENDBRANCH   3   5
ENDBRANCH   1   3
BRANCH   1   7
ATOM      7  C   UNL     1      -5.930 -13.661  28.893  1.00  0.00     0.038 C 
BRANCH   7   8
ATOM      8  C   UNL     1      -6.702 -14.833  28.344  1.00  0.00    -0.034 C 
ATOM      9  C   UNL     1      -7.946 -15.107  28.747  1.00  0.00     0.004 C 
ENDBRANCH   7   8
ENDBRANCH   1   7
TORSDOF 4
ENDMDL
MODEL 6
REMARK VINA RESULT:    -4.706      1.902      2.451
REMARK INTER + INTRA:          -6.001
REMARK INTER:                  -5.806
REMARK INTRA:                  -0.195
REMARK UNBOUND:                -0.195
REMARK SMILES C=CC[C@H](C)C(=O)CC
REMARK SMILES IDX 4 1 5 2 6 3 7 4 8 5 9 6 3 7 2 8 1 9
REMARK H PARENT
REMARK Flexibility Score: inf
ROOT
ATOM      1  C   UNL     1      -5.811 -13.710  28.735  1.00  0.00     0.057 C 
ATOM      2  C   UNL     1      -6.993 -14.682  28.624  1.00  0.00     0.016 C 
ENDROOT
BRANCH   1   3
ATOM      3  C   UNL     1      -4.814 -13.982  27.627  1.00  0.00     0.135 C 
ATOM      4  O   UNL     1      -5.102 -14.763  26.732  1.00  0.00    -0.299 OA
BRANCH   3   5
ATOM      5  C   UNL     1      -3.473 -13.295  27.600  1.00  0.00     0.072 C 
ATOM      6  C   UNL     1      -3.432 -12.219  26.520  1.00  0.00     0.012 C 
ENDBRANCH   3   5
ENDBRANCH   1   3
BRANCH   1   7
ATOM      7  C   UNL     1      -5.150 -13.822  30.125  1.00  0.00     0.038 C 
BRANCH   7   8
ATOM      8  C   UNL     1      -5.921 -14.726  31.051  1.00  0.00    -0.034 C 
ATOM      9  C   UNL     1      -5.555 -14.909  32.323  1.00  0.00     0.004 C 
ENDBRANCH   7   8
ENDBRANCH   1   7
TORSDOF 4
ENDMDL
MODEL 7
REMARK VINA RESULT:    -4.585      1.621      1.838
REMARK INTER + INTRA:          -5.852
REMARK INTER:                  -5.624
REMARK INTRA:                  -0.228
REMARK UNBOUND:                -0.195
REMARK SMILES C=CC[C@H](C)C(=O)CC
REMARK SMILES IDX 4 1 5 2 6 3 7 4 8 5 9 6 3 7 2 8 1 9
REMARK H PARENT
REMARK Flexibility Score: inf
ROOT
ATOM      1  C   UNL     1      -4.646 -13.665  29.034  1.00  0.00     0.057 C 
ATOM      2  C   UNL     1      -4.880 -13.906  30.530  1.00  0.00     0.016 C 
ENDROOT
BRANCH   1   3
ATOM      3  C   UNL     1      -4.558 -12.178  28.758  1.00  0.00     0.135 C 
ATOM      4  O   UNL     1      -5.458 -11.439  29.131  1.00  0.00    -0.299 OA
BRANCH   3   5
ATOM      5  C   UNL     1      -3.371 -11.586  28.042  1.00  0.00     0.072 C 
ATOM      6  C   UNL     1      -3.379 -11.967  26.565  1.00  0.00     0.012 C 
ENDBRANCH   3   5
ENDBRANCH   1   3
BRANCH   1   7
ATOM      7  C   UNL     1      -5.764 -14.325  28.199  1.00  0.00     0.038 C 
BRANCH   7   8
ATOM      8  C   UNL     1      -6.753 -15.066  29.060  1.00  0.00    -0.034 C 
ATOM      9  C   UNL     1      -8.052 -15.124  28.750  1.00  0.00     0.004 C 
ENDBRANCH   7   8
ENDBRANCH   1   7
TORSDOF 4
ENDMDL
MODEL 8
REMARK VINA RESULT:    -4.486      2.629      3.702
REMARK INTER + INTRA:          -5.731
REMARK INTER:                  -5.524
REMARK INTRA:                  -0.207
REMARK UNBOUND:                -0.195
REMARK SMILES C=CC[C@H](C)C(=O)CC
REMARK SMILES IDX 4 1 5 2 6 3 7 4 8 5 9 6 3 7 2 8 1 9
REMARK H PARENT
REMARK Flexibility Score: inf
ROOT
ATOM      1  C   UNL     1      -4.916 -13.847  30.392  1.00  0.00     0.057 C 
ATOM      2  C   UNL     1      -5.455 -14.598  31.615  1.00  0.00     0.016 C 
ENDROOT
BRANCH   1   3
ATOM      3  C   UNL     1      -4.621 -12.407  30.759  1.00  0.00     0.135 C 
ATOM      4  O   UNL     1      -4.979 -11.506  30.014  1.00  0.00    -0.299 OA
BRANCH   3   5
ATOM      5  C   UNL     1      -3.904 -12.060  32.038  1.00  0.00     0.072 C 
ATOM      6  C   UNL     1      -4.739 -11.111  32.892  1.00  0.00     0.012 C 
ENDBRANCH   3   5
ENDBRANCH   1   3
BRANCH   1   7
ATOM      7  C   UNL     1      -5.918 -13.933  29.222  1.00  0.00     0.038 C 
BRANCH   7   8
ATOM      8  C   UNL     1      -6.890 -15.072  29.387  1.00  0.00    -0.034 C 
ATOM      9  C   UNL     1      -8.022 -15.140  28.682  1.00  0.00     0.004 C 
ENDBRANCH   7   8
ENDBRANCH   1   7
TORSDOF 4
ENDMDL
MODEL 9
REMARK VINA RESULT:    -4.444      1.847      4.339
REMARK INTER + INTRA:          -5.679
REMARK INTER:                  -5.416
REMARK INTRA:                  -0.263
REMARK UNBOUND:                -0.195
REMARK SMILES C=CC[C@H](C)C(=O)CC
REMARK SMILES IDX 4 1 5 2 6 3 7 4 8 5 9 6 3 7 2 8 1 9
REMARK H PARENT
REMARK Flexibility Score: inf
ROOT
ATOM      1  C   UNL     1      -3.163 -12.927  27.386  1.00  0.00     0.057 C 
ATOM      2  C   UNL     1      -3.331 -11.794  26.366  1.00  0.00     0.016 C 
ENDROOT
BRANCH   1   3
ATOM      3  C   UNL     1      -4.467 -13.684  27.535  1.00  0.00     0.135 C 
ATOM      4  O   UNL     1      -4.796 -14.499  26.685  1.00  0.00    -0.299 OA
BRANCH   3   5
ATOM      5  C   UNL     1      -5.365 -13.462  28.725  1.00  0.00     0.072 C 
ATOM      6  C   UNL     1      -6.563 -14.406  28.689  1.00  0.00     0.012 C 
ENDBRANCH   3   5
ENDBRANCH   1   3
BRANCH   1   7
ATOM      7  C   UNL     1      -2.682 -12.366  28.741  1.00  0.00     0.038 C 
BRANCH   7   8
ATOM      8  C   UNL     1      -1.278 -12.800  29.070  1.00  0.00    -0.034 C 
ATOM      9  C   UNL     1      -0.766 -13.942  28.600  1.00  0.00     0.004 C 
ENDBRANCH   7   8
ENDBRANCH   1   7
TORSDOF 4
ENDMDL
