MODEL 1
REMARK VINA RESULT:     3.002      0.000      0.000
REMARK INTER + INTRA:           5.366
REMARK INTER:                   4.582
REMARK INTRA:                   0.785
REMARK UNBOUND:                 0.785
REMARK SMILES CC1=CCC[C@@H](C)C(=O)C[C@H](C(C)C)C(=O)C1
REMARK SMILES IDX 8 1 9 2 6 3 7 4 5 5 4 6 3 7 2 8 1 9 10 11 11 12 15 13 16 14
REMARK SMILES IDX 17 15 12 17 13 18 14 19
REMARK H PARENT
REMARK Flexibility Score: 70.00
ROOT
ATOM      1  C   UNL     1      -5.874  13.529   6.469  1.00  0.00     0.136 C 
ATOM      2  O   UNL     1      -6.175  13.210   5.327  1.00  0.00    -0.299 OA
ENDROOT
BRANCH   1   3
ATOM      3  C   UNL     1      -6.368  12.707   7.648  1.00  0.00     0.053 C 
ATOM      4  C   UNL     1      -6.347  13.492   8.969  1.00  0.00     0.016 C 
BRANCH   3   5
ATOM      5  C   UNL     1      -5.643  11.343   7.771  1.00  0.00     0.015 C 
BRANCH   5   6
ATOM      6  C   UNL     1      -4.968  11.027   9.123  1.00  0.00     0.028 C 
BRANCH   6   7
ATOM      7  C   UNL     1      -3.506  10.644   9.057  1.00  0.00    -0.028 C 
ATOM      8  C   UNL     1      -2.493  11.432   8.628  1.00  0.00    -0.070 CG0
ATOM      9  C   UNL     1      -1.112  10.827   8.553  1.00  0.00     0.039 C 
ATOM     10  G   UNL     1      -2.677  12.880   8.212  1.00  0.00     0.000 G0
ENDBRANCH   6   7
ENDBRANCH   5   6
ENDBRANCH   3   5
ENDBRANCH   1   3
BRANCH   1  11
ATOM     11  C   UNL     1      -4.982  14.732   6.678  1.00  0.00     0.087 C 
BRANCH  11  12
ATOM     12  C   UNL     1      -3.527  14.463   6.216  1.00  0.00     0.066 C 
BRANCH  12  13
ATOM     13  C   UNL     1      -3.032  13.127   6.758  1.00  0.00     0.140 C 
ATOM     14  O   UNL     1      -2.882  12.187   5.991  1.00  0.00    -0.299 OA
BRANCH  13  15
ATOM     15  C   UNL     1      -2.678  12.922   8.212  1.00  0.00     0.106 CG0
ATOM     16  G   UNL     1      -2.508  11.462   8.590  1.00  0.00     0.000 G0
ENDBRANCH  13  15
ENDBRANCH  12  13
BRANCH  12  17
ATOM     17  C   UNL     1      -3.360  14.598   4.671  1.00  0.00    -0.006 C 
ATOM     18  C   UNL     1      -1.902  14.734   4.195  1.00  0.00     0.008 C 
ATOM     19  C   UNL     1      -4.211  15.751   4.115  1.00  0.00     0.008 C 
ENDBRANCH  12  17
ENDBRANCH  11  12
ENDBRANCH   1  11
TORSDOF 1
ENDMDL
MODEL 2
REMARK VINA RESULT:     3.036      1.543      3.559
REMARK INTER + INTRA:           5.418
REMARK INTER:                   4.956
REMARK INTRA:                   0.462
REMARK UNBOUND:                 0.785
REMARK SMILES CC1=CCC[C@@H](C)C(=O)C[C@H](C(C)C)C(=O)C1
REMARK SMILES IDX 8 1 9 2 6 3 7 4 5 5 4 6 3 7 2 8 1 9 10 11 11 12 15 13 16 14
REMARK SMILES IDX 17 15 12 17 13 18 14 19
REMARK H PARENT
REMARK Flexibility Score: 70.00
ROOT
ATOM      1  C   UNL     1      -2.819  12.411   7.199  1.00  0.00     0.136 C 
ATOM      2  O   UNL     1      -2.787  11.580   6.301  1.00  0.00    -0.299 OA
ENDROOT
BRANCH   1   3
ATOM      3  C   UNL     1      -2.712  11.972   8.650  1.00  0.00     0.053 C 
ATOM      4  C   UNL     1      -1.300  11.488   9.020  1.00  0.00     0.016 C 
BRANCH   3   5
ATOM      5  C   UNL     1      -3.801  10.943   9.045  1.00  0.00     0.015 C 
BRANCH   5   6
ATOM      6  C   UNL     1      -5.265  11.311   8.721  1.00  0.00     0.028 C 
BRANCH   6   7
ATOM      7  C   UNL     1      -5.701  12.701   9.125  1.00  0.00    -0.028 C 
ATOM      8  C   UNL     1      -6.059  13.701   8.286  1.00  0.00    -0.070 CG0
ATOM      9  C   UNL     1      -6.373  15.049   8.889  1.00  0.00     0.039 C 
ATOM     10  G   UNL     1      -6.150  13.538   6.780  1.00  0.00     0.000 G0
ENDBRANCH   6   7
ENDBRANCH   5   6
ENDBRANCH   3   5
ENDBRANCH   1   3
BRANCH   1  11
ATOM     11  C   UNL     1      -2.939  13.873   6.835  1.00  0.00     0.087 C 
BRANCH  11  12
ATOM     12  C   UNL     1      -3.826  14.089   5.583  1.00  0.00     0.066 C 
BRANCH  12  13
ATOM     13  C   UNL     1      -5.250  14.450   5.992  1.00  0.00     0.140 C 
ATOM     14  O   UNL     1      -5.719  15.525   5.647  1.00  0.00    -0.299 OA
BRANCH  13  15
ATOM     15  C   UNL     1      -6.130  13.512   6.783  1.00  0.00     0.106 CG0
ATOM     16  G   UNL     1      -6.061  13.740   8.282  1.00  0.00     0.000 G0
ENDBRANCH  13  15
ENDBRANCH  12  13
BRANCH  12  17
ATOM     17  C   UNL     1      -3.200  15.107   4.580  1.00  0.00    -0.006 C 
ATOM     18  C   UNL     1      -4.002  15.298   3.279  1.00  0.00     0.008 C 
ATOM     19  C   UNL     1      -1.742  14.748   4.257  1.00  0.00     0.008 C 
ENDBRANCH  12  17
ENDBRANCH  11  12
ENDBRANCH   1  11
TORSDOF 1
ENDMDL
MODEL 3
REMARK VINA RESULT:     3.274      1.722      3.503
REMARK INTER + INTRA:           5.782
REMARK INTER:                   4.005
REMARK INTRA:                   1.777
REMARK UNBOUND:                 0.785
REMARK SMILES CC1=CCC[C@@H](C)C(=O)C[C@H](C(C)C)C(=O)C1
REMARK SMILES IDX 8 1 9 2 6 3 7 4 5 5 4 6 3 7 2 8 1 9 10 11 11 12 15 13 16 14
REMARK SMILES IDX 17 15 12 17 13 18 14 19
REMARK H PARENT
REMARK Flexibility Score: 70.00
ROOT
ATOM      1  C   UNL     1      -4.698  15.248   5.266  1.00  0.00     0.136 C 
ATOM      2  O   UNL     1      -5.226  15.956   4.420  1.00  0.00    -0.299 OA
ENDROOT
BRANCH   1   3
ATOM      3  C   UNL     1      -3.267  14.772   5.079  1.00  0.00     0.053 C 
ATOM      4  C   UNL     1      -2.694  15.142   3.701  1.00  0.00     0.016 C 
BRANCH   3   5
ATOM      5  C   UNL     1      -3.092  13.266   5.395  1.00  0.00     0.015 C 
BRANCH   5   6
ATOM      6  C   UNL     1      -2.167  12.899   6.576  1.00  0.00     0.028 C 
BRANCH   6   7
ATOM      7  C   UNL     1      -2.520  11.632   7.322  1.00  0.00    -0.028 C 
ATOM      8  C   UNL     1      -3.260  11.551   8.453  1.00  0.00    -0.070 CG0
ATOM      9  C   UNL     1      -3.419  10.194   9.095  1.00  0.00     0.039 C 
ATOM     10  G   UNL     1      -3.922  12.749   9.108  1.00  0.00     0.000 G0
ENDBRANCH   6   7
ENDBRANCH   5   6
ENDBRANCH   3   5
ENDBRANCH   1   3
BRANCH   1  11
ATOM     11  C   UNL     1      -5.484  14.884   6.505  1.00  0.00     0.087 C 
BRANCH  11  12
ATOM     12  C   UNL     1      -5.276  13.403   6.909  1.00  0.00     0.066 C 
BRANCH  12  13
ATOM     13  C   UNL     1      -5.184  13.269   8.425  1.00  0.00     0.140 C 
ATOM     14  O   UNL     1      -6.153  13.554   9.113  1.00  0.00    -0.299 OA
BRANCH  13  15
ATOM     15  C   UNL     1      -3.944  12.761   9.121  1.00  0.00     0.106 CG0
ATOM     16  G   UNL     1      -3.303  11.576   8.421  1.00  0.00     0.000 G0
ENDBRANCH  13  15
ENDBRANCH  12  13
BRANCH  12  17
ATOM     17  C   UNL     1      -6.344  12.458   6.275  1.00  0.00    -0.006 C 
ATOM     18  C   UNL     1      -6.107  10.959   6.535  1.00  0.00     0.008 C 
ATOM     19  C   UNL     1      -6.497  12.719   4.769  1.00  0.00     0.008 C 
ENDBRANCH  12  17
ENDBRANCH  11  12
ENDBRANCH   1  11
TORSDOF 1
ENDMDL
MODEL 4
REMARK VINA RESULT:     3.296      1.550      3.423
REMARK INTER + INTRA:           5.815
REMARK INTER:                   3.648
REMARK INTRA:                   2.167
REMARK UNBOUND:                 0.785
REMARK SMILES CC1=CCC[C@@H](C)C(=O)C[C@H](C(C)C)C(=O)C1
REMARK SMILES IDX 8 1 9 2 6 3 7 4 5 5 4 6 3 7 2 8 1 9 10 11 11 12 15 13 16 14
REMARK SMILES IDX 17 15 12 17 13 18 14 19
REMARK H PARENT
REMARK Flexibility Score: 70.00
ROOT
ATOM      1  C   UNL     1      -2.616  12.522   6.738  1.00  0.00     0.136 C 
ATOM      2  O   UNL     1      -2.684  11.778   5.770  1.00  0.00    -0.299 OA
ENDROOT
BRANCH   1   3
ATOM      3  C   UNL     1      -2.345  11.953   8.121  1.00  0.00     0.053 C 
ATOM      4  C   UNL     1      -1.976  10.461   8.087  1.00  0.00     0.016 C 
BRANCH   3   5
ATOM      5  C   UNL     1      -3.490  12.246   9.122  1.00  0.00     0.015 C 
BRANCH   5   6
ATOM      6  C   UNL     1      -4.703  11.291   9.101  1.00  0.00     0.028 C 
BRANCH   6   7
ATOM      7  C   UNL     1      -5.475  11.233   7.802  1.00  0.00    -0.028 C 
ATOM      8  C   UNL     1      -5.921  12.294   7.090  1.00  0.00    -0.070 CG0
ATOM      9  C   UNL     1      -6.755  12.020   5.863  1.00  0.00     0.039 C 
ATOM     10  G   UNL     1      -5.635  13.735   7.468  1.00  0.00     0.000 G0
ENDBRANCH   6   7
ENDBRANCH   5   6
ENDBRANCH   3   5
ENDBRANCH   1   3
BRANCH   1  11
ATOM     11  C   UNL     1      -2.778  14.010   6.526  1.00  0.00     0.087 C 
BRANCH  11  12
ATOM     12  C   UNL     1      -3.907  14.334   5.516  1.00  0.00     0.066 C 
BRANCH  12  13
ATOM     13  C   UNL     1      -5.229  14.552   6.242  1.00  0.00     0.140 C 
ATOM     14  O   UNL     1      -6.010  15.397   5.827  1.00  0.00    -0.299 OA
BRANCH  13  15
ATOM     15  C   UNL     1      -5.638  13.737   7.446  1.00  0.00     0.106 CG0
ATOM     16  G   UNL     1      -5.931  12.284   7.119  1.00  0.00     0.000 G0
ENDBRANCH  13  15
ENDBRANCH  12  13
BRANCH  12  17
ATOM     17  C   UNL     1      -3.530  15.509   4.561  1.00  0.00    -0.006 C 
ATOM     18  C   UNL     1      -4.510  16.697   4.592  1.00  0.00     0.008 C 
ATOM     19  C   UNL     1      -3.337  15.017   3.118  1.00  0.00     0.008 C 
ENDBRANCH  12  17
ENDBRANCH  11  12
ENDBRANCH   1  11
TORSDOF 1
ENDMDL
MODEL 5
REMARK VINA RESULT:     3.472      1.564      4.076
REMARK INTER + INTRA:           6.084
REMARK INTER:                   3.315
REMARK INTRA:                   2.769
REMARK UNBOUND:                 0.785
REMARK SMILES CC1=CCC[C@@H](C)C(=O)C[C@H](C(C)C)C(=O)C1
REMARK SMILES IDX 8 1 9 2 6 3 7 4 5 5 4 6 3 7 2 8 1 9 10 11 11 12 15 13 16 14
REMARK SMILES IDX 17 15 12 17 13 18 14 19
REMARK H PARENT
REMARK Flexibility Score: 70.00
ROOT
ATOM      1  C   UNL     1      -5.140  11.364   7.943  1.00  0.00     0.136 C 
ATOM      2  O   UNL     1      -4.808  11.639   9.088  1.00  0.00    -0.299 OA
ENDROOT
BRANCH   1   3
ATOM      3  C   UNL     1      -6.496  11.802   7.415  1.00  0.00     0.053 C 
ATOM      4  C   UNL     1      -6.532  11.899   5.881  1.00  0.00     0.016 C 
BRANCH   3   5
ATOM      5  C   UNL     1      -7.009  13.098   8.091  1.00  0.00     0.015 C 
BRANCH   5   6
ATOM      6  C   UNL     1      -6.075  14.328   8.053  1.00  0.00     0.028 C 
BRANCH   6   7
ATOM      7  C   UNL     1      -5.519  14.692   6.695  1.00  0.00    -0.028 C 
ATOM      8  C   UNL     1      -4.250  14.488   6.270  1.00  0.00    -0.070 CG0
ATOM      9  C   UNL     1      -3.869  15.010   4.907  1.00  0.00     0.039 C 
ATOM     10  G   UNL     1      -3.196  13.775   7.097  1.00  0.00     0.000 G0
ENDBRANCH   6   7
ENDBRANCH   5   6
ENDBRANCH   3   5
ENDBRANCH   1   3
BRANCH   1  11
ATOM     11  C   UNL     1      -4.169  10.609   7.064  1.00  0.00     0.087 C 
BRANCH  11  12
ATOM     12  C   UNL     1      -2.730  11.171   7.172  1.00  0.00     0.066 C 
BRANCH  12  13
ATOM     13  C   UNL     1      -2.636  12.536   6.500  1.00  0.00     0.140 C 
ATOM     14  O   UNL     1      -2.106  12.630   5.402  1.00  0.00    -0.299 OA
BRANCH  13  15
ATOM     15  C   UNL     1      -3.209  13.788   7.121  1.00  0.00     0.106 CG0
ATOM     16  G   UNL     1      -4.241  14.477   6.248  1.00  0.00     0.000 G0
ENDBRANCH  13  15
ENDBRANCH  12  13
BRANCH  12  17
ATOM     17  C   UNL     1      -2.202  11.174   8.641  1.00  0.00    -0.006 C 
ATOM     18  C   UNL     1      -1.665  12.534   9.124  1.00  0.00     0.008 C 
ATOM     19  C   UNL     1      -1.147  10.079   8.858  1.00  0.00     0.008 C 
ENDBRANCH  12  17
ENDBRANCH  11  12
ENDBRANCH   1  11
TORSDOF 1
ENDMDL
MODEL 6
REMARK VINA RESULT:     3.894      1.990      4.757
REMARK INTER + INTRA:           6.727
REMARK INTER:                   6.421
REMARK INTRA:                   0.306
REMARK UNBOUND:                 0.785
REMARK SMILES CC1=CCC[C@@H](C)C(=O)C[C@H](C(C)C)C(=O)C1
REMARK SMILES IDX 8 1 9 2 6 3 7 4 5 5 4 6 3 7 2 8 1 9 10 11 11 12 15 13 16 14
REMARK SMILES IDX 17 15 12 17 13 18 14 19
REMARK H PARENT
REMARK Flexibility Score: 70.00
ROOT
ATOM      1  C   UNL     1      -3.076  12.292   8.598  1.00  0.00     0.136 C 
ATOM      2  O   UNL     1      -2.222  13.052   9.034  1.00  0.00    -0.299 OA
ENDROOT
BRANCH   1   3
ATOM      3  C   UNL     1      -2.698  11.208   7.603  1.00  0.00     0.053 C 
ATOM      4  C   UNL     1      -1.919  10.052   8.252  1.00  0.00     0.016 C 
BRANCH   3   5
ATOM      5  C   UNL     1      -1.971  11.770   6.355  1.00  0.00     0.015 C 
BRANCH   5   6
ATOM      6  C   UNL     1      -2.854  12.375   5.242  1.00  0.00     0.028 C 
BRANCH   6   7
ATOM      7  C   UNL     1      -3.141  13.855   5.359  1.00  0.00    -0.028 C 
ATOM      8  C   UNL     1      -4.359  14.422   5.519  1.00  0.00    -0.070 CG0
ATOM      9  C   UNL     1      -4.441  15.929   5.521  1.00  0.00     0.039 C 
ATOM     10  G   UNL     1      -5.639  13.623   5.685  1.00  0.00     0.000 G0
ENDBRANCH   6   7
ENDBRANCH   5   6
ENDBRANCH   3   5
ENDBRANCH   1   3
BRANCH   1  11
ATOM     11  C   UNL     1      -4.498  12.436   9.090  1.00  0.00     0.087 C 
BRANCH  11  12
ATOM     12  C   UNL     1      -5.287  13.498   8.284  1.00  0.00     0.066 C 
BRANCH  12  13
ATOM     13  C   UNL     1      -5.781  12.912   6.967  1.00  0.00     0.140 C 
ATOM     14  O   UNL     1      -6.322  11.816   6.962  1.00  0.00    -0.299 OA
BRANCH  13  15
ATOM     15  C   UNL     1      -5.663  13.651   5.655  1.00  0.00     0.106 CG0
ATOM     16  G   UNL     1      -4.375  14.443   5.523  1.00  0.00     0.000 G0
ENDBRANCH  13  15
ENDBRANCH  12  13
BRANCH  12  17
ATOM     17  C   UNL     1      -6.423  14.159   9.125  1.00  0.00    -0.006 C 
ATOM     18  C   UNL     1      -7.843  13.685   8.765  1.00  0.00     0.008 C 
ATOM     19  C   UNL     1      -6.343  15.692   9.065  1.00  0.00     0.008 C 
ENDBRANCH  12  17
ENDBRANCH  11  12
ENDBRANCH   1  11
TORSDOF 1
ENDMDL
MODEL 7
REMARK VINA RESULT:     4.420      1.850      4.691
REMARK INTER + INTRA:           7.531
REMARK INTER:                   7.414
REMARK INTRA:                   0.117
REMARK UNBOUND:                 0.785
REMARK SMILES CC1=CCC[C@@H](C)C(=O)C[C@H](C(C)C)C(=O)C1
REMARK SMILES IDX 8 1 9 2 6 3 7 4 5 5 4 6 3 7 2 8 1 9 10 11 11 12 15 13 16 14
REMARK SMILES IDX 17 15 12 17 13 18 14 19
REMARK H PARENT
REMARK Flexibility Score: 70.00
ROOT
ATOM      1  C   UNL     1      -2.788  13.723   6.144  1.00  0.00     0.136 C 
ATOM      2  O   UNL     1      -1.992  14.422   6.757  1.00  0.00    -0.299 OA
ENDROOT
BRANCH   1   3
ATOM      3  C   UNL     1      -3.586  14.306   4.990  1.00  0.00     0.053 C 
ATOM      4  C   UNL     1      -2.704  14.689   3.791  1.00  0.00     0.016 C 
BRANCH   3   5
ATOM      5  C   UNL     1      -4.507  15.472   5.430  1.00  0.00     0.015 C 
BRANCH   5   6
ATOM      6  C   UNL     1      -5.836  15.096   6.121  1.00  0.00     0.028 C 
BRANCH   6   7
ATOM      7  C   UNL     1      -6.327  13.686   5.882  1.00  0.00    -0.028 C 
ATOM      8  C   UNL     1      -6.234  12.649   6.747  1.00  0.00    -0.070 CG0
ATOM      9  C   UNL     1      -6.705  11.295   6.279  1.00  0.00     0.039 C 
ATOM     10  G   UNL     1      -5.673  12.780   8.151  1.00  0.00     0.000 G0
ENDBRANCH   6   7
ENDBRANCH   5   6
ENDBRANCH   3   5
ENDBRANCH   1   3
BRANCH   1  11
ATOM     11  C   UNL     1      -2.935  12.271   6.537  1.00  0.00     0.087 C 
BRANCH  11  12
ATOM     12  C   UNL     1      -3.084  12.096   8.070  1.00  0.00     0.066 C 
BRANCH  12  13
ATOM     13  C   UNL     1      -4.536  11.815   8.438  1.00  0.00     0.140 C 
ATOM     14  O   UNL     1      -4.818  10.777   9.020  1.00  0.00    -0.299 OA
BRANCH  13  15
ATOM     15  C   UNL     1      -5.651  12.790   8.145  1.00  0.00     0.106 CG0
ATOM     16  G   UNL     1      -6.233  12.638   6.751  1.00  0.00     0.000 G0
ENDBRANCH  13  15
ENDBRANCH  12  13
BRANCH  12  17
ATOM     17  C   UNL     1      -2.089  11.041   8.647  1.00  0.00    -0.006 C 
ATOM     18  C   UNL     1      -0.746  11.623   9.123  1.00  0.00     0.008 C 
ATOM     19  C   UNL     1      -1.850   9.896   7.651  1.00  0.00     0.008 C 
ENDBRANCH  12  17
ENDBRANCH  11  12
ENDBRANCH   1  11
TORSDOF 1
ENDMDL
MODEL 8
REMARK VINA RESULT:     5.446      1.573      3.463
REMARK INTER + INTRA:           9.096
REMARK INTER:                   7.477
REMARK INTRA:                   1.619
REMARK UNBOUND:                 0.785
REMARK SMILES CC1=CCC[C@@H](C)C(=O)C[C@H](C(C)C)C(=O)C1
REMARK SMILES IDX 8 1 9 2 6 3 7 4 5 5 4 6 3 7 2 8 1 9 10 11 11 12 15 13 16 14
REMARK SMILES IDX 17 15 12 17 13 18 14 19
REMARK H PARENT
REMARK Flexibility Score: 70.00
ROOT
ATOM      1  C   UNL     1      -2.846  13.456   7.423  1.00  0.00     0.136 C 
ATOM      2  O   UNL     1      -2.151  13.518   6.418  1.00  0.00    -0.299 OA
ENDROOT
BRANCH   1   3
ATOM      3  C   UNL     1      -2.305  12.812   8.688  1.00  0.00     0.053 C 
ATOM      4  C   UNL     1      -0.955  13.404   9.125  1.00  0.00     0.016 C 
BRANCH   3   5
ATOM      5  C   UNL     1      -2.260  11.266   8.598  1.00  0.00     0.015 C 
BRANCH   5   6
ATOM      6  C   UNL     1      -3.602  10.515   8.734  1.00  0.00     0.028 C 
BRANCH   6   7
ATOM      7  C   UNL     1      -4.794  11.360   9.125  1.00  0.00    -0.028 C 
ATOM      8  C   UNL     1      -5.733  11.853   8.284  1.00  0.00    -0.070 CG0
ATOM      9  C   UNL     1      -6.795  12.755   8.864  1.00  0.00     0.039 C 
ATOM     10  G   UNL     1      -5.764  11.555   6.797  1.00  0.00     0.000 G0
ENDBRANCH   6   7
ENDBRANCH   5   6
ENDBRANCH   3   5
ENDBRANCH   1   3
BRANCH   1  11
ATOM     11  C   UNL     1      -4.233  14.056   7.387  1.00  0.00     0.087 C 
BRANCH  11  12
ATOM     12  C   UNL     1      -4.881  13.937   5.984  1.00  0.00     0.066 C 
BRANCH  12  13
ATOM     13  C   UNL     1      -5.911  12.813   5.964  1.00  0.00     0.140 C 
ATOM     14  O   UNL     1      -6.878  12.898   5.222  1.00  0.00    -0.299 OA
BRANCH  13  15
ATOM     15  C   UNL     1      -5.768  11.566   6.805  1.00  0.00     0.106 CG0
ATOM     16  G   UNL     1      -5.742  11.845   8.296  1.00  0.00     0.000 G0
ENDBRANCH  13  15
ENDBRANCH  12  13
BRANCH  12  17
ATOM     17  C   UNL     1      -5.449  15.298   5.475  1.00  0.00    -0.006 C 
ATOM     18  C   UNL     1      -4.712  15.882   4.256  1.00  0.00     0.008 C 
ATOM     19  C   UNL     1      -5.513  16.335   6.606  1.00  0.00     0.008 C 
ENDBRANCH  12  17
ENDBRANCH  11  12
ENDBRANCH   1  11
TORSDOF 1
ENDMDL
MODEL 9
REMARK VINA RESULT:     5.879      2.011      4.646
REMARK INTER + INTRA:           9.757
REMARK INTER:                   7.142
REMARK INTRA:                   2.614
REMARK UNBOUND:                 0.785
REMARK SMILES CC1=CCC[C@@H](C)C(=O)C[C@H](C(C)C)C(=O)C1
REMARK SMILES IDX 8 1 9 2 6 3 7 4 5 5 4 6 3 7 2 8 1 9 10 11 11 12 15 13 16 14
REMARK SMILES IDX 17 15 12 17 13 18 14 19
REMARK H PARENT
REMARK Flexibility Score: 70.00
ROOT
ATOM      1  C   UNL     1      -3.860  11.358   8.420  1.00  0.00     0.136 C 
ATOM      2  O   UNL     1      -3.976  10.146   8.296  1.00  0.00    -0.299 OA
ENDROOT
BRANCH   1   3
ATOM      3  C   UNL     1      -2.645  12.071   7.851  1.00  0.00     0.053 C 
ATOM      4  C   UNL     1      -2.234  13.297   8.683  1.00  0.00     0.016 C 
BRANCH   3   5
ATOM      5  C   UNL     1      -2.802  12.415   6.349  1.00  0.00     0.015 C 
BRANCH   5   6
ATOM      6  C   UNL     1      -2.522  13.875   5.929  1.00  0.00     0.028 C 
BRANCH   6   7
ATOM      7  C   UNL     1      -3.702  14.639   5.373  1.00  0.00    -0.028 C 
ATOM      8  C   UNL     1      -4.757  15.107   6.080  1.00  0.00    -0.070 CG0
ATOM      9  C   UNL     1      -5.881  15.766   5.319  1.00  0.00     0.039 C 
ATOM     10  G   UNL     1      -4.869  14.992   7.590  1.00  0.00     0.000 G0
ENDBRANCH   6   7
ENDBRANCH   5   6
ENDBRANCH   3   5
ENDBRANCH   1   3
BRANCH   1  11
ATOM     11  C   UNL     1      -4.958  12.127   9.119  1.00  0.00     0.087 C 
BRANCH  11  12
ATOM     12  C   UNL     1      -6.009  12.676   8.121  1.00  0.00     0.066 C 
BRANCH  12  13
ATOM     13  C   UNL     1      -6.006  14.200   8.125  1.00  0.00     0.140 C 
ATOM     14  O   UNL     1      -6.964  14.801   8.589  1.00  0.00    -0.299 OA
BRANCH  13  15
ATOM     15  C   UNL     1      -4.842  15.011   7.606  1.00  0.00     0.106 CG0
ATOM     16  G   UNL     1      -4.791  15.091   6.091  1.00  0.00     0.000 G0
ENDBRANCH  13  15
ENDBRANCH  12  13
BRANCH  12  17
ATOM     17  C   UNL     1      -5.848  12.067   6.694  1.00  0.00    -0.006 C 
ATOM     18  C   UNL     1      -6.771  12.684   5.627  1.00  0.00     0.008 C 
ATOM     19  C   UNL     1      -6.009  10.539   6.716  1.00  0.00     0.008 C 
ENDBRANCH  12  17
ENDBRANCH  11  12
ENDBRANCH   1  11
TORSDOF 1
ENDMDL
