MODEL 1
REMARK VINA RESULT:    -2.827      0.000      0.000
REMARK INTER + INTRA:          -5.722
REMARK INTER:                  -4.976
REMARK INTRA:                  -0.745
REMARK UNBOUND:                -0.745
REMARK SMILES CCCCCCC=CCCCCCCCC(=O)[O-]
REMARK SMILES IDX 10 1 11 2 12 3 13 4 14 5 15 6 16 7 17 8 18 9 9 10 8 11 7 12
REMARK SMILES IDX 6 13 5 14 4 15 3 16 2 17 1 18
REMARK H PARENT
REMARK Flexibility Score: inf
ROOT
ATOM      1  C   UNL     1      -8.928  16.178 -12.221  1.00  0.00     0.004 C 
ENDROOT
BRANCH   1   2
ATOM      2  C   UNL     1      -7.453  15.750 -12.302  1.00  0.00     0.000 C 
BRANCH   2   3
ATOM      3  C   UNL     1      -7.101  15.098 -13.651  1.00  0.00     0.000 C 
BRANCH   3   4
ATOM      4  C   UNL     1      -7.996  13.891 -13.975  1.00  0.00     0.000 C 
BRANCH   4   5
ATOM      5  C   UNL     1      -7.353  12.934 -14.994  1.00  0.00     0.006 C 
BRANCH   5   6
ATOM      6  C   UNL     1      -5.825  13.073 -15.033  1.00  0.00     0.053 C 
BRANCH   6   7
ATOM      7  C   UNL     1      -5.162  12.246 -13.975  1.00  0.00     0.041 C 
ATOM      8  O   UNL     1      -4.888  11.037 -14.194  1.00  0.00    -0.550 OA
ATOM      9  O   UNL     1      -4.875  12.802 -12.734  1.00  0.00    -0.550 OA
ENDBRANCH   6   7
ENDBRANCH   5   6
ENDBRANCH   4   5
ENDBRANCH   3   4
ENDBRANCH   2   3
ENDBRANCH   1   2
BRANCH   1  10
ATOM     10  C   UNL     1      -9.191  17.530 -12.899  1.00  0.00     0.027 C 
BRANCH  10  11
ATOM     11  C   UNL     1      -8.223  18.576 -12.416  1.00  0.00    -0.031 C 
ATOM     12  C   UNL     1      -8.162  19.792 -12.980  1.00  0.00    -0.031 C 
BRANCH  12  13
ATOM     13  C   UNL     1      -7.186  20.835 -12.505  1.00  0.00     0.027 C 
BRANCH  13  14
ATOM     14  C   UNL     1      -5.862  20.794 -13.285  1.00  0.00     0.004 C 
BRANCH  14  15
ATOM     15  C   UNL     1      -6.064  20.364 -14.745  1.00  0.00     0.000 C 
BRANCH  15  16
ATOM     16  C   UNL     1      -5.102  19.230 -15.121  1.00  0.00    -0.000 C 
BRANCH  16  17
ATOM     17  C   UNL     1      -5.418  17.956 -14.327  1.00  0.00    -0.003 C 
ATOM     18  C   UNL     1      -5.025  16.708 -15.110  1.00  0.00     0.004 C 
ENDBRANCH  16  17
ENDBRANCH  15  16
ENDBRANCH  14  15
ENDBRANCH  13  14
ENDBRANCH  12  13
ENDBRANCH  10  11
ENDBRANCH   1  10
TORSDOF 13
ENDMDL
MODEL 2
REMARK VINA RESULT:    -2.381      1.045      2.265
REMARK INTER + INTRA:          -4.935
REMARK INTER:                  -4.576
REMARK INTRA:                  -0.359
REMARK UNBOUND:                -0.745
REMARK SMILES CCCCCCC=CCCCCCCCC(=O)[O-]
REMARK SMILES IDX 10 1 11 2 12 3 13 4 14 5 15 6 16 7 17 8 18 9 9 10 8 11 7 12
REMARK SMILES IDX 6 13 5 14 4 15 3 16 2 17 1 18
REMARK H PARENT
REMARK Flexibility Score: inf
ROOT
ATOM      1  C   UNL     1      -8.672  15.483 -11.889  1.00  0.00     0.004 C 
ENDROOT
BRANCH   1   2
ATOM      2  C   UNL     1      -7.649  14.868 -12.859  1.00  0.00     0.000 C 
BRANCH   2   3
ATOM      3  C   UNL     1      -8.248  13.734 -13.708  1.00  0.00     0.000 C 
BRANCH   3   4
ATOM      4  C   UNL     1      -7.411  13.431 -14.963  1.00  0.00     0.000 C 
BRANCH   4   5
ATOM      5  C   UNL     1      -6.218  14.390 -15.125  1.00  0.00     0.006 C 
BRANCH   5   6
ATOM      6  C   UNL     1      -4.875  13.647 -15.117  1.00  0.00     0.053 C 
BRANCH   6   7
ATOM      7  C   UNL     1      -4.893  12.471 -14.190  1.00  0.00     0.041 C 
ATOM      8  O   UNL     1      -4.942  11.300 -14.653  1.00  0.00    -0.550 OA
ATOM      9  O   UNL     1      -4.888  12.667 -12.815  1.00  0.00    -0.550 OA
ENDBRANCH   6   7
ENDBRANCH   5   6
ENDBRANCH   4   5
ENDBRANCH   3   4
ENDBRANCH   2   3
ENDBRANCH   1   2
BRANCH   1  10
ATOM     10  C   UNL     1      -9.319  16.761 -12.443  1.00  0.00     0.027 C 
BRANCH  10  11
ATOM     11  C   UNL     1      -8.679  17.175 -13.740  1.00  0.00    -0.031 C 
ATOM     12  C   UNL     1      -7.399  17.572 -13.797  1.00  0.00    -0.031 C 
BRANCH  12  13
ATOM     13  C   UNL     1      -6.761  17.997 -15.093  1.00  0.00     0.027 C 
BRANCH  13  14
ATOM     14  C   UNL     1      -5.315  18.478 -14.902  1.00  0.00     0.004 C 
BRANCH  14  15
ATOM     15  C   UNL     1      -5.150  19.326 -13.632  1.00  0.00     0.000 C 
BRANCH  15  16
ATOM     16  C   UNL     1      -5.311  20.819 -13.945  1.00  0.00    -0.000 C 
BRANCH  16  17
ATOM     17  C   UNL     1      -6.629  21.087 -14.681  1.00  0.00    -0.003 C 
ATOM     18  C   UNL     1      -7.819  20.993 -13.731  1.00  0.00     0.004 C 
ENDBRANCH  16  17
ENDBRANCH  15  16
ENDBRANCH  14  15
ENDBRANCH  13  14
ENDBRANCH  12  13
ENDBRANCH  10  11
ENDBRANCH   1  10
TORSDOF 13
ENDMDL
MODEL 3
REMARK VINA RESULT:    -1.685      2.456      6.546
REMARK INTER + INTRA:          -3.710
REMARK INTER:                  -4.510
REMARK INTRA:                   0.799
REMARK UNBOUND:                -0.745
REMARK SMILES CCCCCCC=CCCCCCCCC(=O)[O-]
REMARK SMILES IDX 10 1 11 2 12 3 13 4 14 5 15 6 16 7 17 8 18 9 9 10 8 11 7 12
REMARK SMILES IDX 6 13 5 14 4 15 3 16 2 17 1 18
REMARK H PARENT
REMARK Flexibility Score: inf
ROOT
ATOM      1  C   UNL     1      -5.243  17.424 -13.700  1.00  0.00     0.004 C 
ENDROOT
BRANCH   1   2
ATOM      2  C   UNL     1      -4.875  18.862 -14.100  1.00  0.00     0.000 C 
BRANCH   2   3
ATOM      3  C   UNL     1      -5.297  19.896 -13.042  1.00  0.00     0.000 C 
BRANCH   3   4
ATOM      4  C   UNL     1      -6.131  21.043 -13.635  1.00  0.00     0.000 C 
BRANCH   4   5
ATOM      5  C   UNL     1      -7.642  20.749 -13.614  1.00  0.00     0.006 C 
BRANCH   5   6
ATOM      6  C   UNL     1      -7.999  19.497 -14.426  1.00  0.00     0.053 C 
BRANCH   6   7
ATOM      7  C   UNL     1      -8.470  18.378 -13.548  1.00  0.00     0.041 C 
ATOM      8  O   UNL     1      -8.505  18.525 -12.298  1.00  0.00    -0.550 OA
ATOM      9  O   UNL     1      -8.840  17.162 -14.109  1.00  0.00    -0.550 OA
ENDBRANCH   6   7
ENDBRANCH   5   6
ENDBRANCH   4   5
ENDBRANCH   3   4
ENDBRANCH   2   3
ENDBRANCH   1   2
BRANCH   1  10
ATOM     10  C   UNL     1      -5.109  16.433 -14.866  1.00  0.00     0.027 C 
BRANCH  10  11
ATOM     11  C   UNL     1      -5.300  15.016 -14.398  1.00  0.00    -0.031 C 
ATOM     12  C   UNL     1      -4.875  13.971 -15.125  1.00  0.00    -0.031 C 
BRANCH  12  13
ATOM     13  C   UNL     1      -5.076  12.553 -14.662  1.00  0.00     0.027 C 
BRANCH  13  14
ATOM     14  C   UNL     1      -6.558  12.213 -14.446  1.00  0.00     0.004 C 
BRANCH  14  15
ATOM     15  C   UNL     1      -7.485  13.353 -14.893  1.00  0.00     0.000 C 
BRANCH  15  16
ATOM     16  C   UNL     1      -8.207  13.976 -13.692  1.00  0.00    -0.000 C 
BRANCH  16  17
ATOM     17  C   UNL     1      -7.279  14.054 -12.473  1.00  0.00    -0.003 C 
ATOM     18  C   UNL     1      -7.785  15.078 -11.462  1.00  0.00     0.004 C 
ENDBRANCH  16  17
ENDBRANCH  15  16
ENDBRANCH  14  15
ENDBRANCH  13  14
ENDBRANCH  12  13
ENDBRANCH  10  11
ENDBRANCH   1  10
TORSDOF 13
ENDMDL
MODEL 4
REMARK VINA RESULT:    -1.558      1.559      2.348
REMARK INTER + INTRA:          -3.488
REMARK INTER:                  -4.223
REMARK INTRA:                   0.735
REMARK UNBOUND:                -0.745
REMARK SMILES CCCCCCC=CCCCCCCCC(=O)[O-]
REMARK SMILES IDX 10 1 11 2 12 3 13 4 14 5 15 6 16 7 17 8 18 9 9 10 8 11 7 12
REMARK SMILES IDX 6 13 5 14 4 15 3 16 2 17 1 18
REMARK H PARENT
REMARK Flexibility Score: inf
ROOT
ATOM      1  C   UNL     1      -8.530  16.224 -11.688  1.00  0.00     0.004 C 
ENDROOT
BRANCH   1   2
ATOM      2  C   UNL     1      -7.228  15.544 -12.140  1.00  0.00     0.000 C 
BRANCH   2   3
ATOM      3  C   UNL     1      -7.109  14.097 -11.632  1.00  0.00     0.000 C 
BRANCH   3   4
ATOM      4  C   UNL     1      -6.803  13.098 -12.760  1.00  0.00     0.000 C 
BRANCH   4   5
ATOM      5  C   UNL     1      -7.883  13.093 -13.856  1.00  0.00     0.006 C 
BRANCH   5   6
ATOM      6  C   UNL     1      -7.529  14.027 -15.022  1.00  0.00     0.053 C 
BRANCH   6   7
ATOM      7  C   UNL     1      -6.063  14.333 -15.066  1.00  0.00     0.041 C 
ATOM      8  O   UNL     1      -5.665  15.527 -15.079  1.00  0.00    -0.550 OA
ATOM      9  O   UNL     1      -5.138  13.298 -15.125  1.00  0.00    -0.550 OA
ENDBRANCH   6   7
ENDBRANCH   5   6
ENDBRANCH   4   5
ENDBRANCH   3   4
ENDBRANCH   2   3
ENDBRANCH   1   2
BRANCH   1  10
ATOM     10  C   UNL     1      -9.316  16.837 -12.857  1.00  0.00     0.027 C 
BRANCH  10  11
ATOM     11  C   UNL     1      -8.389  17.459 -13.865  1.00  0.00    -0.031 C 
ATOM     12  C   UNL     1      -8.397  18.779 -14.107  1.00  0.00    -0.031 C 
BRANCH  12  13
ATOM     13  C   UNL     1      -7.479  19.401 -15.125  1.00  0.00     0.027 C 
BRANCH  13  14
ATOM     14  C   UNL     1      -6.926  20.757 -14.661  1.00  0.00     0.004 C 
BRANCH  14  15
ATOM     15  C   UNL     1      -7.327  21.082 -13.215  1.00  0.00     0.000 C 
BRANCH  15  16
ATOM     16  C   UNL     1      -6.189  20.751 -12.242  1.00  0.00    -0.000 C 
BRANCH  16  17
ATOM     17  C   UNL     1      -4.883  20.476 -12.998  1.00  0.00    -0.003 C 
ATOM     18  C   UNL     1      -4.907  19.100 -13.655  1.00  0.00     0.004 C 
ENDBRANCH  16  17
ENDBRANCH  15  16
ENDBRANCH  14  15
ENDBRANCH  13  14
ENDBRANCH  12  13
ENDBRANCH  10  11
ENDBRANCH   1  10
TORSDOF 13
ENDMDL
MODEL 5
REMARK VINA RESULT:    -1.539      1.918      2.331
REMARK INTER + INTRA:          -3.455
REMARK INTER:                  -3.762
REMARK INTRA:                   0.308
REMARK UNBOUND:                -0.745
REMARK SMILES CCCCCCC=CCCCCCCCC(=O)[O-]
REMARK SMILES IDX 10 1 11 2 12 3 13 4 14 5 15 6 16 7 17 8 18 9 9 10 8 11 7 12
REMARK SMILES IDX 6 13 5 14 4 15 3 16 2 17 1 18
REMARK H PARENT
REMARK Flexibility Score: inf
ROOT
ATOM      1  C   UNL     1      -7.619  15.566 -12.118  1.00  0.00     0.004 C 
ENDROOT
BRANCH   1   2
ATOM      2  C   UNL     1      -6.302  15.978 -12.795  1.00  0.00     0.000 C 
BRANCH   2   3
ATOM      3  C   UNL     1      -6.354  15.830 -14.326  1.00  0.00     0.000 C 
BRANCH   3   4
ATOM      4  C   UNL     1      -5.748  14.503 -14.812  1.00  0.00     0.000 C 
BRANCH   4   5
ATOM      5  C   UNL     1      -6.388  13.277 -14.138  1.00  0.00     0.006 C 
BRANCH   5   6
ATOM      6  C   UNL     1      -7.261  12.472 -15.111  1.00  0.00     0.053 C 
BRANCH   6   7
ATOM      7  C   UNL     1      -8.684  12.938 -15.101  1.00  0.00     0.041 C 
ATOM      8  O   UNL     1      -9.625  12.102 -15.125  1.00  0.00    -0.550 OA
ATOM      9  O   UNL     1      -8.972  14.297 -15.097  1.00  0.00    -0.550 OA
ENDBRANCH   6   7
ENDBRANCH   5   6
ENDBRANCH   4   5
ENDBRANCH   3   4
ENDBRANCH   2   3
ENDBRANCH   1   2
BRANCH   1  10
ATOM     10  C   UNL     1      -8.823  16.378 -12.618  1.00  0.00     0.027 C 
BRANCH  10  11
ATOM     11  C   UNL     1      -8.721  17.817 -12.191  1.00  0.00    -0.031 C 
ATOM     12  C   UNL     1      -8.224  18.760 -13.007  1.00  0.00    -0.031 C 
BRANCH  12  13
ATOM     13  C   UNL     1      -8.112  20.198 -12.576  1.00  0.00     0.027 C 
BRANCH  13  14
ATOM     14  C   UNL     1      -6.805  20.850 -13.054  1.00  0.00     0.004 C 
BRANCH  14  15
ATOM     15  C   UNL     1      -6.772  21.030 -14.579  1.00  0.00     0.000 C 
BRANCH  15  16
ATOM     16  C   UNL     1      -5.354  20.823 -15.125  1.00  0.00    -0.000 C 
BRANCH  16  17
ATOM     17  C   UNL     1      -4.939  19.349 -15.033  1.00  0.00    -0.003 C 
ATOM     18  C   UNL     1      -4.888  18.881 -13.582  1.00  0.00     0.004 C 
ENDBRANCH  16  17
ENDBRANCH  15  16
ENDBRANCH  14  15
ENDBRANCH  13  14
ENDBRANCH  12  13
ENDBRANCH  10  11
ENDBRANCH   1  10
TORSDOF 13
ENDMDL
MODEL 6
REMARK VINA RESULT:    -1.356      3.330      6.354
REMARK INTER + INTRA:          -3.133
REMARK INTER:                  -2.471
REMARK INTRA:                  -0.661
REMARK UNBOUND:                -0.745
REMARK SMILES CCCCCCC=CCCCCCCCC(=O)[O-]
REMARK SMILES IDX 10 1 11 2 12 3 13 4 14 5 15 6 16 7 17 8 18 9 9 10 8 11 7 12
REMARK SMILES IDX 6 13 5 14 4 15 3 16 2 17 1 18
REMARK H PARENT
REMARK Flexibility Score: inf
ROOT
ATOM      1  C   UNL     1      -7.849  16.785 -14.715  1.00  0.00     0.004 C 
ENDROOT
BRANCH   1   2
ATOM      2  C   UNL     1      -6.324  16.919 -14.850  1.00  0.00     0.000 C 
BRANCH   2   3
ATOM      3  C   UNL     1      -5.879  18.366 -15.121  1.00  0.00     0.000 C 
BRANCH   3   4
ATOM      4  C   UNL     1      -4.974  18.925 -14.010  1.00  0.00     0.000 C 
BRANCH   4   5
ATOM      5  C   UNL     1      -4.875  20.460 -14.043  1.00  0.00     0.006 C 
BRANCH   5   6
ATOM      6  C   UNL     1      -6.122  21.107 -14.662  1.00  0.00     0.053 C 
BRANCH   6   7
ATOM      7  C   UNL     1      -7.343  20.878 -13.826  1.00  0.00     0.041 C 
ATOM      8  O   UNL     1      -7.288  21.006 -12.574  1.00  0.00    -0.550 OA
ATOM      9  O   UNL     1      -8.535  20.491 -14.425  1.00  0.00    -0.550 OA
ENDBRANCH   6   7
ENDBRANCH   5   6
ENDBRANCH   4   5
ENDBRANCH   3   4
ENDBRANCH   2   3
ENDBRANCH   1   2
BRANCH   1  10
ATOM     10  C   UNL     1      -8.400  17.503 -13.473  1.00  0.00     0.027 C 
BRANCH  10  11
ATOM     11  C   UNL     1      -8.356  16.607 -12.266  1.00  0.00    -0.031 C 
ATOM     12  C   UNL     1      -7.588  15.507 -12.233  1.00  0.00    -0.031 C 
BRANCH  12  13
ATOM     13  C   UNL     1      -7.552  14.604 -11.029  1.00  0.00     0.027 C 
BRANCH  13  14
ATOM     14  C   UNL     1      -7.342  13.131 -11.410  1.00  0.00     0.004 C 
BRANCH  14  15
ATOM     15  C   UNL     1      -6.412  12.973 -12.622  1.00  0.00     0.000 C 
BRANCH  15  16
ATOM     16  C   UNL     1      -7.213  12.648 -13.889  1.00  0.00    -0.000 C 
BRANCH  16  17
ATOM     17  C   UNL     1      -6.635  13.379 -15.107  1.00  0.00    -0.003 C 
ATOM     18  C   UNL     1      -5.170  13.742 -14.888  1.00  0.00     0.004 C 
ENDBRANCH  16  17
ENDBRANCH  15  16
ENDBRANCH  14  15
ENDBRANCH  13  14
ENDBRANCH  12  13
ENDBRANCH  10  11
ENDBRANCH   1  10
TORSDOF 13
ENDMDL
MODEL 7
REMARK VINA RESULT:    -1.264      1.987      5.538
REMARK INTER + INTRA:          -2.970
REMARK INTER:                  -3.863
REMARK INTRA:                   0.893
REMARK UNBOUND:                -0.745
REMARK SMILES CCCCCCC=CCCCCCCCC(=O)[O-]
REMARK SMILES IDX 10 1 11 2 12 3 13 4 14 5 15 6 16 7 17 8 18 9 9 10 8 11 7 12
REMARK SMILES IDX 6 13 5 14 4 15 3 16 2 17 1 18
REMARK H PARENT
REMARK Flexibility Score: inf
ROOT
ATOM      1  C   UNL     1      -8.088  19.446 -13.428  1.00  0.00     0.004 C 
ENDROOT
BRANCH   1   2
ATOM      2  C   UNL     1      -7.860  20.830 -12.798  1.00  0.00     0.000 C 
BRANCH   2   3
ATOM      3  C   UNL     1      -6.441  20.991 -12.225  1.00  0.00     0.000 C 
BRANCH   3   4
ATOM      4  C   UNL     1      -5.388  20.208 -13.028  1.00  0.00     0.000 C 
BRANCH   4   5
ATOM      5  C   UNL     1      -5.867  19.855 -14.447  1.00  0.00     0.006 C 
BRANCH   5   6
ATOM      6  C   UNL     1      -4.954  18.824 -15.125  1.00  0.00     0.053 C 
BRANCH   6   7
ATOM      7  C   UNL     1      -4.976  17.506 -14.413  1.00  0.00     0.041 C 
ATOM      8  O   UNL     1      -4.875  16.433 -15.063  1.00  0.00    -0.550 OA
ATOM      9  O   UNL     1      -5.139  17.463 -13.034  1.00  0.00    -0.550 OA
ENDBRANCH   6   7
ENDBRANCH   5   6
ENDBRANCH   4   5
ENDBRANCH   3   4
ENDBRANCH   2   3
ENDBRANCH   1   2
BRANCH   1  10
ATOM     10  C   UNL     1      -8.577  18.405 -12.410  1.00  0.00     0.027 C 
BRANCH  10  11
ATOM     11  C   UNL     1      -9.003  17.135 -13.095  1.00  0.00    -0.031 C 
ATOM     12  C   UNL     1      -8.172  16.460 -13.904  1.00  0.00    -0.031 C 
BRANCH  12  13
ATOM     13  C   UNL     1      -8.601  15.195 -14.599  1.00  0.00     0.027 C 
BRANCH  13  14
ATOM     14  C   UNL     1      -7.407  14.379 -15.118  1.00  0.00     0.004 C 
BRANCH  14  15
ATOM     15  C   UNL     1      -7.594  12.872 -14.892  1.00  0.00     0.000 C 
BRANCH  15  16
ATOM     16  C   UNL     1      -7.570  12.535 -13.396  1.00  0.00    -0.000 C 
BRANCH  16  17
ATOM     17  C   UNL     1      -6.623  13.472 -12.636  1.00  0.00    -0.003 C 
ATOM     18  C   UNL     1      -7.301  14.057 -11.401  1.00  0.00     0.004 C 
ENDBRANCH  16  17
ENDBRANCH  15  16
ENDBRANCH  14  15
ENDBRANCH  13  14
ENDBRANCH  12  13
ENDBRANCH  10  11
ENDBRANCH   1  10
TORSDOF 13
ENDMDL
