MODEL 1
REMARK VINA RESULT:    -3.894      0.000      0.000
REMARK INTER + INTRA:          -7.647
REMARK INTER:                  -6.625
REMARK INTRA:                  -1.022
REMARK UNBOUND:                -1.022
REMARK SMILES CCCCCCCCCCCCCC(=O)[O-]
REMARK SMILES IDX 8 1 9 2 10 3 11 4 12 5 13 6 14 7 15 8 16 9 7 10 6 11 5 12
REMARK SMILES IDX 4 13 3 14 2 15 1 16
REMARK H PARENT
REMARK Flexibility Score: inf
ROOT
ATOM      1  C   UNL     1     163.435 161.571 188.451  1.00  0.00     0.000 C 
ENDROOT
BRANCH   1   2
ATOM      2  C   UNL     1     163.998 160.175 188.771  1.00  0.00     0.000 C 
BRANCH   2   3
ATOM      3  C   UNL     1     165.363 160.240 189.477  1.00  0.00     0.000 C 
BRANCH   3   4
ATOM      4  C   UNL     1     166.001 161.637 189.396  1.00  0.00     0.000 C 
BRANCH   4   5
ATOM      5  C   UNL     1     167.416 161.619 188.789  1.00  0.00     0.006 C 
BRANCH   5   6
ATOM      6  C   UNL     1     167.808 160.272 188.156  1.00  0.00     0.053 C 
BRANCH   6   7
ATOM      7  C   UNL     1     167.630 160.261 186.668  1.00  0.00     0.041 C 
ATOM      8  O   UNL     1     168.569 160.634 185.915  1.00  0.00    -0.550 OA
ATOM      9  O   UNL     1     166.416 159.876 186.112  1.00  0.00    -0.550 OA
ENDBRANCH   6   7
ENDBRANCH   5   6
ENDBRANCH   4   5
ENDBRANCH   3   4
ENDBRANCH   2   3
ENDBRANCH   1   2
BRANCH   1  10
ATOM     10  C   UNL     1     162.076 161.512 187.734  1.00  0.00     0.000 C 
BRANCH  10  11
ATOM     11  C   UNL     1     160.893 161.753 188.687  1.00  0.00    -0.000 C 
BRANCH  11  12
ATOM     12  C   UNL     1     160.750 163.231 189.089  1.00  0.00    -0.000 C 
BRANCH  12  13
ATOM     13  C   UNL     1     159.875 164.030 188.112  1.00  0.00    -0.000 C 
BRANCH  13  14
ATOM     14  C   UNL     1     160.692 165.133 187.421  1.00  0.00    -0.000 C 
BRANCH  14  15
ATOM     15  C   UNL     1     160.484 165.157 185.899  1.00  0.00    -0.003 C 
ATOM     16  C   UNL     1     160.064 163.799 185.338  1.00  0.00     0.004 C 
ENDBRANCH  14  15
ENDBRANCH  13  14
ENDBRANCH  12  13
ENDBRANCH  11  12
ENDBRANCH  10  11
ENDBRANCH   1  10
TORSDOF 12
ENDMDL
MODEL 2
REMARK VINA RESULT:    -3.891      1.816      3.936
REMARK INTER + INTRA:          -7.642
REMARK INTER:                  -5.907
REMARK INTRA:                  -1.734
REMARK UNBOUND:                -1.022
REMARK SMILES CCCCCCCCCCCCCC(=O)[O-]
REMARK SMILES IDX 8 1 9 2 10 3 11 4 12 5 13 6 14 7 15 8 16 9 7 10 6 11 5 12
REMARK SMILES IDX 4 13 3 14 2 15 1 16
REMARK H PARENT
REMARK Flexibility Score: inf
ROOT
ATOM      1  C   UNL     1     161.240 164.286 188.211  1.00  0.00     0.000 C 
ENDROOT
BRANCH   1   2
ATOM      2  C   UNL     1     160.447 163.082 188.750  1.00  0.00     0.000 C 
BRANCH   2   3
ATOM      3  C   UNL     1     161.244 161.770 188.667  1.00  0.00     0.000 C 
BRANCH   3   4
ATOM      4  C   UNL     1     162.735 162.005 188.370  1.00  0.00     0.000 C 
BRANCH   4   5
ATOM      5  C   UNL     1     163.468 160.728 187.919  1.00  0.00     0.006 C 
BRANCH   5   6
ATOM      6  C   UNL     1     164.281 160.046 189.034  1.00  0.00     0.053 C 
BRANCH   6   7
ATOM      7  C   UNL     1     165.701 160.525 189.087  1.00  0.00     0.041 C 
ATOM      8  O   UNL     1     166.256 160.975 188.050  1.00  0.00    -0.550 OA
ATOM      9  O   UNL     1     166.423 160.441 190.271  1.00  0.00    -0.550 OA
ENDBRANCH   6   7
ENDBRANCH   5   6
ENDBRANCH   4   5
ENDBRANCH   3   4
ENDBRANCH   2   3
ENDBRANCH   1   2
BRANCH   1  10
ATOM     10  C   UNL     1     160.341 165.325 187.518  1.00  0.00     0.000 C 
BRANCH  10  11
ATOM     11  C   UNL     1     160.233 165.095 186.001  1.00  0.00    -0.000 C 
BRANCH  11  12
ATOM     12  C   UNL     1     161.496 164.448 185.410  1.00  0.00    -0.000 C 
BRANCH  12  13
ATOM     13  C   UNL     1     161.176 163.349 184.386  1.00  0.00    -0.000 C 
BRANCH  13  14
ATOM     14  C   UNL     1     160.228 162.299 184.987  1.00  0.00    -0.000 C 
BRANCH  14  15
ATOM     15  C   UNL     1     160.900 160.929 185.167  1.00  0.00    -0.003 C 
ATOM     16  C   UNL     1     162.275 160.854 184.504  1.00  0.00     0.004 C 
ENDBRANCH  14  15
ENDBRANCH  13  14
ENDBRANCH  12  13
ENDBRANCH  11  12
ENDBRANCH  10  11
ENDBRANCH   1  10
TORSDOF 12
ENDMDL
MODEL 3
REMARK VINA RESULT:    -3.884      2.516      6.330
REMARK INTER + INTRA:          -7.631
REMARK INTER:                  -6.133
REMARK INTRA:                  -1.498
REMARK UNBOUND:                -1.022
REMARK SMILES CCCCCCCCCCCCCC(=O)[O-]
REMARK SMILES IDX 8 1 9 2 10 3 11 4 12 5 13 6 14 7 15 8 16 9 7 10 6 11 5 12
REMARK SMILES IDX 4 13 3 14 2 15 1 16
REMARK H PARENT
REMARK Flexibility Score: inf
ROOT
ATOM      1  C   UNL     1     163.607 162.343 187.993  1.00  0.00     0.000 C 
ENDROOT
BRANCH   1   2
ATOM      2  C   UNL     1     162.935 163.491 188.768  1.00  0.00     0.000 C 
BRANCH   2   3
ATOM      3  C   UNL     1     161.401 163.385 188.760  1.00  0.00     0.000 C 
BRANCH   3   4
ATOM      4  C   UNL     1     160.747 164.394 187.801  1.00  0.00     0.000 C 
BRANCH   4   5
ATOM      5  C   UNL     1     159.875 163.722 186.723  1.00  0.00     0.006 C 
BRANCH   5   6
ATOM      6  C   UNL     1     160.679 163.064 185.588  1.00  0.00     0.053 C 
BRANCH   6   7
ATOM      7  C   UNL     1     160.719 161.570 185.703  1.00  0.00     0.041 C 
ATOM      8  O   UNL     1     161.489 160.899 184.966  1.00  0.00    -0.550 OA
ATOM      9  O   UNL     1     159.880 160.914 186.596  1.00  0.00    -0.550 OA
ENDBRANCH   6   7
ENDBRANCH   5   6
ENDBRANCH   4   5
ENDBRANCH   3   4
ENDBRANCH   2   3
ENDBRANCH   1   2
BRANCH   1  10
ATOM     10  C   UNL     1     163.045 160.963 188.373  1.00  0.00     0.000 C 
BRANCH  10  11
ATOM     11  C   UNL     1     164.133 159.878 188.437  1.00  0.00    -0.000 C 
BRANCH  11  12
ATOM     12  C   UNL     1     164.916 159.904 189.760  1.00  0.00    -0.000 C 
BRANCH  12  13
ATOM     13  C   UNL     1     166.375 160.351 189.577  1.00  0.00    -0.000 C 
BRANCH  13  14
ATOM     14  C   UNL     1     166.619 161.712 190.248  1.00  0.00    -0.000 C 
BRANCH  14  15
ATOM     15  C   UNL     1     167.093 162.784 189.255  1.00  0.00    -0.003 C 
ATOM     16  C   UNL     1     167.818 162.192 188.046  1.00  0.00     0.004 C 
ENDBRANCH  14  15
ENDBRANCH  13  14
ENDBRANCH  12  13
ENDBRANCH  11  12
ENDBRANCH  10  11
ENDBRANCH   1  10
TORSDOF 12
ENDMDL
MODEL 4
REMARK VINA RESULT:    -3.883      3.165      6.486
REMARK INTER + INTRA:          -7.629
REMARK INTER:                  -6.264
REMARK INTRA:                  -1.364
REMARK UNBOUND:                -1.022
REMARK SMILES CCCCCCCCCCCCCC(=O)[O-]
REMARK SMILES IDX 8 1 9 2 10 3 11 4 12 5 13 6 14 7 15 8 16 9 7 10 6 11 5 12
REMARK SMILES IDX 4 13 3 14 2 15 1 16
REMARK H PARENT
REMARK Flexibility Score: inf
ROOT
ATOM      1  C   UNL     1     161.879 162.976 188.252  1.00  0.00     0.000 C 
ENDROOT
BRANCH   1   2
ATOM      2  C   UNL     1     160.704 162.244 188.925  1.00  0.00     0.000 C 
BRANCH   2   3
ATOM      3  C   UNL     1     159.878 161.417 187.926  1.00  0.00     0.000 C 
BRANCH   3   4
ATOM      4  C   UNL     1     159.977 161.959 186.491  1.00  0.00     0.000 C 
BRANCH   4   5
ATOM      5  C   UNL     1     160.432 160.894 185.475  1.00  0.00     0.006 C 
BRANCH   5   6
ATOM      6  C   UNL     1     161.445 161.411 184.438  1.00  0.00     0.053 C 
BRANCH   6   7
ATOM      7  C   UNL     1     160.945 162.612 183.693  1.00  0.00     0.041 C 
ATOM      8  O   UNL     1     160.087 162.480 182.781  1.00  0.00    -0.550 OA
ATOM      9  O   UNL     1     161.452 163.874 183.981  1.00  0.00    -0.550 OA
ENDBRANCH   6   7
ENDBRANCH   5   6
ENDBRANCH   4   5
ENDBRANCH   3   4
ENDBRANCH   2   3
ENDBRANCH   1   2
BRANCH   1  10
ATOM     10  C   UNL     1     163.232 162.291 188.514  1.00  0.00     0.000 C 
BRANCH  10  11
ATOM     11  C   UNL     1     163.683 161.404 187.341  1.00  0.00    -0.000 C 
BRANCH  11  12
ATOM     12  C   UNL     1     164.539 160.212 187.797  1.00  0.00    -0.000 C 
BRANCH  12  13
ATOM     13  C   UNL     1     164.723 160.162 189.322  1.00  0.00    -0.000 C 
BRANCH  13  14
ATOM     14  C   UNL     1     166.193 160.396 189.705  1.00  0.00    -0.000 C 
BRANCH  14  15
ATOM     15  C   UNL     1     166.466 161.842 190.146  1.00  0.00    -0.003 C 
ATOM     16  C   UNL     1     167.365 162.599 189.169  1.00  0.00     0.004 C 
ENDBRANCH  14  15
ENDBRANCH  13  14
ENDBRANCH  12  13
ENDBRANCH  11  12
ENDBRANCH  10  11
ENDBRANCH   1  10
TORSDOF 12
ENDMDL
MODEL 5
REMARK VINA RESULT:    -3.838      2.989      6.076
REMARK INTER + INTRA:          -7.552
REMARK INTER:                  -5.984
REMARK INTRA:                  -1.568
REMARK UNBOUND:                -1.022
REMARK SMILES CCCCCCCCCCCCCC(=O)[O-]
REMARK SMILES IDX 8 1 9 2 10 3 11 4 12 5 13 6 14 7 15 8 16 9 7 10 6 11 5 12
REMARK SMILES IDX 4 13 3 14 2 15 1 16
REMARK H PARENT
REMARK Flexibility Score: inf
ROOT
ATOM      1  C   UNL     1     161.799 161.678 184.929  1.00  0.00     0.000 C 
ENDROOT
BRANCH   1   2
ATOM      2  C   UNL     1     160.621 160.976 185.628  1.00  0.00     0.000 C 
BRANCH   2   3
ATOM      3  C   UNL     1     160.083 161.781 186.823  1.00  0.00     0.000 C 
BRANCH   3   4
ATOM      4  C   UNL     1     160.853 161.490 188.122  1.00  0.00     0.000 C 
BRANCH   4   5
ATOM      5  C   UNL     1     161.367 162.765 188.816  1.00  0.00     0.006 C 
BRANCH   5   6
ATOM      6  C   UNL     1     161.867 163.848 187.845  1.00  0.00     0.053 C 
BRANCH   6   7
ATOM      7  C   UNL     1     163.110 164.530 188.333  1.00  0.00     0.041 C 
ATOM      8  O   UNL     1     163.863 163.955 189.163  1.00  0.00    -0.550 OA
ATOM      9  O   UNL     1     163.418 165.815 187.902  1.00  0.00    -0.550 OA
ENDBRANCH   6   7
ENDBRANCH   5   6
ENDBRANCH   4   5
ENDBRANCH   3   4
ENDBRANCH   2   3
ENDBRANCH   1   2
BRANCH   1  10
ATOM     10  C   UNL     1     162.863 160.688 184.425  1.00  0.00     0.000 C 
BRANCH  10  11
ATOM     11  C   UNL     1     164.262 160.982 184.993  1.00  0.00    -0.000 C 
BRANCH  11  12
ATOM     12  C   UNL     1     164.227 161.351 186.486  1.00  0.00    -0.000 C 
BRANCH  12  13
ATOM     13  C   UNL     1     164.650 160.187 187.395  1.00  0.00    -0.000 C 
BRANCH  13  14
ATOM     14  C   UNL     1     164.512 160.570 188.876  1.00  0.00    -0.000 C 
BRANCH  14  15
ATOM     15  C   UNL     1     165.812 160.356 189.667  1.00  0.00    -0.003 C 
ATOM     16  C   UNL     1     166.485 161.668 190.066  1.00  0.00     0.004 C 
ENDBRANCH  14  15
ENDBRANCH  13  14
ENDBRANCH  12  13
ENDBRANCH  11  12
ENDBRANCH  10  11
ENDBRANCH   1  10
TORSDOF 12
ENDMDL
MODEL 6
REMARK VINA RESULT:    -3.823     10.411     13.488
REMARK INTER + INTRA:          -7.527
REMARK INTER:                  -6.267
REMARK INTRA:                  -1.260
REMARK UNBOUND:                -1.022
REMARK SMILES CCCCCCCCCCCCCC(=O)[O-]
REMARK SMILES IDX 8 1 9 2 10 3 11 4 12 5 13 6 14 7 15 8 16 9 7 10 6 11 5 12
REMARK SMILES IDX 4 13 3 14 2 15 1 16
REMARK H PARENT
REMARK Flexibility Score: inf
ROOT
ATOM      1  C   UNL     1     161.805 173.176 188.058  1.00  0.00     0.000 C 
ENDROOT
BRANCH   1   2
ATOM      2  C   UNL     1     161.654 174.489 188.847  1.00  0.00     0.000 C 
BRANCH   2   3
ATOM      3  C   UNL     1     160.232 175.069 188.754  1.00  0.00     0.000 C 
BRANCH   3   4
ATOM      4  C   UNL     1     160.228 176.605 188.686  1.00  0.00     0.000 C 
BRANCH   4   5
ATOM      5  C   UNL     1     160.901 177.154 187.414  1.00  0.00     0.006 C 
BRANCH   5   6
ATOM      6  C   UNL     1     162.066 178.121 187.689  1.00  0.00     0.053 C 
BRANCH   6   7
ATOM      7  C   UNL     1     163.386 177.576 187.238  1.00  0.00     0.041 C 
ATOM      8  O   UNL     1     163.435 176.518 186.555  1.00  0.00    -0.550 OA
ATOM      9  O   UNL     1     164.567 178.213 187.601  1.00  0.00    -0.550 OA
ENDBRANCH   6   7
ENDBRANCH   5   6
ENDBRANCH   4   5
ENDBRANCH   3   4
ENDBRANCH   2   3
ENDBRANCH   1   2
BRANCH   1  10
ATOM     10  C   UNL     1     161.166 173.248 186.660  1.00  0.00     0.000 C 
BRANCH  10  11
ATOM     11  C   UNL     1     160.094 172.166 186.444  1.00  0.00    -0.000 C 
BRANCH  11  12
ATOM     12  C   UNL     1     159.876 171.293 187.691  1.00  0.00    -0.000 C 
BRANCH  12  13
ATOM     13  C   UNL     1     160.306 169.834 187.476  1.00  0.00    -0.000 C 
BRANCH  13  14
ATOM     14  C   UNL     1     160.262 169.049 188.797  1.00  0.00    -0.000 C 
BRANCH  14  15
ATOM     15  C   UNL     1     160.481 169.945 190.025  1.00  0.00    -0.003 C 
ATOM     16  C   UNL     1     161.951 170.034 190.437  1.00  0.00     0.004 C 
ENDBRANCH  14  15
ENDBRANCH  13  14
ENDBRANCH  12  13
ENDBRANCH  11  12
ENDBRANCH  10  11
ENDBRANCH   1  10
TORSDOF 12
ENDMDL
MODEL 7
REMARK VINA RESULT:    -3.813     10.705     13.373
REMARK INTER + INTRA:          -7.510
REMARK INTER:                  -5.521
REMARK INTRA:                  -1.989
REMARK UNBOUND:                -1.022
REMARK SMILES CCCCCCCCCCCCCC(=O)[O-]
REMARK SMILES IDX 8 1 9 2 10 3 11 4 12 5 13 6 14 7 15 8 16 9 7 10 6 11 5 12
REMARK SMILES IDX 4 13 3 14 2 15 1 16
REMARK H PARENT
REMARK Flexibility Score: inf
ROOT
ATOM      1  C   UNL     1     176.097 164.356 190.455  1.00  0.00     0.000 C 
ENDROOT
BRANCH   1   2
ATOM      2  C   UNL     1     174.747 164.295 189.719  1.00  0.00     0.000 C 
BRANCH   2   3
ATOM      3  C   UNL     1     174.562 165.463 188.735  1.00  0.00     0.000 C 
BRANCH   3   4
ATOM      4  C   UNL     1     174.792 165.043 187.274  1.00  0.00     0.000 C 
BRANCH   4   5
ATOM      5  C   UNL     1     176.095 165.612 186.682  1.00  0.00     0.006 C 
BRANCH   5   6
ATOM      6  C   UNL     1     176.780 166.664 187.571  1.00  0.00     0.053 C 
BRANCH   6   7
ATOM      7  C   UNL     1     178.263 166.720 187.359  1.00  0.00     0.041 C 
ATOM      8  O   UNL     1     178.842 167.830 187.224  1.00  0.00    -0.550 OA
ATOM      9  O   UNL     1     179.001 165.545 187.273  1.00  0.00    -0.550 OA
ENDBRANCH   6   7
ENDBRANCH   5   6
ENDBRANCH   4   5
ENDBRANCH   3   4
ENDBRANCH   2   3
ENDBRANCH   1   2
BRANCH   1  10
ATOM     10  C   UNL     1     177.228 163.659 189.679  1.00  0.00     0.000 C 
BRANCH  10  11
ATOM     11  C   UNL     1     176.861 162.226 189.259  1.00  0.00    -0.000 C 
BRANCH  11  12
ATOM     12  C   UNL     1     176.838 162.046 187.732  1.00  0.00    -0.000 C 
BRANCH  12  13
ATOM     13  C   UNL     1     175.699 161.129 187.260  1.00  0.00    -0.000 C 
BRANCH  13  14
ATOM     14  C   UNL     1     175.110 160.336 188.436  1.00  0.00    -0.000 C 
BRANCH  14  15
ATOM     15  C   UNL     1     173.580 160.447 188.516  1.00  0.00    -0.003 C 
ATOM     16  C   UNL     1     173.037 161.678 187.791  1.00  0.00     0.004 C 
ENDBRANCH  14  15
ENDBRANCH  13  14
ENDBRANCH  12  13
ENDBRANCH  11  12
ENDBRANCH  10  11
ENDBRANCH   1  10
TORSDOF 12
ENDMDL
MODEL 8
REMARK VINA RESULT:    -3.765      3.287      5.966
REMARK INTER + INTRA:          -7.429
REMARK INTER:                  -5.347
REMARK INTRA:                  -2.082
REMARK UNBOUND:                -1.022
REMARK SMILES CCCCCCCCCCCCCC(=O)[O-]
REMARK SMILES IDX 8 1 9 2 10 3 11 4 12 5 13 6 14 7 15 8 16 9 7 10 6 11 5 12
REMARK SMILES IDX 4 13 3 14 2 15 1 16
REMARK H PARENT
REMARK Flexibility Score: inf
ROOT
ATOM      1  C   UNL     1     167.191 160.414 186.731  1.00  0.00     0.000 C 
ENDROOT
BRANCH   1   2
ATOM      2  C   UNL     1     165.661 160.250 186.706  1.00  0.00     0.000 C 
BRANCH   2   3
ATOM      3  C   UNL     1     164.959 161.396 185.958  1.00  0.00     0.000 C 
BRANCH   3   4
ATOM      4  C   UNL     1     163.452 161.458 186.257  1.00  0.00     0.000 C 
BRANCH   4   5
ATOM      5  C   UNL     1     163.106 161.042 187.698  1.00  0.00     0.006 C 
BRANCH   5   6
ATOM      6  C   UNL     1     162.425 162.148 188.523  1.00  0.00     0.053 C 
BRANCH   6   7
ATOM      7  C   UNL     1     160.933 162.005 188.558  1.00  0.00     0.041 C 
ATOM      8  O   UNL     1     160.381 160.997 188.042  1.00  0.00    -0.550 OA
ATOM      9  O   UNL     1     160.148 163.001 189.127  1.00  0.00    -0.550 OA
ENDBRANCH   6   7
ENDBRANCH   5   6
ENDBRANCH   4   5
ENDBRANCH   3   4
ENDBRANCH   2   3
ENDBRANCH   1   2
BRANCH   1  10
ATOM     10  C   UNL     1     167.752 160.525 188.158  1.00  0.00     0.000 C 
BRANCH  10  11
ATOM     11  C   UNL     1     166.688 160.252 189.235  1.00  0.00    -0.000 C 
BRANCH  11  12
ATOM     12  C   UNL     1     166.594 161.382 190.272  1.00  0.00    -0.000 C 
BRANCH  12  13
ATOM     13  C   UNL     1     166.904 162.763 189.675  1.00  0.00    -0.000 C 
BRANCH  13  14
ATOM     14  C   UNL     1     165.621 163.446 189.177  1.00  0.00    -0.000 C 
BRANCH  14  15
ATOM     15  C   UNL     1     165.891 164.477 188.070  1.00  0.00    -0.003 C 
ATOM     16  C   UNL     1     167.101 164.117 187.209  1.00  0.00     0.004 C 
ENDBRANCH  14  15
ENDBRANCH  13  14
ENDBRANCH  12  13
ENDBRANCH  11  12
ENDBRANCH  10  11
ENDBRANCH   1  10
TORSDOF 12
ENDMDL
