MODEL 1
REMARK VINA RESULT:    -5.458      0.000      0.000
REMARK INTER + INTRA:          -6.527
REMARK INTER:                  -6.256
REMARK INTRA:                  -0.271
REMARK UNBOUND:                -0.271
REMARK SMILES O=C([O-])C=Cc1ccc(O)cc1
REMARK SMILES IDX 6 1 7 2 12 3 8 4 11 5 9 6 5 7 4 8 2 9 1 10 3 11 10 12
REMARK H PARENT 10 13
REMARK Flexibility Score: inf
ROOT
ATOM      1  C   UNL     1       6.201  -1.999  48.288  1.00  0.00    -0.025 A 
ATOM      2  C   UNL     1       6.284  -0.837  47.508  1.00  0.00     0.012 A 
ATOM      3  C   UNL     1       5.696  -3.179  47.712  1.00  0.00     0.012 A 
ATOM      4  C   UNL     1       5.820  -0.838  46.189  1.00  0.00     0.047 A 
ATOM      5  C   UNL     1       5.233  -3.178  46.393  1.00  0.00     0.047 A 
ATOM      6  C   UNL     1       5.290  -2.004  45.629  1.00  0.00     0.115 A 
ENDROOT
BRANCH   1   7
ATOM      7  C   UNL     1       6.746  -1.991  49.661  1.00  0.00     0.010 C 
ATOM      8  C   UNL     1       8.006  -2.301  49.999  1.00  0.00     0.025 C 
BRANCH   8   9
ATOM      9  C   UNL     1       9.016  -2.884  49.096  1.00  0.00     0.064 C 
ATOM     10  O   UNL     1       9.917  -2.146  48.621  1.00  0.00    -0.545 OA
ATOM     11  O   UNL     1       9.036  -4.245  48.813  1.00  0.00    -0.545 OA
ENDBRANCH   8   9
ENDBRANCH   1   7
BRANCH   6  12
ATOM     12  O   UNL     1       4.831  -1.990  44.314  1.00  0.00    -0.508 OA
ATOM     13  H   UNL     1       4.026  -2.535  44.029  1.00  0.00     0.293 HD
ENDBRANCH   6  12
TORSDOF 3
ENDMDL
MODEL 2
REMARK VINA RESULT:    -5.429      0.106      1.682
REMARK INTER + INTRA:          -6.494
REMARK INTER:                  -6.206
REMARK INTRA:                  -0.287
REMARK UNBOUND:                -0.271
REMARK SMILES O=C([O-])C=Cc1ccc(O)cc1
REMARK SMILES IDX 6 1 7 2 12 3 8 4 11 5 9 6 5 7 4 8 2 9 1 10 3 11 10 12
REMARK H PARENT 10 13
REMARK Flexibility Score: inf
ROOT
ATOM      1  C   UNL     1       6.261  -1.961  48.233  1.00  0.00    -0.025 A 
ATOM      2  C   UNL     1       5.657  -3.109  47.701  1.00  0.00     0.012 A 
ATOM      3  C   UNL     1       6.334  -0.797  47.448  1.00  0.00     0.012 A 
ATOM      4  C   UNL     1       5.180  -3.112  46.386  1.00  0.00     0.047 A 
ATOM      5  C   UNL     1       5.857  -0.801  46.133  1.00  0.00     0.047 A 
ATOM      6  C   UNL     1       5.282  -1.962  45.598  1.00  0.00     0.115 A 
ENDROOT
BRANCH   1   7
ATOM      7  C   UNL     1       6.709  -1.964  49.641  1.00  0.00     0.010 C 
ATOM      8  C   UNL     1       7.937  -2.296  50.064  1.00  0.00     0.025 C 
BRANCH   8   9
ATOM      9  C   UNL     1       8.997  -2.895  49.232  1.00  0.00     0.064 C 
ATOM     10  O   UNL     1       8.995  -4.137  49.033  1.00  0.00    -0.545 OA
ATOM     11  O   UNL     1       9.956  -2.110  48.603  1.00  0.00    -0.545 OA
ENDBRANCH   8   9
ENDBRANCH   1   7
BRANCH   6  12
ATOM     12  O   UNL     1       4.804  -1.978  44.290  1.00  0.00    -0.508 OA
ATOM     13  H   UNL     1       5.043  -1.248  43.630  1.00  0.00     0.293 HD
ENDBRANCH   6  12
TORSDOF 3
ENDMDL
MODEL 3
REMARK VINA RESULT:    -5.089      2.033      2.631
REMARK INTER + INTRA:          -6.103
REMARK INTER:                  -5.848
REMARK INTRA:                  -0.255
REMARK UNBOUND:                -0.271
REMARK SMILES O=C([O-])C=Cc1ccc(O)cc1
REMARK SMILES IDX 6 1 7 2 12 3 8 4 11 5 9 6 5 7 4 8 2 9 1 10 3 11 10 12
REMARK H PARENT 10 13
REMARK Flexibility Score: inf
ROOT
ATOM      1  C   UNL     1       7.204  -1.935  47.880  1.00  0.00    -0.025 A 
ATOM      2  C   UNL     1       6.637  -3.077  47.297  1.00  0.00     0.012 A 
ATOM      3  C   UNL     1       6.885  -0.667  47.361  1.00  0.00     0.012 A 
ATOM      4  C   UNL     1       5.806  -2.959  46.178  1.00  0.00     0.047 A 
ATOM      5  C   UNL     1       6.054  -0.552  46.243  1.00  0.00     0.047 A 
ATOM      6  C   UNL     1       5.516  -1.700  45.645  1.00  0.00     0.115 A 
ENDROOT
BRANCH   1   7
ATOM      7  C   UNL     1       8.035  -2.078  49.093  1.00  0.00     0.010 C 
ATOM      8  C   UNL     1       7.571  -2.313  50.330  1.00  0.00     0.025 C 
BRANCH   8   9
ATOM      9  C   UNL     1       6.153  -2.282  50.732  1.00  0.00     0.064 C 
ATOM     10  O   UNL     1       5.584  -1.173  50.897  1.00  0.00    -0.545 OA
ATOM     11  O   UNL     1       5.410  -3.450  50.862  1.00  0.00    -0.545 OA
ENDBRANCH   8   9
ENDBRANCH   1   7
BRANCH   6  12
ATOM     12  O   UNL     1       4.688  -1.598  44.530  1.00  0.00    -0.508 OA
ATOM     13  H   UNL     1       4.658  -2.324  43.824  1.00  0.00     0.293 HD
ENDBRANCH   6  12
TORSDOF 3
ENDMDL
MODEL 4
REMARK VINA RESULT:    -4.998      2.488      3.378
REMARK INTER + INTRA:          -5.999
REMARK INTER:                  -5.702
REMARK INTRA:                  -0.297
REMARK UNBOUND:                -0.271
REMARK SMILES O=C([O-])C=Cc1ccc(O)cc1
REMARK SMILES IDX 6 1 7 2 12 3 8 4 11 5 9 6 5 7 4 8 2 9 1 10 3 11 10 12
REMARK H PARENT 10 13
REMARK Flexibility Score: inf
ROOT
ATOM      1  C   UNL     1       6.422  -2.392  49.698  1.00  0.00    -0.025 A 
ATOM      2  C   UNL     1       5.470  -1.720  48.917  1.00  0.00     0.012 A 
ATOM      3  C   UNL     1       7.782  -2.300  49.353  1.00  0.00     0.012 A 
ATOM      4  C   UNL     1       5.864  -1.011  47.778  1.00  0.00     0.047 A 
ATOM      5  C   UNL     1       8.174  -1.590  48.214  1.00  0.00     0.047 A 
ATOM      6  C   UNL     1       7.214  -0.947  47.421  1.00  0.00     0.115 A 
ENDROOT
BRANCH   1   7
ATOM      7  C   UNL     1       5.989  -3.090  50.926  1.00  0.00     0.010 C 
ATOM      8  C   UNL     1       5.677  -4.391  51.011  1.00  0.00     0.025 C 
BRANCH   8   9
ATOM      9  C   UNL     1       5.525  -5.311  49.868  1.00  0.00     0.064 C 
ATOM     10  O   UNL     1       4.396  -5.441  49.328  1.00  0.00    -0.545 OA
ATOM     11  O   UNL     1       6.615  -5.984  49.329  1.00  0.00    -0.545 OA
ENDBRANCH   8   9
ENDBRANCH   1   7
BRANCH   6  12
ATOM     12  O   UNL     1       7.593  -0.239  46.283  1.00  0.00    -0.508 OA
ATOM     13  H   UNL     1       7.882  -0.713  45.436  1.00  0.00     0.293 HD
ENDBRANCH   6  12
TORSDOF 3
ENDMDL
MODEL 5
REMARK VINA RESULT:    -4.961      1.727      4.629
REMARK INTER + INTRA:          -5.956
REMARK INTER:                  -5.837
REMARK INTRA:                  -0.119
REMARK UNBOUND:                -0.271
REMARK SMILES O=C([O-])C=Cc1ccc(O)cc1
REMARK SMILES IDX 6 1 7 2 12 3 8 4 11 5 9 6 5 7 4 8 2 9 1 10 3 11 10 12
REMARK H PARENT 10 13
REMARK Flexibility Score: inf
ROOT
ATOM      1  C   UNL     1       7.975  -1.958  48.030  1.00  0.00    -0.025 A 
ATOM      2  C   UNL     1       7.378  -2.329  49.243  1.00  0.00     0.012 A 
ATOM      3  C   UNL     1       8.842  -2.859  47.386  1.00  0.00     0.012 A 
ATOM      4  C   UNL     1       7.683  -3.560  49.833  1.00  0.00     0.047 A 
ATOM      5  C   UNL     1       9.146  -4.089  47.978  1.00  0.00     0.047 A 
ATOM      6  C   UNL     1       8.570  -4.440  49.206  1.00  0.00     0.115 A 
ENDROOT
BRANCH   1   7
ATOM      7  C   UNL     1       7.597  -0.677  47.398  1.00  0.00     0.010 C 
ATOM      8  C   UNL     1       6.434  -0.431  46.776  1.00  0.00     0.025 C 
BRANCH   8   9
ATOM      9  C   UNL     1       5.410  -1.439  46.445  1.00  0.00     0.064 C 
ATOM     10  O   UNL     1       5.290  -1.827  45.254  1.00  0.00    -0.545 OA
ATOM     11  O   UNL     1       4.623  -2.024  47.430  1.00  0.00    -0.545 OA
ENDBRANCH   8   9
ENDBRANCH   1   7
BRANCH   6  12
ATOM     12  O   UNL     1       8.866  -5.662  49.805  1.00  0.00    -0.508 OA
ATOM     13  H   UNL     1       8.136  -6.311  50.074  1.00  0.00     0.293 HD
ENDBRANCH   6  12
TORSDOF 3
ENDMDL
MODEL 6
REMARK VINA RESULT:    -4.919      2.284      3.482
REMARK INTER + INTRA:          -5.909
REMARK INTER:                  -5.676
REMARK INTRA:                  -0.233
REMARK UNBOUND:                -0.271
REMARK SMILES O=C([O-])C=Cc1ccc(O)cc1
REMARK SMILES IDX 6 1 7 2 12 3 8 4 11 5 9 6 5 7 4 8 2 9 1 10 3 11 10 12
REMARK H PARENT 10 13
REMARK Flexibility Score: inf
ROOT
ATOM      1  C   UNL     1       5.809  -2.289  48.882  1.00  0.00    -0.025 A 
ATOM      2  C   UNL     1       5.013  -3.122  48.083  1.00  0.00     0.012 A 
ATOM      3  C   UNL     1       5.920  -2.557  50.258  1.00  0.00     0.012 A 
ATOM      4  C   UNL     1       4.295  -4.175  48.658  1.00  0.00     0.047 A 
ATOM      5  C   UNL     1       5.201  -3.610  50.831  1.00  0.00     0.047 A 
ATOM      6  C   UNL     1       4.382  -4.420  50.032  1.00  0.00     0.115 A 
ENDROOT
BRANCH   1   7
ATOM      7  C   UNL     1       6.601  -1.216  48.246  1.00  0.00     0.010 C 
ATOM      8  C   UNL     1       7.861  -1.339  47.803  1.00  0.00     0.025 C 
BRANCH   8   9
ATOM      9  C   UNL     1       8.742  -2.497  48.039  1.00  0.00     0.064 C 
ATOM     10  O   UNL     1       9.682  -2.396  48.869  1.00  0.00    -0.545 OA
ATOM     11  O   UNL     1       8.514  -3.720  47.420  1.00  0.00    -0.545 OA
ENDBRANCH   8   9
ENDBRANCH   1   7
BRANCH   6  12
ATOM     12  O   UNL     1       3.661  -5.471  50.591  1.00  0.00    -0.508 OA
ATOM     13  H   UNL     1       3.541  -5.557  51.594  1.00  0.00     0.293 HD
ENDBRANCH   6  12
TORSDOF 3
ENDMDL
MODEL 7
REMARK VINA RESULT:    -4.813      2.661      3.297
REMARK INTER + INTRA:          -5.787
REMARK INTER:                  -5.498
REMARK INTRA:                  -0.289
REMARK UNBOUND:                -0.271
REMARK SMILES O=C([O-])C=Cc1ccc(O)cc1
REMARK SMILES IDX 6 1 7 2 12 3 8 4 11 5 9 6 5 7 4 8 2 9 1 10 3 11 10 12
REMARK H PARENT 10 13
REMARK Flexibility Score: inf
ROOT
ATOM      1  C   UNL     1       7.212  -3.514  48.282  1.00  0.00    -0.025 A 
ATOM      2  C   UNL     1       6.312  -3.593  47.210  1.00  0.00     0.012 A 
ATOM      3  C   UNL     1       7.764  -2.267  48.626  1.00  0.00     0.012 A 
ATOM      4  C   UNL     1       6.009  -2.453  46.458  1.00  0.00     0.047 A 
ATOM      5  C   UNL     1       7.460  -1.129  47.873  1.00  0.00     0.047 A 
ATOM      6  C   UNL     1       6.583  -1.221  46.783  1.00  0.00     0.115 A 
ENDROOT
BRANCH   1   7
ATOM      7  C   UNL     1       7.477  -4.718  49.096  1.00  0.00     0.010 C 
ATOM      8  C   UNL     1       6.713  -5.156  50.107  1.00  0.00     0.025 C 
BRANCH   8   9
ATOM      9  C   UNL     1       5.586  -4.419  50.709  1.00  0.00     0.064 C 
ATOM     10  O   UNL     1       5.821  -3.520  51.557  1.00  0.00    -0.545 OA
ATOM     11  O   UNL     1       4.274  -4.646  50.309  1.00  0.00    -0.545 OA
ENDBRANCH   8   9
ENDBRANCH   1   7
BRANCH   6  12
ATOM     12  O   UNL     1       6.273  -0.095  46.025  1.00  0.00    -0.508 OA
ATOM     13  H   UNL     1       6.393  -0.085  45.018  1.00  0.00     0.293 HD
ENDBRANCH   6  12
TORSDOF 3
ENDMDL
MODEL 8
REMARK VINA RESULT:    -4.579      1.447      4.682
REMARK INTER + INTRA:          -5.519
REMARK INTER:                  -5.589
REMARK INTRA:                   0.071
REMARK UNBOUND:                -0.271
REMARK SMILES O=C([O-])C=Cc1ccc(O)cc1
REMARK SMILES IDX 6 1 7 2 12 3 8 4 11 5 9 6 5 7 4 8 2 9 1 10 3 11 10 12
REMARK H PARENT 10 13
REMARK Flexibility Score: inf
ROOT
ATOM      1  C   UNL     1       7.146  -1.547  47.410  1.00  0.00    -0.025 A 
ATOM      2  C   UNL     1       8.252  -2.077  46.730  1.00  0.00     0.012 A 
ATOM      3  C   UNL     1       7.094  -1.638  48.813  1.00  0.00     0.012 A 
ATOM      4  C   UNL     1       9.265  -2.735  47.434  1.00  0.00     0.047 A 
ATOM      5  C   UNL     1       8.108  -2.297  49.515  1.00  0.00     0.047 A 
ATOM      6  C   UNL     1       9.195  -2.851  48.825  1.00  0.00     0.115 A 
ENDROOT
BRANCH   1   7
ATOM      7  C   UNL     1       6.115  -0.809  46.653  1.00  0.00     0.010 C 
ATOM      8  C   UNL     1       5.136  -1.368  45.926  1.00  0.00     0.025 C 
BRANCH   8   9
ATOM      9  C   UNL     1       5.025  -2.801  45.598  1.00  0.00     0.064 C 
ATOM     10  O   UNL     1       4.796  -3.145  44.410  1.00  0.00    -0.545 OA
ATOM     11  O   UNL     1       5.241  -3.784  46.558  1.00  0.00    -0.545 OA
ENDBRANCH   8   9
ENDBRANCH   1   7
BRANCH   6  12
ATOM     12  O   UNL     1      10.210  -3.511  49.513  1.00  0.00    -0.508 OA
ATOM     13  H   UNL     1      10.163  -4.505  49.702  1.00  0.00     0.293 HD
ENDBRANCH   6  12
TORSDOF 3
ENDMDL
MODEL 9
REMARK VINA RESULT:    -4.558      2.662      4.152
REMARK INTER + INTRA:          -5.495
REMARK INTER:                  -5.262
REMARK INTRA:                  -0.232
REMARK UNBOUND:                -0.271
REMARK SMILES O=C([O-])C=Cc1ccc(O)cc1
REMARK SMILES IDX 6 1 7 2 12 3 8 4 11 5 9 6 5 7 4 8 2 9 1 10 3 11 10 12
REMARK H PARENT 10 13
REMARK Flexibility Score: inf
ROOT
ATOM      1  C   UNL     1       6.929  -3.141  49.146  1.00  0.00    -0.025 A 
ATOM      2  C   UNL     1       6.618  -4.388  48.586  1.00  0.00     0.012 A 
ATOM      3  C   UNL     1       6.154  -2.654  50.214  1.00  0.00     0.012 A 
ATOM      4  C   UNL     1       5.517  -5.115  49.049  1.00  0.00     0.047 A 
ATOM      5  C   UNL     1       5.053  -3.382  50.675  1.00  0.00     0.047 A 
ATOM      6  C   UNL     1       4.730  -4.614  50.090  1.00  0.00     0.115 A 
ENDROOT
BRANCH   1   7
ATOM      7  C   UNL     1       8.128  -2.415  48.679  1.00  0.00     0.010 C 
ATOM      8  C   UNL     1       8.136  -1.443  47.755  1.00  0.00     0.025 C 
BRANCH   8   9
ATOM      9  C   UNL     1       6.992  -1.057  46.908  1.00  0.00     0.064 C 
ATOM     10  O   UNL     1       6.573   0.128  46.943  1.00  0.00    -0.545 OA
ATOM     11  O   UNL     1       6.413  -1.954  46.019  1.00  0.00    -0.545 OA
ENDBRANCH   8   9
ENDBRANCH   1   7
BRANCH   6  12
ATOM     12  O   UNL     1       3.635  -5.348  50.540  1.00  0.00    -0.508 OA
ATOM     13  H   UNL     1       2.829  -4.896  50.957  1.00  0.00     0.293 HD
ENDBRANCH   6  12
TORSDOF 3
ENDMDL
