MODEL 1
REMARK VINA RESULT:    -2.874      0.000      0.000
REMARK INTER + INTRA:          -4.807
REMARK INTER:                  -4.386
REMARK INTRA:                  -0.421
REMARK UNBOUND:                -0.421
REMARK SMILES CC1=CCC[C@H](C)C(=O)C[C@@H](C(C)C)C(=O)C1
REMARK SMILES IDX 8 1 9 2 6 3 7 4 5 5 4 6 3 7 2 8 1 9 10 11 11 12 15 13 16 14
REMARK SMILES IDX 17 15 12 17 13 18 14 19
REMARK H PARENT
REMARK Flexibility Score: 70.00
ROOT
ATOM      1  C   UNL     1     185.369 193.145 199.729  1.00  0.00     0.136 C 
ATOM      2  O   UNL     1     185.521 192.650 200.836  1.00  0.00    -0.299 OA
ENDROOT
BRANCH   1   3
ATOM      3  C   UNL     1     183.947 193.440 199.272  1.00  0.00     0.053 C 
ATOM      4  C   UNL     1     183.352 194.714 199.893  1.00  0.00     0.016 C 
BRANCH   3   5
ATOM      5  C   UNL     1     183.779 193.303 197.733  1.00  0.00     0.015 C 
BRANCH   5   6
ATOM      6  C   UNL     1     183.799 194.582 196.870  1.00  0.00     0.028 C 
BRANCH   6   7
ATOM      7  C   UNL     1     184.582 194.534 195.579  1.00  0.00    -0.028 C 
ATOM      8  C   UNL     1     185.816 195.046 195.373  1.00  0.00    -0.070 CG0
ATOM      9  C   UNL     1     186.521 194.687 194.086  1.00  0.00     0.039 C 
ATOM     10  G   UNL     1     186.504 195.982 196.346  1.00  0.00     0.000 G0
ENDBRANCH   6   7
ENDBRANCH   5   6
ENDBRANCH   3   5
ENDBRANCH   1   3
BRANCH   1  11
ATOM     11  C   UNL     1     186.598 193.438 198.890  1.00  0.00     0.087 C 
BRANCH  11  12
ATOM     12  C   UNL     1     186.954 194.949 198.742  1.00  0.00     0.066 C 
BRANCH  12  13
ATOM     13  C   UNL     1     187.422 195.304 197.336  1.00  0.00     0.140 C 
ATOM     14  O   UNL     1     188.570 195.052 196.999  1.00  0.00    -0.299 OA
BRANCH  13  15
ATOM     15  C   UNL     1     186.522 196.002 196.338  1.00  0.00     0.106 CG0
ATOM     16  G   UNL     1     185.841 195.035 195.390  1.00  0.00     0.000 G0
ENDBRANCH  13  15
ENDBRANCH  12  13
BRANCH  12  17
ATOM     17  C   UNL     1     187.873 195.546 199.861  1.00  0.00    -0.006 C 
ATOM     18  C   UNL     1     187.049 196.073 201.050  1.00  0.00     0.008 C 
ATOM     19  C   UNL     1     188.963 194.593 200.373  1.00  0.00     0.008 C 
ENDBRANCH  12  17
ENDBRANCH  11  12
ENDBRANCH   1  11
TORSDOF 1
ENDMDL
MODEL 2
REMARK VINA RESULT:    -2.714     15.715     17.135
REMARK INTER + INTRA:          -4.563
REMARK INTER:                  -4.360
REMARK INTRA:                  -0.203
REMARK UNBOUND:                -0.421
REMARK SMILES CC1=CCC[C@H](C)C(=O)C[C@@H](C(C)C)C(=O)C1
REMARK SMILES IDX 8 1 9 2 6 3 7 4 5 5 4 6 3 7 2 8 1 9 10 11 11 12 15 13 16 14
REMARK SMILES IDX 17 15 12 17 13 18 14 19
REMARK H PARENT
REMARK Flexibility Score: 70.00
ROOT
ATOM      1  C   UNL     1     187.374 179.729 199.997  1.00  0.00     0.136 C 
ATOM      2  O   UNL     1     187.136 180.425 200.973  1.00  0.00    -0.299 OA
ENDROOT
BRANCH   1   3
ATOM      3  C   UNL     1     188.828 179.382 199.710  1.00  0.00     0.053 C 
ATOM      4  C   UNL     1     189.289 178.069 200.362  1.00  0.00     0.016 C 
BRANCH   3   5
ATOM      5  C   UNL     1     189.191 179.549 198.208  1.00  0.00     0.015 C 
BRANCH   5   6
ATOM      6  C   UNL     1     189.707 178.320 197.431  1.00  0.00     0.028 C 
BRANCH   6   7
ATOM      7  C   UNL     1     189.080 178.038 196.086  1.00  0.00    -0.028 C 
ATOM      8  C   UNL     1     187.936 177.353 195.865  1.00  0.00    -0.070 CG0
ATOM      9  C   UNL     1     187.354 177.385 194.471  1.00  0.00     0.039 C 
ATOM     10  G   UNL     1     187.234 176.536 196.931  1.00  0.00     0.000 G0
ENDBRANCH   6   7
ENDBRANCH   5   6
ENDBRANCH   3   5
ENDBRANCH   1   3
BRANCH   1  11
ATOM     11  C   UNL     1     186.213 179.252 199.145  1.00  0.00     0.087 C 
BRANCH  11  12
ATOM     12  C   UNL     1     186.078 177.704 199.017  1.00  0.00     0.066 C 
BRANCH  12  13
ATOM     13  C   UNL     1     186.063 177.237 197.566  1.00  0.00     0.140 C 
ATOM     14  O   UNL     1     185.060 177.403 196.888  1.00  0.00    -0.299 OA
BRANCH  13  15
ATOM     15  C   UNL     1     187.244 176.530 196.934  1.00  0.00     0.106 CG0
ATOM     16  G   UNL     1     187.929 177.371 195.875  1.00  0.00     0.000 G0
ENDBRANCH  13  15
ENDBRANCH  12  13
BRANCH  12  17
ATOM     17  C   UNL     1     184.953 177.044 199.883  1.00  0.00    -0.006 C 
ATOM     18  C   UNL     1     185.537 176.084 200.935  1.00  0.00     0.008 C 
ATOM     19  C   UNL     1     184.001 178.037 200.566  1.00  0.00     0.008 C 
ENDBRANCH  12  17
ENDBRANCH  11  12
ENDBRANCH   1  11
TORSDOF 1
ENDMDL
MODEL 3
REMARK VINA RESULT:    -2.682      7.980      9.590
REMARK INTER + INTRA:          -4.514
REMARK INTER:                  -4.553
REMARK INTRA:                   0.039
REMARK UNBOUND:                -0.421
REMARK SMILES CC1=CCC[C@H](C)C(=O)C[C@@H](C(C)C)C(=O)C1
REMARK SMILES IDX 8 1 9 2 6 3 7 4 5 5 4 6 3 7 2 8 1 9 10 11 11 12 15 13 16 14
REMARK SMILES IDX 17 15 12 17 13 18 14 19
REMARK H PARENT
REMARK Flexibility Score: 70.00
ROOT
ATOM      1  C   UNL     1     185.501 188.306 195.144  1.00  0.00     0.136 C 
ATOM      2  O   UNL     1     186.320 189.193 194.958  1.00  0.00    -0.299 OA
ENDROOT
BRANCH   1   3
ATOM      3  C   UNL     1     185.909 187.136 196.029  1.00  0.00     0.053 C 
ATOM      4  C   UNL     1     185.740 187.411 197.532  1.00  0.00     0.016 C 
BRANCH   3   5
ATOM      5  C   UNL     1     185.334 185.783 195.527  1.00  0.00     0.015 C 
BRANCH   5   6
ATOM      6  C   UNL     1     186.236 184.867 194.674  1.00  0.00     0.028 C 
BRANCH   6   7
ATOM      7  C   UNL     1     187.267 185.534 193.796  1.00  0.00    -0.028 C 
ATOM      8  C   UNL     1     187.025 186.214 192.653  1.00  0.00    -0.070 CG0
ATOM      9  C   UNL     1     188.161 187.006 192.050  1.00  0.00     0.039 C 
ATOM     10  G   UNL     1     185.689 186.191 191.936  1.00  0.00     0.000 G0
ENDBRANCH   6   7
ENDBRANCH   5   6
ENDBRANCH   3   5
ENDBRANCH   1   3
BRANCH   1  11
ATOM     11  C   UNL     1     184.137 188.428 194.493  1.00  0.00     0.087 C 
BRANCH  11  12
ATOM     12  C   UNL     1     183.823 187.355 193.405  1.00  0.00     0.066 C 
BRANCH  12  13
ATOM     13  C   UNL     1     184.820 187.385 192.251  1.00  0.00     0.140 C 
ATOM     14  O   UNL     1     184.904 188.384 191.552  1.00  0.00    -0.299 OA
BRANCH  13  15
ATOM     15  C   UNL     1     185.693 186.197 191.909  1.00  0.00     0.106 CG0
ATOM     16  G   UNL     1     187.015 186.211 192.650  1.00  0.00     0.000 G0
ENDBRANCH  13  15
ENDBRANCH  12  13
BRANCH  12  17
ATOM     17  C   UNL     1     182.335 187.285 192.925  1.00  0.00    -0.006 C 
ATOM     18  C   UNL     1     181.580 186.120 193.590  1.00  0.00     0.008 C 
ATOM     19  C   UNL     1     181.539 188.585 193.109  1.00  0.00     0.008 C 
ENDBRANCH  12  17
ENDBRANCH  11  12
ENDBRANCH   1  11
TORSDOF 1
ENDMDL
MODEL 4
REMARK VINA RESULT:    -2.645      8.789      9.865
REMARK INTER + INTRA:          -4.457
REMARK INTER:                  -4.317
REMARK INTRA:                  -0.140
REMARK UNBOUND:                -0.421
REMARK SMILES CC1=CCC[C@H](C)C(=O)C[C@@H](C(C)C)C(=O)C1
REMARK SMILES IDX 8 1 9 2 6 3 7 4 5 5 4 6 3 7 2 8 1 9 10 11 11 12 15 13 16 14
REMARK SMILES IDX 17 15 12 17 13 18 14 19
REMARK H PARENT
REMARK Flexibility Score: 70.00
ROOT
ATOM      1  C   UNL     1     186.353 185.291 196.133  1.00  0.00     0.136 C 
ATOM      2  O   UNL     1     187.125 184.643 196.821  1.00  0.00    -0.299 OA
ENDROOT
BRANCH   1   3
ATOM      3  C   UNL     1     185.766 186.563 196.729  1.00  0.00     0.053 C 
ATOM      4  C   UNL     1     186.049 186.728 198.231  1.00  0.00     0.016 C 
BRANCH   3   5
ATOM      5  C   UNL     1     186.050 187.815 195.852  1.00  0.00     0.015 C 
BRANCH   5   6
ATOM      6  C   UNL     1     185.020 188.212 194.775  1.00  0.00     0.028 C 
BRANCH   6   7
ATOM      7  C   UNL     1     185.555 188.660 193.436  1.00  0.00    -0.028 C 
ATOM      8  C   UNL     1     185.679 187.896 192.327  1.00  0.00    -0.070 CG0
ATOM      9  C   UNL     1     186.012 188.589 191.027  1.00  0.00     0.039 C 
ATOM     10  G   UNL     1     185.534 186.387 192.334  1.00  0.00     0.000 G0
ENDBRANCH   6   7
ENDBRANCH   5   6
ENDBRANCH   3   5
ENDBRANCH   1   3
BRANCH   1  11
ATOM     11  C   UNL     1     186.035 184.797 194.735  1.00  0.00     0.087 C 
BRANCH  11  12
ATOM     12  C   UNL     1     187.213 184.889 193.716  1.00  0.00     0.066 C 
BRANCH  12  13
ATOM     13  C   UNL     1     186.833 185.647 192.450  1.00  0.00     0.140 C 
ATOM     14  O   UNL     1     187.621 185.698 191.517  1.00  0.00    -0.299 OA
BRANCH  13  15
ATOM     15  C   UNL     1     185.516 186.382 192.315  1.00  0.00     0.106 CG0
ATOM     16  G   UNL     1     185.685 187.889 192.318  1.00  0.00     0.000 G0
ENDBRANCH  13  15
ENDBRANCH  12  13
BRANCH  12  17
ATOM     17  C   UNL     1     187.966 183.548 193.422  1.00  0.00    -0.006 C 
ATOM     18  C   UNL     1     189.408 183.578 193.960  1.00  0.00     0.008 C 
ATOM     19  C   UNL     1     187.254 182.286 193.930  1.00  0.00     0.008 C 
ENDBRANCH  12  17
ENDBRANCH  11  12
ENDBRANCH   1  11
TORSDOF 1
ENDMDL
MODEL 5
REMARK VINA RESULT:    -2.605      8.166      9.306
REMARK INTER + INTRA:          -4.397
REMARK INTER:                  -4.356
REMARK INTRA:                  -0.041
REMARK UNBOUND:                -0.421
REMARK SMILES CC1=CCC[C@H](C)C(=O)C[C@@H](C(C)C)C(=O)C1
REMARK SMILES IDX 8 1 9 2 6 3 7 4 5 5 4 6 3 7 2 8 1 9 10 11 11 12 15 13 16 14
REMARK SMILES IDX 17 15 12 17 13 18 14 19
REMARK H PARENT
REMARK Flexibility Score: 70.00
ROOT
ATOM      1  C   UNL     1     186.428 187.430 196.268  1.00  0.00     0.136 C 
ATOM      2  O   UNL     1     185.625 188.082 196.917  1.00  0.00    -0.299 OA
ENDROOT
BRANCH   1   3
ATOM      3  C   UNL     1     186.976 186.154 196.892  1.00  0.00     0.053 C 
ATOM      4  C   UNL     1     186.739 186.057 198.407  1.00  0.00     0.016 C 
BRANCH   3   5
ATOM      5  C   UNL     1     186.603 184.886 196.073  1.00  0.00     0.015 C 
BRANCH   5   6
ATOM      6  C   UNL     1     187.419 184.558 194.806  1.00  0.00     0.028 C 
BRANCH   6   7
ATOM      7  C   UNL     1     186.646 184.203 193.557  1.00  0.00    -0.028 C 
ATOM      8  C   UNL     1     186.523 184.967 192.449  1.00  0.00    -0.070 CG0
ATOM      9  C   UNL     1     185.910 184.335 191.222  1.00  0.00     0.039 C 
ATOM     10  G   UNL     1     186.935 186.425 192.391  1.00  0.00     0.000 G0
ENDBRANCH   6   7
ENDBRANCH   5   6
ENDBRANCH   3   5
ENDBRANCH   1   3
BRANCH   1  11
ATOM     11  C   UNL     1     186.820 187.924 194.889  1.00  0.00     0.087 C 
BRANCH  11  12
ATOM     12  C   UNL     1     185.631 188.165 193.909  1.00  0.00     0.066 C 
BRANCH  12  13
ATOM     13  C   UNL     1     185.775 187.378 192.611  1.00  0.00     0.140 C 
ATOM     14  O   UNL     1     184.919 187.479 191.745  1.00  0.00    -0.299 OA
BRANCH  13  15
ATOM     15  C   UNL     1     186.932 186.432 192.366  1.00  0.00     0.106 CG0
ATOM     16  G   UNL     1     186.524 184.975 192.454  1.00  0.00     0.000 G0
ENDBRANCH  13  15
ENDBRANCH  12  13
BRANCH  12  17
ATOM     17  C   UNL     1     185.234 189.662 193.674  1.00  0.00    -0.006 C 
ATOM     18  C   UNL     1     183.752 189.913 194.009  1.00  0.00     0.008 C 
ATOM     19  C   UNL     1     186.109 190.683 194.414  1.00  0.00     0.008 C 
ENDBRANCH  12  17
ENDBRANCH  11  12
ENDBRANCH   1  11
TORSDOF 1
ENDMDL
MODEL 6
REMARK VINA RESULT:    -2.599      9.108     10.382
REMARK INTER + INTRA:          -4.387
REMARK INTER:                  -4.016
REMARK INTRA:                  -0.371
REMARK UNBOUND:                -0.421
REMARK SMILES CC1=CCC[C@H](C)C(=O)C[C@@H](C(C)C)C(=O)C1
REMARK SMILES IDX 8 1 9 2 6 3 7 4 5 5 4 6 3 7 2 8 1 9 10 11 11 12 15 13 16 14
REMARK SMILES IDX 17 15 12 17 13 18 14 19
REMARK H PARENT
REMARK Flexibility Score: 70.00
ROOT
ATOM      1  C   UNL     1     187.349 185.146 195.586  1.00  0.00     0.136 C 
ATOM      2  O   UNL     1     186.903 185.218 196.721  1.00  0.00    -0.299 OA
ENDROOT
BRANCH   1   3
ATOM      3  C   UNL     1     187.608 183.761 195.011  1.00  0.00     0.053 C 
ATOM      4  C   UNL     1     186.347 183.073 194.465  1.00  0.00     0.016 C 
BRANCH   3   5
ATOM      5  C   UNL     1     188.848 183.731 194.073  1.00  0.00     0.015 C 
BRANCH   5   6
ATOM      6  C   UNL     1     188.641 183.988 192.567  1.00  0.00     0.028 C 
BRANCH   6   7
ATOM      7  C   UNL     1     189.581 184.962 191.895  1.00  0.00    -0.028 C 
ATOM      8  C   UNL     1     189.262 186.190 191.429  1.00  0.00    -0.070 CG0
ATOM      9  C   UNL     1     190.391 187.099 191.007  1.00  0.00     0.039 C 
ATOM     10  G   UNL     1     187.835 186.679 191.278  1.00  0.00     0.000 G0
ENDBRANCH   6   7
ENDBRANCH   5   6
ENDBRANCH   3   5
ENDBRANCH   1   3
BRANCH   1  11
ATOM     11  C   UNL     1     187.606 186.432 194.824  1.00  0.00     0.087 C 
BRANCH  11  12
ATOM     12  C   UNL     1     186.633 186.703 193.636  1.00  0.00     0.066 C 
BRANCH  12  13
ATOM     13  C   UNL     1     187.312 187.431 192.480  1.00  0.00     0.140 C 
ATOM     14  O   UNL     1     187.421 188.648 192.513  1.00  0.00    -0.299 OA
BRANCH  13  15
ATOM     15  C   UNL     1     187.828 186.699 191.259  1.00  0.00     0.106 CG0
ATOM     16  G   UNL     1     189.248 186.198 191.436  1.00  0.00     0.000 G0
ENDBRANCH  13  15
ENDBRANCH  12  13
BRANCH  12  17
ATOM     17  C   UNL     1     185.247 187.322 194.017  1.00  0.00    -0.006 C 
ATOM     18  C   UNL     1     184.132 186.261 194.014  1.00  0.00     0.008 C 
ATOM     19  C   UNL     1     185.228 188.085 195.350  1.00  0.00     0.008 C 
ENDBRANCH  12  17
ENDBRANCH  11  12
ENDBRANCH   1  11
TORSDOF 1
ENDMDL
MODEL 7
REMARK VINA RESULT:    -2.584      8.610      9.909
REMARK INTER + INTRA:          -4.365
REMARK INTER:                  -4.079
REMARK INTRA:                  -0.286
REMARK UNBOUND:                -0.421
REMARK SMILES CC1=CCC[C@H](C)C(=O)C[C@@H](C(C)C)C(=O)C1
REMARK SMILES IDX 8 1 9 2 6 3 7 4 5 5 4 6 3 7 2 8 1 9 10 11 11 12 15 13 16 14
REMARK SMILES IDX 17 15 12 17 13 18 14 19
REMARK H PARENT
REMARK Flexibility Score: 70.00
ROOT
ATOM      1  C   UNL     1     186.547 187.179 195.672  1.00  0.00     0.136 C 
ATOM      2  O   UNL     1     185.537 187.700 196.120  1.00  0.00    -0.299 OA
ENDROOT
BRANCH   1   3
ATOM      3  C   UNL     1     187.010 185.872 196.299  1.00  0.00     0.053 C 
ATOM      4  C   UNL     1     186.952 185.870 197.835  1.00  0.00     0.016 C 
BRANCH   3   5
ATOM      5  C   UNL     1     186.391 184.628 195.603  1.00  0.00     0.015 C 
BRANCH   5   6
ATOM      6  C   UNL     1     187.028 184.119 194.294  1.00  0.00     0.028 C 
BRANCH   6   7
ATOM      7  C   UNL     1     188.518 184.301 194.132  1.00  0.00    -0.028 C 
ATOM      8  C   UNL     1     189.135 185.044 193.186  1.00  0.00    -0.070 CG0
ATOM      9  C   UNL     1     190.617 185.289 193.338  1.00  0.00     0.039 C 
ATOM     10  G   UNL     1     188.422 185.609 191.973  1.00  0.00     0.000 G0
ENDBRANCH   6   7
ENDBRANCH   5   6
ENDBRANCH   3   5
ENDBRANCH   1   3
BRANCH   1  11
ATOM     11  C   UNL     1     187.266 187.859 194.523  1.00  0.00     0.087 C 
BRANCH  11  12
ATOM     12  C   UNL     1     186.809 187.414 193.099  1.00  0.00     0.066 C 
BRANCH  12  13
ATOM     13  C   UNL     1     187.983 187.061 192.192  1.00  0.00     0.140 C 
ATOM     14  O   UNL     1     188.570 187.949 191.592  1.00  0.00    -0.299 OA
BRANCH  13  15
ATOM     15  C   UNL     1     188.431 185.631 191.973  1.00  0.00     0.106 CG0
ATOM     16  G   UNL     1     189.129 185.046 193.184  1.00  0.00     0.000 G0
ENDBRANCH  13  15
ENDBRANCH  12  13
BRANCH  12  17
ATOM     17  C   UNL     1     185.754 188.337 192.402  1.00  0.00    -0.006 C 
ATOM     18  C   UNL     1     184.316 187.857 192.670  1.00  0.00     0.008 C 
ATOM     19  C   UNL     1     185.873 189.827 192.753  1.00  0.00     0.008 C 
ENDBRANCH  12  17
ENDBRANCH  11  12
ENDBRANCH   1  11
TORSDOF 1
ENDMDL
MODEL 8
REMARK VINA RESULT:    -2.503      8.090      9.363
REMARK INTER + INTRA:          -4.241
REMARK INTER:                  -3.932
REMARK INTRA:                  -0.309
REMARK UNBOUND:                -0.421
REMARK SMILES CC1=CCC[C@H](C)C(=O)C[C@@H](C(C)C)C(=O)C1
REMARK SMILES IDX 8 1 9 2 6 3 7 4 5 5 4 6 3 7 2 8 1 9 10 11 11 12 15 13 16 14
REMARK SMILES IDX 17 15 12 17 13 18 14 19
REMARK H PARENT
REMARK Flexibility Score: 70.00
ROOT
ATOM      1  C   UNL     1     185.259 185.729 194.610  1.00  0.00     0.136 C 
ATOM      2  O   UNL     1     184.126 186.085 194.325  1.00  0.00    -0.299 OA
ENDROOT
BRANCH   1   3
ATOM      3  C   UNL     1     185.737 185.958 196.037  1.00  0.00     0.053 C 
ATOM      4  C   UNL     1     186.894 185.036 196.456  1.00  0.00     0.016 C 
BRANCH   3   5
ATOM      5  C   UNL     1     185.930 187.465 196.364  1.00  0.00     0.015 C 
BRANCH   5   6
ATOM      6  C   UNL     1     186.723 188.341 195.373  1.00  0.00     0.028 C 
BRANCH   6   7
ATOM      7  C   UNL     1     185.930 189.255 194.469  1.00  0.00    -0.028 C 
ATOM      8  C   UNL     1     185.975 189.279 193.118  1.00  0.00    -0.070 CG0
ATOM      9  C   UNL     1     184.934 190.098 192.393  1.00  0.00     0.039 C 
ATOM     10  G   UNL     1     187.031 188.556 192.305  1.00  0.00     0.000 G0
ENDBRANCH   6   7
ENDBRANCH   5   6
ENDBRANCH   3   5
ENDBRANCH   1   3
BRANCH   1  11
ATOM     11  C   UNL     1     186.109 185.081 193.535  1.00  0.00     0.087 C 
BRANCH  11  12
ATOM     12  C   UNL     1     187.233 185.987 192.944  1.00  0.00     0.066 C 
BRANCH  12  13
ATOM     13  C   UNL     1     186.683 187.099 192.058  1.00  0.00     0.140 C 
ATOM     14  O   UNL     1     185.966 186.817 191.109  1.00  0.00    -0.299 OA
BRANCH  13  15
ATOM     15  C   UNL     1     187.024 188.556 192.288  1.00  0.00     0.106 CG0
ATOM     16  G   UNL     1     185.977 189.278 193.113  1.00  0.00     0.000 G0
ENDBRANCH  13  15
ENDBRANCH  12  13
BRANCH  12  17
ATOM     17  C   UNL     1     188.445 185.235 192.297  1.00  0.00    -0.006 C 
ATOM     18  C   UNL     1     189.784 185.902 192.659  1.00  0.00     0.008 C 
ATOM     19  C   UNL     1     188.515 183.735 192.616  1.00  0.00     0.008 C 
ENDBRANCH  12  17
ENDBRANCH  11  12
ENDBRANCH   1  11
TORSDOF 1
ENDMDL
MODEL 9
REMARK VINA RESULT:    -2.473      7.201      8.400
REMARK INTER + INTRA:          -4.195
REMARK INTER:                  -3.988
REMARK INTRA:                  -0.206
REMARK UNBOUND:                -0.421
REMARK SMILES CC1=CCC[C@H](C)C(=O)C[C@@H](C(C)C)C(=O)C1
REMARK SMILES IDX 8 1 9 2 6 3 7 4 5 5 4 6 3 7 2 8 1 9 10 11 11 12 15 13 16 14
REMARK SMILES IDX 17 15 12 17 13 18 14 19
REMARK H PARENT
REMARK Flexibility Score: 70.00
ROOT
ATOM      1  C   UNL     1     184.542 186.202 192.580  1.00  0.00     0.136 C 
ATOM      2  O   UNL     1     185.084 185.115 192.458  1.00  0.00    -0.299 OA
ENDROOT
BRANCH   1   3
ATOM      3  C   UNL     1     183.045 186.283 192.315  1.00  0.00     0.053 C 
ATOM      4  C   UNL     1     182.197 186.395 193.592  1.00  0.00     0.016 C 
BRANCH   3   5
ATOM      5  C   UNL     1     182.695 187.296 191.189  1.00  0.00     0.015 C 
BRANCH   5   6
ATOM      6  C   UNL     1     182.095 188.662 191.582  1.00  0.00     0.028 C 
BRANCH   6   7
ATOM      7  C   UNL     1     183.016 189.859 191.549  1.00  0.00    -0.028 C 
ATOM      8  C   UNL     1     183.758 190.325 192.578  1.00  0.00    -0.070 CG0
ATOM      9  C   UNL     1     184.791 191.385 192.277  1.00  0.00     0.039 C 
ATOM     10  G   UNL     1     183.582 189.862 194.011  1.00  0.00     0.000 G0
ENDBRANCH   6   7
ENDBRANCH   5   6
ENDBRANCH   3   5
ENDBRANCH   1   3
BRANCH   1  11
ATOM     11  C   UNL     1     185.386 187.393 192.991  1.00  0.00     0.087 C 
BRANCH  11  12
ATOM     12  C   UNL     1     185.228 187.834 194.479  1.00  0.00     0.066 C 
BRANCH  12  13
ATOM     13  C   UNL     1     184.851 189.306 194.615  1.00  0.00     0.140 C 
ATOM     14  O   UNL     1     185.576 190.059 195.248  1.00  0.00    -0.299 OA
BRANCH  13  15
ATOM     15  C   UNL     1     183.578 189.870 194.021  1.00  0.00     0.106 CG0
ATOM     16  G   UNL     1     183.758 190.338 192.591  1.00  0.00     0.000 G0
ENDBRANCH  13  15
ENDBRANCH  12  13
BRANCH  12  17
ATOM     17  C   UNL     1     186.385 187.408 195.444  1.00  0.00    -0.006 C 
ATOM     18  C   UNL     1     185.872 186.509 196.582  1.00  0.00     0.008 C 
ATOM     19  C   UNL     1     187.580 186.734 194.755  1.00  0.00     0.008 C 
ENDBRANCH  12  17
ENDBRANCH  11  12
ENDBRANCH   1  11
TORSDOF 1
ENDMDL
