MODEL 1
REMARK VINA RESULT:    -4.497      0.000      0.000
REMARK INTER + INTRA:          -7.410
REMARK INTER:                  -6.600
REMARK INTRA:                  -0.810
REMARK UNBOUND:                -0.810
REMARK SMILES O=C([O-])CCCCCCCC(=O)[O-]
REMARK SMILES IDX 7 1 6 2 5 3 4 4 2 5 1 6 3 7 8 8 9 9 10 10 11 11 12 12 13 13
REMARK H PARENT
REMARK Flexibility Score: inf
ROOT
ATOM      1  C   UNL     1      18.062  55.412  13.687  1.00  0.00     0.000 C 
ENDROOT
BRANCH   1   2
ATOM      2  C   UNL     1      17.179  55.322  14.938  1.00  0.00     0.000 C 
BRANCH   2   3
ATOM      3  C   UNL     1      17.466  56.481  15.898  1.00  0.00     0.006 C 
BRANCH   3   4
ATOM      4  C   UNL     1      18.287  56.007  17.101  1.00  0.00     0.053 C 
BRANCH   4   5
ATOM      5  C   UNL     1      19.472  56.897  17.310  1.00  0.00     0.041 C 
ATOM      6  O   UNL     1      20.408  56.914  16.467  1.00  0.00    -0.550 OA
ATOM      7  O   UNL     1      19.519  57.745  18.410  1.00  0.00    -0.550 OA
ENDBRANCH   4   5
ENDBRANCH   3   4
ENDBRANCH   2   3
ENDBRANCH   1   2
BRANCH   1   8
ATOM      8  C   UNL     1      18.912  54.146  13.521  1.00  0.00     0.000 C 
BRANCH   8   9
ATOM      9  C   UNL     1      20.147  54.188  14.432  1.00  0.00     0.006 C 
BRANCH   9  10
ATOM     10  C   UNL     1      20.123  53.083  15.495  1.00  0.00     0.053 C 
BRANCH  10  11
ATOM     11  C   UNL     1      21.055  53.382  16.628  1.00  0.00     0.041 C 
ATOM     12  O   UNL     1      20.616  53.478  17.804  1.00  0.00    -0.550 OA
ATOM     13  O   UNL     1      22.417  53.523  16.389  1.00  0.00    -0.550 OA
ENDBRANCH  10  11
ENDBRANCH   9  10
ENDBRANCH   8   9
ENDBRANCH   1   8
TORSDOF 8
ENDMDL
MODEL 2
REMARK VINA RESULT:    -4.391      0.936      3.759
REMARK INTER + INTRA:          -7.255
REMARK INTER:                  -6.507
REMARK INTRA:                  -0.748
REMARK UNBOUND:                -0.810
REMARK SMILES O=C([O-])CCCCCCCC(=O)[O-]
REMARK SMILES IDX 7 1 6 2 5 3 4 4 2 5 1 6 3 7 8 8 9 9 10 10 11 11 12 12 13 13
REMARK H PARENT
REMARK Flexibility Score: inf
ROOT
ATOM      1  C   UNL     1      18.020  55.573  13.890  1.00  0.00     0.000 C 
ENDROOT
BRANCH   1   2
ATOM      2  C   UNL     1      18.732  54.355  13.290  1.00  0.00     0.000 C 
BRANCH   2   3
ATOM      3  C   UNL     1      19.446  53.544  14.377  1.00  0.00     0.006 C 
BRANCH   3   4
ATOM      4  C   UNL     1      20.607  54.339  14.983  1.00  0.00     0.053 C 
BRANCH   4   5
ATOM      5  C   UNL     1      21.209  53.594  16.132  1.00  0.00     0.041 C 
ATOM      6  O   UNL     1      22.442  53.688  16.371  1.00  0.00    -0.550 OA
ATOM      7  O   UNL     1      20.400  52.836  16.969  1.00  0.00    -0.550 OA
ENDBRANCH   4   5
ENDBRANCH   3   4
ENDBRANCH   2   3
ENDBRANCH   1   2
BRANCH   1   8
ATOM      8  C   UNL     1      16.828  55.144  14.755  1.00  0.00     0.000 C 
BRANCH   8   9
ATOM      9  C   UNL     1      16.851  55.852  16.117  1.00  0.00     0.006 C 
BRANCH   9  10
ATOM     10  C   UNL     1      18.044  56.807  16.254  1.00  0.00     0.053 C 
BRANCH  10  11
ATOM     11  C   UNL     1      18.793  56.579  17.531  1.00  0.00     0.041 C 
ATOM     12  O   UNL     1      18.744  55.459  18.104  1.00  0.00    -0.550 OA
ATOM     13  O   UNL     1      19.572  57.594  18.070  1.00  0.00    -0.550 OA
ENDBRANCH  10  11
ENDBRANCH   9  10
ENDBRANCH   8   9
ENDBRANCH   1   8
TORSDOF 8
ENDMDL
MODEL 3
REMARK VINA RESULT:    -4.247      2.015      3.888
REMARK INTER + INTRA:          -7.043
REMARK INTER:                  -6.313
REMARK INTRA:                  -0.729
REMARK UNBOUND:                -0.810
REMARK SMILES O=C([O-])CCCCCCCC(=O)[O-]
REMARK SMILES IDX 7 1 6 2 5 3 4 4 2 5 1 6 3 7 8 8 9 9 10 10 11 11 12 12 13 13
REMARK H PARENT
REMARK Flexibility Score: inf
ROOT
ATOM      1  C   UNL     1      20.163  54.259  14.458  1.00  0.00     0.000 C 
ENDROOT
BRANCH   1   2
ATOM      2  C   UNL     1      20.164  53.093  15.455  1.00  0.00     0.000 C 
BRANCH   2   3
ATOM      3  C   UNL     1      21.153  53.347  16.597  1.00  0.00     0.006 C 
BRANCH   3   4
ATOM      4  C   UNL     1      20.456  53.253  17.958  1.00  0.00     0.053 C 
BRANCH   4   5
ATOM      5  C   UNL     1      19.490  54.383  18.131  1.00  0.00     0.041 C 
ATOM      6  O   UNL     1      18.329  54.162  18.565  1.00  0.00    -0.550 OA
ATOM      7  O   UNL     1      19.888  55.686  17.860  1.00  0.00    -0.550 OA
ENDBRANCH   4   5
ENDBRANCH   3   4
ENDBRANCH   2   3
ENDBRANCH   1   2
BRANCH   1   8
ATOM      8  C   UNL     1      19.114  54.044  13.360  1.00  0.00     0.000 C 
BRANCH   8   9
ATOM      9  C   UNL     1      17.966  55.055  13.488  1.00  0.00     0.006 C 
BRANCH   9  10
ATOM     10  C   UNL     1      18.159  56.005  14.677  1.00  0.00     0.053 C 
BRANCH  10  11
ATOM     11  C   UNL     1      17.037  55.895  15.663  1.00  0.00     0.041 C 
ATOM     12  O   UNL     1      16.457  54.793  15.845  1.00  0.00    -0.550 OA
ATOM     13  O   UNL     1      16.653  57.006  16.405  1.00  0.00    -0.550 OA
ENDBRANCH  10  11
ENDBRANCH   9  10
ENDBRANCH   8   9
ENDBRANCH   1   8
TORSDOF 8
ENDMDL
MODEL 4
REMARK VINA RESULT:    -4.227      1.745      3.767
REMARK INTER + INTRA:          -7.013
REMARK INTER:                  -6.222
REMARK INTRA:                  -0.791
REMARK UNBOUND:                -0.810
REMARK SMILES O=C([O-])CCCCCCCC(=O)[O-]
REMARK SMILES IDX 7 1 6 2 5 3 4 4 2 5 1 6 3 7 8 8 9 9 10 10 11 11 12 12 13 13
REMARK H PARENT
REMARK Flexibility Score: inf
ROOT
ATOM      1  C   UNL     1      19.854  54.115  13.892  1.00  0.00     0.000 C 
ENDROOT
BRANCH   1   2
ATOM      2  C   UNL     1      19.796  53.240  15.150  1.00  0.00     0.000 C 
BRANCH   2   3
ATOM      3  C   UNL     1      21.025  53.469  16.037  1.00  0.00     0.006 C 
BRANCH   3   4
ATOM      4  C   UNL     1      20.719  54.477  17.149  1.00  0.00     0.053 C 
BRANCH   4   5
ATOM      5  C   UNL     1      21.343  55.802  16.841  1.00  0.00     0.041 C 
ATOM      6  O   UNL     1      22.327  55.872  16.058  1.00  0.00    -0.550 OA
ATOM      7  O   UNL     1      20.807  56.965  17.379  1.00  0.00    -0.550 OA
ENDBRANCH   4   5
ENDBRANCH   3   4
ENDBRANCH   2   3
ENDBRANCH   1   2
BRANCH   1   8
ATOM      8  C   UNL     1      18.485  54.739  13.591  1.00  0.00     0.000 C 
BRANCH   8   9
ATOM      9  C   UNL     1      17.690  54.971  14.883  1.00  0.00     0.006 C 
BRANCH   9  10
ATOM     10  C   UNL     1      17.873  56.392  15.431  1.00  0.00     0.053 C 
BRANCH  10  11
ATOM     11  C   UNL     1      17.054  56.622  16.664  1.00  0.00     0.041 C 
ATOM     12  O   UNL     1      17.531  56.365  17.800  1.00  0.00    -0.550 OA
ATOM     13  O   UNL     1      15.773  57.150  16.559  1.00  0.00    -0.550 OA
ENDBRANCH  10  11
ENDBRANCH   9  10
ENDBRANCH   8   9
ENDBRANCH   1   8
TORSDOF 8
ENDMDL
MODEL 5
REMARK VINA RESULT:    -4.224      1.541      2.127
REMARK INTER + INTRA:          -7.010
REMARK INTER:                  -6.081
REMARK INTRA:                  -0.929
REMARK UNBOUND:                -0.810
REMARK SMILES O=C([O-])CCCCCCCC(=O)[O-]
REMARK SMILES IDX 7 1 6 2 5 3 4 4 2 5 1 6 3 7 8 8 9 9 10 10 11 11 12 12 13 13
REMARK H PARENT
REMARK Flexibility Score: inf
ROOT
ATOM      1  C   UNL     1      19.471  53.845  13.781  1.00  0.00     0.000 C 
ENDROOT
BRANCH   1   2
ATOM      2  C   UNL     1      18.322  54.843  13.590  1.00  0.00     0.000 C 
BRANCH   2   3
ATOM      3  C   UNL     1      18.291  55.870  14.727  1.00  0.00     0.006 C 
BRANCH   3   4
ATOM      4  C   UNL     1      17.288  55.460  15.810  1.00  0.00     0.053 C 
BRANCH   4   5
ATOM      5  C   UNL     1      17.866  55.686  17.172  1.00  0.00     0.041 C 
ATOM      6  O   UNL     1      19.035  56.136  17.297  1.00  0.00    -0.550 OA
ATOM      7  O   UNL     1      17.095  55.447  18.303  1.00  0.00    -0.550 OA
ENDBRANCH   4   5
ENDBRANCH   3   4
ENDBRANCH   2   3
ENDBRANCH   1   2
BRANCH   1   8
ATOM      8  C   UNL     1      20.592  54.452  14.632  1.00  0.00     0.000 C 
BRANCH   8   9
ATOM      9  C   UNL     1      21.009  53.494  15.758  1.00  0.00     0.006 C 
BRANCH   9  10
ATOM     10  C   UNL     1      19.907  52.483  16.098  1.00  0.00     0.053 C 
BRANCH  10  11
ATOM     11  C   UNL     1      19.514  52.554  17.541  1.00  0.00     0.041 C 
ATOM     12  O   UNL     1      18.368  52.183  17.905  1.00  0.00    -0.550 OA
ATOM     13  O   UNL     1      20.426  53.002  18.488  1.00  0.00    -0.550 OA
ENDBRANCH  10  11
ENDBRANCH   9  10
ENDBRANCH   8   9
ENDBRANCH   1   8
TORSDOF 8
ENDMDL
MODEL 6
REMARK VINA RESULT:    -4.196      1.434      2.356
REMARK INTER + INTRA:          -6.968
REMARK INTER:                  -6.162
REMARK INTRA:                  -0.807
REMARK UNBOUND:                -0.810
REMARK SMILES O=C([O-])CCCCCCCC(=O)[O-]
REMARK SMILES IDX 7 1 6 2 5 3 4 4 2 5 1 6 3 7 8 8 9 9 10 10 11 11 12 12 13 13
REMARK H PARENT
REMARK Flexibility Score: inf
ROOT
ATOM      1  C   UNL     1      19.832  54.085  13.925  1.00  0.00     0.000 C 
ENDROOT
BRANCH   1   2
ATOM      2  C   UNL     1      18.501  54.800  13.662  1.00  0.00     0.000 C 
BRANCH   2   3
ATOM      3  C   UNL     1      17.743  55.051  14.971  1.00  0.00     0.006 C 
BRANCH   3   4
ATOM      4  C   UNL     1      18.044  56.449  15.521  1.00  0.00     0.053 C 
BRANCH   4   5
ATOM      5  C   UNL     1      18.107  56.422  17.015  1.00  0.00     0.041 C 
ATOM      6  O   UNL     1      18.819  57.255  17.635  1.00  0.00    -0.550 OA
ATOM      7  O   UNL     1      17.339  55.508  17.727  1.00  0.00    -0.550 OA
ENDBRANCH   4   5
ENDBRANCH   3   4
ENDBRANCH   2   3
ENDBRANCH   1   2
BRANCH   1   8
ATOM      8  C   UNL     1      19.750  53.213  15.184  1.00  0.00     0.000 C 
BRANCH   8   9
ATOM      9  C   UNL     1      21.080  53.225  15.951  1.00  0.00     0.006 C 
BRANCH   9  10
ATOM     10  C   UNL     1      21.164  54.388  16.948  1.00  0.00     0.053 C 
BRANCH  10  11
ATOM     11  C   UNL     1      22.107  55.453  16.481  1.00  0.00     0.041 C 
ATOM     12  O   UNL     1      23.351  55.288  16.584  1.00  0.00    -0.550 OA
ATOM     13  O   UNL     1      21.612  56.615  15.903  1.00  0.00    -0.550 OA
ENDBRANCH  10  11
ENDBRANCH   9  10
ENDBRANCH   8   9
ENDBRANCH   1   8
TORSDOF 8
ENDMDL
MODEL 7
REMARK VINA RESULT:    -4.170      1.892      3.617
REMARK INTER + INTRA:          -6.930
REMARK INTER:                  -6.050
REMARK INTRA:                  -0.880
REMARK UNBOUND:                -0.810
REMARK SMILES O=C([O-])CCCCCCCC(=O)[O-]
REMARK SMILES IDX 7 1 6 2 5 3 4 4 2 5 1 6 3 7 8 8 9 9 10 10 11 11 12 12 13 13
REMARK H PARENT
REMARK Flexibility Score: inf
ROOT
ATOM      1  C   UNL     1      17.944  55.611  14.779  1.00  0.00     0.000 C 
ENDROOT
BRANCH   1   2
ATOM      2  C   UNL     1      18.300  54.872  13.484  1.00  0.00     0.000 C 
BRANCH   2   3
ATOM      3  C   UNL     1      19.486  53.924  13.699  1.00  0.00     0.006 C 
BRANCH   3   4
ATOM      4  C   UNL     1      20.475  54.505  14.715  1.00  0.00     0.053 C 
BRANCH   4   5
ATOM      5  C   UNL     1      20.901  53.453  15.690  1.00  0.00     0.041 C 
ATOM      6  O   UNL     1      20.189  52.431  15.872  1.00  0.00    -0.550 OA
ATOM      7  O   UNL     1      22.111  53.579  16.363  1.00  0.00    -0.550 OA
ENDBRANCH   4   5
ENDBRANCH   3   4
ENDBRANCH   2   3
ENDBRANCH   1   2
BRANCH   1   8
ATOM      8  C   UNL     1      16.704  54.996  15.441  1.00  0.00     0.000 C 
BRANCH   8   9
ATOM      9  C   UNL     1      17.100  54.087  16.613  1.00  0.00     0.006 C 
BRANCH   9  10
ATOM     10  C   UNL     1      18.010  54.801  17.621  1.00  0.00     0.053 C 
BRANCH  10  11
ATOM     11  C   UNL     1      18.462  53.878  18.711  1.00  0.00     0.041 C 
ATOM     12  O   UNL     1      17.628  53.159  19.320  1.00  0.00    -0.550 OA
ATOM     13  O   UNL     1      19.811  53.791  19.033  1.00  0.00    -0.550 OA
ENDBRANCH  10  11
ENDBRANCH   9  10
ENDBRANCH   8   9
ENDBRANCH   1   8
TORSDOF 8
ENDMDL
MODEL 8
REMARK VINA RESULT:    -4.148      1.633      2.334
REMARK INTER + INTRA:          -6.897
REMARK INTER:                  -6.281
REMARK INTRA:                  -0.617
REMARK UNBOUND:                -0.810
REMARK SMILES O=C([O-])CCCCCCCC(=O)[O-]
REMARK SMILES IDX 7 1 6 2 5 3 4 4 2 5 1 6 3 7 8 8 9 9 10 10 11 11 12 12 13 13
REMARK H PARENT
REMARK Flexibility Score: inf
ROOT
ATOM      1  C   UNL     1      18.084  55.634  14.382  1.00  0.00     0.000 C 
ENDROOT
BRANCH   1   2
ATOM      2  C   UNL     1      19.154  56.428  15.141  1.00  0.00     0.000 C 
BRANCH   2   3
ATOM      3  C   UNL     1      18.728  56.678  16.592  1.00  0.00     0.006 C 
BRANCH   3   4
ATOM      4  C   UNL     1      17.216  56.500  16.758  1.00  0.00     0.053 C 
BRANCH   4   5
ATOM      5  C   UNL     1      16.920  55.546  17.873  1.00  0.00     0.041 C 
ATOM      6  O   UNL     1      16.333  55.949  18.912  1.00  0.00    -0.550 OA
ATOM      7  O   UNL     1      17.247  54.202  17.743  1.00  0.00    -0.550 OA
ENDBRANCH   4   5
ENDBRANCH   3   4
ENDBRANCH   2   3
ENDBRANCH   1   2
BRANCH   1   8
ATOM      8  C   UNL     1      18.709  54.466  13.609  1.00  0.00     0.000 C 
BRANCH   8   9
ATOM      9  C   UNL     1      20.042  54.039  14.240  1.00  0.00     0.006 C 
BRANCH   9  10
ATOM     10  C   UNL     1      19.854  52.986  15.339  1.00  0.00     0.053 C 
BRANCH  10  11
ATOM     11  C   UNL     1      20.823  53.180  16.465  1.00  0.00     0.041 C 
ATOM     12  O   UNL     1      22.033  53.425  16.225  1.00  0.00    -0.550 OA
ATOM     13  O   UNL     1      20.379  53.120  17.780  1.00  0.00    -0.550 OA
ENDBRANCH  10  11
ENDBRANCH   9  10
ENDBRANCH   8   9
ENDBRANCH   1   8
TORSDOF 8
ENDMDL
MODEL 9
REMARK VINA RESULT:    -4.090      1.888      2.367
REMARK INTER + INTRA:          -6.813
REMARK INTER:                  -6.106
REMARK INTRA:                  -0.707
REMARK UNBOUND:                -0.810
REMARK SMILES O=C([O-])CCCCCCCC(=O)[O-]
REMARK SMILES IDX 7 1 6 2 5 3 4 4 2 5 1 6 3 7 8 8 9 9 10 10 11 11 12 12 13 13
REMARK H PARENT
REMARK Flexibility Score: inf
ROOT
ATOM      1  C   UNL     1      18.028  55.343  13.497  1.00  0.00     0.000 C 
ENDROOT
BRANCH   1   2
ATOM      2  C   UNL     1      16.580  54.867  13.670  1.00  0.00     0.000 C 
BRANCH   2   3
ATOM      3  C   UNL     1      16.263  54.593  15.144  1.00  0.00     0.006 C 
BRANCH   3   4
ATOM      4  C   UNL     1      15.451  55.740  15.754  1.00  0.00     0.053 C 
BRANCH   4   5
ATOM      5  C   UNL     1      16.328  56.611  16.598  1.00  0.00     0.041 C 
ATOM      6  O   UNL     1      16.928  57.591  16.084  1.00  0.00    -0.550 OA
ATOM      7  O   UNL     1      16.441  56.371  17.961  1.00  0.00    -0.550 OA
ENDBRANCH   4   5
ENDBRANCH   3   4
ENDBRANCH   2   3
ENDBRANCH   1   2
BRANCH   1   8
ATOM      8  C   UNL     1      19.010  54.170  13.612  1.00  0.00     0.000 C 
BRANCH   8   9
ATOM      9  C   UNL     1      20.192  54.529  14.525  1.00  0.00     0.006 C 
BRANCH   9  10
ATOM     10  C   UNL     1      19.860  55.684  15.478  1.00  0.00     0.053 C 
BRANCH  10  11
ATOM     11  C   UNL     1      20.433  55.459  16.843  1.00  0.00     0.041 C 
ATOM     12  O   UNL     1      19.753  55.727  17.868  1.00  0.00    -0.550 OA
ATOM     13  O   UNL     1      21.706  54.923  16.983  1.00  0.00    -0.550 OA
ENDBRANCH  10  11
ENDBRANCH   9  10
ENDBRANCH   8   9
ENDBRANCH   1   8
TORSDOF 8
ENDMDL
