MODEL 1
REMARK VINA RESULT:    -5.941      0.000      0.000
REMARK INTER + INTRA:          -6.438
REMARK INTER:                  -6.462
REMARK INTRA:                   0.023
REMARK UNBOUND:                 0.023
REMARK SMILES CC1(C)CC[C@@]2(C(=O)[O-])CC[C@@]3(C)C(=CC[C@H]4[C@]5(C)CC[C@@H](O)C(C)(C)[C@@H]5CC[C@@]43C)[C@H]2C1
REMARK SMILES IDX 6 1 5 2 10 3 32 4 4 5 11 6 14 7 33 8 2 9 12 10 15 11 1 12
REMARK SMILES IDX 3 13 13 14 30 15 16 16 17 17 29 18 31 19 18 20 28 21 27 22
REMARK SMILES IDX 20 23 19 24 24 25 21 26 22 27 25 28 26 29 7 30 8 31 9 32
REMARK SMILES IDX 23 33
REMARK H PARENT 23 34
REMARK Flexibility Score: inf
ROOT
ATOM      1  C   UNL     1      -0.551  25.605  36.267  1.00  0.00     0.017 C 
ATOM      2  C   UNL     1      -1.927  24.814  36.235  1.00  0.00     0.014 C 
ATOM      3  C   UNL     1       0.616  24.539  36.121  1.00  0.00     0.014 C 
ATOM      4  C   UNL     1      -0.454  26.734  35.135  1.00  0.00     0.028 C 
ATOM      5  C   UNL     1      -3.191  25.672  35.980  1.00  0.00     0.007 C 
ATOM      6  C   UNL     1       1.681  24.831  35.058  1.00  0.00     0.013 C 
ATOM      7  C   UNL     1       0.264  26.420  33.795  1.00  0.00    -0.064 C 
ATOM      8  C   UNL     1      -1.816  27.502  35.013  1.00  0.00     0.015 C 
ATOM      9  C   UNL     1      -3.064  26.614  34.782  1.00  0.00    -0.035 C 
ATOM     10  C   UNL     1       1.079  25.102  33.642  1.00  0.00    -0.006 C 
ATOM     11  C   UNL     1       0.431  27.445  32.900  1.00  0.00    -0.027 C 
ATOM     12  C   UNL     1      -2.972  25.843  33.433  1.00  0.00     0.011 C 
ATOM     13  C   UNL     1      -4.319  27.528  34.766  1.00  0.00     0.011 C 
ATOM     14  C   UNL     1       0.162  23.917  33.273  1.00  0.00     0.017 C 
ATOM     15  C   UNL     1       2.236  25.250  32.513  1.00  0.00    -0.020 C 
ATOM     16  C   UNL     1       1.214  27.369  31.601  1.00  0.00     0.032 C 
ATOM     17  C   UNL     1       1.535  25.898  31.248  1.00  0.00     0.006 C 
ATOM     18  C   UNL     1       2.934  23.914  32.095  1.00  0.00     0.008 C 
ATOM     19  C   UNL     1       3.381  26.157  33.095  1.00  0.00     0.012 C 
ATOM     20  C   UNL     1       2.162  25.588  29.832  1.00  0.00    -0.025 C 
ATOM     21  C   UNL     1       2.269  23.152  30.931  1.00  0.00     0.005 C 
ATOM     22  C   UNL     1       2.156  23.977  29.605  1.00  0.00     0.003 C 
ATOM     23  C   UNL     1       1.355  26.374  28.734  1.00  0.00     0.010 C 
ATOM     24  C   UNL     1       3.614  26.142  29.742  1.00  0.00     0.012 C 
ATOM     25  C   UNL     1       1.122  23.300  28.556  1.00  0.00    -0.006 C 
ATOM     26  C   UNL     1       1.138  25.597  27.456  1.00  0.00     0.033 C 
ATOM     27  C   UNL     1       0.298  24.375  27.758  1.00  0.00     0.120 C 
ATOM     28  C   UNL     1       1.944  22.421  27.561  1.00  0.00     0.014 C 
ATOM     29  C   UNL     1       0.100  22.347  29.209  1.00  0.00     0.014 C 
ENDROOT
BRANCH   1  30
ATOM     30  C   UNL     1      -0.459  26.201  37.678  1.00  0.00     0.048 C 
ATOM     31  O   UNL     1      -0.807  27.389  37.937  1.00  0.00    -0.550 OA
ATOM     32  O   UNL     1      -0.046  25.382  38.740  1.00  0.00    -0.550 OA
ENDBRANCH   1  30
BRANCH  27  33
ATOM     33  O   UNL     1      -0.195  23.876  26.545  1.00  0.00    -0.393 OA
ATOM     34  H   UNL     1      -0.723  23.037  26.684  1.00  0.00     0.210 HD
ENDBRANCH  27  33
TORSDOF 2
ENDMDL
MODEL 2
REMARK VINA RESULT:    -5.938      3.708      6.327
REMARK INTER + INTRA:          -6.435
REMARK INTER:                  -6.256
REMARK INTRA:                  -0.179
REMARK UNBOUND:                 0.023
REMARK SMILES CC1(C)CC[C@@]2(C(=O)[O-])CC[C@@]3(C)C(=CC[C@H]4[C@]5(C)CC[C@@H](O)C(C)(C)[C@@H]5CC[C@@]43C)[C@H]2C1
REMARK SMILES IDX 6 1 5 2 10 3 32 4 4 5 11 6 14 7 33 8 2 9 12 10 15 11 1 12
REMARK SMILES IDX 3 13 13 14 30 15 16 16 17 17 29 18 31 19 18 20 28 21 27 22
REMARK SMILES IDX 20 23 19 24 24 25 21 26 22 27 25 28 26 29 7 30 8 31 9 32
REMARK SMILES IDX 23 33
REMARK H PARENT 23 34
REMARK Flexibility Score: inf
ROOT
ATOM      1  C   UNL     1      -2.246  24.588  29.458  1.00  0.00     0.017 C 
ATOM      2  C   UNL     1      -2.395  23.040  29.139  1.00  0.00     0.014 C 
ATOM      3  C   UNL     1      -2.139  24.742  31.034  1.00  0.00     0.014 C 
ATOM      4  C   UNL     1      -0.994  25.259  28.720  1.00  0.00     0.028 C 
ATOM      5  C   UNL     1      -2.135  22.627  27.669  1.00  0.00     0.007 C 
ATOM      6  C   UNL     1      -0.980  25.596  31.561  1.00  0.00     0.013 C 
ATOM      7  C   UNL     1       0.349  25.423  29.479  1.00  0.00    -0.064 C 
ATOM      8  C   UNL     1      -0.882  24.731  27.247  1.00  0.00     0.015 C 
ATOM      9  C   UNL     1      -0.836  23.190  27.093  1.00  0.00    -0.035 C 
ATOM     10  C   UNL     1       0.413  25.149  31.011  1.00  0.00    -0.006 C 
ATOM     11  C   UNL     1       1.360  26.108  28.857  1.00  0.00    -0.027 C 
ATOM     12  C   UNL     1       0.424  22.587  27.780  1.00  0.00     0.011 C 
ATOM     13  C   UNL     1      -0.806  22.850  25.578  1.00  0.00     0.011 C 
ATOM     14  C   UNL     1       0.586  23.644  31.304  1.00  0.00     0.017 C 
ATOM     15  C   UNL     1       1.627  25.970  31.709  1.00  0.00    -0.020 C 
ATOM     16  C   UNL     1       2.694  26.482  29.480  1.00  0.00     0.032 C 
ATOM     17  C   UNL     1       2.905  25.714  30.806  1.00  0.00     0.006 C 
ATOM     18  C   UNL     1       1.944  25.564  33.186  1.00  0.00     0.008 C 
ATOM     19  C   UNL     1       1.228  27.489  31.768  1.00  0.00     0.012 C 
ATOM     20  C   UNL     1       4.319  25.804  31.506  1.00  0.00    -0.025 C 
ATOM     21  C   UNL     1       2.969  24.425  33.359  1.00  0.00     0.005 C 
ATOM     22  C   UNL     1       4.366  24.716  32.715  1.00  0.00     0.003 C 
ATOM     23  C   UNL     1       5.438  25.580  30.424  1.00  0.00     0.010 C 
ATOM     24  C   UNL     1       4.568  27.239  32.057  1.00  0.00     0.012 C 
ATOM     25  C   UNL     1       5.262  23.372  32.575  1.00  0.00    -0.006 C 
ATOM     26  C   UNL     1       6.605  24.752  30.908  1.00  0.00     0.033 C 
ATOM     27  C   UNL     1       6.115  23.364  31.255  1.00  0.00     0.120 C 
ATOM     28  C   UNL     1       6.208  23.287  33.814  1.00  0.00     0.014 C 
ATOM     29  C   UNL     1       4.440  22.067  32.587  1.00  0.00     0.014 C 
ENDROOT
BRANCH   1  30
ATOM     30  C   UNL     1      -3.574  25.220  29.021  1.00  0.00     0.048 C 
ATOM     31  O   UNL     1      -3.642  26.379  28.519  1.00  0.00    -0.550 OA
ATOM     32  O   UNL     1      -4.754  24.465  29.111  1.00  0.00    -0.550 OA
ENDBRANCH   1  30
BRANCH  27  33
ATOM     33  O   UNL     1       7.230  22.519  31.346  1.00  0.00    -0.393 OA
ATOM     34  H   UNL     1       7.315  21.940  30.533  1.00  0.00     0.210 HD
ENDBRANCH  27  33
TORSDOF 2
ENDMDL
MODEL 3
REMARK VINA RESULT:    -5.897      2.308      3.749
REMARK INTER + INTRA:          -6.391
REMARK INTER:                  -6.415
REMARK INTRA:                   0.024
REMARK UNBOUND:                 0.023
REMARK SMILES CC1(C)CC[C@@]2(C(=O)[O-])CC[C@@]3(C)C(=CC[C@H]4[C@]5(C)CC[C@@H](O)C(C)(C)[C@@H]5CC[C@@]43C)[C@H]2C1
REMARK SMILES IDX 6 1 5 2 10 3 32 4 4 5 11 6 14 7 33 8 2 9 12 10 15 11 1 12
REMARK SMILES IDX 3 13 13 14 30 15 16 16 17 17 29 18 31 19 18 20 28 21 27 22
REMARK SMILES IDX 20 23 19 24 24 25 21 26 22 27 25 28 26 29 7 30 8 31 9 32
REMARK SMILES IDX 23 33
REMARK H PARENT 23 34
REMARK Flexibility Score: inf
ROOT
ATOM      1  C   UNL     1      -1.209  26.660  34.256  1.00  0.00     0.017 C 
ATOM      2  C   UNL     1      -0.915  25.589  35.392  1.00  0.00     0.014 C 
ATOM      3  C   UNL     1       0.002  27.686  34.243  1.00  0.00     0.014 C 
ATOM      4  C   UNL     1      -1.427  25.995  32.816  1.00  0.00     0.028 C 
ATOM      5  C   UNL     1      -1.759  24.293  35.331  1.00  0.00     0.007 C 
ATOM      6  C   UNL     1       0.643  27.969  32.880  1.00  0.00     0.013 C 
ATOM      7  C   UNL     1      -0.241  25.914  31.819  1.00  0.00    -0.064 C 
ATOM      8  C   UNL     1      -2.302  24.699  32.940  1.00  0.00     0.015 C 
ATOM      9  C   UNL     1      -1.786  23.642  33.947  1.00  0.00    -0.035 C 
ATOM     10  C   UNL     1       1.084  26.673  32.126  1.00  0.00    -0.006 C 
ATOM     11  C   UNL     1      -0.494  25.449  30.555  1.00  0.00    -0.027 C 
ATOM     12  C   UNL     1      -0.393  23.088  33.529  1.00  0.00     0.011 C 
ATOM     13  C   UNL     1      -2.808  22.473  33.996  1.00  0.00     0.011 C 
ATOM     14  C   UNL     1       1.993  25.855  33.066  1.00  0.00     0.017 C 
ATOM     15  C   UNL     1       1.899  27.017  30.765  1.00  0.00    -0.020 C 
ATOM     16  C   UNL     1       0.499  25.415  29.406  1.00  0.00     0.032 C 
ATOM     17  C   UNL     1       1.934  25.673  29.924  1.00  0.00     0.006 C 
ATOM     18  C   UNL     1       3.359  27.538  30.974  1.00  0.00     0.008 C 
ATOM     19  C   UNL     1       1.144  28.174  30.015  1.00  0.00     0.012 C 
ATOM     20  C   UNL     1       3.138  25.475  28.921  1.00  0.00    -0.025 C 
ATOM     21  C   UNL     1       4.451  26.451  31.038  1.00  0.00     0.005 C 
ATOM     22  C   UNL     1       4.529  25.545  29.763  1.00  0.00     0.003 C 
ATOM     23  C   UNL     1       2.944  24.116  28.153  1.00  0.00     0.010 C 
ATOM     24  C   UNL     1       3.118  26.572  27.816  1.00  0.00     0.012 C 
ATOM     25  C   UNL     1       5.396  24.201  30.027  1.00  0.00    -0.006 C 
ATOM     26  C   UNL     1       4.224  23.345  27.934  1.00  0.00     0.033 C 
ATOM     27  C   UNL     1       4.801  22.954  29.277  1.00  0.00     0.120 C 
ATOM     28  C   UNL     1       6.856  24.462  29.538  1.00  0.00     0.014 C 
ATOM     29  C   UNL     1       5.517  23.815  31.515  1.00  0.00     0.014 C 
ENDROOT
BRANCH   1  30
ATOM     30  C   UNL     1      -2.455  27.420  34.730  1.00  0.00     0.048 C 
ATOM     31  O   UNL     1      -3.621  27.119  34.346  1.00  0.00    -0.550 OA
ATOM     32  O   UNL     1      -2.311  28.442  35.682  1.00  0.00    -0.550 OA
ENDBRANCH   1  30
BRANCH  27  33
ATOM     33  O   UNL     1       5.758  21.953  29.065  1.00  0.00    -0.393 OA
ATOM     34  H   UNL     1       6.574  22.319  28.615  1.00  0.00     0.210 HD
ENDBRANCH  27  33
TORSDOF 2
ENDMDL
MODEL 4
REMARK VINA RESULT:    -5.780      1.816      2.699
REMARK INTER + INTRA:          -6.263
REMARK INTER:                  -6.144
REMARK INTRA:                  -0.119
REMARK UNBOUND:                 0.023
REMARK SMILES CC1(C)CC[C@@]2(C(=O)[O-])CC[C@@]3(C)C(=CC[C@H]4[C@]5(C)CC[C@@H](O)C(C)(C)[C@@H]5CC[C@@]43C)[C@H]2C1
REMARK SMILES IDX 6 1 5 2 10 3 32 4 4 5 11 6 14 7 33 8 2 9 12 10 15 11 1 12
REMARK SMILES IDX 3 13 13 14 30 15 16 16 17 17 29 18 31 19 18 20 28 21 27 22
REMARK SMILES IDX 20 23 19 24 24 25 21 26 22 27 25 28 26 29 7 30 8 31 9 32
REMARK SMILES IDX 23 33
REMARK H PARENT 23 34
REMARK Flexibility Score: inf
ROOT
ATOM      1  C   UNL     1      -3.817  24.742  36.081  1.00  0.00     0.017 C 
ATOM      2  C   UNL     1      -5.042  24.216  35.219  1.00  0.00     0.014 C 
ATOM      3  C   UNL     1      -2.722  23.594  36.105  1.00  0.00     0.014 C 
ATOM      4  C   UNL     1      -3.211  26.116  35.529  1.00  0.00     0.028 C 
ATOM      5  C   UNL     1      -6.047  25.295  34.747  1.00  0.00     0.007 C 
ATOM      6  C   UNL     1      -1.290  24.007  35.748  1.00  0.00     0.013 C 
ATOM      7  C   UNL     1      -1.971  26.090  34.595  1.00  0.00    -0.064 C 
ATOM      8  C   UNL     1      -4.364  27.089  35.100  1.00  0.00     0.015 C 
ATOM      9  C   UNL     1      -5.385  26.508  34.091  1.00  0.00    -0.035 C 
ATOM     10  C   UNL     1      -1.189  24.760  34.382  1.00  0.00    -0.006 C 
ATOM     11  C   UNL     1      -1.409  27.287  34.239  1.00  0.00    -0.027 C 
ATOM     12  C   UNL     1      -4.707  26.148  32.738  1.00  0.00     0.011 C 
ATOM     13  C   UNL     1      -6.490  27.571  33.845  1.00  0.00     0.011 C 
ATOM     14  C   UNL     1      -1.856  23.886  33.299  1.00  0.00     0.017 C 
ATOM     15  C   UNL     1       0.353  25.041  33.961  1.00  0.00    -0.020 C 
ATOM     16  C   UNL     1      -0.126  27.464  33.444  1.00  0.00     0.032 C 
ATOM     17  C   UNL     1       0.302  26.123  32.803  1.00  0.00     0.006 C 
ATOM     18  C   UNL     1       1.150  23.788  33.469  1.00  0.00     0.008 C 
ATOM     19  C   UNL     1       1.125  25.557  35.230  1.00  0.00     0.012 C 
ATOM     20  C   UNL     1       1.495  26.135  31.768  1.00  0.00    -0.025 C 
ATOM     21  C   UNL     1       1.069  23.501  31.956  1.00  0.00     0.005 C 
ATOM     22  C   UNL     1       1.572  24.676  31.052  1.00  0.00     0.003 C 
ATOM     23  C   UNL     1       1.275  27.316  30.752  1.00  0.00     0.010 C 
ATOM     24  C   UNL     1       2.839  26.460  32.483  1.00  0.00     0.012 C 
ATOM     25  C   UNL     1       1.111  24.495  29.508  1.00  0.00    -0.006 C 
ATOM     26  C   UNL     1       1.646  26.978  29.326  1.00  0.00     0.033 C 
ATOM     27  C   UNL     1       0.746  25.866  28.833  1.00  0.00     0.120 C 
ATOM     28  C   UNL     1       2.282  23.818  28.728  1.00  0.00     0.014 C 
ATOM     29  C   UNL     1      -0.106  23.565  29.323  1.00  0.00     0.014 C 
ENDROOT
BRANCH   1  30
ATOM     30  C   UNL     1      -4.363  24.890  37.508  1.00  0.00     0.048 C 
ATOM     31  O   UNL     1      -5.491  24.435  37.855  1.00  0.00    -0.550 OA
ATOM     32  O   UNL     1      -3.556  25.486  38.490  1.00  0.00    -0.550 OA
ENDBRANCH   1  30
BRANCH  27  33
ATOM     33  O   UNL     1       0.845  25.816  27.436  1.00  0.00    -0.393 OA
ATOM     34  H   UNL     1       0.304  26.541  27.007  1.00  0.00     0.210 HD
ENDBRANCH  27  33
TORSDOF 2
ENDMDL
MODEL 5
REMARK VINA RESULT:    -5.711      4.728      7.676
REMARK INTER + INTRA:          -6.188
REMARK INTER:                  -6.032
REMARK INTRA:                  -0.156
REMARK UNBOUND:                 0.023
REMARK SMILES CC1(C)CC[C@@]2(C(=O)[O-])CC[C@@]3(C)C(=CC[C@H]4[C@]5(C)CC[C@@H](O)C(C)(C)[C@@H]5CC[C@@]43C)[C@H]2C1
REMARK SMILES IDX 6 1 5 2 10 3 32 4 4 5 11 6 14 7 33 8 2 9 12 10 15 11 1 12
REMARK SMILES IDX 3 13 13 14 30 15 16 16 17 17 29 18 31 19 18 20 28 21 27 22
REMARK SMILES IDX 20 23 19 24 24 25 21 26 22 27 25 28 26 29 7 30 8 31 9 32
REMARK SMILES IDX 23 33
REMARK H PARENT 23 34
REMARK Flexibility Score: inf
ROOT
ATOM      1  C   UNL     1       8.328  23.736  33.829  1.00  0.00     0.017 C 
ATOM      2  C   UNL     1       8.211  24.938  34.859  1.00  0.00     0.014 C 
ATOM      3  C   UNL     1       7.067  22.797  34.044  1.00  0.00     0.014 C 
ATOM      4  C   UNL     1       8.437  24.227  32.309  1.00  0.00     0.028 C 
ATOM      5  C   UNL     1       9.116  26.162  34.573  1.00  0.00     0.007 C 
ATOM      6  C   UNL     1       6.277  22.413  32.788  1.00  0.00     0.013 C 
ATOM      7  C   UNL     1       7.163  24.280  31.424  1.00  0.00    -0.064 C 
ATOM      8  C   UNL     1       9.391  25.468  32.203  1.00  0.00     0.015 C 
ATOM      9  C   UNL     1       9.039  26.658  33.128  1.00  0.00    -0.035 C 
ATOM     10  C   UNL     1       5.836  23.648  31.937  1.00  0.00    -0.006 C 
ATOM     11  C   UNL     1       7.314  24.589  30.098  1.00  0.00    -0.027 C 
ATOM     12  C   UNL     1       7.644  27.256  32.783  1.00  0.00     0.011 C 
ATOM     13  C   UNL     1      10.125  27.754  32.949  1.00  0.00     0.011 C 
ATOM     14  C   UNL     1       5.073  24.621  32.860  1.00  0.00     0.017 C 
ATOM     15  C   UNL     1       4.870  23.216  30.706  1.00  0.00    -0.020 C 
ATOM     16  C   UNL     1       6.214  24.567  29.050  1.00  0.00     0.032 C 
ATOM     17  C   UNL     1       4.826  24.462  29.726  1.00  0.00     0.006 C 
ATOM     18  C   UNL     1       3.412  22.819  31.109  1.00  0.00     0.008 C 
ATOM     19  C   UNL     1       5.480  21.938  30.024  1.00  0.00     0.012 C 
ATOM     20  C   UNL     1       3.540  24.632  28.825  1.00  0.00    -0.025 C 
ATOM     21  C   UNL     1       2.394  23.977  31.151  1.00  0.00     0.005 C 
ATOM     22  C   UNL     1       2.240  24.746  29.796  1.00  0.00     0.003 C 
ATOM     23  C   UNL     1       3.732  25.885  27.894  1.00  0.00     0.010 C 
ATOM     24  C   UNL     1       3.387  23.424  27.854  1.00  0.00     0.012 C 
ATOM     25  C   UNL     1       1.479  26.165  29.987  1.00  0.00    -0.006 C 
ATOM     26  C   UNL     1       2.482  26.713  27.710  1.00  0.00     0.033 C 
ATOM     27  C   UNL     1       2.066  27.282  29.049  1.00  0.00     0.120 C 
ATOM     28  C   UNL     1      -0.034  25.952  29.670  1.00  0.00     0.014 C 
ATOM     29  C   UNL     1       1.531  26.715  31.427  1.00  0.00     0.014 C 
ENDROOT
BRANCH   1  30
ATOM     30  C   UNL     1       9.571  22.949  34.267  1.00  0.00     0.048 C 
ATOM     31  O   UNL     1      10.081  23.070  35.417  1.00  0.00    -0.550 OA
ATOM     32  O   UNL     1      10.125  22.003  33.390  1.00  0.00    -0.550 OA
ENDBRANCH   1  30
BRANCH  27  33
ATOM     33  O   UNL     1       1.150  28.317  28.816  1.00  0.00    -0.393 OA
ATOM     34  H   UNL     1       1.042  28.896  29.626  1.00  0.00     0.210 HD
ENDBRANCH  27  33
TORSDOF 2
ENDMDL
MODEL 6
REMARK VINA RESULT:    -5.689      5.197      8.909
REMARK INTER + INTRA:          -6.165
REMARK INTER:                  -5.970
REMARK INTRA:                  -0.195
REMARK UNBOUND:                 0.023
REMARK SMILES CC1(C)CC[C@@]2(C(=O)[O-])CC[C@@]3(C)C(=CC[C@H]4[C@]5(C)CC[C@@H](O)C(C)(C)[C@@H]5CC[C@@]43C)[C@H]2C1
REMARK SMILES IDX 6 1 5 2 10 3 32 4 4 5 11 6 14 7 33 8 2 9 12 10 15 11 1 12
REMARK SMILES IDX 3 13 13 14 30 15 16 16 17 17 29 18 31 19 18 20 28 21 27 22
REMARK SMILES IDX 20 23 19 24 24 25 21 26 22 27 25 28 26 29 7 30 8 31 9 32
REMARK SMILES IDX 23 33
REMARK H PARENT 23 34
REMARK Flexibility Score: inf
ROOT
ATOM      1  C   UNL     1      -8.135  24.062  33.161  1.00  0.00     0.017 C 
ATOM      2  C   UNL     1      -7.994  25.318  32.201  1.00  0.00     0.014 C 
ATOM      3  C   UNL     1      -6.934  23.076  32.838  1.00  0.00     0.014 C 
ATOM      4  C   UNL     1      -8.160  24.463  34.711  1.00  0.00     0.028 C 
ATOM      5  C   UNL     1      -8.822  26.566  32.597  1.00  0.00     0.007 C 
ATOM      6  C   UNL     1      -6.118  22.577  34.035  1.00  0.00     0.013 C 
ATOM      7  C   UNL     1      -6.852  24.397  35.544  1.00  0.00    -0.064 C 
ATOM      8  C   UNL     1      -9.042  25.741  34.930  1.00  0.00     0.015 C 
ATOM      9  C   UNL     1      -8.664  26.968  34.064  1.00  0.00    -0.035 C 
ATOM     10  C   UNL     1      -5.580  23.733  34.939  1.00  0.00    -0.006 C 
ATOM     11  C   UNL     1      -6.934  24.632  36.891  1.00  0.00    -0.027 C 
ATOM     12  C   UNL     1      -7.227  27.472  34.386  1.00  0.00     0.011 C 
ATOM     13  C   UNL     1      -9.683  28.104  34.352  1.00  0.00     0.011 C 
ATOM     14  C   UNL     1      -4.803  24.722  34.045  1.00  0.00     0.017 C 
ATOM     15  C   UNL     1      -4.592  23.178  36.101  1.00  0.00    -0.020 C 
ATOM     16  C   UNL     1      -5.798  24.490  37.889  1.00  0.00     0.032 C 
ATOM     17  C   UNL     1      -4.444  24.357  37.151  1.00  0.00     0.006 C 
ATOM     18  C   UNL     1      -3.173  22.734  35.615  1.00  0.00     0.008 C 
ATOM     19  C   UNL     1      -5.241  21.892  36.731  1.00  0.00     0.012 C 
ATOM     20  C   UNL     1      -3.118  24.406  38.007  1.00  0.00    -0.025 C 
ATOM     21  C   UNL     1      -2.098  23.840  35.600  1.00  0.00     0.005 C 
ATOM     22  C   UNL     1      -1.852  24.514  36.991  1.00  0.00     0.003 C 
ATOM     23  C   UNL     1      -3.208  25.608  39.018  1.00  0.00     0.010 C 
ATOM     24  C   UNL     1      -2.992  23.135  38.897  1.00  0.00     0.012 C 
ATOM     25  C   UNL     1      -1.026  25.903  36.854  1.00  0.00    -0.006 C 
ATOM     26  C   UNL     1      -1.909  26.359  39.199  1.00  0.00     0.033 C 
ATOM     27  C   UNL     1      -1.516  26.988  37.880  1.00  0.00     0.120 C 
ATOM     28  C   UNL     1       0.486  25.595  37.095  1.00  0.00     0.014 C 
ATOM     29  C   UNL     1      -1.104  26.543  35.452  1.00  0.00     0.014 C 
ENDROOT
BRANCH   1  30
ATOM     30  C   UNL     1      -9.433  23.367  32.729  1.00  0.00     0.048 C 
ATOM     31  O   UNL     1      -9.874  23.426  31.546  1.00  0.00    -0.550 OA
ATOM     32  O   UNL     1     -10.125  22.573  33.657  1.00  0.00    -0.550 OA
ENDBRANCH   1  30
BRANCH  27  33
ATOM     33  O   UNL     1      -0.539  27.959  38.136  1.00  0.00    -0.393 OA
ATOM     34  H   UNL     1      -0.236  27.927  39.090  1.00  0.00     0.210 HD
ENDBRANCH  27  33
TORSDOF 2
ENDMDL
MODEL 7
REMARK VINA RESULT:    -5.654      2.452      3.513
REMARK INTER + INTRA:          -6.126
REMARK INTER:                  -6.113
REMARK INTRA:                  -0.013
REMARK UNBOUND:                 0.023
REMARK SMILES CC1(C)CC[C@@]2(C(=O)[O-])CC[C@@]3(C)C(=CC[C@H]4[C@]5(C)CC[C@@H](O)C(C)(C)[C@@H]5CC[C@@]43C)[C@H]2C1
REMARK SMILES IDX 6 1 5 2 10 3 32 4 4 5 11 6 14 7 33 8 2 9 12 10 15 11 1 12
REMARK SMILES IDX 3 13 13 14 30 15 16 16 17 17 29 18 31 19 18 20 28 21 27 22
REMARK SMILES IDX 20 23 19 24 24 25 21 26 22 27 25 28 26 29 7 30 8 31 9 32
REMARK SMILES IDX 23 33
REMARK H PARENT 23 34
REMARK Flexibility Score: inf
ROOT
ATOM      1  C   UNL     1       3.460  24.479  35.690  1.00  0.00     0.017 C 
ATOM      2  C   UNL     1       3.440  22.901  35.864  1.00  0.00     0.014 C 
ATOM      3  C   UNL     1       4.763  24.852  34.863  1.00  0.00     0.014 C 
ATOM      4  C   UNL     1       2.139  25.045  34.985  1.00  0.00     0.028 C 
ATOM      5  C   UNL     1       2.086  22.289  36.300  1.00  0.00     0.007 C 
ATOM      6  C   UNL     1       4.566  25.775  33.656  1.00  0.00     0.013 C 
ATOM      7  C   UNL     1       2.140  25.319  33.457  1.00  0.00    -0.064 C 
ATOM      8  C   UNL     1       0.867  24.318  35.544  1.00  0.00     0.015 C 
ATOM      9  C   UNL     1       0.897  22.772  35.468  1.00  0.00    -0.035 C 
ATOM     10  C   UNL     1       3.476  25.261  32.659  1.00  0.00    -0.006 C 
ATOM     11  C   UNL     1       1.034  25.914  32.909  1.00  0.00    -0.027 C 
ATOM     12  C   UNL     1       0.967  22.275  33.995  1.00  0.00     0.011 C 
ATOM     13  C   UNL     1      -0.396  22.224  36.133  1.00  0.00     0.011 C 
ATOM     14  C   UNL     1       3.830  23.812  32.264  1.00  0.00     0.017 C 
ATOM     15  C   UNL     1       3.407  26.175  31.320  1.00  0.00    -0.020 C 
ATOM     16  C   UNL     1       0.895  26.376  31.469  1.00  0.00     0.032 C 
ATOM     17  C   UNL     1       2.042  25.801  30.604  1.00  0.00     0.006 C 
ATOM     18  C   UNL     1       4.591  25.981  30.317  1.00  0.00     0.008 C 
ATOM     19  C   UNL     1       3.465  27.687  31.749  1.00  0.00     0.012 C 
ATOM     20  C   UNL     1       1.967  25.993  29.038  1.00  0.00    -0.025 C 
ATOM     21  C   UNL     1       4.389  24.881  29.255  1.00  0.00     0.005 C 
ATOM     22  C   UNL     1       3.128  25.085  28.350  1.00  0.00     0.003 C 
ATOM     23  C   UNL     1       0.517  25.625  28.549  1.00  0.00     0.010 C 
ATOM     24  C   UNL     1       2.155  27.492  28.660  1.00  0.00     0.012 C 
ATOM     25  C   UNL     1       2.741  23.738  27.535  1.00  0.00    -0.006 C 
ATOM     26  C   UNL     1       0.482  24.877  27.237  1.00  0.00     0.033 C 
ATOM     27  C   UNL     1       1.185  23.549  27.408  1.00  0.00     0.120 C 
ATOM     28  C   UNL     1       3.379  23.830  26.113  1.00  0.00     0.014 C 
ATOM     29  C   UNL     1       3.300  22.444  28.162  1.00  0.00     0.014 C 
ENDROOT
BRANCH   1  30
ATOM     30  C   UNL     1       3.636  25.040  37.108  1.00  0.00     0.048 C 
ATOM     31  O   UNL     1       2.698  25.611  37.734  1.00  0.00    -0.550 OA
ATOM     32  O   UNL     1       4.859  24.851  37.770  1.00  0.00    -0.550 OA
ENDBRANCH   1  30
BRANCH  27  33
ATOM     33  O   UNL     1       0.835  22.729  26.326  1.00  0.00    -0.393 OA
ATOM     34  H   UNL     1       1.342  21.866  26.345  1.00  0.00     0.210 HD
ENDBRANCH  27  33
TORSDOF 2
ENDMDL
MODEL 8
REMARK VINA RESULT:    -5.643      2.115      7.737
REMARK INTER + INTRA:          -6.115
REMARK INTER:                  -5.919
REMARK INTRA:                  -0.195
REMARK UNBOUND:                 0.023
REMARK SMILES CC1(C)CC[C@@]2(C(=O)[O-])CC[C@@]3(C)C(=CC[C@H]4[C@]5(C)CC[C@@H](O)C(C)(C)[C@@H]5CC[C@@]43C)[C@H]2C1
REMARK SMILES IDX 6 1 5 2 10 3 32 4 4 5 11 6 14 7 33 8 2 9 12 10 15 11 1 12
REMARK SMILES IDX 3 13 13 14 30 15 16 16 17 17 29 18 31 19 18 20 28 21 27 22
REMARK SMILES IDX 20 23 19 24 24 25 21 26 22 27 25 28 26 29 7 30 8 31 9 32
REMARK SMILES IDX 23 33
REMARK H PARENT 23 34
REMARK Flexibility Score: inf
ROOT
ATOM      1  C   UNL     1       3.923  24.845  30.709  1.00  0.00     0.017 C 
ATOM      2  C   UNL     1       5.179  24.284  31.503  1.00  0.00     0.014 C 
ATOM      3  C   UNL     1       2.821  23.703  30.689  1.00  0.00     0.014 C 
ATOM      4  C   UNL     1       3.346  26.202  31.333  1.00  0.00     0.028 C 
ATOM      5  C   UNL     1       6.208  25.343  31.971  1.00  0.00     0.007 C 
ATOM      6  C   UNL     1       1.407  24.108  31.118  1.00  0.00     0.013 C 
ATOM      7  C   UNL     1       2.145  26.147  32.315  1.00  0.00    -0.064 C 
ATOM      8  C   UNL     1       4.521  27.154  31.749  1.00  0.00     0.015 C 
ATOM      9  C   UNL     1       5.578  26.534  32.695  1.00  0.00    -0.035 C 
ATOM     10  C   UNL     1       1.365  24.813  32.512  1.00  0.00    -0.006 C 
ATOM     11  C   UNL     1       1.603  27.333  32.735  1.00  0.00    -0.027 C 
ATOM     12  C   UNL     1       4.952  26.129  34.062  1.00  0.00     0.011 C 
ATOM     13  C   UNL     1       6.697  27.584  32.935  1.00  0.00     0.011 C 
ATOM     14  C   UNL     1       2.070  23.898  33.536  1.00  0.00     0.017 C 
ATOM     15  C   UNL     1      -0.158  25.085  33.004  1.00  0.00    -0.020 C 
ATOM     16  C   UNL     1       0.354  27.487  33.587  1.00  0.00     0.032 C 
ATOM     17  C   UNL     1      -0.055  26.125  34.196  1.00  0.00     0.006 C 
ATOM     18  C   UNL     1      -0.940  23.818  33.484  1.00  0.00     0.008 C 
ATOM     19  C   UNL     1      -0.978  25.648  31.786  1.00  0.00     0.012 C 
ATOM     20  C   UNL     1      -1.205  26.105  35.279  1.00  0.00    -0.025 C 
ATOM     21  C   UNL     1      -0.801  23.478  34.981  1.00  0.00     0.005 C 
ATOM     22  C   UNL     1      -1.261  24.622  35.945  1.00  0.00     0.003 C 
ATOM     23  C   UNL     1      -0.939  27.249  36.326  1.00  0.00     0.010 C 
ATOM     24  C   UNL     1      -2.575  26.460  34.630  1.00  0.00     0.012 C 
ATOM     25  C   UNL     1      -0.740  24.384  37.462  1.00  0.00    -0.006 C 
ATOM     26  C   UNL     1      -1.255  26.862  37.752  1.00  0.00     0.033 C 
ATOM     27  C   UNL     1      -0.342  25.730  38.170  1.00  0.00     0.120 C 
ATOM     28  C   UNL     1      -1.883  23.685  38.265  1.00  0.00     0.014 C 
ATOM     29  C   UNL     1       0.479  23.444  37.566  1.00  0.00     0.014 C 
ENDROOT
BRANCH   1  30
ATOM     30  C   UNL     1       4.412  25.041  29.267  1.00  0.00     0.048 C 
ATOM     31  O   UNL     1       5.329  24.334  28.759  1.00  0.00    -0.550 OA
ATOM     32  O   UNL     1       3.773  25.989  28.452  1.00  0.00    -0.550 OA
ENDBRANCH   1  30
BRANCH  27  33
ATOM     33  O   UNL     1      -0.384  25.630  39.567  1.00  0.00    -0.393 OA
ATOM     34  H   UNL     1      -1.175  25.096  39.869  1.00  0.00     0.210 HD
ENDBRANCH  27  33
TORSDOF 2
ENDMDL
MODEL 9
REMARK VINA RESULT:    -5.595      2.213      8.153
REMARK INTER + INTRA:          -6.063
REMARK INTER:                  -5.865
REMARK INTRA:                  -0.197
REMARK UNBOUND:                 0.023
REMARK SMILES CC1(C)CC[C@@]2(C(=O)[O-])CC[C@@]3(C)C(=CC[C@H]4[C@]5(C)CC[C@@H](O)C(C)(C)[C@@H]5CC[C@@]43C)[C@H]2C1
REMARK SMILES IDX 6 1 5 2 10 3 32 4 4 5 11 6 14 7 33 8 2 9 12 10 15 11 1 12
REMARK SMILES IDX 3 13 13 14 30 15 16 16 17 17 29 18 31 19 18 20 28 21 27 22
REMARK SMILES IDX 20 23 19 24 24 25 21 26 22 27 25 28 26 29 7 30 8 31 9 32
REMARK SMILES IDX 23 33
REMARK H PARENT 23 34
REMARK Flexibility Score: inf
ROOT
ATOM      1  C   UNL     1      -0.284  24.343  31.318  1.00  0.00     0.017 C 
ATOM      2  C   UNL     1       1.273  24.037  31.362  1.00  0.00     0.014 C 
ATOM      3  C   UNL     1      -1.041  23.044  31.827  1.00  0.00     0.014 C 
ATOM      4  C   UNL     1      -0.690  25.630  32.180  1.00  0.00     0.028 C 
ATOM      5  C   UNL     1       2.205  25.270  31.275  1.00  0.00     0.007 C 
ATOM      6  C   UNL     1      -2.099  23.251  32.917  1.00  0.00     0.013 C 
ATOM      7  C   UNL     1      -1.214  25.451  33.630  1.00  0.00    -0.064 C 
ATOM      8  C   UNL     1       0.358  26.779  31.972  1.00  0.00     0.015 C 
ATOM      9  C   UNL     1       1.832  26.392  32.245  1.00  0.00    -0.035 C 
ATOM     10  C   UNL     1      -1.557  24.028  34.160  1.00  0.00    -0.006 C 
ATOM     11  C   UNL     1      -1.664  26.563  34.293  1.00  0.00    -0.027 C 
ATOM     12  C   UNL     1       2.048  25.983  33.731  1.00  0.00     0.011 C 
ATOM     13  C   UNL     1       2.729  27.617  31.916  1.00  0.00     0.011 C 
ATOM     14  C   UNL     1      -0.295  23.301  34.670  1.00  0.00     0.017 C 
ATOM     15  C   UNL     1      -2.653  24.090  35.356  1.00  0.00    -0.020 C 
ATOM     16  C   UNL     1      -2.327  26.574  35.660  1.00  0.00     0.032 C 
ATOM     17  C   UNL     1      -2.145  25.207  36.360  1.00  0.00     0.006 C 
ATOM     18  C   UNL     1      -2.869  22.750  36.134  1.00  0.00     0.008 C 
ATOM     19  C   UNL     1      -4.051  24.440  34.727  1.00  0.00     0.012 C 
ATOM     20  C   UNL     1      -2.581  25.077  37.873  1.00  0.00    -0.025 C 
ATOM     21  C   UNL     1      -1.947  22.531  37.351  1.00  0.00     0.005 C 
ATOM     22  C   UNL     1      -2.049  23.649  38.442  1.00  0.00     0.003 C 
ATOM     23  C   UNL     1      -2.023  26.312  38.671  1.00  0.00     0.010 C 
ATOM     24  C   UNL     1      -4.129  25.172  38.007  1.00  0.00     0.012 C 
ATOM     25  C   UNL     1      -0.811  23.592  39.487  1.00  0.00    -0.006 C 
ATOM     26  C   UNL     1      -1.517  25.972  40.054  1.00  0.00     0.033 C 
ATOM     27  C   UNL     1      -0.343  25.025  39.930  1.00  0.00     0.120 C 
ATOM     28  C   UNL     1      -1.266  22.776  40.737  1.00  0.00     0.014 C 
ATOM     29  C   UNL     1       0.435  22.862  38.943  1.00  0.00     0.014 C 
ENDROOT
BRANCH   1  30
ATOM     30  C   UNL     1      -0.620  24.521  29.831  1.00  0.00     0.048 C 
ATOM     31  O   UNL     1      -0.010  23.895  28.918  1.00  0.00    -0.550 OA
ATOM     32  O   UNL     1      -1.690  25.353  29.467  1.00  0.00    -0.550 OA
ENDBRANCH   1  30
BRANCH  27  33
ATOM     33  O   UNL     1       0.334  25.009  41.158  1.00  0.00    -0.393 OA
ATOM     34  H   UNL     1      -0.287  24.790  41.912  1.00  0.00     0.210 HD
ENDBRANCH  27  33
TORSDOF 2
ENDMDL
