MODEL 1
REMARK VINA RESULT:    -5.526      0.000      0.000
REMARK INTER + INTRA:         -10.545
REMARK INTER:                  -8.434
REMARK INTRA:                  -2.112
REMARK UNBOUND:                -2.112
REMARK SMILES C[C@@H]1O[C@@H](Oc2cc(O)c3c(=O)c(O[C@H]4O[C@H](C)[C@@H](O)[C@@H](O)[C@H]4O)c(-c4ccc(O)cc4)oc3c2)[C@H](O)[C@H](O)[C@@H]1O
REMARK SMILES IDX 6 1 7 2 8 3 10 4 34 5 35 6 33 7 25 8 13 9 11 10 12 11 5 12
REMARK SMILES IDX 4 13 1 14 2 15 40 16 3 17 38 18 36 19 41 20 39 22 37 24 9 26
REMARK SMILES IDX 26 28 27 29 32 30 28 31 31 32 29 33 30 34 14 36 15 37 23 38
REMARK SMILES IDX 16 39 21 40 17 41 19 42 18 43 24 44 22 46 20 48
REMARK H PARENT 41 21 39 23 37 25 9 27 30 35 24 45 22 47 20 49
REMARK Flexibility Score: inf
ROOT
ATOM      1  C   UNL     1      -0.288  -8.045  28.066  1.00  0.00     0.130 A 
ATOM      2  C   UNL     1      -1.206  -8.555  29.004  1.00  0.00     0.093 A 
ATOM      3  C   UNL     1      -2.576  -8.615  28.707  1.00  0.00     0.134 A 
ATOM      4  C   UNL     1      -3.045  -8.159  27.453  1.00  0.00     0.111 A 
ATOM      5  C   UNL     1      -2.118  -7.647  26.517  1.00  0.00     0.146 A 
ATOM      6  C   UNL     1      -0.758  -7.596  26.829  1.00  0.00     0.094 A 
ATOM      7  O   UNL     1      -2.526  -7.214  25.329  1.00  0.00    -0.452 OA
ATOM      8  C   UNL     1      -3.799  -7.222  24.948  1.00  0.00     0.180 A 
ATOM      9  C   UNL     1      -4.794  -7.668  25.842  1.00  0.00     0.214 A 
ATOM     10  C   UNL     1      -4.406  -8.171  27.088  1.00  0.00     0.239 A 
ATOM     11  O   UNL     1      -5.289  -8.611  27.873  1.00  0.00    -0.285 OA
ENDROOT
BRANCH   1  12
ATOM     12  O   UNL     1       1.091  -7.955  28.319  1.00  0.00    -0.462 OA
BRANCH  12  13
ATOM     13  C   UNL     1       2.103  -7.613  27.363  1.00  0.00     0.339 C 
ATOM     14  C   UNL     1       5.018  -8.860  29.239  1.00  0.00     0.042 C 
ATOM     15  C   UNL     1       3.828  -7.954  28.922  1.00  0.00     0.151 C 
ATOM     16  C   UNL     1       4.232  -6.462  28.953  1.00  0.00     0.174 C 
ATOM     17  O   UNL     1       3.308  -8.309  27.650  1.00  0.00    -0.335 OA
ATOM     18  C   UNL     1       3.005  -5.602  28.615  1.00  0.00     0.180 C 
ATOM     19  C   UNL     1       2.340  -6.086  27.309  1.00  0.00     0.214 C 
BRANCH  16  20
ATOM     20  O   UNL     1       5.259  -6.208  28.025  1.00  0.00    -0.388 OA
ATOM     21  H   UNL     1       4.858  -5.688  27.280  1.00  0.00     0.211 HD
ENDBRANCH  16  20
BRANCH  18  22
ATOM     22  O   UNL     1       3.385  -4.254  28.513  1.00  0.00    -0.387 OA
ATOM     23  H   UNL     1       2.610  -3.769  28.125  1.00  0.00     0.211 HD
ENDBRANCH  18  22
BRANCH  19  24
ATOM     24  O   UNL     1       3.152  -5.791  26.200  1.00  0.00    -0.384 OA
ATOM     25  H   UNL     1       2.572  -5.831  25.396  1.00  0.00     0.211 HD
ENDBRANCH  19  24
ENDBRANCH  12  13
ENDBRANCH   1  12
BRANCH   3  26
ATOM     26  O   UNL     1      -3.460  -9.125  29.661  1.00  0.00    -0.507 OA
ATOM     27  H   UNL     1      -4.170  -8.546  30.092  1.00  0.00     0.293 HD
ENDBRANCH   3  26
BRANCH   8  28
ATOM     28  C   UNL     1      -4.117  -6.771  23.577  1.00  0.00     0.021 A 
ATOM     29  C   UNL     1      -4.143  -5.399  23.284  1.00  0.00     0.016 A 
ATOM     30  C   UNL     1      -4.351  -7.697  22.544  1.00  0.00     0.016 A 
ATOM     31  C   UNL     1      -4.439  -4.958  21.991  1.00  0.00     0.047 A 
ATOM     32  C   UNL     1      -4.650  -7.255  21.253  1.00  0.00     0.047 A 
ATOM     33  C   UNL     1      -4.699  -5.882  20.974  1.00  0.00     0.115 A 
BRANCH  33  34
ATOM     34  O   UNL     1      -4.999  -5.428  19.692  1.00  0.00    -0.508 OA
ATOM     35  H   UNL     1      -4.584  -5.852  18.869  1.00  0.00     0.293 HD
ENDBRANCH  33  34
ENDBRANCH   8  28
BRANCH   9  36
ATOM     36  O   UNL     1      -6.158  -7.611  25.524  1.00  0.00    -0.454 OA
BRANCH  36  37
ATOM     37  C   UNL     1      -6.937  -6.411  25.631  1.00  0.00     0.339 C 
ATOM     38  C   UNL     1      -8.214  -6.653  26.454  1.00  0.00     0.214 C 
ATOM     39  O   UNL     1      -7.249  -5.896  24.348  1.00  0.00    -0.335 OA
ATOM     40  C   UNL     1      -9.181  -7.588  25.699  1.00  0.00     0.180 C 
ATOM     41  C   UNL     1      -8.022  -6.812  23.588  1.00  0.00     0.151 C 
ATOM     42  C   UNL     1      -9.389  -7.068  24.266  1.00  0.00     0.174 C 
ATOM     43  C   UNL     1      -8.212  -6.225  22.189  1.00  0.00     0.042 C 
BRANCH  38  44
ATOM     44  O   UNL     1      -7.878  -7.187  27.709  1.00  0.00    -0.384 OA
ATOM     45  H   UNL     1      -8.517  -7.926  27.885  1.00  0.00     0.211 HD
ENDBRANCH  38  44
BRANCH  40  46
ATOM     46  O   UNL     1      -8.675  -8.900  25.661  1.00  0.00    -0.387 OA
ATOM     47  H   UNL     1      -8.481  -9.162  26.599  1.00  0.00     0.211 HD
ENDBRANCH  40  46
BRANCH  42  48
ATOM     48  O   UNL     1     -10.125  -8.003  23.520  1.00  0.00    -0.388 OA
ATOM     49  H   UNL     1     -10.685  -7.485  22.884  1.00  0.00     0.211 HD
ENDBRANCH  42  48
ENDBRANCH  36  37
ENDBRANCH   9  36
TORSDOF 13
ENDMDL
MODEL 2
REMARK VINA RESULT:    -5.131     12.033     17.134
REMARK INTER + INTRA:          -9.942
REMARK INTER:                  -8.160
REMARK INTRA:                  -1.782
REMARK UNBOUND:                -2.112
REMARK SMILES C[C@@H]1O[C@@H](Oc2cc(O)c3c(=O)c(O[C@H]4O[C@H](C)[C@@H](O)[C@@H](O)[C@H]4O)c(-c4ccc(O)cc4)oc3c2)[C@H](O)[C@H](O)[C@@H]1O
REMARK SMILES IDX 6 1 7 2 8 3 10 4 34 5 35 6 33 7 25 8 13 9 11 10 12 11 5 12
REMARK SMILES IDX 4 13 1 14 2 15 40 16 3 17 38 18 36 19 41 20 39 22 37 24 9 26
REMARK SMILES IDX 26 28 27 29 32 30 28 31 31 32 29 33 30 34 14 36 15 37 23 38
REMARK SMILES IDX 16 39 21 40 17 41 19 42 18 43 24 44 22 46 20 48
REMARK H PARENT 41 21 39 23 37 25 9 27 30 35 24 45 22 47 20 49
REMARK Flexibility Score: inf
ROOT
ATOM      1  C   UNL     1      -5.054   1.404  17.745  1.00  0.00     0.130 A 
ATOM      2  C   UNL     1      -3.673   1.674  17.721  1.00  0.00     0.093 A 
ATOM      3  C   UNL     1      -3.182   2.851  17.138  1.00  0.00     0.134 A 
ATOM      4  C   UNL     1      -4.081   3.780  16.565  1.00  0.00     0.111 A 
ATOM      5  C   UNL     1      -5.467   3.501  16.590  1.00  0.00     0.146 A 
ATOM      6  C   UNL     1      -5.938   2.325  17.178  1.00  0.00     0.094 A 
ATOM      7  O   UNL     1      -6.339   4.356  16.064  1.00  0.00    -0.452 OA
ATOM      8  C   UNL     1      -5.981   5.497  15.484  1.00  0.00     0.180 A 
ATOM      9  C   UNL     1      -4.614   5.825  15.369  1.00  0.00     0.214 A 
ATOM     10  C   UNL     1      -3.665   4.975  15.945  1.00  0.00     0.239 A 
ATOM     11  O   UNL     1      -2.444   5.288  15.882  1.00  0.00    -0.285 OA
ENDROOT
BRANCH   1  12
ATOM     12  O   UNL     1      -5.594   0.236  18.309  1.00  0.00    -0.462 OA
BRANCH  12  13
ATOM     13  C   UNL     1      -6.607  -0.593  17.724  1.00  0.00     0.339 C 
ATOM     14  C   UNL     1      -9.013  -0.503  20.512  1.00  0.00     0.042 C 
ATOM     15  C   UNL     1      -7.718  -0.853  19.777  1.00  0.00     0.151 C 
ATOM     16  C   UNL     1      -7.412  -2.366  19.869  1.00  0.00     0.174 C 
ATOM     17  O   UNL     1      -7.834  -0.442  18.425  1.00  0.00    -0.335 OA
ATOM     18  C   UNL     1      -6.112  -2.660  19.105  1.00  0.00     0.180 C 
ATOM     19  C   UNL     1      -6.170  -2.076  17.677  1.00  0.00     0.214 C 
BRANCH  16  20
ATOM     20  O   UNL     1      -8.466  -3.119  19.319  1.00  0.00    -0.388 OA
ATOM     21  H   UNL     1      -8.374  -3.071  18.330  1.00  0.00     0.211 HD
ENDBRANCH  16  20
BRANCH  18  22
ATOM     22  O   UNL     1      -5.887  -4.046  19.068  1.00  0.00    -0.387 OA
ATOM     23  H   UNL     1      -6.749  -4.468  18.813  1.00  0.00     0.211 HD
ENDBRANCH  18  22
BRANCH  19  24
ATOM     24  O   UNL     1      -7.082  -2.794  16.885  1.00  0.00    -0.384 OA
ATOM     25  H   UNL     1      -7.258  -2.247  16.076  1.00  0.00     0.211 HD
ENDBRANCH  19  24
ENDBRANCH  12  13
ENDBRANCH   1  12
BRANCH   3  26
ATOM     26  O   UNL     1      -1.806   3.087  17.129  1.00  0.00    -0.507 OA
ATOM     27  H   UNL     1      -1.150   2.405  16.766  1.00  0.00     0.293 HD
ENDBRANCH   3  26
BRANCH   8  28
ATOM     28  C   UNL     1      -7.050   6.391  14.992  1.00  0.00     0.021 A 
ATOM     29  C   UNL     1      -8.048   5.882  14.146  1.00  0.00     0.016 A 
ATOM     30  C   UNL     1      -7.111   7.738  15.392  1.00  0.00     0.016 A 
ATOM     31  C   UNL     1      -9.066   6.715  13.675  1.00  0.00     0.047 A 
ATOM     32  C   UNL     1      -8.128   8.570  14.919  1.00  0.00     0.047 A 
ATOM     33  C   UNL     1      -9.108   8.060  14.054  1.00  0.00     0.115 A 
BRANCH  33  34
ATOM     34  O   UNL     1     -10.125   8.881  13.572  1.00  0.00    -0.508 OA
ATOM     35  H   UNL     1     -11.100   8.610  13.638  1.00  0.00     0.293 HD
ENDBRANCH  33  34
ENDBRANCH   8  28
BRANCH   9  36
ATOM     36  O   UNL     1      -4.180   6.969  14.685  1.00  0.00    -0.454 OA
BRANCH  36  37
ATOM     37  C   UNL     1      -3.614   6.926  13.368  1.00  0.00     0.339 C 
ATOM     38  C   UNL     1      -2.559   8.031  13.183  1.00  0.00     0.214 C 
ATOM     39  O   UNL     1      -4.626   7.020  12.380  1.00  0.00    -0.335 OA
ATOM     40  C   UNL     1      -3.220   9.424  13.195  1.00  0.00     0.180 C 
ATOM     41  C   UNL     1      -5.338   8.244  12.473  1.00  0.00     0.151 C 
ATOM     42  C   UNL     1      -4.400   9.445  12.207  1.00  0.00     0.174 C 
ATOM     43  C   UNL     1      -6.476   8.209  11.451  1.00  0.00     0.042 C 
BRANCH  38  44
ATOM     44  O   UNL     1      -1.584   7.931  14.190  1.00  0.00    -0.384 OA
ATOM     45  H   UNL     1      -0.970   8.702  14.070  1.00  0.00     0.211 HD
ENDBRANCH  38  44
BRANCH  40  46
ATOM     46  O   UNL     1      -3.675   9.748  14.486  1.00  0.00    -0.387 OA
ATOM     47  H   UNL     1      -3.050   9.319  15.128  1.00  0.00     0.211 HD
ENDBRANCH  40  46
BRANCH  42  48
ATOM     48  O   UNL     1      -5.113  10.648  12.338  1.00  0.00    -0.388 OA
ATOM     49  H   UNL     1      -4.684  11.156  13.075  1.00  0.00     0.211 HD
ENDBRANCH  42  48
ENDBRANCH  36  37
ENDBRANCH   9  36
TORSDOF 13
ENDMDL
MODEL 3
REMARK VINA RESULT:    -4.650      1.467      2.251
REMARK INTER + INTRA:          -9.208
REMARK INTER:                  -7.534
REMARK INTRA:                  -1.673
REMARK UNBOUND:                -2.112
REMARK SMILES C[C@@H]1O[C@@H](Oc2cc(O)c3c(=O)c(O[C@H]4O[C@H](C)[C@@H](O)[C@@H](O)[C@H]4O)c(-c4ccc(O)cc4)oc3c2)[C@H](O)[C@H](O)[C@@H]1O
REMARK SMILES IDX 6 1 7 2 8 3 10 4 34 5 35 6 33 7 25 8 13 9 11 10 12 11 5 12
REMARK SMILES IDX 4 13 1 14 2 15 40 16 3 17 38 18 36 19 41 20 39 22 37 24 9 26
REMARK SMILES IDX 26 28 27 29 32 30 28 31 31 32 29 33 30 34 14 36 15 37 23 38
REMARK SMILES IDX 16 39 21 40 17 41 19 42 18 43 24 44 22 46 20 48
REMARK H PARENT 41 21 39 23 37 25 9 27 30 35 24 45 22 47 20 49
REMARK Flexibility Score: inf
ROOT
ATOM      1  C   UNL     1      -1.283  -8.395  27.573  1.00  0.00     0.130 A 
ATOM      2  C   UNL     1      -2.220  -8.523  28.615  1.00  0.00     0.093 A 
ATOM      3  C   UNL     1      -3.596  -8.539  28.344  1.00  0.00     0.134 A 
ATOM      4  C   UNL     1      -4.052  -8.423  27.010  1.00  0.00     0.111 A 
ATOM      5  C   UNL     1      -3.104  -8.292  25.968  1.00  0.00     0.146 A 
ATOM      6  C   UNL     1      -1.738  -8.281  26.257  1.00  0.00     0.094 A 
ATOM      7  O   UNL     1      -3.500  -8.185  24.704  1.00  0.00    -0.452 OA
ATOM      8  C   UNL     1      -4.777  -8.184  24.337  1.00  0.00     0.180 A 
ATOM      9  C   UNL     1      -5.787  -8.258  25.319  1.00  0.00     0.214 A 
ATOM     10  C   UNL     1      -5.417  -8.413  26.659  1.00  0.00     0.239 A 
ATOM     11  O   UNL     1      -6.317  -8.523  27.535  1.00  0.00    -0.285 OA
ENDROOT
BRANCH   1  12
ATOM     12  O   UNL     1       0.105  -8.365  27.793  1.00  0.00    -0.462 OA
BRANCH  12  13
ATOM     13  C   UNL     1       0.863  -7.236  28.249  1.00  0.00     0.339 C 
ATOM     14  C   UNL     1       2.625  -6.501  25.099  1.00  0.00     0.042 C 
ATOM     15  C   UNL     1       2.257  -7.286  26.359  1.00  0.00     0.151 C 
ATOM     16  C   UNL     1       3.515  -7.670  27.170  1.00  0.00     0.174 C 
ATOM     17  O   UNL     1       1.370  -6.503  27.142  1.00  0.00    -0.335 OA
ATOM     18  C   UNL     1       3.085  -8.442  28.426  1.00  0.00     0.180 C 
ATOM     19  C   UNL     1       2.001  -7.665  29.203  1.00  0.00     0.214 C 
BRANCH  16  20
ATOM     20  O   UNL     1       4.234  -6.519  27.544  1.00  0.00    -0.388 OA
ATOM     21  H   UNL     1       3.568  -5.837  27.825  1.00  0.00     0.211 HD
ENDBRANCH  16  20
BRANCH  18  22
ATOM     22  O   UNL     1       4.204  -8.686  29.239  1.00  0.00    -0.387 OA
ATOM     23  H   UNL     1       4.246  -9.668  29.379  1.00  0.00     0.211 HD
ENDBRANCH  18  22
BRANCH  19  24
ATOM     24  O   UNL     1       2.549  -6.517  29.803  1.00  0.00    -0.384 OA
ATOM     25  H   UNL     1       2.083  -5.734  29.409  1.00  0.00     0.211 HD
ENDBRANCH  19  24
ENDBRANCH  12  13
ENDBRANCH   1  12
BRANCH   3  26
ATOM     26  O   UNL     1      -4.500  -8.666  29.401  1.00  0.00    -0.507 OA
ATOM     27  H   UNL     1      -5.347  -9.213  29.315  1.00  0.00     0.293 HD
ENDBRANCH   3  26
BRANCH   8  28
ATOM     28  C   UNL     1      -5.086  -8.121  22.894  1.00  0.00     0.021 A 
ATOM     29  C   UNL     1      -5.872  -9.125  22.305  1.00  0.00     0.016 A 
ATOM     30  C   UNL     1      -4.642  -7.046  22.103  1.00  0.00     0.016 A 
ATOM     31  C   UNL     1      -6.174  -9.076  20.942  1.00  0.00     0.047 A 
ATOM     32  C   UNL     1      -4.942  -7.001  20.739  1.00  0.00     0.047 A 
ATOM     33  C   UNL     1      -5.707  -8.020  20.154  1.00  0.00     0.115 A 
BRANCH  33  34
ATOM     34  O   UNL     1      -6.010  -7.988  18.795  1.00  0.00    -0.508 OA
ATOM     35  H   UNL     1      -6.936  -8.223  18.452  1.00  0.00     0.293 HD
ENDBRANCH  33  34
ENDBRANCH   8  28
BRANCH   9  36
ATOM     36  O   UNL     1      -7.147  -8.168  24.993  1.00  0.00    -0.454 OA
BRANCH  36  37
ATOM     37  C   UNL     1      -7.961  -7.037  25.335  1.00  0.00     0.339 C 
ATOM     38  C   UNL     1      -9.437  -7.443  25.491  1.00  0.00     0.214 C 
ATOM     39  O   UNL     1      -7.818  -6.003  24.375  1.00  0.00    -0.335 OA
ATOM     40  C   UNL     1     -10.034  -7.860  24.131  1.00  0.00     0.180 C 
ATOM     41  C   UNL     1      -8.233  -6.424  23.085  1.00  0.00     0.151 C 
ATOM     42  C   UNL     1      -9.740  -6.774  23.082  1.00  0.00     0.174 C 
ATOM     43  C   UNL     1      -7.937  -5.293  22.099  1.00  0.00     0.042 C 
BRANCH  38  44
ATOM     44  O   UNL     1      -9.546  -8.485  26.427  1.00  0.00    -0.384 OA
ATOM     45  H   UNL     1     -10.132  -9.175  26.018  1.00  0.00     0.211 HD
ENDBRANCH  38  44
BRANCH  40  46
ATOM     46  O   UNL     1      -9.495  -9.089  23.707  1.00  0.00    -0.387 OA
ATOM     47  H   UNL     1     -10.241  -9.607  23.304  1.00  0.00     0.211 HD
ENDBRANCH  40  46
BRANCH  42  48
ATOM     48  O   UNL     1     -10.125  -7.221  21.808  1.00  0.00    -0.388 OA
ATOM     49  H   UNL     1      -9.870  -6.509  21.165  1.00  0.00     0.211 HD
ENDBRANCH  42  48
ENDBRANCH  36  37
ENDBRANCH   9  36
TORSDOF 13
ENDMDL
MODEL 4
REMARK VINA RESULT:    -4.583     11.974     17.050
REMARK INTER + INTRA:          -9.106
REMARK INTER:                  -7.411
REMARK INTRA:                  -1.695
REMARK UNBOUND:                -2.112
REMARK SMILES C[C@@H]1O[C@@H](Oc2cc(O)c3c(=O)c(O[C@H]4O[C@H](C)[C@@H](O)[C@@H](O)[C@H]4O)c(-c4ccc(O)cc4)oc3c2)[C@H](O)[C@H](O)[C@@H]1O
REMARK SMILES IDX 6 1 7 2 8 3 10 4 34 5 35 6 33 7 25 8 13 9 11 10 12 11 5 12
REMARK SMILES IDX 4 13 1 14 2 15 40 16 3 17 38 18 36 19 41 20 39 22 37 24 9 26
REMARK SMILES IDX 26 28 27 29 32 30 28 31 31 32 29 33 30 34 14 36 15 37 23 38
REMARK SMILES IDX 16 39 21 40 17 41 19 42 18 43 24 44 22 46 20 48
REMARK H PARENT 41 21 39 23 37 25 9 27 30 35 24 45 22 47 20 49
REMARK Flexibility Score: inf
ROOT
ATOM      1  C   UNL     1      -4.654   1.415  17.913  1.00  0.00     0.130 A 
ATOM      2  C   UNL     1      -3.285   1.723  17.796  1.00  0.00     0.093 A 
ATOM      3  C   UNL     1      -2.866   2.892  17.146  1.00  0.00     0.134 A 
ATOM      4  C   UNL     1      -3.825   3.775  16.598  1.00  0.00     0.111 A 
ATOM      5  C   UNL     1      -5.198   3.458  16.716  1.00  0.00     0.146 A 
ATOM      6  C   UNL     1      -5.597   2.290  17.370  1.00  0.00     0.094 A 
ATOM      7  O   UNL     1      -6.125   4.268  16.216  1.00  0.00    -0.452 OA
ATOM      8  C   UNL     1      -5.838   5.399  15.578  1.00  0.00     0.180 A 
ATOM      9  C   UNL     1      -4.491   5.762  15.369  1.00  0.00     0.214 A 
ATOM     10  C   UNL     1      -3.484   4.959  15.915  1.00  0.00     0.239 A 
ATOM     11  O   UNL     1      -2.279   5.304  15.768  1.00  0.00    -0.285 OA
ENDROOT
BRANCH   1  12
ATOM     12  O   UNL     1      -5.124   0.252  18.546  1.00  0.00    -0.462 OA
BRANCH  12  13
ATOM     13  C   UNL     1      -6.492  -0.165  18.637  1.00  0.00     0.339 C 
ATOM     14  C   UNL     1      -5.943  -3.322  20.456  1.00  0.00     0.042 C 
ATOM     15  C   UNL     1      -5.888  -2.342  19.282  1.00  0.00     0.151 C 
ATOM     16  C   UNL     1      -6.427  -2.987  17.985  1.00  0.00     0.174 C 
ATOM     17  O   UNL     1      -6.634  -1.183  19.619  1.00  0.00    -0.335 OA
ATOM     18  C   UNL     1      -6.360  -1.956  16.848  1.00  0.00     0.180 C 
ATOM     19  C   UNL     1      -7.036  -0.633  17.267  1.00  0.00     0.214 C 
BRANCH  16  20
ATOM     20  O   UNL     1      -7.757  -3.413  18.160  1.00  0.00    -0.388 OA
ATOM     21  H   UNL     1      -8.299  -2.980  17.449  1.00  0.00     0.211 HD
ENDBRANCH  16  20
BRANCH  18  22
ATOM     22  O   UNL     1      -6.965  -2.482  15.695  1.00  0.00    -0.387 OA
ATOM     23  H   UNL     1      -6.451  -3.295  15.449  1.00  0.00     0.211 HD
ENDBRANCH  18  22
BRANCH  19  24
ATOM     24  O   UNL     1      -8.428  -0.795  17.361  1.00  0.00    -0.384 OA
ATOM     25  H   UNL     1      -8.609  -1.771  17.339  1.00  0.00     0.211 HD
ENDBRANCH  19  24
ENDBRANCH  12  13
ENDBRANCH   1  12
BRANCH   3  26
ATOM     26  O   UNL     1      -1.501   3.167  17.046  1.00  0.00    -0.507 OA
ATOM     27  H   UNL     1      -1.108   4.044  17.364  1.00  0.00     0.293 HD
ENDBRANCH   3  26
BRANCH   8  28
ATOM     28  C   UNL     1      -6.961   6.244  15.122  1.00  0.00     0.021 A 
ATOM     29  C   UNL     1      -7.092   7.552  15.615  1.00  0.00     0.016 A 
ATOM     30  C   UNL     1      -7.879   5.776  14.165  1.00  0.00     0.016 A 
ATOM     31  C   UNL     1      -8.148   8.363  15.190  1.00  0.00     0.047 A 
ATOM     32  C   UNL     1      -8.935   6.588  13.744  1.00  0.00     0.047 A 
ATOM     33  C   UNL     1      -9.074   7.885  14.259  1.00  0.00     0.115 A 
BRANCH  33  34
ATOM     34  O   UNL     1     -10.125   8.702  13.850  1.00  0.00    -0.508 OA
ATOM     35  H   UNL     1     -10.348   8.827  12.869  1.00  0.00     0.293 HD
ENDBRANCH  33  34
ENDBRANCH   8  28
BRANCH   9  36
ATOM     36  O   UNL     1      -4.134   6.893  14.623  1.00  0.00    -0.454 OA
BRANCH  36  37
ATOM     37  C   UNL     1      -3.620   6.819  13.286  1.00  0.00     0.339 C 
ATOM     38  C   UNL     1      -2.601   7.941  13.022  1.00  0.00     0.214 C 
ATOM     39  O   UNL     1      -4.673   6.855  12.338  1.00  0.00    -0.335 OA
ATOM     40  C   UNL     1      -3.296   9.318  13.015  1.00  0.00     0.180 C 
ATOM     41  C   UNL     1      -5.411   8.064  12.420  1.00  0.00     0.151 C 
ATOM     42  C   UNL     1      -4.515   9.278  12.077  1.00  0.00     0.174 C 
ATOM     43  C   UNL     1      -6.588   7.968  11.448  1.00  0.00     0.042 C 
BRANCH  38  44
ATOM     44  O   UNL     1      -1.584   7.898  13.990  1.00  0.00    -0.384 OA
ATOM     45  H   UNL     1      -1.911   7.309  14.720  1.00  0.00     0.211 HD
ENDBRANCH  38  44
BRANCH  40  46
ATOM     46  O   UNL     1      -3.706   9.674  14.312  1.00  0.00    -0.387 OA
ATOM     47  H   UNL     1      -3.085  10.382  14.628  1.00  0.00     0.211 HD
ENDBRANCH  40  46
BRANCH  42  48
ATOM     48  O   UNL     1      -5.252  10.467  12.197  1.00  0.00    -0.388 OA
ATOM     49  H   UNL     1      -6.090  10.337  11.682  1.00  0.00     0.211 HD
ENDBRANCH  42  48
ENDBRANCH  36  37
ENDBRANCH   9  36
TORSDOF 13
ENDMDL
MODEL 5
REMARK VINA RESULT:    -3.624      2.778      4.762
REMARK INTER + INTRA:          -7.642
REMARK INTER:                  -8.200
REMARK INTRA:                   0.558
REMARK UNBOUND:                -2.112
REMARK SMILES C[C@@H]1O[C@@H](Oc2cc(O)c3c(=O)c(O[C@H]4O[C@H](C)[C@@H](O)[C@@H](O)[C@H]4O)c(-c4ccc(O)cc4)oc3c2)[C@H](O)[C@H](O)[C@@H]1O
REMARK SMILES IDX 6 1 7 2 8 3 10 4 34 5 35 6 33 7 25 8 13 9 11 10 12 11 5 12
REMARK SMILES IDX 4 13 1 14 2 15 40 16 3 17 38 18 36 19 41 20 39 22 37 24 9 26
REMARK SMILES IDX 26 28 27 29 32 30 28 31 31 32 29 33 30 34 14 36 15 37 23 38
REMARK SMILES IDX 16 39 21 40 17 41 19 42 18 43 24 44 22 46 20 48
REMARK H PARENT 41 21 39 23 37 25 9 27 30 35 24 45 22 47 20 49
REMARK Flexibility Score: inf
ROOT
ATOM      1  C   UNL     1      -2.640  -5.954  26.554  1.00  0.00     0.130 A 
ATOM      2  C   UNL     1      -2.364  -7.280  26.169  1.00  0.00     0.093 A 
ATOM      3  C   UNL     1      -2.877  -7.801  24.973  1.00  0.00     0.134 A 
ATOM      4  C   UNL     1      -3.683  -6.990  24.140  1.00  0.00     0.111 A 
ATOM      5  C   UNL     1      -3.958  -5.660  24.534  1.00  0.00     0.146 A 
ATOM      6  C   UNL     1      -3.436  -5.157  25.728  1.00  0.00     0.094 A 
ATOM      7  O   UNL     1      -4.709  -4.871  23.773  1.00  0.00    -0.452 OA
ATOM      8  C   UNL     1      -5.248  -5.265  22.623  1.00  0.00     0.180 A 
ATOM      9  C   UNL     1      -5.066  -6.593  22.184  1.00  0.00     0.214 A 
ATOM     10  C   UNL     1      -4.250  -7.446  22.933  1.00  0.00     0.239 A 
ATOM     11  O   UNL     1      -4.050  -8.621  22.521  1.00  0.00    -0.285 OA
ENDROOT
BRANCH   1  12
ATOM     12  O   UNL     1      -2.157  -5.389  27.746  1.00  0.00    -0.462 OA
BRANCH  12  13
ATOM     13  C   UNL     1      -1.956  -6.079  28.987  1.00  0.00     0.339 C 
ATOM     14  C   UNL     1       1.353  -4.687  29.814  1.00  0.00     0.042 C 
ATOM     15  C   UNL     1       0.324  -5.516  29.043  1.00  0.00     0.151 C 
ATOM     16  C   UNL     1       0.794  -6.978  28.871  1.00  0.00     0.174 C 
ATOM     17  O   UNL     1      -0.915  -5.461  29.732  1.00  0.00    -0.335 OA
ATOM     18  C   UNL     1      -0.280  -7.763  28.104  1.00  0.00     0.180 C 
ATOM     19  C   UNL     1      -1.666  -7.580  28.761  1.00  0.00     0.214 C 
BRANCH  16  20
ATOM     20  O   UNL     1       1.015  -7.578  30.125  1.00  0.00    -0.388 OA
ATOM     21  H   UNL     1       0.662  -6.955  30.814  1.00  0.00     0.211 HD
ENDBRANCH  16  20
BRANCH  18  22
ATOM     22  O   UNL     1       0.072  -9.122  28.052  1.00  0.00    -0.387 OA
ATOM     23  H   UNL     1      -0.278  -9.539  28.882  1.00  0.00     0.211 HD
ENDBRANCH  18  22
BRANCH  19  24
ATOM     24  O   UNL     1      -1.720  -8.245  29.998  1.00  0.00    -0.384 OA
ATOM     25  H   UNL     1      -2.671  -8.478  30.161  1.00  0.00     0.211 HD
ENDBRANCH  19  24
ENDBRANCH  12  13
ENDBRANCH   1  12
BRANCH   3  26
ATOM     26  O   UNL     1      -2.586  -9.121  24.621  1.00  0.00    -0.507 OA
ATOM     27  H   UNL     1      -1.697  -9.380  24.213  1.00  0.00     0.293 HD
ENDBRANCH   3  26
BRANCH   8  28
ATOM     28  C   UNL     1      -6.011  -4.273  21.838  1.00  0.00     0.021 A 
ATOM     29  C   UNL     1      -5.479  -3.777  20.637  1.00  0.00     0.016 A 
ATOM     30  C   UNL     1      -7.288  -3.849  22.250  1.00  0.00     0.016 A 
ATOM     31  C   UNL     1      -6.192  -2.841  19.883  1.00  0.00     0.047 A 
ATOM     32  C   UNL     1      -7.997  -2.911  21.496  1.00  0.00     0.047 A 
ATOM     33  C   UNL     1      -7.449  -2.401  20.310  1.00  0.00     0.115 A 
BRANCH  33  34
ATOM     34  O   UNL     1      -8.145  -1.463  19.552  1.00  0.00    -0.508 OA
ATOM     35  H   UNL     1      -8.161  -1.507  18.539  1.00  0.00     0.293 HD
ENDBRANCH  33  34
ENDBRANCH   8  28
BRANCH   9  36
ATOM     36  O   UNL     1      -5.689  -7.084  21.028  1.00  0.00    -0.454 OA
BRANCH  36  37
ATOM     37  C   UNL     1      -6.577  -8.210  21.037  1.00  0.00     0.339 C 
ATOM     38  C   UNL     1      -7.087  -8.522  19.619  1.00  0.00     0.214 C 
ATOM     39  O   UNL     1      -7.658  -7.994  21.928  1.00  0.00    -0.335 OA
ATOM     40  C   UNL     1      -8.011  -7.397  19.111  1.00  0.00     0.180 C 
ATOM     41  C   UNL     1      -8.435  -6.869  21.548  1.00  0.00     0.151 C 
ATOM     42  C   UNL     1      -9.091  -7.098  20.166  1.00  0.00     0.174 C 
ATOM     43  C   UNL     1      -9.500  -6.644  22.623  1.00  0.00     0.042 C 
BRANCH  38  44
ATOM     44  O   UNL     1      -5.997  -8.706  18.751  1.00  0.00    -0.384 OA
ATOM     45  H   UNL     1      -5.979  -9.670  18.517  1.00  0.00     0.211 HD
ENDBRANCH  38  44
BRANCH  40  46
ATOM     46  O   UNL     1      -7.273  -6.230  18.842  1.00  0.00    -0.387 OA
ATOM     47  H   UNL     1      -7.584  -5.887  17.964  1.00  0.00     0.211 HD
ENDBRANCH  40  46
BRANCH  42  48
ATOM     48  O   UNL     1      -9.826  -5.962  19.791  1.00  0.00    -0.388 OA
ATOM     49  H   UNL     1     -10.007  -5.451  20.622  1.00  0.00     0.211 HD
ENDBRANCH  42  48
ENDBRANCH  36  37
ENDBRANCH   9  36
TORSDOF 13
ENDMDL
