MODEL 1
REMARK VINA RESULT:     6.021      0.000      0.000
REMARK INTER + INTRA:           6.197
REMARK INTER:                   6.197
REMARK INTRA:                   0.000
REMARK UNBOUND:                 0.000
REMARK SMILES Nc1ncnc2nc[nH]c12
REMARK SMILES IDX 8 1 7 2 6 3 5 4 4 5 3 6 2 7 10 8 9 9 1 11
REMARK H PARENT 9 10 1 12 1 13
REMARK Flexibility Score: inf
ROOT
ATOM      1  C   UNL     1      24.918  -1.928  14.390  1.00  0.00     0.199 A 
ATOM      2  N   UNL     1      23.671  -2.421  14.627  1.00  0.00    -0.217 NA
ATOM      3  C   UNL     1      22.993  -1.320  14.989  1.00  0.00     0.182 A 
ATOM      4  N   UNL     1      21.685  -1.254  15.337  1.00  0.00    -0.215 NA
ATOM      5  C   UNL     1      21.169  -0.034  15.678  1.00  0.00     0.226 A 
ATOM      6  N   UNL     1      21.962   1.086  15.666  1.00  0.00    -0.217 NA
ATOM      7  C   UNL     1      23.281   1.021  15.316  1.00  0.00     0.152 A 
ATOM      8  C   UNL     1      23.791  -0.228  14.971  1.00  0.00     0.127 A 
ATOM      9  N   UNL     1      25.023  -0.590  14.592  1.00  0.00    -0.340 N 
ATOM     10  H   UNL     1      25.872   0.005  14.476  1.00  0.00     0.168 HD
ENDROOT
BRANCH   7  11
ATOM     11  N   UNL     1      24.086   2.200  15.310  1.00  0.00    -0.382 N 
ATOM     12  H   UNL     1      25.015   2.197  14.834  1.00  0.00     0.158 HD
ATOM     13  H   UNL     1      23.768   3.078  15.777  1.00  0.00     0.158 HD
ENDBRANCH   7  11
TORSDOF 1
ENDMDL
MODEL 2
REMARK VINA RESULT:     6.319      0.664      2.851
REMARK INTER + INTRA:           6.503
REMARK INTER:                   6.503
REMARK INTRA:                   0.000
REMARK UNBOUND:                 0.000
REMARK SMILES Nc1ncnc2nc[nH]c12
REMARK SMILES IDX 8 1 7 2 6 3 5 4 4 5 3 6 2 7 10 8 9 9 1 11
REMARK H PARENT 9 10 1 12 1 13
REMARK Flexibility Score: inf
ROOT
ATOM      1  C   UNL     1      20.670   0.189  15.712  1.00  0.00     0.199 A 
ATOM      2  N   UNL     1      21.074  -1.096  15.514  1.00  0.00    -0.217 NA
ATOM      3  C   UNL     1      22.386  -0.949  15.269  1.00  0.00     0.182 A 
ATOM      4  N   UNL     1      23.275  -1.937  15.003  1.00  0.00    -0.215 NA
ATOM      5  C   UNL     1      24.578  -1.589  14.779  1.00  0.00     0.226 A 
ATOM      6  N   UNL     1      24.966  -0.273  14.825  1.00  0.00    -0.217 NA
ATOM      7  C   UNL     1      24.071   0.724  15.093  1.00  0.00     0.152 A 
ATOM      8  C   UNL     1      22.748   0.354  15.319  1.00  0.00     0.127 A 
ATOM      9  N   UNL     1      21.672   1.098  15.600  1.00  0.00    -0.340 N 
ATOM     10  H   UNL     1      21.605   2.134  15.708  1.00  0.00     0.168 HD
ENDROOT
BRANCH   7  11
ATOM     11  N   UNL     1      24.498   2.086  15.135  1.00  0.00    -0.382 N 
ATOM     12  H   UNL     1      23.793   2.855  15.122  1.00  0.00     0.158 HD
ATOM     13  H   UNL     1      25.510   2.337  15.178  1.00  0.00     0.158 HD
ENDBRANCH   7  11
TORSDOF 1
ENDMDL
MODEL 3
REMARK VINA RESULT:     6.756      1.182      2.475
REMARK INTER + INTRA:           6.953
REMARK INTER:                   6.953
REMARK INTRA:                   0.000
REMARK UNBOUND:                 0.000
REMARK SMILES Nc1ncnc2nc[nH]c12
REMARK SMILES IDX 8 1 7 2 6 3 5 4 4 5 3 6 2 7 10 8 9 9 1 11
REMARK H PARENT 9 10 1 12 1 13
REMARK Flexibility Score: inf
ROOT
ATOM      1  C   UNL     1      23.242  -2.691  13.633  1.00  0.00     0.199 A 
ATOM      2  N   UNL     1      24.370  -1.959  13.847  1.00  0.00    -0.217 NA
ATOM      3  C   UNL     1      23.900  -0.903  14.531  1.00  0.00     0.182 A 
ATOM      4  N   UNL     1      24.622   0.145  14.997  1.00  0.00    -0.215 NA
ATOM      5  C   UNL     1      23.962   1.132  15.675  1.00  0.00     0.226 A 
ATOM      6  N   UNL     1      22.606   1.054  15.874  1.00  0.00    -0.217 NA
ATOM      7  C   UNL     1      21.877  -0.002  15.404  1.00  0.00     0.152 A 
ATOM      8  C   UNL     1      22.563  -0.998  14.716  1.00  0.00     0.127 A 
ATOM      9  N   UNL     1      22.121  -2.129  14.153  1.00  0.00    -0.340 N 
ATOM     10  H   UNL     1      21.147  -2.503  14.115  1.00  0.00     0.168 HD
ENDROOT
BRANCH   7  11
ATOM     11  N   UNL     1      20.467  -0.060  15.623  1.00  0.00    -0.382 N 
ATOM     12  H   UNL     1      19.890  -0.774  15.125  1.00  0.00     0.158 HD
ATOM     13  H   UNL     1      19.990   0.600  16.276  1.00  0.00     0.158 HD
ENDBRANCH   7  11
TORSDOF 1
ENDMDL
MODEL 4
REMARK VINA RESULT:     6.824      1.202      3.781
REMARK INTER + INTRA:           7.023
REMARK INTER:                   7.023
REMARK INTRA:                   0.000
REMARK UNBOUND:                 0.000
REMARK SMILES Nc1ncnc2nc[nH]c12
REMARK SMILES IDX 8 1 7 2 6 3 5 4 4 5 3 6 2 7 10 8 9 9 1 11
REMARK H PARENT 9 10 1 12 1 13
REMARK Flexibility Score: inf
ROOT
ATOM      1  C   UNL     1      21.923   0.974  15.780  1.00  0.00     0.199 A 
ATOM      2  N   UNL     1      23.272   0.950  15.962  1.00  0.00    -0.217 NA
ATOM      3  C   UNL     1      23.636  -0.132  15.254  1.00  0.00     0.182 A 
ATOM      4  N   UNL     1      24.894  -0.613  15.100  1.00  0.00    -0.215 NA
ATOM      5  C   UNL     1      25.067  -1.734  14.337  1.00  0.00     0.226 A 
ATOM      6  N   UNL     1      23.991  -2.348  13.746  1.00  0.00    -0.217 NA
ATOM      7  C   UNL     1      22.723  -1.864  13.900  1.00  0.00     0.152 A 
ATOM      8  C   UNL     1      22.563  -0.722  14.680  1.00  0.00     0.127 A 
ATOM      9  N   UNL     1      21.459  -0.035  15.000  1.00  0.00    -0.340 N 
ATOM     10  H   UNL     1      20.471  -0.221  14.724  1.00  0.00     0.168 HD
ENDROOT
BRANCH   7  11
ATOM     11  N   UNL     1      21.618  -2.520  13.275  1.00  0.00    -0.382 N 
ATOM     12  H   UNL     1      21.277  -3.435  13.644  1.00  0.00     0.158 HD
ATOM     13  H   UNL     1      21.137  -2.105  12.447  1.00  0.00     0.158 HD
ENDBRANCH   7  11
TORSDOF 1
ENDMDL
MODEL 5
REMARK VINA RESULT:     7.107      1.450      2.578
REMARK INTER + INTRA:           7.315
REMARK INTER:                   7.315
REMARK INTRA:                   0.000
REMARK UNBOUND:                 0.000
REMARK SMILES Nc1ncnc2nc[nH]c12
REMARK SMILES IDX 8 1 7 2 6 3 5 4 4 5 3 6 2 7 10 8 9 9 1 11
REMARK H PARENT 9 10 1 12 1 13
REMARK Flexibility Score: inf
ROOT
ATOM      1  C   UNL     1      24.897  -0.501  14.488  1.00  0.00     0.199 A 
ATOM      2  N   UNL     1      23.935   0.426  14.226  1.00  0.00    -0.217 NA
ATOM      3  C   UNL     1      22.935   0.035  15.033  1.00  0.00     0.182 A 
ATOM      4  N   UNL     1      21.723   0.627  15.163  1.00  0.00    -0.215 NA
ATOM      5  C   UNL     1      20.829   0.080  16.041  1.00  0.00     0.226 A 
ATOM      6  N   UNL     1      21.160  -1.037  16.766  1.00  0.00    -0.217 NA
ATOM      7  C   UNL     1      22.382  -1.634  16.637  1.00  0.00     0.152 A 
ATOM      8  C   UNL     1      23.281  -1.066  15.739  1.00  0.00     0.127 A 
ATOM      9  N   UNL     1      24.526  -1.427  15.409  1.00  0.00    -0.340 N 
ATOM     10  H   UNL     1      25.091  -2.228  15.767  1.00  0.00     0.168 HD
ENDROOT
BRANCH   7  11
ATOM     11  N   UNL     1      22.703  -2.797  17.403  1.00  0.00    -0.382 N 
ATOM     12  H   UNL     1      21.942  -3.355  17.848  1.00  0.00     0.158 HD
ATOM     13  H   UNL     1      23.691  -3.107  17.531  1.00  0.00     0.158 HD
ENDBRANCH   7  11
TORSDOF 1
ENDMDL
MODEL 6
REMARK VINA RESULT:     7.444      1.334      3.054
REMARK INTER + INTRA:           7.662
REMARK INTER:                   7.662
REMARK INTRA:                   0.000
REMARK UNBOUND:                 0.000
REMARK SMILES Nc1ncnc2nc[nH]c12
REMARK SMILES IDX 8 1 7 2 6 3 5 4 4 5 3 6 2 7 10 8 9 9 1 11
REMARK H PARENT 9 10 1 12 1 13
REMARK Flexibility Score: inf
ROOT
ATOM      1  C   UNL     1      21.516  -1.967  16.985  1.00  0.00     0.199 A 
ATOM      2  N   UNL     1      21.135  -0.694  16.689  1.00  0.00    -0.217 NA
ATOM      3  C   UNL     1      22.150  -0.262  15.923  1.00  0.00     0.182 A 
ATOM      4  N   UNL     1      22.271   0.962  15.355  1.00  0.00    -0.215 NA
ATOM      5  C   UNL     1      23.384   1.218  14.603  1.00  0.00     0.226 A 
ATOM      6  N   UNL     1      24.346   0.254  14.434  1.00  0.00    -0.217 NA
ATOM      7  C   UNL     1      24.226  -0.981  15.006  1.00  0.00     0.152 A 
ATOM      8  C   UNL     1      23.087  -1.226  15.768  1.00  0.00     0.127 A 
ATOM      9  N   UNL     1      22.705  -2.321  16.435  1.00  0.00    -0.340 N 
ATOM     10  H   UNL     1      23.197  -3.238  16.522  1.00  0.00     0.168 HD
ENDROOT
BRANCH   7  11
ATOM     11  N   UNL     1      25.241  -1.968  14.815  1.00  0.00    -0.382 N 
ATOM     12  H   UNL     1      24.976  -2.959  14.626  1.00  0.00     0.158 HD
ATOM     13  H   UNL     1      26.254  -1.721  14.861  1.00  0.00     0.158 HD
ENDBRANCH   7  11
TORSDOF 1
ENDMDL
MODEL 7
REMARK VINA RESULT:     7.609      1.153      3.042
REMARK INTER + INTRA:           7.831
REMARK INTER:                   7.831
REMARK INTRA:                   0.000
REMARK UNBOUND:                 0.000
REMARK SMILES Nc1ncnc2nc[nH]c12
REMARK SMILES IDX 8 1 7 2 6 3 5 4 4 5 3 6 2 7 10 8 9 9 1 11
REMARK H PARENT 9 10 1 12 1 13
REMARK Flexibility Score: inf
ROOT
ATOM      1  C   UNL     1      23.580   1.511  15.741  1.00  0.00     0.199 A 
ATOM      2  N   UNL     1      22.327   1.181  15.323  1.00  0.00    -0.217 NA
ATOM      3  C   UNL     1      22.509  -0.050  14.819  1.00  0.00     0.182 A 
ATOM      4  N   UNL     1      21.563  -0.845  14.263  1.00  0.00    -0.215 NA
ATOM      5  C   UNL     1      21.943  -2.075  13.802  1.00  0.00     0.226 A 
ATOM      6  N   UNL     1      23.248  -2.485  13.905  1.00  0.00    -0.217 NA
ATOM      7  C   UNL     1      24.204  -1.685  14.466  1.00  0.00     0.152 A 
ATOM      8  C   UNL     1      23.801  -0.436  14.930  1.00  0.00     0.127 A 
ATOM      9  N   UNL     1      24.503   0.542  15.515  1.00  0.00    -0.340 N 
ATOM     10  H   UNL     1      25.520   0.568  15.747  1.00  0.00     0.168 HD
ENDROOT
BRANCH   7  11
ATOM     11  N   UNL     1      25.556  -2.134  14.562  1.00  0.00    -0.382 N 
ATOM     12  H   UNL     1      26.223  -1.956  13.779  1.00  0.00     0.158 HD
ATOM     13  H   UNL     1      25.902  -2.643  15.405  1.00  0.00     0.158 HD
ENDBRANCH   7  11
TORSDOF 1
ENDMDL
MODEL 8
REMARK VINA RESULT:     8.047      1.289      1.650
REMARK INTER + INTRA:           8.282
REMARK INTER:                   8.282
REMARK INTRA:                   0.000
REMARK UNBOUND:                 0.000
REMARK SMILES Nc1ncnc2nc[nH]c12
REMARK SMILES IDX 8 1 7 2 6 3 5 4 4 5 3 6 2 7 10 8 9 9 1 11
REMARK H PARENT 9 10 1 12 1 13
REMARK Flexibility Score: inf
ROOT
ATOM      1  C   UNL     1      25.121  -0.332  14.478  1.00  0.00     0.199 A 
ATOM      2  N   UNL     1      24.792  -1.495  15.104  1.00  0.00    -0.217 NA
ATOM      3  C   UNL     1      23.554  -1.237  15.556  1.00  0.00     0.182 A 
ATOM      4  N   UNL     1      22.759  -2.078  16.260  1.00  0.00    -0.215 NA
ATOM      5  C   UNL     1      21.521  -1.633  16.635  1.00  0.00     0.226 A 
ATOM      6  N   UNL     1      21.105  -0.368  16.302  1.00  0.00    -0.217 NA
ATOM      7  C   UNL     1      21.907   0.481  15.592  1.00  0.00     0.152 A 
ATOM      8  C   UNL     1      23.163   0.013  15.218  1.00  0.00     0.127 A 
ATOM      9  N   UNL     1      24.144   0.610  14.530  1.00  0.00    -0.340 N 
ATOM     10  H   UNL     1      24.167   1.572  14.125  1.00  0.00     0.168 HD
ENDROOT
BRANCH   7  11
ATOM     11  N   UNL     1      21.452   1.793  15.258  1.00  0.00    -0.382 N 
ATOM     12  H   UNL     1      21.114   1.999  14.292  1.00  0.00     0.158 HD
ATOM     13  H   UNL     1      21.448   2.563  15.963  1.00  0.00     0.158 HD
ENDBRANCH   7  11
TORSDOF 1
ENDMDL
MODEL 9
REMARK VINA RESULT:     8.319      1.486      2.750
REMARK INTER + INTRA:           8.562
REMARK INTER:                   8.562
REMARK INTRA:                   0.000
REMARK UNBOUND:                 0.000
REMARK SMILES Nc1ncnc2nc[nH]c12
REMARK SMILES IDX 8 1 7 2 6 3 5 4 4 5 3 6 2 7 10 8 9 9 1 11
REMARK H PARENT 9 10 1 12 1 13
REMARK Flexibility Score: inf
ROOT
ATOM      1  C   UNL     1      21.890  -2.181  17.120  1.00  0.00     0.199 A 
ATOM      2  N   UNL     1      23.066  -2.607  16.583  1.00  0.00    -0.217 NA
ATOM      3  C   UNL     1      23.422  -1.567  15.812  1.00  0.00     0.182 A 
ATOM      4  N   UNL     1      24.535  -1.473  15.045  1.00  0.00    -0.215 NA
ATOM      5  C   UNL     1      24.728  -0.326  14.325  1.00  0.00     0.226 A 
ATOM      6  N   UNL     1      23.813   0.695  14.384  1.00  0.00    -0.217 NA
ATOM      7  C   UNL     1      22.690   0.602  15.157  1.00  0.00     0.152 A 
ATOM      8  C   UNL     1      22.509  -0.572  15.884  1.00  0.00     0.127 A 
ATOM      9  N   UNL     1      21.523  -0.939  16.712  1.00  0.00    -0.340 N 
ATOM     10  H   UNL     1      20.669  -0.407  16.986  1.00  0.00     0.168 HD
ENDROOT
BRANCH   7  11
ATOM     11  N   UNL     1      21.753   1.678  15.203  1.00  0.00    -0.382 N 
ATOM     12  H   UNL     1      22.001   2.566  15.692  1.00  0.00     0.158 HD
ATOM     13  H   UNL     1      20.813   1.600  14.755  1.00  0.00     0.158 HD
ENDBRANCH   7  11
TORSDOF 1
ENDMDL
