MODEL 1
REMARK VINA RESULT:    68.075      0.000      0.000
REMARK INTER + INTRA:         150.575
REMARK INTER:                 143.689
REMARK INTRA:                   6.887
REMARK UNBOUND:                 6.887
REMARK SMILES CCC(=O)CCCCC[C@@H]1NC(=O)[C@@H]2CCCCN2C(=O)[C@H]([C@H](C)CC)NC(=O)[C@@H](Cc2cn(OC)c3ccccc23)NC1=O
REMARK SMILES IDX 9 1 10 2 44 3 43 4 45 6 30 7 28 8 27 9 29 11 22 12 23 14
REMARK SMILES IDX 24 15 25 16 26 17 31 18 32 19 33 20 42 21 34 22 37 23 41 24
REMARK SMILES IDX 38 25 40 26 39 27 35 28 36 29 11 30 12 31 13 33 14 34 19 35
REMARK SMILES IDX 15 36 18 37 16 38 17 39 20 40 21 41 8 43 7 44 6 45 5 46 3 47
REMARK SMILES IDX 4 48 2 49 1 50
REMARK H PARENT 43 5 27 10 11 32
REMARK Flexibility Score: 80.00
ROOT
ATOM      1  C   UNL     1      15.156  10.445  16.598  1.00  0.00     0.035 C 
ENDROOT
BRANCH   1   2
ATOM      2  C   UNL     1      14.277  11.579  17.171  1.00  0.00     0.171 C 
BRANCH   2   3
ATOM      3  C   UNL     1      14.721  12.958  16.750  1.00  0.00     0.243 C 
ATOM      4  N   UNL     1      14.502  14.072  17.631  1.00  0.00    -0.342 N 
ATOM      5  H   UNL     1      14.143  13.870  18.593  1.00  0.00     0.164 HD
ATOM      6  O   UNL     1      15.217  13.150  15.605  1.00  0.00    -0.273 OA
BRANCH   4   7
ATOM      7  C   UNL     1      14.419  15.448  17.137  1.00  0.00     0.175 C 
BRANCH   7   8
ATOM      8  C   UNL     1      13.112  15.626  16.411  1.00  0.00     0.243 C 
ATOM      9  N   UNL     1      12.270  14.483  16.209  1.00  0.00    -0.342 N 
ATOM     10  H   UNL     1      12.668  13.537  16.398  1.00  0.00     0.164 HD
ATOM     11  O   UNL     1      12.751  16.760  15.994  1.00  0.00    -0.273 OA
BRANCH   9  12
ATOM     12  C   UNL     1      10.891  14.586  15.724  1.00  0.00     0.174 CG0
ATOM     13  G   UNL     1       9.959  13.952  16.731  1.00  0.00     0.000 G0
BRANCH  12  14
ATOM     14  C   UNL     1      10.763  13.996  14.290  1.00  0.00     0.018 C 
ATOM     15  C   UNL     1       9.722  14.778  13.469  1.00  0.00     0.010 C 
BRANCH  14  16
ATOM     16  C   UNL     1      10.477  12.469  14.276  1.00  0.00     0.002 C 
ATOM     17  C   UNL     1       9.542  12.045  13.143  1.00  0.00     0.004 C 
ENDBRANCH  14  16
ENDBRANCH  12  14
ENDBRANCH   9  12
ENDBRANCH   7   8
BRANCH   7  18
ATOM     18  C   UNL     1      14.584  16.444  18.300  1.00  0.00     0.073 C 
BRANCH  18  19
ATOM     19  C   UNL     1      14.987  17.797  17.795  1.00  0.00    -0.016 A 
ATOM     20  C   UNL     1      14.744  18.297  16.519  1.00  0.00     0.134 A 
ATOM     21  C   UNL     1      15.696  18.783  18.464  1.00  0.00     0.006 A 
ATOM     22  N   UNL     1      15.263  19.542  16.407  1.00  0.00    -0.191 N 
ATOM     23  C   UNL     1      15.838  19.832  17.589  1.00  0.00     0.087 A 
ATOM     24  C   UNL     1      16.218  18.834  19.759  1.00  0.00     0.011 A 
ATOM     25  C   UNL     1      16.509  21.000  17.945  1.00  0.00     0.030 A 
ATOM     26  C   UNL     1      16.885  20.007  20.150  1.00  0.00     0.001 A 
ATOM     27  C   UNL     1      17.032  21.084  19.245  1.00  0.00     0.002 A 
BRANCH  22  28
ATOM     28  O   UNL     1      15.253  20.369  15.296  1.00  0.00    -0.417 OA
ATOM     29  C   UNL     1      14.524  21.589  15.263  1.00  0.00     0.313 C 
ENDBRANCH  22  28
ENDBRANCH  18  19
ENDBRANCH   7  18
ENDBRANCH   4   7
ENDBRANCH   2   3
BRANCH   2  30
ATOM     30  N   UNL     1      12.867  11.387  16.801  1.00  0.00    -0.343 N 
ATOM     31  C   UNL     1      11.748  11.851  17.576  1.00  0.00     0.243 C 
ATOM     32  H   UNL     1      12.675  10.797  15.953  1.00  0.00     0.164 HD
ATOM     33  O   UNL     1      11.926  12.654  18.531  1.00  0.00    -0.273 OA
BRANCH  31  34
ATOM     34  C   UNL     1      10.341  11.461  17.179  1.00  0.00     0.174 C 
ATOM     35  N   UNL     1       9.523  12.581  16.660  1.00  0.00    -0.329 N 
ATOM     36  C   UNL     1      10.403  10.351  16.118  1.00  0.00     0.035 C 
ATOM     37  C   UNL     1       8.162  12.272  16.208  1.00  0.00     0.120 C 
ATOM     38  C   UNL     1       8.992   9.944  15.675  1.00  0.00     0.004 C 
ATOM     39  C   UNL     1       8.203  11.155  15.156  1.00  0.00     0.022 C 
BRANCH  35  40
ATOM     40  C   UNL     1       9.928  13.955  16.738  1.00  0.00     0.246 CG0
ATOM     41  O   UNL     1       9.397  14.704  17.604  1.00  0.00    -0.272 OA
ATOM     42  G   UNL     1      10.897  14.519  15.725  1.00  0.00     0.000 G0
ENDBRANCH  35  40
ENDBRANCH  31  34
ENDBRANCH   2  30
ENDBRANCH   1   2
BRANCH   1  43
ATOM     43  C   UNL     1      15.393  10.593  15.083  1.00  0.00     0.003 C 
BRANCH  43  44
ATOM     44  C   UNL     1      15.788   9.254  14.443  1.00  0.00     0.001 C 
BRANCH  44  45
ATOM     45  C   UNL     1      15.830   9.338  12.905  1.00  0.00     0.008 C 
BRANCH  45  46
ATOM     46  C   UNL     1      16.879  10.344  12.414  1.00  0.00     0.075 C 
BRANCH  46  47
ATOM     47  C   UNL     1      17.238  10.116  10.970  1.00  0.00     0.132 C 
ATOM     48  O   UNL     1      17.955   9.175  10.665  1.00  0.00    -0.300 OA
BRANCH  47  49
ATOM     49  C   UNL     1      16.725  11.035   9.896  1.00  0.00     0.072 C 
ATOM     50  C   UNL     1      16.954  12.491  10.289  1.00  0.00     0.012 C 
ENDBRANCH  47  49
ENDBRANCH  46  47
ENDBRANCH  45  46
ENDBRANCH  44  45
ENDBRANCH  43  44
ENDBRANCH   1  43
TORSDOF 12
ENDMDL
MODEL 2
REMARK VINA RESULT:    68.549      2.088      6.915
REMARK INTER + INTRA:         151.576
REMARK INTER:                 144.843
REMARK INTRA:                   6.733
REMARK UNBOUND:                 6.887
REMARK SMILES CCC(=O)CCCCC[C@@H]1NC(=O)[C@@H]2CCCCN2C(=O)[C@H]([C@H](C)CC)NC(=O)[C@@H](Cc2cn(OC)c3ccccc23)NC1=O
REMARK SMILES IDX 9 1 10 2 44 3 43 4 45 6 30 7 28 8 27 9 29 11 22 12 23 14
REMARK SMILES IDX 24 15 25 16 26 17 31 18 32 19 33 20 42 21 34 22 37 23 41 24
REMARK SMILES IDX 38 25 40 26 39 27 35 28 36 29 11 30 12 31 13 33 14 34 19 35
REMARK SMILES IDX 15 36 18 37 16 38 17 39 20 40 21 41 8 43 7 44 6 45 5 46 3 47
REMARK SMILES IDX 4 48 2 49 1 50
REMARK H PARENT 43 5 27 10 11 32
REMARK Flexibility Score: 80.00
ROOT
ATOM      1  C   UNL     1      15.998  10.589  15.334  1.00  0.00     0.035 C 
ENDROOT
BRANCH   1   2
ATOM      2  C   UNL     1      14.858  11.537  15.772  1.00  0.00     0.171 C 
BRANCH   2   3
ATOM      3  C   UNL     1      14.253  11.177  17.106  1.00  0.00     0.243 C 
ATOM      4  N   UNL     1      12.854  10.860  17.186  1.00  0.00    -0.342 N 
ATOM      5  H   UNL     1      12.320  10.776  16.289  1.00  0.00     0.164 HD
ATOM      6  O   UNL     1      14.949  11.220  18.159  1.00  0.00    -0.273 OA
BRANCH   4   7
ATOM      7  C   UNL     1      12.096  11.001  18.431  1.00  0.00     0.175 C 
BRANCH   7   8
ATOM      8  C   UNL     1      12.226  12.419  18.922  1.00  0.00     0.243 C 
ATOM      9  N   UNL     1      12.846  13.392  18.070  1.00  0.00    -0.342 N 
ATOM     10  H   UNL     1      13.357  13.055  17.226  1.00  0.00     0.164 HD
ATOM     11  O   UNL     1      11.790  12.755  20.055  1.00  0.00    -0.273 OA
BRANCH   9  12
ATOM     12  C   UNL     1      12.818  14.830  18.354  1.00  0.00     0.174 CG0
ATOM     13  G   UNL     1      13.366  15.583  17.163  1.00  0.00     0.000 G0
BRANCH  12  14
ATOM     14  C   UNL     1      13.551  15.146  19.690  1.00  0.00     0.018 C 
ATOM     15  C   UNL     1      12.692  14.722  20.896  1.00  0.00     0.010 C 
BRANCH  14  16
ATOM     16  C   UNL     1      14.012  16.624  19.804  1.00  0.00     0.002 C 
ATOM     17  C   UNL     1      13.614  17.275  21.130  1.00  0.00     0.004 C 
ENDBRANCH  14  16
ENDBRANCH  12  14
ENDBRANCH   9  12
ENDBRANCH   7   8
BRANCH   7  18
ATOM     18  C   UNL     1      10.628  10.589  18.212  1.00  0.00     0.073 C 
BRANCH  18  19
ATOM     19  C   UNL     1       9.892  11.628  17.418  1.00  0.00    -0.016 A 
ATOM     20  C   UNL     1       9.379  12.822  17.917  1.00  0.00     0.134 A 
ATOM     21  C   UNL     1       9.549  11.595  16.076  1.00  0.00     0.006 A 
ATOM     22  N   UNL     1       8.761  13.506  16.925  1.00  0.00    -0.191 N 
ATOM     23  C   UNL     1       8.868  12.758  15.811  1.00  0.00     0.087 A 
ATOM     24  C   UNL     1       9.784  10.641  15.082  1.00  0.00     0.011 A 
ATOM     25  C   UNL     1       8.376  13.048  14.541  1.00  0.00     0.030 A 
ATOM     26  C   UNL     1       9.312  10.916  13.786  1.00  0.00     0.001 A 
ATOM     27  C   UNL     1       8.610  12.114  13.519  1.00  0.00     0.002 A 
BRANCH  22  28
ATOM     28  O   UNL     1       8.107  14.723  17.013  1.00  0.00    -0.417 OA
ATOM     29  C   UNL     1       7.919  15.397  18.249  1.00  0.00     0.313 C 
ENDBRANCH  22  28
ENDBRANCH  18  19
ENDBRANCH   7  18
ENDBRANCH   4   7
ENDBRANCH   2   3
BRANCH   2  30
ATOM     30  N   UNL     1      15.322  12.931  15.808  1.00  0.00    -0.343 N 
ATOM     31  C   UNL     1      15.553  13.685  17.012  1.00  0.00     0.243 C 
ATOM     32  H   UNL     1      15.408  13.428  14.887  1.00  0.00     0.164 HD
ATOM     33  O   UNL     1      15.573  13.105  18.131  1.00  0.00    -0.273 OA
BRANCH  31  34
ATOM     34  C   UNL     1      15.879  15.160  16.929  1.00  0.00     0.174 C 
ATOM     35  N   UNL     1      14.712  16.052  17.124  1.00  0.00    -0.329 N 
ATOM     36  C   UNL     1      16.952  15.501  17.975  1.00  0.00     0.035 C 
ATOM     37  C   UNL     1      14.957  17.498  17.107  1.00  0.00     0.120 C 
ATOM     38  C   UNL     1      17.293  16.997  17.935  1.00  0.00     0.004 C 
ATOM     39  C   UNL     1      16.036  17.857  18.137  1.00  0.00     0.022 C 
BRANCH  35  40
ATOM     40  C   UNL     1      13.357  15.582  17.154  1.00  0.00     0.246 CG0
ATOM     41  O   UNL     1      12.590  15.857  16.192  1.00  0.00    -0.272 OA
ATOM     42  G   UNL     1      12.832  14.860  18.374  1.00  0.00     0.000 G0
ENDBRANCH  35  40
ENDBRANCH  31  34
ENDBRANCH   2  30
ENDBRANCH   1   2
BRANCH   1  43
ATOM     43  C   UNL     1      16.322  10.714  13.834  1.00  0.00     0.003 C 
BRANCH  43  44
ATOM     44  C   UNL     1      16.310   9.344  13.140  1.00  0.00     0.001 C 
BRANCH  44  45
ATOM     45  C   UNL     1      16.470   9.467  11.613  1.00  0.00     0.008 C 
BRANCH  45  46
ATOM     46  C   UNL     1      17.409  10.616  11.225  1.00  0.00     0.075 C 
BRANCH  46  47
ATOM     47  C   UNL     1      16.942  11.325   9.982  1.00  0.00     0.132 C 
ATOM     48  O   UNL     1      16.123  10.789   9.251  1.00  0.00    -0.300 OA
BRANCH  47  49
ATOM     49  C   UNL     1      17.472  12.687   9.628  1.00  0.00     0.072 C 
ATOM     50  C   UNL     1      16.383  13.741   9.798  1.00  0.00     0.012 C 
ENDBRANCH  47  49
ENDBRANCH  46  47
ENDBRANCH  45  46
ENDBRANCH  44  45
ENDBRANCH  43  44
ENDBRANCH   1  43
TORSDOF 12
ENDMDL
MODEL 3
REMARK VINA RESULT:    69.305      3.543      8.979
REMARK INTER + INTRA:         153.172
REMARK INTER:                 151.863
REMARK INTRA:                   1.309
REMARK UNBOUND:                 6.887
REMARK SMILES CCC(=O)CCCCC[C@@H]1NC(=O)[C@@H]2CCCCN2C(=O)[C@H]([C@H](C)CC)NC(=O)[C@@H](Cc2cn(OC)c3ccccc23)NC1=O
REMARK SMILES IDX 9 1 10 2 44 3 43 4 45 6 30 7 28 8 27 9 29 11 22 12 23 14
REMARK SMILES IDX 24 15 25 16 26 17 31 18 32 19 33 20 42 21 34 22 37 23 41 24
REMARK SMILES IDX 38 25 40 26 39 27 35 28 36 29 11 30 12 31 13 33 14 34 19 35
REMARK SMILES IDX 15 36 18 37 16 38 17 39 20 40 21 41 8 43 7 44 6 45 5 46 3 47
REMARK SMILES IDX 4 48 2 49 1 50
REMARK H PARENT 43 5 27 10 11 32
REMARK Flexibility Score: 80.00
ROOT
ATOM      1  C   UNL     1      13.854  16.850  15.164  1.00  0.00     0.035 C 
ENDROOT
BRANCH   1   2
ATOM      2  C   UNL     1      13.289  16.246  16.470  1.00  0.00     0.171 C 
BRANCH   2   3
ATOM      3  C   UNL     1      13.855  14.888  16.800  1.00  0.00     0.243 C 
ATOM      4  N   UNL     1      12.962  13.792  17.056  1.00  0.00    -0.342 N 
ATOM      5  H   UNL     1      11.940  13.946  16.890  1.00  0.00     0.164 HD
ATOM      6  O   UNL     1      15.102  14.724  16.922  1.00  0.00    -0.273 OA
BRANCH   4   7
ATOM      7  C   UNL     1      13.365  12.631  17.853  1.00  0.00     0.175 C 
BRANCH   7   8
ATOM      8  C   UNL     1      13.339  13.009  19.310  1.00  0.00     0.243 C 
ATOM      9  N   UNL     1      14.099  14.144  19.745  1.00  0.00    -0.342 N 
ATOM     10  H   UNL     1      14.793  14.555  19.085  1.00  0.00     0.164 HD
ATOM     11  O   UNL     1      12.652  12.350  20.138  1.00  0.00    -0.273 OA
BRANCH   9  12
ATOM     12  C   UNL     1      13.962  14.727  21.083  1.00  0.00     0.174 CG0
ATOM     13  G   UNL     1      13.411  16.129  20.962  1.00  0.00     0.000 G0
BRANCH  12  14
ATOM     14  C   UNL     1      15.306  14.644  21.863  1.00  0.00     0.018 C 
ATOM     15  C   UNL     1      15.963  13.265  21.672  1.00  0.00     0.010 C 
BRANCH  14  16
ATOM     16  C   UNL     1      15.169  15.012  23.366  1.00  0.00     0.002 C 
ATOM     17  C   UNL     1      16.349  14.531  24.211  1.00  0.00     0.004 C 
ENDBRANCH  14  16
ENDBRANCH  12  14
ENDBRANCH   9  12
ENDBRANCH   7   8
BRANCH   7  18
ATOM     18  C   UNL     1      12.455  11.428  17.542  1.00  0.00     0.073 C 
BRANCH  18  19
ATOM     19  C   UNL     1      11.170  11.877  16.910  1.00  0.00    -0.016 A 
ATOM     20  C   UNL     1      10.769  11.613  15.603  1.00  0.00     0.134 A 
ATOM     21  C   UNL     1      10.169  12.654  17.468  1.00  0.00     0.006 A 
ATOM     22  N   UNL     1       9.565  12.187  15.368  1.00  0.00    -0.191 N 
ATOM     23  C   UNL     1       9.205  12.816  16.502  1.00  0.00     0.087 A 
ATOM     24  C   UNL     1      10.034  13.224  18.737  1.00  0.00     0.011 A 
ATOM     25  C   UNL     1       8.047  13.553  16.735  1.00  0.00     0.030 A 
ATOM     26  C   UNL     1       8.867  13.959  19.005  1.00  0.00     0.001 A 
ATOM     27  C   UNL     1       7.879  14.124  18.006  1.00  0.00     0.002 A 
BRANCH  22  28
ATOM     28  O   UNL     1       8.836  12.176  14.191  1.00  0.00    -0.417 OA
ATOM     29  C   UNL     1       9.422  12.472  12.931  1.00  0.00     0.313 C 
ENDBRANCH  22  28
ENDBRANCH  18  19
ENDBRANCH   7  18
ENDBRANCH   4   7
ENDBRANCH   2   3
BRANCH   2  30
ATOM     30  N   UNL     1      13.509  17.154  17.604  1.00  0.00    -0.343 N 
ATOM     31  C   UNL     1      14.615  17.066  18.519  1.00  0.00     0.243 C 
ATOM     32  H   UNL     1      12.757  17.861  17.801  1.00  0.00     0.164 HD
ATOM     33  O   UNL     1      15.594  16.314  18.263  1.00  0.00    -0.273 OA
BRANCH  31  34
ATOM     34  C   UNL     1      14.657  17.956  19.743  1.00  0.00     0.174 C 
ATOM     35  N   UNL     1      14.072  17.344  20.959  1.00  0.00    -0.329 N 
ATOM     36  C   UNL     1      16.113  18.352  20.031  1.00  0.00     0.035 C 
ATOM     37  C   UNL     1      14.120  18.127  22.198  1.00  0.00     0.120 C 
ATOM     38  C   UNL     1      16.197  19.239  21.281  1.00  0.00     0.004 C 
ATOM     39  C   UNL     1      15.567  18.544  22.496  1.00  0.00     0.022 C 
BRANCH  35  40
ATOM     40  C   UNL     1      13.321  16.122  20.943  1.00  0.00     0.246 CG0
ATOM     41  O   UNL     1      12.061  16.175  20.940  1.00  0.00    -0.272 OA
ATOM     42  G   UNL     1      14.034  14.793  21.041  1.00  0.00     0.000 G0
ENDBRANCH  35  40
ENDBRANCH  31  34
ENDBRANCH   2  30
ENDBRANCH   1   2
BRANCH   1  43
ATOM     43  C   UNL     1      14.510  18.225  15.388  1.00  0.00     0.003 C 
BRANCH  43  44
ATOM     44  C   UNL     1      13.464  19.298  15.729  1.00  0.00     0.001 C 
BRANCH  44  45
ATOM     45  C   UNL     1      13.885  20.695  15.235  1.00  0.00     0.008 C 
BRANCH  45  46
ATOM     46  C   UNL     1      13.996  21.700  16.388  1.00  0.00     0.075 C 
BRANCH  46  47
ATOM     47  C   UNL     1      15.392  21.755  16.950  1.00  0.00     0.132 C 
ATOM     48  O   UNL     1      16.350  21.761  16.192  1.00  0.00    -0.300 OA
BRANCH  47  49
ATOM     49  C   UNL     1      15.622  21.802  18.435  1.00  0.00     0.072 C 
ATOM     50  C   UNL     1      17.030  21.322  18.769  1.00  0.00     0.012 C 
ENDBRANCH  47  49
ENDBRANCH  46  47
ENDBRANCH  45  46
ENDBRANCH  44  45
ENDBRANCH  43  44
ENDBRANCH   1  43
TORSDOF 12
ENDMDL
MODEL 4
REMARK VINA RESULT:    70.351      1.134      1.880
REMARK INTER + INTRA:         155.380
REMARK INTER:                 150.701
REMARK INTRA:                   4.679
REMARK UNBOUND:                 6.887
REMARK SMILES CCC(=O)CCCCC[C@@H]1NC(=O)[C@@H]2CCCCN2C(=O)[C@H]([C@H](C)CC)NC(=O)[C@@H](Cc2cn(OC)c3ccccc23)NC1=O
REMARK SMILES IDX 9 1 10 2 44 3 43 4 45 6 30 7 28 8 27 9 29 11 22 12 23 14
REMARK SMILES IDX 24 15 25 16 26 17 31 18 32 19 33 20 42 21 34 22 37 23 41 24
REMARK SMILES IDX 38 25 40 26 39 27 35 28 36 29 11 30 12 31 13 33 14 34 19 35
REMARK SMILES IDX 15 36 18 37 16 38 17 39 20 40 21 41 8 43 7 44 6 45 5 46 3 47
REMARK SMILES IDX 4 48 2 49 1 50
REMARK H PARENT 43 5 27 10 11 32
REMARK Flexibility Score: 80.00
ROOT
ATOM      1  C   UNL     1      15.820  10.744  16.355  1.00  0.00     0.035 C 
ENDROOT
BRANCH   1   2
ATOM      2  C   UNL     1      14.857  11.675  17.127  1.00  0.00     0.171 C 
BRANCH   2   3
ATOM      3  C   UNL     1      14.913  13.112  16.673  1.00  0.00     0.243 C 
ATOM      4  N   UNL     1      14.715  14.165  17.630  1.00  0.00    -0.342 N 
ATOM      5  H   UNL     1      14.652  13.900  18.641  1.00  0.00     0.164 HD
ATOM      6  O   UNL     1      15.063  13.394  15.451  1.00  0.00    -0.273 OA
BRANCH   4   7
ATOM      7  C   UNL     1      14.254  15.498  17.235  1.00  0.00     0.175 C 
BRANCH   7   8
ATOM      8  C   UNL     1      12.893  15.373  16.603  1.00  0.00     0.243 C 
ATOM      9  N   UNL     1      12.213  14.112  16.665  1.00  0.00    -0.342 N 
ATOM     10  H   UNL     1      12.754  13.274  16.971  1.00  0.00     0.164 HD
ATOM     11  O   UNL     1      12.347  16.360  16.039  1.00  0.00    -0.273 OA
BRANCH   9  12
ATOM     12  C   UNL     1      10.806  13.947  16.288  1.00  0.00     0.174 CG0
ATOM     13  G   UNL     1      10.069  13.248  17.407  1.00  0.00     0.000 G0
BRANCH  12  14
ATOM     14  C   UNL     1      10.682  13.234  14.910  1.00  0.00     0.018 C 
ATOM     15  C   UNL     1      10.405  14.255  13.791  1.00  0.00     0.010 C 
BRANCH  14  16
ATOM     16  C   UNL     1       9.641  12.081  14.906  1.00  0.00     0.002 C 
ATOM     17  C   UNL     1       8.931  11.919  13.561  1.00  0.00     0.004 C 
ENDBRANCH  14  16
ENDBRANCH  12  14
ENDBRANCH   9  12
ENDBRANCH   7   8
BRANCH   7  18
ATOM     18  C   UNL     1      14.253  16.444  18.450  1.00  0.00     0.073 C 
BRANCH  18  19
ATOM     19  C   UNL     1      14.981  17.718  18.138  1.00  0.00    -0.016 A 
ATOM     20  C   UNL     1      15.974  18.302  18.921  1.00  0.00     0.134 A 
ATOM     21  C   UNL     1      14.795  18.568  17.060  1.00  0.00     0.006 A 
ATOM     22  N   UNL     1      16.395  19.452  18.345  1.00  0.00    -0.191 N 
ATOM     23  C   UNL     1      15.677  19.609  17.217  1.00  0.00     0.087 A 
ATOM     24  C   UNL     1      13.926  18.504  15.967  1.00  0.00     0.011 A 
ATOM     25  C   UNL     1      15.754  20.652  16.298  1.00  0.00     0.030 A 
ATOM     26  C   UNL     1      13.993  19.536  15.015  1.00  0.00     0.001 A 
ATOM     27  C   UNL     1      14.902  20.606  15.182  1.00  0.00     0.002 A 
BRANCH  22  28
ATOM     28  O   UNL     1      17.351  20.336  18.816  1.00  0.00    -0.417 OA
ATOM     29  C   UNL     1      17.016  21.625  19.313  1.00  0.00     0.313 C 
ENDBRANCH  22  28
ENDBRANCH  18  19
ENDBRANCH   7  18
ENDBRANCH   4   7
ENDBRANCH   2   3
BRANCH   2  30
ATOM     30  N   UNL     1      13.472  11.189  17.034  1.00  0.00    -0.343 N 
ATOM     31  C   UNL     1      12.408  11.578  17.920  1.00  0.00     0.243 C 
ATOM     32  H   UNL     1      13.277  10.444  16.319  1.00  0.00     0.164 HD
ATOM     33  O   UNL     1      12.563  12.545  18.713  1.00  0.00    -0.273 OA
BRANCH  31  34
ATOM     34  C   UNL     1      11.060  10.895  17.827  1.00  0.00     0.174 C 
ATOM     35  N   UNL     1       9.947  11.798  17.457  1.00  0.00    -0.329 N 
ATOM     36  C   UNL     1      11.141   9.752  16.804  1.00  0.00     0.035 C 
ATOM     37  C   UNL     1       8.616  11.200  17.299  1.00  0.00     0.120 C 
ATOM     38  C   UNL     1       9.784   9.049  16.667  1.00  0.00     0.004 C 
ATOM     39  C   UNL     1       8.679  10.046  16.289  1.00  0.00     0.022 C 
BRANCH  35  40
ATOM     40  C   UNL     1      10.070  13.227  17.417  1.00  0.00     0.246 CG0
ATOM     41  O   UNL     1       9.465  13.920  18.280  1.00  0.00    -0.272 OA
ATOM     42  G   UNL     1      10.825  13.892  16.289  1.00  0.00     0.000 G0
ENDBRANCH  35  40
ENDBRANCH  31  34
ENDBRANCH   2  30
ENDBRANCH   1   2
BRANCH   1  43
ATOM     43  C   UNL     1      15.177  10.156  15.085  1.00  0.00     0.003 C 
BRANCH  43  44
ATOM     44  C   UNL     1      16.200   9.368  14.252  1.00  0.00     0.001 C 
BRANCH  44  45
ATOM     45  C   UNL     1      15.779   9.257  12.774  1.00  0.00     0.008 C 
BRANCH  45  46
ATOM     46  C   UNL     1      16.981   9.348  11.827  1.00  0.00     0.075 C 
BRANCH  46  47
ATOM     47  C   UNL     1      16.749  10.347  10.724  1.00  0.00     0.132 C 
ATOM     48  O   UNL     1      16.497   9.955   9.595  1.00  0.00    -0.300 OA
BRANCH  47  49
ATOM     49  C   UNL     1      16.825  11.823  10.996  1.00  0.00     0.072 C 
ATOM     50  C   UNL     1      16.886  12.601   9.685  1.00  0.00     0.012 C 
ENDBRANCH  47  49
ENDBRANCH  46  47
ENDBRANCH  45  46
ENDBRANCH  44  45
ENDBRANCH  43  44
ENDBRANCH   1  43
TORSDOF 12
ENDMDL
MODEL 5
REMARK VINA RESULT:    70.366      2.269      7.273
REMARK INTER + INTRA:         155.410
REMARK INTER:                 153.314
REMARK INTRA:                   2.096
REMARK UNBOUND:                 6.887
REMARK SMILES CCC(=O)CCCCC[C@@H]1NC(=O)[C@@H]2CCCCN2C(=O)[C@H]([C@H](C)CC)NC(=O)[C@@H](Cc2cn(OC)c3ccccc23)NC1=O
REMARK SMILES IDX 9 1 10 2 44 3 43 4 45 6 30 7 28 8 27 9 29 11 22 12 23 14
REMARK SMILES IDX 24 15 25 16 26 17 31 18 32 19 33 20 42 21 34 22 37 23 41 24
REMARK SMILES IDX 38 25 40 26 39 27 35 28 36 29 11 30 12 31 13 33 14 34 19 35
REMARK SMILES IDX 15 36 18 37 16 38 17 39 20 40 21 41 8 43 7 44 6 45 5 46 3 47
REMARK SMILES IDX 4 48 2 49 1 50
REMARK H PARENT 43 5 27 10 11 32
REMARK Flexibility Score: 80.00
ROOT
ATOM      1  C   UNL     1      15.638  13.533  13.539  1.00  0.00     0.035 C 
ENDROOT
BRANCH   1   2
ATOM      2  C   UNL     1      14.436  13.763  14.485  1.00  0.00     0.171 C 
BRANCH   2   3
ATOM      3  C   UNL     1      14.360  12.769  15.616  1.00  0.00     0.243 C 
ATOM      4  N   UNL     1      13.089  12.477  16.218  1.00  0.00    -0.342 N 
ATOM      5  H   UNL     1      12.233  12.881  15.771  1.00  0.00     0.164 HD
ATOM      6  O   UNL     1      15.411  12.246  16.083  1.00  0.00    -0.273 OA
BRANCH   4   7
ATOM      7  C   UNL     1      12.976  11.959  17.584  1.00  0.00     0.175 C 
BRANCH   7   8
ATOM      8  C   UNL     1      13.089  13.108  18.550  1.00  0.00     0.243 C 
ATOM      9  N   UNL     1      13.956  14.204  18.226  1.00  0.00    -0.342 N 
ATOM     10  H   UNL     1      14.623  14.087  17.433  1.00  0.00     0.164 HD
ATOM     11  O   UNL     1      12.426  13.121  19.622  1.00  0.00    -0.273 OA
BRANCH   9  12
ATOM     12  C   UNL     1      13.963  15.462  18.979  1.00  0.00     0.174 CG0
ATOM     13  G   UNL     1      14.842  16.463  18.266  1.00  0.00     0.000 G0
BRANCH  12  14
ATOM     14  C   UNL     1      14.364  15.217  20.462  1.00  0.00     0.018 C 
ATOM     15  C   UNL     1      14.449  13.709  20.762  1.00  0.00     0.010 C 
BRANCH  14  16
ATOM     16  C   UNL     1      13.447  15.953  21.477  1.00  0.00     0.002 C 
ATOM     17  C   UNL     1      13.566  17.476  21.398  1.00  0.00     0.004 C 
ENDBRANCH  14  16
ENDBRANCH  12  14
ENDBRANCH   9  12
ENDBRANCH   7   8
BRANCH   7  18
ATOM     18  C   UNL     1      11.660  11.178  17.751  1.00  0.00     0.073 C 
BRANCH  18  19
ATOM     19  C   UNL     1      10.494  11.978  17.248  1.00  0.00    -0.016 A 
ATOM     20  C   UNL     1       9.875  13.029  17.920  1.00  0.00     0.134 A 
ATOM     21  C   UNL     1       9.792  11.814  16.065  1.00  0.00     0.006 A 
ATOM     22  N   UNL     1       8.848  13.505  17.178  1.00  0.00    -0.191 N 
ATOM     23  C   UNL     1       8.802  12.766  16.054  1.00  0.00     0.087 A 
ATOM     24  C   UNL     1       9.949  10.910  15.010  1.00  0.00     0.011 A 
ATOM     25  C   UNL     1       7.905  12.882  14.996  1.00  0.00     0.030 A 
ATOM     26  C   UNL     1       9.067  11.015  13.920  1.00  0.00     0.001 A 
ATOM     27  C   UNL     1       8.048  11.996  13.916  1.00  0.00     0.002 A 
BRANCH  22  28
ATOM     28  O   UNL     1       7.973  14.529  17.500  1.00  0.00    -0.417 OA
ATOM     29  C   UNL     1       7.998  15.182  18.762  1.00  0.00     0.313 C 
ENDBRANCH  22  28
ENDBRANCH  18  19
ENDBRANCH   7  18
ENDBRANCH   4   7
ENDBRANCH   2   3
BRANCH   2  30
ATOM     30  N   UNL     1      14.456  15.126  15.034  1.00  0.00    -0.343 N 
ATOM     31  C   UNL     1      13.382  15.721  15.783  1.00  0.00     0.243 C 
ATOM     32  H   UNL     1      15.282  15.727  14.787  1.00  0.00     0.164 HD
ATOM     33  O   UNL     1      12.427  15.011  16.199  1.00  0.00    -0.273 OA
BRANCH  31  34
ATOM     34  C   UNL     1      13.447  17.184  16.165  1.00  0.00     0.174 C 
ATOM     35  N   UNL     1      14.321  17.470  17.326  1.00  0.00    -0.329 N 
ATOM     36  C   UNL     1      13.933  18.002  14.958  1.00  0.00     0.035 C 
ATOM     37  C   UNL     1      14.475  18.873  17.727  1.00  0.00     0.120 C 
ATOM     38  C   UNL     1      14.032  19.491  15.316  1.00  0.00     0.004 C 
ATOM     39  C   UNL     1      14.947  19.709  16.530  1.00  0.00     0.022 C 
BRANCH  35  40
ATOM     40  C   UNL     1      14.874  16.448  18.167  1.00  0.00     0.246 CG0
ATOM     41  O   UNL     1      16.123  16.278  18.188  1.00  0.00    -0.272 OA
ATOM     42  G   UNL     1      13.960  15.519  18.933  1.00  0.00     0.000 G0
ENDBRANCH  35  40
ENDBRANCH  31  34
ENDBRANCH   2  30
ENDBRANCH   1   2
BRANCH   1  43
ATOM     43  C   UNL     1      15.397  14.110  12.132  1.00  0.00     0.003 C 
BRANCH  43  44
ATOM     44  C   UNL     1      16.702  14.625  11.505  1.00  0.00     0.001 C 
BRANCH  44  45
ATOM     45  C   UNL     1      16.936  14.045  10.098  1.00  0.00     0.008 C 
BRANCH  45  46
ATOM     46  C   UNL     1      17.617  12.671  10.150  1.00  0.00     0.075 C 
BRANCH  46  47
ATOM     47  C   UNL     1      16.612  11.550  10.157  1.00  0.00     0.132 C 
ATOM     48  O   UNL     1      15.540  11.693   9.590  1.00  0.00    -0.300 OA
BRANCH  47  49
ATOM     49  C   UNL     1      16.913  10.253  10.856  1.00  0.00     0.072 C 
ATOM     50  C   UNL     1      16.828   9.089   9.874  1.00  0.00     0.012 C 
ENDBRANCH  47  49
ENDBRANCH  46  47
ENDBRANCH  45  46
ENDBRANCH  44  45
ENDBRANCH  43  44
ENDBRANCH   1  43
TORSDOF 12
ENDMDL
