MODEL 1
REMARK VINA RESULT:    -2.603      0.000      0.000
REMARK INTER + INTRA:          -2.603
REMARK INTER:                  -2.603
REMARK INTRA:                   0.000
REMARK UNBOUND:                 0.000
REMARK SMILES CC1=CC[C@@]2(C)CCCC(C)(C)[C@]23C[C@H]13
REMARK SMILES IDX 1 1 2 2 3 3 4 4 5 5 7 6 8 7 9 8 10 9 13 10 15 11 14 12 11 13
REMARK SMILES IDX 12 14 6 15
REMARK H PARENT
REMARK Flexibility Score: inf
ROOT
ATOM      1  C   UNL     1     165.290 171.610 137.344  1.00  0.00     0.039 C 
ATOM      2  C   UNL     1     166.260 172.609 137.915  1.00  0.00    -0.074 C 
ATOM      3  C   UNL     1     165.786 173.601 138.675  1.00  0.00    -0.027 C 
ATOM      4  C   UNL     1     166.646 174.737 139.108  1.00  0.00     0.034 C 
ATOM      5  C   UNL     1     168.102 174.337 139.510  1.00  0.00    -0.022 C 
ATOM      6  C   UNL     1     168.136 173.856 140.999  1.00  0.00     0.008 C 
ATOM      7  C   UNL     1     168.150 172.329 141.130  1.00  0.00     0.001 C 
ATOM      8  C   UNL     1     169.427 171.703 140.532  1.00  0.00     0.007 C 
ATOM      9  C   UNL     1     169.911 172.346 139.183  1.00  0.00    -0.029 C 
ATOM     10  C   UNL     1     168.726 173.217 138.576  1.00  0.00    -0.012 C 
ATOM     11  C   UNL     1     167.741 172.373 137.731  1.00  0.00     0.022 C 
ATOM     12  C   UNL     1     168.574 173.464 137.066  1.00  0.00     0.017 C 
ATOM     13  C   UNL     1     170.434 171.199 138.265  1.00  0.00     0.012 C 
ATOM     14  C   UNL     1     171.138 173.250 139.457  1.00  0.00     0.012 C 
ATOM     15  C   UNL     1     168.920 175.654 139.393  1.00  0.00     0.012 C 
ENDROOT
TORSDOF 0
ENDMDL
MODEL 2
REMARK VINA RESULT:    -2.593     13.116     15.359
REMARK INTER + INTRA:          -2.593
REMARK INTER:                  -2.593
REMARK INTRA:                   0.000
REMARK UNBOUND:                 0.000
REMARK SMILES CC1=CC[C@@]2(C)CCCC(C)(C)[C@]23C[C@H]13
REMARK SMILES IDX 1 1 2 2 3 3 4 4 5 5 7 6 8 7 9 8 10 9 13 10 15 11 14 12 11 13
REMARK SMILES IDX 12 14 6 15
REMARK H PARENT
REMARK Flexibility Score: inf
ROOT
ATOM      1  C   UNL     1     166.729 160.376 137.332  1.00  0.00     0.039 C 
ATOM      2  C   UNL     1     165.750 159.391 137.912  1.00  0.00    -0.074 C 
ATOM      3  C   UNL     1     166.214 158.402 138.682  1.00  0.00    -0.027 C 
ATOM      4  C   UNL     1     165.343 157.278 139.125  1.00  0.00     0.034 C 
ATOM      5  C   UNL     1     163.890 157.696 139.522  1.00  0.00    -0.022 C 
ATOM      6  C   UNL     1     163.858 158.192 141.006  1.00  0.00     0.008 C 
ATOM      7  C   UNL     1     163.859 159.720 141.122  1.00  0.00     0.001 C 
ATOM      8  C   UNL     1     162.589 160.352 140.516  1.00  0.00     0.007 C 
ATOM      9  C   UNL     1     162.100 159.701 139.173  1.00  0.00    -0.029 C 
ATOM     10  C   UNL     1     163.278 158.812 138.576  1.00  0.00    -0.012 C 
ATOM     11  C   UNL     1     164.271 159.639 137.724  1.00  0.00     0.022 C 
ATOM     12  C   UNL     1     163.429 158.550 137.069  1.00  0.00     0.017 C 
ATOM     13  C   UNL     1     161.589 160.844 138.243  1.00  0.00     0.012 C 
ATOM     14  C   UNL     1     160.864 158.810 139.454  1.00  0.00     0.012 C 
ATOM     15  C   UNL     1     163.059 156.386 139.416  1.00  0.00     0.012 C 
ENDROOT
TORSDOF 0
ENDMDL
MODEL 3
REMARK VINA RESULT:    -2.575      1.613      4.007
REMARK INTER + INTRA:          -2.575
REMARK INTER:                  -2.575
REMARK INTRA:                   0.000
REMARK UNBOUND:                 0.000
REMARK SMILES CC1=CC[C@@]2(C)CCCC(C)(C)[C@]23C[C@H]13
REMARK SMILES IDX 1 1 2 2 3 3 4 4 5 5 7 6 8 7 9 8 10 9 13 10 15 11 14 12 11 13
REMARK SMILES IDX 12 14 6 15
REMARK H PARENT
REMARK Flexibility Score: inf
ROOT
ATOM      1  C   UNL     1     165.365 171.444 136.878  1.00  0.00     0.039 C 
ATOM      2  C   UNL     1     166.041 172.025 138.091  1.00  0.00    -0.074 C 
ATOM      3  C   UNL     1     167.298 171.661 138.361  1.00  0.00    -0.027 C 
ATOM      4  C   UNL     1     167.963 172.030 139.641  1.00  0.00     0.034 C 
ATOM      5  C   UNL     1     167.653 173.477 140.144  1.00  0.00    -0.022 C 
ATOM      6  C   UNL     1     168.608 174.505 139.451  1.00  0.00     0.008 C 
ATOM      7  C   UNL     1     167.943 175.241 138.283  1.00  0.00     0.001 C 
ATOM      8  C   UNL     1     166.760 176.119 138.743  1.00  0.00     0.007 C 
ATOM      9  C   UNL     1     165.846 175.474 139.845  1.00  0.00    -0.029 C 
ATOM     10  C   UNL     1     166.146 173.913 139.912  1.00  0.00    -0.012 C 
ATOM     11  C   UNL     1     165.330 173.107 138.871  1.00  0.00     0.022 C 
ATOM     12  C   UNL     1     165.091 172.889 140.362  1.00  0.00     0.017 C 
ATOM     13  C   UNL     1     164.368 175.857 139.526  1.00  0.00     0.012 C 
ATOM     14  C   UNL     1     166.156 176.125 141.216  1.00  0.00     0.012 C 
ATOM     15  C   UNL     1     167.976 173.444 141.665  1.00  0.00     0.012 C 
ENDROOT
TORSDOF 0
ENDMDL
MODEL 4
REMARK VINA RESULT:    -2.562     13.740     15.454
REMARK INTER + INTRA:          -2.562
REMARK INTER:                  -2.562
REMARK INTRA:                   0.000
REMARK UNBOUND:                 0.000
REMARK SMILES CC1=CC[C@@]2(C)CCCC(C)(C)[C@]23C[C@H]13
REMARK SMILES IDX 1 1 2 2 3 3 4 4 5 5 7 6 8 7 9 8 10 9 13 10 15 11 14 12 11 13
REMARK SMILES IDX 12 14 6 15
REMARK H PARENT
REMARK Flexibility Score: inf
ROOT
ATOM      1  C   UNL     1     166.974 160.430 136.875  1.00  0.00     0.039 C 
ATOM      2  C   UNL     1     166.193 159.911 138.053  1.00  0.00    -0.074 C 
ATOM      3  C   UNL     1     164.942 160.345 138.235  1.00  0.00    -0.027 C 
ATOM      4  C   UNL     1     164.179 160.039 139.476  1.00  0.00     0.034 C 
ATOM      5  C   UNL     1     164.381 158.590 140.026  1.00  0.00    -0.022 C 
ATOM      6  C   UNL     1     163.419 157.596 139.293  1.00  0.00     0.008 C 
ATOM      7  C   UNL     1     164.118 156.802 138.184  1.00  0.00     0.001 C 
ATOM      8  C   UNL     1     165.221 155.875 138.736  1.00  0.00     0.007 C 
ATOM      9  C   UNL     1     166.097 156.498 139.882  1.00  0.00    -0.029 C 
ATOM     10  C   UNL     1     165.875 158.073 139.899  1.00  0.00    -0.012 C 
ATOM     11  C   UNL     1     166.796 158.813 138.898  1.00  0.00     0.022 C 
ATOM     12  C   UNL     1     166.951 159.052 140.396  1.00  0.00     0.017 C 
ATOM     13  C   UNL     1     167.570 156.033 139.666  1.00  0.00     0.012 C 
ATOM     14  C   UNL     1     165.667 155.894 141.242  1.00  0.00     0.012 C 
ATOM     15  C   UNL     1     163.965 158.673 141.522  1.00  0.00     0.012 C 
ENDROOT
TORSDOF 0
ENDMDL
MODEL 5
REMARK VINA RESULT:    -2.504      1.423      3.707
REMARK INTER + INTRA:          -2.504
REMARK INTER:                  -2.504
REMARK INTRA:                   0.000
REMARK UNBOUND:                 0.000
REMARK SMILES CC1=CC[C@@]2(C)CCCC(C)(C)[C@]23C[C@H]13
REMARK SMILES IDX 1 1 2 2 3 3 4 4 5 5 7 6 8 7 9 8 10 9 13 10 15 11 14 12 11 13
REMARK SMILES IDX 12 14 6 15
REMARK H PARENT
REMARK Flexibility Score: inf
ROOT
ATOM      1  C   UNL     1     167.541 173.800 143.871  1.00  0.00     0.039 C 
ATOM      2  C   UNL     1     167.112 173.666 142.434  1.00  0.00    -0.074 C 
ATOM      3  C   UNL     1     165.888 174.078 142.089  1.00  0.00    -0.027 C 
ATOM      4  C   UNL     1     165.317 173.798 140.743  1.00  0.00     0.034 C 
ATOM      5  C   UNL     1     166.333 173.928 139.563  1.00  0.00    -0.022 C 
ATOM      6  C   UNL     1     166.444 175.422 139.109  1.00  0.00     0.008 C 
ATOM      7  C   UNL     1     167.683 176.125 139.675  1.00  0.00     0.001 C 
ATOM      8  C   UNL     1     168.996 175.504 139.153  1.00  0.00     0.007 C 
ATOM      9  C   UNL     1     168.996 173.936 139.061  1.00  0.00    -0.029 C 
ATOM     10  C   UNL     1     167.777 173.372 139.913  1.00  0.00    -0.012 C 
ATOM     11  C   UNL     1     168.126 173.208 141.412  1.00  0.00     0.022 C 
ATOM     12  C   UNL     1     167.802 171.981 140.566  1.00  0.00     0.017 C 
ATOM     13  C   UNL     1     170.406 173.431 139.497  1.00  0.00     0.012 C 
ATOM     14  C   UNL     1     168.842 173.509 137.580  1.00  0.00     0.012 C 
ATOM     15  C   UNL     1     165.703 173.102 138.406  1.00  0.00     0.012 C 
ENDROOT
TORSDOF 0
ENDMDL
MODEL 6
REMARK VINA RESULT:    -2.499     14.019     16.005
REMARK INTER + INTRA:          -2.499
REMARK INTER:                  -2.499
REMARK INTRA:                   0.000
REMARK UNBOUND:                 0.000
REMARK SMILES CC1=CC[C@@]2(C)CCCC(C)(C)[C@]23C[C@H]13
REMARK SMILES IDX 1 1 2 2 3 3 4 4 5 5 7 6 8 7 9 8 10 9 13 10 15 11 14 12 11 13
REMARK SMILES IDX 12 14 6 15
REMARK H PARENT
REMARK Flexibility Score: inf
ROOT
ATOM      1  C   UNL     1     164.492 158.127 143.901  1.00  0.00     0.039 C 
ATOM      2  C   UNL     1     164.934 158.298 142.472  1.00  0.00    -0.074 C 
ATOM      3  C   UNL     1     166.171 157.922 142.133  1.00  0.00    -0.027 C 
ATOM      4  C   UNL     1     166.749 158.240 140.799  1.00  0.00     0.034 C 
ATOM      5  C   UNL     1     165.750 158.106 139.605  1.00  0.00    -0.022 C 
ATOM      6  C   UNL     1     165.682 156.618 139.124  1.00  0.00     0.008 C 
ATOM      7  C   UNL     1     164.454 155.875 139.662  1.00  0.00     0.001 C 
ATOM      8  C   UNL     1     163.133 156.473 139.137  1.00  0.00     0.007 C 
ATOM      9  C   UNL     1     163.094 158.042 139.073  1.00  0.00    -0.029 C 
ATOM     10  C   UNL     1     164.290 158.620 139.948  1.00  0.00    -0.012 C 
ATOM     11  C   UNL     1     163.920 158.749 141.446  1.00  0.00     0.022 C 
ATOM     12  C   UNL     1     164.223 159.999 140.626  1.00  0.00     0.017 C 
ATOM     13  C   UNL     1     161.667 158.504 139.501  1.00  0.00     0.012 C 
ATOM     14  C   UNL     1     163.254 158.500 137.601  1.00  0.00     0.012 C 
ATOM     15  C   UNL     1     166.372 158.968 138.470  1.00  0.00     0.012 C 
ENDROOT
TORSDOF 0
ENDMDL
MODEL 7
REMARK VINA RESULT:    -2.487     13.209     15.227
REMARK INTER + INTRA:          -2.487
REMARK INTER:                  -2.487
REMARK INTRA:                   0.000
REMARK UNBOUND:                 0.000
REMARK SMILES CC1=CC[C@@]2(C)CCCC(C)(C)[C@]23C[C@H]13
REMARK SMILES IDX 1 1 2 2 3 3 4 4 5 5 7 6 8 7 9 8 10 9 13 10 15 11 14 12 11 13
REMARK SMILES IDX 12 14 6 15
REMARK H PARENT
REMARK Flexibility Score: inf
ROOT
ATOM      1  C   UNL     1     162.430 161.898 140.884  1.00  0.00     0.039 C 
ATOM      2  C   UNL     1     162.655 160.474 140.451  1.00  0.00    -0.074 C 
ATOM      3  C   UNL     1     161.723 159.876 139.703  1.00  0.00    -0.027 C 
ATOM      4  C   UNL     1     161.775 158.418 139.405  1.00  0.00     0.034 C 
ATOM      5  C   UNL     1     163.205 157.861 139.112  1.00  0.00    -0.022 C 
ATOM      6  C   UNL     1     163.577 158.094 137.610  1.00  0.00     0.008 C 
ATOM      7  C   UNL     1     164.486 159.310 137.403  1.00  0.00     0.001 C 
ATOM      8  C   UNL     1     165.861 159.134 138.079  1.00  0.00     0.007 C 
ATOM      9  C   UNL     1     165.821 158.457 139.496  1.00  0.00    -0.029 C 
ATOM     10  C   UNL     1     164.326 158.493 140.039  1.00  0.00    -0.012 C 
ATOM     11  C   UNL     1     163.986 159.825 140.752  1.00  0.00     0.022 C 
ATOM     12  C   UNL     1     163.996 158.520 141.541  1.00  0.00     0.017 C 
ATOM     13  C   UNL     1     166.878 159.167 140.397  1.00  0.00     0.012 C 
ATOM     14  C   UNL     1     166.299 156.988 139.377  1.00  0.00     0.012 C 
ATOM     15  C   UNL     1     163.094 156.332 139.367  1.00  0.00     0.012 C 
ENDROOT
TORSDOF 0
ENDMDL
MODEL 8
REMARK VINA RESULT:    -2.459      1.445      2.778
REMARK INTER + INTRA:          -2.459
REMARK INTER:                  -2.459
REMARK INTRA:                   0.000
REMARK UNBOUND:                 0.000
REMARK SMILES CC1=CC[C@@]2(C)CCCC(C)(C)[C@]23C[C@H]13
REMARK SMILES IDX 1 1 2 2 3 3 4 4 5 5 7 6 8 7 9 8 10 9 13 10 15 11 14 12 11 13
REMARK SMILES IDX 12 14 6 15
REMARK H PARENT
REMARK Flexibility Score: inf
ROOT
ATOM      1  C   UNL     1     164.887 175.203 139.792  1.00  0.00     0.039 C 
ATOM      2  C   UNL     1     166.042 174.538 139.093  1.00  0.00    -0.074 C 
ATOM      3  C   UNL     1     167.077 175.291 138.706  1.00  0.00    -0.027 C 
ATOM      4  C   UNL     1     168.158 174.749 137.838  1.00  0.00     0.034 C 
ATOM      5  C   UNL     1     168.593 173.285 138.171  1.00  0.00    -0.022 C 
ATOM      6  C   UNL     1     169.643 173.286 139.331  1.00  0.00     0.008 C 
ATOM      7  C   UNL     1     169.026 172.946 140.692  1.00  0.00     0.001 C 
ATOM      8  C   UNL     1     168.459 171.511 140.735  1.00  0.00     0.007 C 
ATOM      9  C   UNL     1     167.707 171.057 139.434  1.00  0.00    -0.029 C 
ATOM     10  C   UNL     1     167.377 172.343 138.557  1.00  0.00    -0.012 C 
ATOM     11  C   UNL     1     166.058 173.031 138.986  1.00  0.00     0.022 C 
ATOM     12  C   UNL     1     166.173 172.402 137.602  1.00  0.00     0.017 C 
ATOM     13  C   UNL     1     166.472 170.207 139.865  1.00  0.00     0.012 C 
ATOM     14  C   UNL     1     168.612 170.093 138.627  1.00  0.00     0.012 C 
ATOM     15  C   UNL     1     169.282 172.773 136.875  1.00  0.00     0.012 C 
ENDROOT
TORSDOF 0
ENDMDL
MODEL 9
REMARK VINA RESULT:    -2.445      4.786      7.228
REMARK INTER + INTRA:          -2.445
REMARK INTER:                  -2.445
REMARK INTRA:                   0.000
REMARK UNBOUND:                 0.000
REMARK SMILES CC1=CC[C@@]2(C)CCCC(C)(C)[C@]23C[C@H]13
REMARK SMILES IDX 1 1 2 2 3 3 4 4 5 5 7 6 8 7 9 8 10 9 13 10 15 11 14 12 11 13
REMARK SMILES IDX 12 14 6 15
REMARK H PARENT
REMARK Flexibility Score: inf
ROOT
ATOM      1  C   UNL     1     174.635 174.885 142.717  1.00  0.00     0.039 C 
ATOM      2  C   UNL     1     174.614 174.976 141.215  1.00  0.00    -0.074 C 
ATOM      3  C   UNL     1     175.584 175.661 140.600  1.00  0.00    -0.027 C 
ATOM      4  C   UNL     1     175.525 175.967 139.144  1.00  0.00     0.034 C 
ATOM      5  C   UNL     1     174.976 174.806 138.254  1.00  0.00    -0.022 C 
ATOM      6  C   UNL     1     176.125 173.801 137.909  1.00  0.00     0.008 C 
ATOM      7  C   UNL     1     176.104 172.548 138.791  1.00  0.00     0.001 C 
ATOM      8  C   UNL     1     174.829 171.705 138.578  1.00  0.00     0.007 C 
ATOM      9  C   UNL     1     173.505 172.535 138.419  1.00  0.00    -0.029 C 
ATOM     10  C   UNL     1     173.768 174.022 138.921  1.00  0.00    -0.012 C 
ATOM     11  C   UNL     1     173.588 174.172 140.452  1.00  0.00     0.022 C 
ATOM     12  C   UNL     1     172.651 174.907 139.498  1.00  0.00     0.017 C 
ATOM     13  C   UNL     1     172.367 171.771 139.163  1.00  0.00     0.012 C 
ATOM     14  C   UNL     1     173.086 172.554 136.928  1.00  0.00     0.012 C 
ATOM     15  C   UNL     1     174.509 175.499 136.943  1.00  0.00     0.012 C 
ENDROOT
TORSDOF 0
ENDMDL
