MODEL 1
REMARK VINA RESULT:    -3.247      0.000      0.000
REMARK INTER + INTRA:          -5.041
REMARK INTER:                  -4.386
REMARK INTRA:                  -0.655
REMARK UNBOUND:                -0.655
REMARK SMILES O=C[C@@H](O)[C@H](O)[C@H](O)CO
REMARK SMILES IDX 7 1 9 2 10 3 5 5 3 6 2 7 1 8 4 9 6 11 8 13
REMARK H PARENT 10 4 4 10 6 12 8 14
REMARK Flexibility Score: inf
ROOT
ATOM      1  C   UNL     1      -0.149   0.835  35.867  1.00  0.00     0.171 C 
ENDROOT
BRANCH   1   2
ATOM      2  C   UNL     1      -1.362   0.693  36.811  1.00  0.00     0.190 C 
BRANCH   2   3
ATOM      3  O   UNL     1      -2.515   0.389  36.077  1.00  0.00    -0.394 OA
ATOM      4  H   UNL     1      -3.202   0.119  36.741  1.00  0.00     0.210 HD
ENDBRANCH   2   3
ENDBRANCH   1   2
BRANCH   1   5
ATOM      5  C   UNL     1      -0.420   1.673  34.585  1.00  0.00     0.181 C 
BRANCH   5   6
ATOM      6  C   UNL     1       0.849   2.097  33.789  1.00  0.00     0.209 C 
BRANCH   6   7
ATOM      7  C   UNL     1       1.383   3.445  34.189  1.00  0.00     0.258 C 
ATOM      8  O   UNL     1       1.475   3.755  35.368  1.00  0.00    -0.300 OA
ENDBRANCH   6   7
BRANCH   6   9
ATOM      9  O   UNL     1       1.864   1.138  33.924  1.00  0.00    -0.383 OA
ATOM     10  H   UNL     1       2.672   1.618  34.245  1.00  0.00     0.211 HD
ENDBRANCH   6   9
ENDBRANCH   5   6
BRANCH   5  11
ATOM     11  O   UNL     1      -1.215   2.791  34.895  1.00  0.00    -0.387 OA
ATOM     12  H   UNL     1      -0.928   3.526  34.292  1.00  0.00     0.211 HD
ENDBRANCH   5  11
ENDBRANCH   1   5
BRANCH   1  13
ATOM     13  O   UNL     1       0.327  -0.438  35.504  1.00  0.00    -0.388 OA
ATOM     14  H   UNL     1      -0.247  -1.114  35.952  1.00  0.00     0.211 HD
ENDBRANCH   1  13
TORSDOF 8
ENDMDL
MODEL 2
REMARK VINA RESULT:    -3.136     13.786     14.685
REMARK INTER + INTRA:          -4.891
REMARK INTER:                  -4.149
REMARK INTRA:                  -0.742
REMARK UNBOUND:                -0.655
REMARK SMILES O=C[C@@H](O)[C@H](O)[C@H](O)CO
REMARK SMILES IDX 7 1 9 2 10 3 5 5 3 6 2 7 1 8 4 9 6 11 8 13
REMARK H PARENT 10 4 4 10 6 12 8 14
REMARK Flexibility Score: inf
ROOT
ATOM      1  C   UNL     1      14.211   3.708  34.708  1.00  0.00     0.171 C 
ENDROOT
BRANCH   1   2
ATOM      2  C   UNL     1      14.308   2.944  36.046  1.00  0.00     0.190 C 
BRANCH   2   3
ATOM      3  O   UNL     1      13.586   1.746  35.973  1.00  0.00    -0.394 OA
ATOM      4  H   UNL     1      14.233   1.050  35.688  1.00  0.00     0.210 HD
ENDBRANCH   2   3
ENDBRANCH   1   2
BRANCH   1   5
ATOM      5  C   UNL     1      15.141   3.167  33.584  1.00  0.00     0.181 C 
BRANCH   5   6
ATOM      6  C   UNL     1      14.591   3.323  32.136  1.00  0.00     0.209 C 
BRANCH   6   7
ATOM      7  C   UNL     1      13.354   2.508  31.875  1.00  0.00     0.258 C 
ATOM      8  O   UNL     1      13.313   1.324  32.173  1.00  0.00    -0.300 OA
ENDBRANCH   6   7
BRANCH   6   9
ATOM      9  O   UNL     1      14.327   4.671  31.847  1.00  0.00    -0.383 OA
ATOM     10  H   UNL     1      15.111   5.192  32.163  1.00  0.00     0.211 HD
ENDBRANCH   6   9
ENDBRANCH   5   6
BRANCH   5  11
ATOM     11  O   UNL     1      15.492   1.830  33.846  1.00  0.00    -0.387 OA
ATOM     12  H   UNL     1      16.059   1.527  33.090  1.00  0.00     0.211 HD
ENDBRANCH   5  11
ENDBRANCH   1   5
BRANCH   1  13
ATOM     13  O   UNL     1      14.475   5.074  34.918  1.00  0.00    -0.388 OA
ATOM     14  H   UNL     1      13.940   5.590  34.259  1.00  0.00     0.211 HD
ENDBRANCH   1  13
TORSDOF 8
ENDMDL
MODEL 3
REMARK VINA RESULT:    -3.108     13.087     14.696
REMARK INTER + INTRA:          -4.854
REMARK INTER:                  -4.026
REMARK INTRA:                  -0.827
REMARK UNBOUND:                -0.655
REMARK SMILES O=C[C@@H](O)[C@H](O)[C@H](O)CO
REMARK SMILES IDX 7 1 9 2 10 3 5 5 3 6 2 7 1 8 4 9 6 11 8 13
REMARK H PARENT 10 4 4 10 6 12 8 14
REMARK Flexibility Score: inf
ROOT
ATOM      1  C   UNL     1      13.289   1.823  33.179  1.00  0.00     0.171 C 
ENDROOT
BRANCH   1   2
ATOM      2  C   UNL     1      13.556   2.518  31.827  1.00  0.00     0.190 C 
BRANCH   2   3
ATOM      3  O   UNL     1      14.321   3.675  32.018  1.00  0.00    -0.394 OA
ATOM      4  H   UNL     1      14.396   3.798  33.000  1.00  0.00     0.210 HD
ENDBRANCH   2   3
ENDBRANCH   1   2
BRANCH   1   5
ATOM      5  C   UNL     1      14.531   1.128  33.807  1.00  0.00     0.181 C 
BRANCH   5   6
ATOM      6  C   UNL     1      14.782   1.450  35.310  1.00  0.00     0.209 C 
BRANCH   6   7
ATOM      7  C   UNL     1      15.694   2.627  35.525  1.00  0.00     0.258 C 
ATOM      8  O   UNL     1      15.560   3.648  34.866  1.00  0.00    -0.300 OA
ENDBRANCH   6   7
BRANCH   6   9
ATOM      9  O   UNL     1      13.570   1.676  35.979  1.00  0.00    -0.383 OA
ATOM     10  H   UNL     1      12.902   1.058  35.581  1.00  0.00     0.211 HD
ENDBRANCH   6   9
ENDBRANCH   5   6
BRANCH   5  11
ATOM     11  O   UNL     1      15.678   1.396  33.039  1.00  0.00    -0.387 OA
ATOM     12  H   UNL     1      15.424   2.083  32.369  1.00  0.00     0.211 HD
ENDBRANCH   5  11
ENDBRANCH   1   5
BRANCH   1  13
ATOM     13  O   UNL     1      12.249   0.887  33.038  1.00  0.00    -0.388 OA
ATOM     14  H   UNL     1      11.390   1.385  33.052  1.00  0.00     0.211 HD
ENDBRANCH   1  13
TORSDOF 8
ENDMDL
MODEL 4
REMARK VINA RESULT:    -3.079      1.110      1.453
REMARK INTER + INTRA:          -4.814
REMARK INTER:                  -3.980
REMARK INTRA:                  -0.834
REMARK UNBOUND:                -0.655
REMARK SMILES O=C[C@@H](O)[C@H](O)[C@H](O)CO
REMARK SMILES IDX 7 1 9 2 10 3 5 5 3 6 2 7 1 8 4 9 6 11 8 13
REMARK H PARENT 10 4 4 10 6 12 8 14
REMARK Flexibility Score: inf
ROOT
ATOM      1  C   UNL     1      -0.611   1.179  36.096  1.00  0.00     0.171 C 
ENDROOT
BRANCH   1   2
ATOM      2  C   UNL     1      -1.119   2.097  37.229  1.00  0.00     0.190 C 
BRANCH   2   3
ATOM      3  O   UNL     1      -0.259   3.190  37.390  1.00  0.00    -0.394 OA
ATOM      4  H   UNL     1      -0.750   3.981  37.045  1.00  0.00     0.210 HD
ENDBRANCH   2   3
ENDBRANCH   1   2
BRANCH   1   5
ATOM      5  C   UNL     1      -0.738   1.781  34.668  1.00  0.00     0.181 C 
BRANCH   5   6
ATOM      6  C   UNL     1       0.605   1.958  33.901  1.00  0.00     0.209 C 
BRANCH   6   7
ATOM      7  C   UNL     1       1.223   3.318  34.081  1.00  0.00     0.258 C 
ATOM      8  O   UNL     1       1.571   3.702  35.188  1.00  0.00    -0.300 OA
ENDBRANCH   6   7
BRANCH   6   9
ATOM      9  O   UNL     1       1.530   0.975  34.285  1.00  0.00    -0.383 OA
ATOM     10  H   UNL     1       2.351   1.127  33.749  1.00  0.00     0.211 HD
ENDBRANCH   6   9
ENDBRANCH   5   6
BRANCH   5  11
ATOM     11  O   UNL     1      -1.453   2.992  34.713  1.00  0.00    -0.387 OA
ATOM     12  H   UNL     1      -2.110   2.967  33.970  1.00  0.00     0.211 HD
ENDBRANCH   5  11
ENDBRANCH   1   5
BRANCH   1  13
ATOM     13  O   UNL     1      -1.282  -0.057  36.146  1.00  0.00    -0.388 OA
ATOM     14  H   UNL     1      -1.538  -0.224  37.091  1.00  0.00     0.211 HD
ENDBRANCH   1  13
TORSDOF 8
ENDMDL
MODEL 5
REMARK VINA RESULT:    -3.030      1.286      3.467
REMARK INTER + INTRA:          -4.748
REMARK INTER:                  -3.840
REMARK INTRA:                  -0.908
REMARK UNBOUND:                -0.655
REMARK SMILES O=C[C@@H](O)[C@H](O)[C@H](O)CO
REMARK SMILES IDX 7 1 9 2 10 3 5 5 3 6 2 7 1 8 4 9 6 11 8 13
REMARK H PARENT 10 4 4 10 6 12 8 14
REMARK Flexibility Score: inf
ROOT
ATOM      1  C   UNL     1       0.160   1.556  34.632  1.00  0.00     0.171 C 
ENDROOT
BRANCH   1   2
ATOM      2  C   UNL     1      -0.215   2.786  33.777  1.00  0.00     0.190 C 
BRANCH   2   3
ATOM      3  O   UNL     1      -1.562   3.116  33.966  1.00  0.00    -0.394 OA
ATOM      4  H   UNL     1      -1.860   3.556  33.127  1.00  0.00     0.210 HD
ENDBRANCH   2   3
ENDBRANCH   1   2
BRANCH   1   5
ATOM      5  C   UNL     1       0.099   1.792  36.168  1.00  0.00     0.181 C 
BRANCH   5   6
ATOM      6  C   UNL     1      -1.040   1.033  36.910  1.00  0.00     0.209 C 
BRANCH   6   7
ATOM      7  C   UNL     1      -2.190   1.919  37.306  1.00  0.00     0.258 C 
ATOM      8  O   UNL     1      -2.841   2.511  36.458  1.00  0.00    -0.300 OA
ENDBRANCH   6   7
BRANCH   6   9
ATOM      9  O   UNL     1      -1.522  -0.029  36.129  1.00  0.00    -0.383 OA
ATOM     10  H   UNL     1      -2.484  -0.136  36.351  1.00  0.00     0.211 HD
ENDBRANCH   6   9
ENDBRANCH   5   6
BRANCH   5  11
ATOM     11  O   UNL     1       0.048   3.169  36.446  1.00  0.00    -0.387 OA
ATOM     12  H   UNL     1      -0.857   3.483  36.188  1.00  0.00     0.211 HD
ENDBRANCH   5  11
ENDBRANCH   1   5
BRANCH   1  13
ATOM     13  O   UNL     1       1.444   1.101  34.277  1.00  0.00    -0.388 OA
ATOM     14  H   UNL     1       2.024   1.897  34.158  1.00  0.00     0.211 HD
ENDBRANCH   1  13
TORSDOF 8
ENDMDL
MODEL 6
REMARK VINA RESULT:    -2.994      1.422      3.834
REMARK INTER + INTRA:          -4.700
REMARK INTER:                  -3.925
REMARK INTRA:                  -0.775
REMARK UNBOUND:                -0.655
REMARK SMILES O=C[C@@H](O)[C@H](O)[C@H](O)CO
REMARK SMILES IDX 7 1 9 2 10 3 5 5 3 6 2 7 1 8 4 9 6 11 8 13
REMARK H PARENT 10 4 4 10 6 12 8 14
REMARK Flexibility Score: inf
ROOT
ATOM      1  C   UNL     1       0.924   2.849  35.582  1.00  0.00     0.171 C 
ENDROOT
BRANCH   1   2
ATOM      2  C   UNL     1       1.531   2.510  34.203  1.00  0.00     0.190 C 
BRANCH   2   3
ATOM      3  O   UNL     1       1.562   1.123  34.014  1.00  0.00    -0.394 OA
ATOM      4  H   UNL     1       0.679   0.783  34.315  1.00  0.00     0.210 HD
ENDBRANCH   2   3
ENDBRANCH   1   2
BRANCH   1   5
ATOM      5  C   UNL     1      -0.631   2.846  35.624  1.00  0.00     0.181 C 
BRANCH   5   6
ATOM      6  C   UNL     1      -1.261   2.049  36.804  1.00  0.00     0.209 C 
BRANCH   6   7
ATOM      7  C   UNL     1      -1.412   0.579  36.518  1.00  0.00     0.258 C 
ATOM      8  O   UNL     1      -0.549  -0.029  35.904  1.00  0.00    -0.300 OA
ENDBRANCH   6   7
BRANCH   6   9
ATOM      9  O   UNL     1      -0.507   2.217  37.976  1.00  0.00    -0.383 OA
ATOM     10  H   UNL     1      -0.065   1.348  38.160  1.00  0.00     0.211 HD
ENDBRANCH   6   9
ENDBRANCH   5   6
BRANCH   5  11
ATOM     11  O   UNL     1      -1.149   2.411  34.391  1.00  0.00    -0.387 OA
ATOM     12  H   UNL     1      -2.018   1.972  34.582  1.00  0.00     0.211 HD
ENDBRANCH   5  11
ENDBRANCH   1   5
BRANCH   1  13
ATOM     13  O   UNL     1       1.404   4.097  36.021  1.00  0.00    -0.388 OA
ATOM     14  H   UNL     1       1.863   4.531  35.255  1.00  0.00     0.211 HD
ENDBRANCH   1  13
TORSDOF 8
ENDMDL
MODEL 7
REMARK VINA RESULT:    -2.993      0.921      2.075
REMARK INTER + INTRA:          -4.698
REMARK INTER:                  -4.535
REMARK INTRA:                  -0.163
REMARK UNBOUND:                -0.655
REMARK SMILES O=C[C@@H](O)[C@H](O)[C@H](O)CO
REMARK SMILES IDX 7 1 9 2 10 3 5 5 3 6 2 7 1 8 4 9 6 11 8 13
REMARK H PARENT 10 4 4 10 6 12 8 14
REMARK Flexibility Score: inf
ROOT
ATOM      1  C   UNL     1      -1.455   1.545  35.627  1.00  0.00     0.171 C 
ENDROOT
BRANCH   1   2
ATOM      2  C   UNL     1      -2.114   2.026  34.316  1.00  0.00     0.190 C 
BRANCH   2   3
ATOM      3  O   UNL     1      -2.411   3.392  34.395  1.00  0.00    -0.394 OA
ATOM      4  H   UNL     1      -3.074   3.489  35.127  1.00  0.00     0.210 HD
ENDBRANCH   2   3
ENDBRANCH   1   2
BRANCH   1   5
ATOM      5  C   UNL     1       0.066   1.238  35.512  1.00  0.00     0.181 C 
BRANCH   5   6
ATOM      6  C   UNL     1       0.790   1.911  34.310  1.00  0.00     0.209 C 
BRANCH   6   7
ATOM      7  C   UNL     1       1.266   3.308  34.604  1.00  0.00     0.258 C 
ATOM      8  O   UNL     1       1.410   3.687  35.757  1.00  0.00    -0.300 OA
ENDBRANCH   6   7
BRANCH   6   9
ATOM      9  O   UNL     1       1.877   1.132  33.884  1.00  0.00    -0.383 OA
ATOM     10  H   UNL     1       2.516   1.092  34.643  1.00  0.00     0.211 HD
ENDBRANCH   6   9
ENDBRANCH   5   6
BRANCH   5  11
ATOM     11  O   UNL     1       0.282  -0.152  35.514  1.00  0.00    -0.387 OA
ATOM     12  H   UNL     1       1.173  -0.306  35.924  1.00  0.00     0.211 HD
ENDBRANCH   5  11
ENDBRANCH   1   5
BRANCH   1  13
ATOM     13  O   UNL     1      -2.128   0.409  36.112  1.00  0.00    -0.388 OA
ATOM     14  H   UNL     1      -2.862   0.722  36.703  1.00  0.00     0.211 HD
ENDBRANCH   1  13
TORSDOF 8
ENDMDL
MODEL 8
REMARK VINA RESULT:    -2.955      1.450      3.710
REMARK INTER + INTRA:          -4.647
REMARK INTER:                  -3.677
REMARK INTRA:                  -0.969
REMARK UNBOUND:                -0.655
REMARK SMILES O=C[C@@H](O)[C@H](O)[C@H](O)CO
REMARK SMILES IDX 7 1 9 2 10 3 5 5 3 6 2 7 1 8 4 9 6 11 8 13
REMARK H PARENT 10 4 4 10 6 12 8 14
REMARK Flexibility Score: inf
ROOT
ATOM      1  C   UNL     1       0.504   3.008  34.756  1.00  0.00     0.171 C 
ENDROOT
BRANCH   1   2
ATOM      2  C   UNL     1       1.266   3.349  36.055  1.00  0.00     0.190 C 
BRANCH   2   3
ATOM      3  O   UNL     1       0.442   3.148  37.169  1.00  0.00    -0.394 OA
ATOM      4  H   UNL     1       0.943   2.547  37.779  1.00  0.00     0.210 HD
ENDBRANCH   2   3
ENDBRANCH   1   2
BRANCH   1   5
ATOM      5  C   UNL     1      -0.058   1.559  34.696  1.00  0.00     0.181 C 
BRANCH   5   6
ATOM      6  C   UNL     1      -1.536   1.401  35.158  1.00  0.00     0.209 C 
BRANCH   6   7
ATOM      7  C   UNL     1      -1.703   0.455  36.317  1.00  0.00     0.258 C 
ATOM      8  O   UNL     1      -1.291   0.752  37.428  1.00  0.00    -0.300 OA
ENDBRANCH   6   7
BRANCH   6   9
ATOM      9  O   UNL     1      -2.088   2.647  35.495  1.00  0.00    -0.383 OA
ATOM     10  H   UNL     1      -2.843   2.805  34.871  1.00  0.00     0.211 HD
ENDBRANCH   6   9
ENDBRANCH   5   6
BRANCH   5  11
ATOM     11  O   UNL     1       0.785   0.682  35.402  1.00  0.00    -0.387 OA
ATOM     12  H   UNL     1       1.708   1.035  35.316  1.00  0.00     0.211 HD
ENDBRANCH   5  11
ENDBRANCH   1   5
BRANCH   1  13
ATOM     13  O   UNL     1       1.331   3.238  33.642  1.00  0.00    -0.388 OA
ATOM     14  H   UNL     1       2.255   3.381  33.976  1.00  0.00     0.211 HD
ENDBRANCH   1  13
TORSDOF 8
ENDMDL
MODEL 9
REMARK VINA RESULT:    -2.938      4.994      5.915
REMARK INTER + INTRA:          -4.624
REMARK INTER:                  -3.801
REMARK INTRA:                  -0.823
REMARK UNBOUND:                -0.655
REMARK SMILES O=C[C@@H](O)[C@H](O)[C@H](O)CO
REMARK SMILES IDX 7 1 9 2 10 3 5 5 3 6 2 7 1 8 4 9 6 11 8 13
REMARK H PARENT 10 4 4 10 6 12 8 14
REMARK Flexibility Score: inf
ROOT
ATOM      1  C   UNL     1       2.785   4.819  39.730  1.00  0.00     0.171 C 
ENDROOT
BRANCH   1   2
ATOM      2  C   UNL     1       1.629   4.026  40.376  1.00  0.00     0.190 C 
BRANCH   2   3
ATOM      3  O   UNL     1       0.407   4.664  40.132  1.00  0.00    -0.394 OA
ATOM      4  H   UNL     1      -0.165   4.478  40.922  1.00  0.00     0.210 HD
ENDBRANCH   2   3
ENDBRANCH   1   2
BRANCH   1   5
ATOM      5  C   UNL     1       2.868   4.698  38.181  1.00  0.00     0.181 C 
BRANCH   5   6
ATOM      6  C   UNL     1       2.859   6.050  37.409  1.00  0.00     0.209 C 
BRANCH   6   7
ATOM      7  C   UNL     1       1.763   6.983  37.849  1.00  0.00     0.258 C 
ATOM      8  O   UNL     1       0.599   6.611  37.869  1.00  0.00    -0.300 OA
ENDBRANCH   6   7
BRANCH   6   9
ATOM      9  O   UNL     1       4.097   6.701  37.531  1.00  0.00    -0.383 OA
ATOM     10  H   UNL     1       4.108   7.425  36.852  1.00  0.00     0.211 HD
ENDBRANCH   6   9
ENDBRANCH   5   6
BRANCH   5  11
ATOM     11  O   UNL     1       1.858   3.842  37.706  1.00  0.00    -0.387 OA
ATOM     12  H   UNL     1       1.140   4.419  37.337  1.00  0.00     0.211 HD
ENDBRANCH   5  11
ENDBRANCH   1   5
BRANCH   1  13
ATOM     13  O   UNL     1       4.011   4.425  40.298  1.00  0.00    -0.388 OA
ATOM     14  H   UNL     1       4.668   5.150  40.130  1.00  0.00     0.211 HD
ENDBRANCH   1  13
TORSDOF 8
ENDMDL
