MODEL 1
REMARK VINA RESULT:    -3.763      0.000      0.000
REMARK INTER + INTRA:          -4.538
REMARK INTER:                  -4.533
REMARK INTRA:                  -0.005
REMARK UNBOUND:                -0.005
REMARK SMILES OCC(O)CO
REMARK SMILES IDX 3 1 5 2 6 3 2 5 1 6 4 8
REMARK H PARENT 6 4 1 7 4 9
REMARK Flexibility Score: inf
ROOT
ATOM      1  C   UNL     1      10.040  40.980  12.988  1.00  0.00     0.165 C 
ENDROOT
BRANCH   1   2
ATOM      2  C   UNL     1      10.939  42.068  13.605  1.00  0.00     0.190 C 
BRANCH   2   3
ATOM      3  O   UNL     1      10.991  43.192  12.767  1.00  0.00    -0.394 OA
ATOM      4  H   UNL     1      11.897  43.583  12.874  1.00  0.00     0.210 HD
ENDBRANCH   2   3
ENDBRANCH   1   2
BRANCH   1   5
ATOM      5  C   UNL     1      10.211  39.624  13.693  1.00  0.00     0.190 C 
BRANCH   5   6
ATOM      6  O   UNL     1      11.536  39.169  13.612  1.00  0.00    -0.394 OA
ATOM      7  H   UNL     1      12.103  39.964  13.432  1.00  0.00     0.210 HD
ENDBRANCH   5   6
ENDBRANCH   1   5
BRANCH   1   8
ATOM      8  O   UNL     1       8.690  41.376  12.984  1.00  0.00    -0.388 OA
ATOM      9  H   UNL     1       8.657  42.348  13.177  1.00  0.00     0.211 HD
ENDBRANCH   1   8
TORSDOF 5
ENDMDL
MODEL 2
REMARK VINA RESULT:    -3.691      0.766      2.953
REMARK INTER + INTRA:          -4.452
REMARK INTER:                  -4.241
REMARK INTRA:                  -0.211
REMARK UNBOUND:                -0.005
REMARK SMILES OCC(O)CO
REMARK SMILES IDX 3 1 5 2 6 3 2 5 1 6 4 8
REMARK H PARENT 6 4 1 7 4 9
REMARK Flexibility Score: inf
ROOT
ATOM      1  C   UNL     1      10.735  40.957  13.242  1.00  0.00     0.165 C 
ENDROOT
BRANCH   1   2
ATOM      2  C   UNL     1       9.250  40.658  13.522  1.00  0.00     0.190 C 
BRANCH   2   3
ATOM      3  O   UNL     1       8.429  41.549  12.814  1.00  0.00    -0.394 OA
ATOM      4  H   UNL     1       9.033  42.122  12.274  1.00  0.00     0.210 HD
ENDBRANCH   2   3
ENDBRANCH   1   2
BRANCH   1   5
ATOM      5  C   UNL     1      11.149  42.346  13.754  1.00  0.00     0.190 C 
BRANCH   5   6
ATOM      6  O   UNL     1      10.908  43.339  12.793  1.00  0.00    -0.394 OA
ATOM      7  H   UNL     1      11.794  43.640  12.459  1.00  0.00     0.210 HD
ENDBRANCH   5   6
ENDBRANCH   1   5
BRANCH   1   8
ATOM      8  O   UNL     1      11.566  39.957  13.777  1.00  0.00    -0.388 OA
ATOM      9  H   UNL     1      12.020  40.333  14.574  1.00  0.00     0.211 HD
ENDBRANCH   1   8
TORSDOF 5
ENDMDL
MODEL 3
REMARK VINA RESULT:    -3.637      0.694      2.277
REMARK INTER + INTRA:          -4.387
REMARK INTER:                  -4.206
REMARK INTRA:                  -0.181
REMARK UNBOUND:                -0.005
REMARK SMILES OCC(O)CO
REMARK SMILES IDX 3 1 5 2 6 3 2 5 1 6 4 8
REMARK H PARENT 6 4 1 7 4 9
REMARK Flexibility Score: inf
ROOT
ATOM      1  C   UNL     1      10.451  40.363  13.834  1.00  0.00     0.165 C 
ENDROOT
BRANCH   1   2
ATOM      2  C   UNL     1      11.161  41.729  13.780  1.00  0.00     0.190 C 
BRANCH   2   3
ATOM      3  O   UNL     1      10.953  42.340  12.535  1.00  0.00    -0.394 OA
ATOM      4  H   UNL     1      10.892  43.316  12.704  1.00  0.00     0.210 HD
ENDBRANCH   2   3
ENDBRANCH   1   2
BRANCH   1   5
ATOM      5  C   UNL     1       9.203  40.327  12.937  1.00  0.00     0.190 C 
BRANCH   5   6
ATOM      6  O   UNL     1       8.442  41.499  13.072  1.00  0.00    -0.394 OA
ATOM      7  H   UNL     1       9.017  42.252  12.774  1.00  0.00     0.210 HD
ENDBRANCH   5   6
ENDBRANCH   1   5
BRANCH   1   8
ATOM      8  O   UNL     1      11.333  39.317  13.508  1.00  0.00    -0.388 OA
ATOM      9  H   UNL     1      10.822  38.467  13.540  1.00  0.00     0.211 HD
ENDBRANCH   1   8
TORSDOF 5
ENDMDL
MODEL 4
REMARK VINA RESULT:    -3.633      0.482      2.720
REMARK INTER + INTRA:          -4.382
REMARK INTER:                  -4.353
REMARK INTRA:                  -0.029
REMARK UNBOUND:                -0.005
REMARK SMILES OCC(O)CO
REMARK SMILES IDX 3 1 5 2 6 3 2 5 1 6 4 8
REMARK H PARENT 6 4 1 7 4 9
REMARK Flexibility Score: inf
ROOT
ATOM      1  C   UNL     1       9.706  40.877  13.741  1.00  0.00     0.165 C 
ENDROOT
BRANCH   1   2
ATOM      2  C   UNL     1      10.070  39.381  13.774  1.00  0.00     0.190 C 
BRANCH   2   3
ATOM      3  O   UNL     1      11.454  39.211  13.623  1.00  0.00    -0.394 OA
ATOM      4  H   UNL     1      11.710  38.446  14.202  1.00  0.00     0.210 HD
ENDBRANCH   2   3
ENDBRANCH   1   2
BRANCH   1   5
ATOM      5  C   UNL     1      10.953  41.771  13.638  1.00  0.00     0.190 C 
BRANCH   5   6
ATOM      6  O   UNL     1      10.874  42.634  12.534  1.00  0.00    -0.394 OA
ATOM      7  H   UNL     1      10.215  43.339  12.766  1.00  0.00     0.210 HD
ENDBRANCH   5   6
ENDBRANCH   1   5
BRANCH   1   8
ATOM      8  O   UNL     1       8.800  41.159  12.702  1.00  0.00    -0.388 OA
ATOM      9  H   UNL     1       9.307  41.590  11.966  1.00  0.00     0.211 HD
ENDBRANCH   1   8
TORSDOF 5
ENDMDL
MODEL 5
REMARK VINA RESULT:    -3.535      0.979      2.806
REMARK INTER + INTRA:          -4.263
REMARK INTER:                  -4.259
REMARK INTRA:                  -0.005
REMARK UNBOUND:                -0.005
REMARK SMILES OCC(O)CO
REMARK SMILES IDX 3 1 5 2 6 3 2 5 1 6 4 8
REMARK H PARENT 6 4 1 7 4 9
REMARK Flexibility Score: inf
ROOT
ATOM      1  C   UNL     1      10.348  41.022  12.999  1.00  0.00     0.165 C 
ENDROOT
BRANCH   1   2
ATOM      2  C   UNL     1      11.222  40.363  14.083  1.00  0.00     0.190 C 
BRANCH   2   3
ATOM      3  O   UNL     1      11.625  39.083  13.675  1.00  0.00    -0.394 OA
ATOM      4  H   UNL     1      10.847  38.675  13.212  1.00  0.00     0.210 HD
ENDBRANCH   2   3
ENDBRANCH   1   2
BRANCH   1   5
ATOM      5  C   UNL     1       8.862  41.046  13.395  1.00  0.00     0.190 C 
BRANCH   5   6
ATOM      6  O   UNL     1       8.037  40.742  12.301  1.00  0.00    -0.394 OA
ATOM      7  H   UNL     1       7.103  40.927  12.584  1.00  0.00     0.210 HD
ENDBRANCH   5   6
ENDBRANCH   1   5
BRANCH   1   8
ATOM      8  O   UNL     1      10.805  42.316  12.692  1.00  0.00    -0.388 OA
ATOM      9  H   UNL     1      10.011  42.900  12.578  1.00  0.00     0.211 HD
ENDBRANCH   1   8
TORSDOF 5
ENDMDL
MODEL 6
REMARK VINA RESULT:    -3.490      1.047      2.064
REMARK INTER + INTRA:          -4.210
REMARK INTER:                  -3.996
REMARK INTRA:                  -0.214
REMARK UNBOUND:                -0.005
REMARK SMILES OCC(O)CO
REMARK SMILES IDX 3 1 5 2 6 3 2 5 1 6 4 8
REMARK H PARENT 6 4 1 7 4 9
REMARK Flexibility Score: inf
ROOT
ATOM      1  C   UNL     1      10.408  41.580  13.702  1.00  0.00     0.165 C 
ENDROOT
BRANCH   1   2
ATOM      2  C   UNL     1       8.933  41.138  13.669  1.00  0.00     0.190 C 
BRANCH   2   3
ATOM      3  O   UNL     1       8.562  40.767  12.368  1.00  0.00    -0.394 OA
ATOM      4  H   UNL     1       7.985  39.964  12.456  1.00  0.00     0.210 HD
ENDBRANCH   2   3
ENDBRANCH   1   2
BRANCH   1   5
ATOM      5  C   UNL     1      11.349  40.418  14.062  1.00  0.00     0.190 C 
BRANCH   5   6
ATOM      6  O   UNL     1      10.996  39.244  13.380  1.00  0.00    -0.394 OA
ATOM      7  H   UNL     1      11.463  39.268  12.504  1.00  0.00     0.210 HD
ENDBRANCH   5   6
ENDBRANCH   1   5
BRANCH   1   8
ATOM      8  O   UNL     1      10.790  42.176  12.487  1.00  0.00    -0.388 OA
ATOM      9  H   UNL     1      11.757  42.000  12.352  1.00  0.00     0.211 HD
ENDBRANCH   1   8
TORSDOF 5
ENDMDL
MODEL 7
REMARK VINA RESULT:    -3.259     10.802     12.009
REMARK INTER + INTRA:          -3.931
REMARK INTER:                  -3.708
REMARK INTRA:                  -0.224
REMARK UNBOUND:                -0.005
REMARK SMILES OCC(O)CO
REMARK SMILES IDX 3 1 5 2 6 3 2 5 1 6 4 8
REMARK H PARENT 6 4 1 7 4 9
REMARK Flexibility Score: inf
ROOT
ATOM      1  C   UNL     1      16.887  30.608  14.559  1.00  0.00     0.165 C 
ENDROOT
BRANCH   1   2
ATOM      2  C   UNL     1      15.761  31.657  14.637  1.00  0.00     0.190 C 
BRANCH   2   3
ATOM      3  O   UNL     1      16.074  32.641  15.585  1.00  0.00    -0.394 OA
ATOM      4  H   UNL     1      16.167  32.175  16.457  1.00  0.00     0.210 HD
ENDBRANCH   2   3
ENDBRANCH   1   2
BRANCH   1   5
ATOM      5  C   UNL     1      17.991  31.020  13.572  1.00  0.00     0.190 C 
BRANCH   5   6
ATOM      6  O   UNL     1      18.178  32.411  13.565  1.00  0.00    -0.394 OA
ATOM      7  H   UNL     1      17.608  32.782  14.289  1.00  0.00     0.210 HD
ENDBRANCH   5   6
ENDBRANCH   1   5
BRANCH   1   8
ATOM      8  O   UNL     1      17.426  30.343  15.831  1.00  0.00    -0.388 OA
ATOM      9  H   UNL     1      18.146  31.004  16.001  1.00  0.00     0.211 HD
ENDBRANCH   1   8
TORSDOF 5
ENDMDL
MODEL 8
REMARK VINA RESULT:    -3.218     10.802     11.856
REMARK INTER + INTRA:          -3.882
REMARK INTER:                  -3.659
REMARK INTRA:                  -0.223
REMARK UNBOUND:                -0.005
REMARK SMILES OCC(O)CO
REMARK SMILES IDX 3 1 5 2 6 3 2 5 1 6 4 8
REMARK H PARENT 6 4 1 7 4 9
REMARK Flexibility Score: inf
ROOT
ATOM      1  C   UNL     1      16.265  31.830  14.470  1.00  0.00     0.165 C 
ENDROOT
BRANCH   1   2
ATOM      2  C   UNL     1      17.355  30.757  14.651  1.00  0.00     0.190 C 
BRANCH   2   3
ATOM      3  O   UNL     1      17.305  30.221  15.946  1.00  0.00    -0.394 OA
ATOM      4  H   UNL     1      17.059  29.265  15.848  1.00  0.00     0.210 HD
ENDBRANCH   2   3
ENDBRANCH   1   2
BRANCH   1   5
ATOM      5  C   UNL     1      14.909  31.214  14.088  1.00  0.00     0.190 C 
BRANCH   5   6
ATOM      6  O   UNL     1      14.845  29.858  14.440  1.00  0.00    -0.394 OA
ATOM      7  H   UNL     1      14.714  29.820  15.424  1.00  0.00     0.210 HD
ENDBRANCH   5   6
ENDBRANCH   1   5
BRANCH   1   8
ATOM      8  O   UNL     1      16.145  32.634  15.618  1.00  0.00    -0.388 OA
ATOM      9  H   UNL     1      15.971  33.564  15.321  1.00  0.00     0.211 HD
ENDBRANCH   1   8
TORSDOF 5
ENDMDL
MODEL 9
REMARK VINA RESULT:    -3.197     10.444     11.754
REMARK INTER + INTRA:          -3.856
REMARK INTER:                  -3.640
REMARK INTRA:                  -0.216
REMARK UNBOUND:                -0.005
REMARK SMILES OCC(O)CO
REMARK SMILES IDX 3 1 5 2 6 3 2 5 1 6 4 8
REMARK H PARENT 6 4 1 7 4 9
REMARK Flexibility Score: inf
ROOT
ATOM      1  C   UNL     1      15.930  30.855  14.091  1.00  0.00     0.165 C 
ENDROOT
BRANCH   1   2
ATOM      2  C   UNL     1      15.415  32.248  14.502  1.00  0.00     0.190 C 
BRANCH   2   3
ATOM      3  O   UNL     1      16.134  32.730  15.605  1.00  0.00    -0.394 OA
ATOM      4  H   UNL     1      15.926  32.126  16.365  1.00  0.00     0.210 HD
ENDBRANCH   2   3
ENDBRANCH   1   2
BRANCH   1   5
ATOM      5  C   UNL     1      17.358  30.597  14.600  1.00  0.00     0.190 C 
BRANCH   5   6
ATOM      6  O   UNL     1      17.357  30.193  15.943  1.00  0.00    -0.394 OA
ATOM      7  H   UNL     1      16.600  29.559  16.054  1.00  0.00     0.210 HD
ENDBRANCH   5   6
ENDBRANCH   1   5
BRANCH   1   8
ATOM      8  O   UNL     1      15.054  29.841  14.520  1.00  0.00    -0.388 OA
ATOM      9  H   UNL     1      15.156  29.071  13.903  1.00  0.00     0.211 HD
ENDBRANCH   1   8
TORSDOF 5
ENDMDL
