MODEL 1
REMARK VINA RESULT:    -6.845      0.000      0.000
REMARK INTER + INTRA:          -8.581
REMARK INTER:                  -8.246
REMARK INTRA:                  -0.335
REMARK UNBOUND:                -0.335
REMARK SMILES O=c1c(O)c(-c2ccc(O)c(O)c2)oc2cc(O)cc(O)c12
REMARK SMILES IDX 5 1 3 2 2 3 1 4 22 5 20 6 19 7 17 8 16 9 15 10 14 11 6 12
REMARK SMILES IDX 7 13 8 14 9 15 13 16 11 17 10 18 12 20 4 22 21 24 18 26
REMARK H PARENT 10 19 12 21 4 23 21 25 18 27
REMARK Flexibility Score: inf
ROOT
ATOM      1  C   UNL     1      -7.162  66.757  29.731  1.00  0.00     0.180 A 
ATOM      2  C   UNL     1      -7.436  67.595  30.825  1.00  0.00     0.208 A 
ATOM      3  C   UNL     1      -8.770  67.802  31.209  1.00  0.00     0.238 A 
ATOM      4  O   UNL     1      -9.006  68.510  32.222  1.00  0.00    -0.285 OA
ATOM      5  C   UNL     1      -9.816  67.181  30.482  1.00  0.00     0.111 A 
ATOM      6  C   UNL     1     -11.206  67.352  30.757  1.00  0.00     0.134 A 
ATOM      7  C   UNL     1     -12.147  66.587  30.057  1.00  0.00     0.093 A 
ATOM      8  C   UNL     1     -11.752  65.705  29.049  1.00  0.00     0.123 A 
ATOM      9  C   UNL     1     -10.401  65.576  28.733  1.00  0.00     0.094 A 
ATOM     10  C   UNL     1      -9.436  66.298  29.438  1.00  0.00     0.146 A 
ATOM     11  O   UNL     1      -8.160  66.138  29.112  1.00  0.00    -0.452 OA
ENDROOT
BRANCH   1  12
ATOM     12  C   UNL     1      -5.782  66.512  29.253  1.00  0.00     0.025 A 
ATOM     13  C   UNL     1      -5.074  65.399  29.730  1.00  0.00     0.016 A 
ATOM     14  C   UNL     1      -3.780  65.138  29.278  1.00  0.00     0.051 A 
ATOM     15  C   UNL     1      -3.173  65.970  28.331  1.00  0.00     0.157 A 
ATOM     16  C   UNL     1      -5.185  67.336  28.285  1.00  0.00     0.062 A 
ATOM     17  C   UNL     1      -3.887  67.080  27.822  1.00  0.00     0.158 A 
BRANCH  15  18
ATOM     18  O   UNL     1      -1.874  65.657  27.926  1.00  0.00    -0.504 OA
ATOM     19  H   UNL     1      -1.117  65.457  28.563  1.00  0.00     0.293 HD
ENDBRANCH  15  18
BRANCH  17  20
ATOM     20  O   UNL     1      -3.356  67.942  26.861  1.00  0.00    -0.504 OA
ATOM     21  H   UNL     1      -3.259  68.939  26.987  1.00  0.00     0.293 HD
ENDBRANCH  17  20
ENDBRANCH   1  12
BRANCH   2  22
ATOM     22  O   UNL     1      -6.388  68.181  31.542  1.00  0.00    -0.502 OA
ATOM     23  H   UNL     1      -6.131  67.879  32.474  1.00  0.00     0.293 HD
ENDBRANCH   2  22
BRANCH   6  24
ATOM     24  O   UNL     1     -11.712  68.272  31.680  1.00  0.00    -0.507 OA
ATOM     25  H   UNL     1     -11.316  69.183  31.860  1.00  0.00     0.293 HD
ENDBRANCH   6  24
BRANCH   8  26
ATOM     26  O   UNL     1     -12.696  64.959  28.347  1.00  0.00    -0.508 OA
ATOM     27  H   UNL     1     -12.506  64.600  27.419  1.00  0.00     0.293 HD
ENDBRANCH   8  26
TORSDOF 6
ENDMDL
MODEL 2
REMARK VINA RESULT:    -6.810      1.515      7.028
REMARK INTER + INTRA:          -8.538
REMARK INTER:                  -8.215
REMARK INTRA:                  -0.322
REMARK UNBOUND:                -0.335
REMARK SMILES O=c1c(O)c(-c2ccc(O)c(O)c2)oc2cc(O)cc(O)c12
REMARK SMILES IDX 5 1 3 2 2 3 1 4 22 5 20 6 19 7 17 8 16 9 15 10 14 11 6 12
REMARK SMILES IDX 7 13 8 14 9 15 13 16 11 17 10 18 12 20 4 22 21 24 18 26
REMARK H PARENT 10 19 12 21 4 23 21 25 18 27
REMARK Flexibility Score: inf
ROOT
ATOM      1  C   UNL     1      -7.626  66.944  29.032  1.00  0.00     0.180 A 
ATOM      2  C   UNL     1      -6.801  65.995  29.658  1.00  0.00     0.208 A 
ATOM      3  C   UNL     1      -5.447  65.924  29.295  1.00  0.00     0.238 A 
ATOM      4  O   UNL     1      -4.701  65.109  29.898  1.00  0.00    -0.285 OA
ATOM      5  C   UNL     1      -4.939  66.791  28.298  1.00  0.00     0.111 A 
ATOM      6  C   UNL     1      -3.592  66.779  27.823  1.00  0.00     0.134 A 
ATOM      7  C   UNL     1      -3.167  67.769  26.929  1.00  0.00     0.093 A 
ATOM      8  C   UNL     1      -4.056  68.731  26.443  1.00  0.00     0.123 A 
ATOM      9  C   UNL     1      -5.386  68.714  26.855  1.00  0.00     0.094 A 
ATOM     10  C   UNL     1      -5.832  67.762  27.774  1.00  0.00     0.146 A 
ATOM     11  O   UNL     1      -7.105  67.787  28.149  1.00  0.00    -0.452 OA
ENDROOT
BRANCH   1  12
ATOM     12  C   UNL     1      -9.069  67.062  29.344  1.00  0.00     0.025 A 
ATOM     13  C   UNL     1      -9.997  66.299  28.621  1.00  0.00     0.016 A 
ATOM     14  C   UNL     1     -11.359  66.380  28.912  1.00  0.00     0.051 A 
ATOM     15  C   UNL     1     -11.822  67.210  29.940  1.00  0.00     0.157 A 
ATOM     16  C   UNL     1      -9.527  67.879  30.392  1.00  0.00     0.062 A 
ATOM     17  C   UNL     1     -10.892  67.964  30.694  1.00  0.00     0.158 A 
BRANCH  15  18
ATOM     18  O   UNL     1     -13.197  67.250  30.176  1.00  0.00    -0.504 OA
ATOM     19  H   UNL     1     -13.693  68.076  30.479  1.00  0.00     0.293 HD
ENDBRANCH  15  18
BRANCH  17  20
ATOM     20  O   UNL     1     -11.276  68.798  31.747  1.00  0.00    -0.504 OA
ATOM     21  H   UNL     1     -10.727  68.945  32.581  1.00  0.00     0.293 HD
ENDBRANCH  17  20
ENDBRANCH   1  12
BRANCH   2  22
ATOM     22  O   UNL     1      -7.319  65.163  30.655  1.00  0.00    -0.502 OA
ATOM     23  H   UNL     1      -8.139  65.409  31.197  1.00  0.00     0.293 HD
ENDBRANCH   2  22
BRANCH   6  24
ATOM     24  O   UNL     1      -2.650  65.809  28.174  1.00  0.00    -0.507 OA
ATOM     25  H   UNL     1      -2.859  64.834  28.333  1.00  0.00     0.293 HD
ENDBRANCH   6  24
BRANCH   8  26
ATOM     26  O   UNL     1      -3.628  69.703  25.541  1.00  0.00    -0.508 OA
ATOM     27  H   UNL     1      -3.888  69.670  24.562  1.00  0.00     0.293 HD
ENDBRANCH   8  26
TORSDOF 6
ENDMDL
MODEL 3
REMARK VINA RESULT:    -6.683      3.127      4.121
REMARK INTER + INTRA:          -8.385
REMARK INTER:                  -8.065
REMARK INTRA:                  -0.320
REMARK UNBOUND:                -0.335
REMARK SMILES O=c1c(O)c(-c2ccc(O)c(O)c2)oc2cc(O)cc(O)c12
REMARK SMILES IDX 5 1 3 2 2 3 1 4 22 5 20 6 19 7 17 8 16 9 15 10 14 11 6 12
REMARK SMILES IDX 7 13 8 14 9 15 13 16 11 17 10 18 12 20 4 22 21 24 18 26
REMARK H PARENT 10 19 12 21 4 23 21 25 18 27
REMARK Flexibility Score: inf
ROOT
ATOM      1  C   UNL     1      -8.520  67.622  31.098  1.00  0.00     0.180 A 
ATOM      2  C   UNL     1      -8.722  68.882  30.511  1.00  0.00     0.208 A 
ATOM      3  C   UNL     1      -9.748  69.037  29.566  1.00  0.00     0.238 A 
ATOM      4  O   UNL     1      -9.959  70.180  29.083  1.00  0.00    -0.285 OA
ATOM      5  C   UNL     1     -10.549  67.925  29.207  1.00  0.00     0.111 A 
ATOM      6  C   UNL     1     -11.590  67.957  28.231  1.00  0.00     0.134 A 
ATOM      7  C   UNL     1     -12.403  66.832  28.051  1.00  0.00     0.093 A 
ATOM      8  C   UNL     1     -12.171  65.654  28.766  1.00  0.00     0.123 A 
ATOM      9  C   UNL     1     -11.120  65.595  29.678  1.00  0.00     0.094 A 
ATOM     10  C   UNL     1     -10.314  66.712  29.905  1.00  0.00     0.146 A 
ATOM     11  O   UNL     1      -9.329  66.616  30.790  1.00  0.00    -0.452 OA
ENDROOT
BRANCH   1  12
ATOM     12  C   UNL     1      -7.442  67.376  32.084  1.00  0.00     0.025 A 
ATOM     13  C   UNL     1      -6.154  67.056  31.633  1.00  0.00     0.016 A 
ATOM     14  C   UNL     1      -5.119  66.840  32.543  1.00  0.00     0.051 A 
ATOM     15  C   UNL     1      -5.344  66.955  33.920  1.00  0.00     0.157 A 
ATOM     16  C   UNL     1      -7.667  67.515  33.464  1.00  0.00     0.062 A 
ATOM     17  C   UNL     1      -6.634  67.304  34.387  1.00  0.00     0.158 A 
BRANCH  15  18
ATOM     18  O   UNL     1      -4.268  66.719  34.778  1.00  0.00    -0.504 OA
ATOM     19  H   UNL     1      -3.893  67.408  35.415  1.00  0.00     0.293 HD
ENDBRANCH  15  18
BRANCH  17  20
ATOM     20  O   UNL     1      -6.929  67.457  35.742  1.00  0.00    -0.504 OA
ATOM     21  H   UNL     1      -6.327  67.929  36.402  1.00  0.00     0.293 HD
ENDBRANCH  17  20
ENDBRANCH   1  12
BRANCH   2  22
ATOM     22  O   UNL     1      -7.934  69.971  30.895  1.00  0.00    -0.502 OA
ATOM     23  H   UNL     1      -7.946  70.346  31.836  1.00  0.00     0.293 HD
ENDBRANCH   2  22
BRANCH   6  24
ATOM     24  O   UNL     1     -11.847  69.051  27.400  1.00  0.00    -0.507 OA
ATOM     25  H   UNL     1     -11.208  69.817  27.243  1.00  0.00     0.293 HD
ENDBRANCH   6  24
BRANCH   8  26
ATOM     26  O   UNL     1     -12.976  64.534  28.570  1.00  0.00    -0.508 OA
ATOM     27  H   UNL     1     -13.965  64.620  28.370  1.00  0.00     0.293 HD
ENDBRANCH   8  26
TORSDOF 6
ENDMDL
MODEL 4
REMARK VINA RESULT:    -6.619      3.119      6.856
REMARK INTER + INTRA:          -8.308
REMARK INTER:                  -8.045
REMARK INTRA:                  -0.264
REMARK UNBOUND:                -0.335
REMARK SMILES O=c1c(O)c(-c2ccc(O)c(O)c2)oc2cc(O)cc(O)c12
REMARK SMILES IDX 5 1 3 2 2 3 1 4 22 5 20 6 19 7 17 8 16 9 15 10 14 11 6 12
REMARK SMILES IDX 7 13 8 14 9 15 13 16 11 17 10 18 12 20 4 22 21 24 18 26
REMARK H PARENT 10 19 12 21 4 23 21 25 18 27
REMARK Flexibility Score: inf
ROOT
ATOM      1  C   UNL     1      -8.489  67.279  30.985  1.00  0.00     0.180 A 
ATOM      2  C   UNL     1      -7.993  68.453  30.394  1.00  0.00     0.208 A 
ATOM      3  C   UNL     1      -6.820  69.031  30.905  1.00  0.00     0.238 A 
ATOM      4  O   UNL     1      -6.352  70.052  30.338  1.00  0.00    -0.285 OA
ATOM      5  C   UNL     1      -6.167  68.436  32.012  1.00  0.00     0.111 A 
ATOM      6  C   UNL     1      -4.995  68.958  32.638  1.00  0.00     0.134 A 
ATOM      7  C   UNL     1      -4.360  68.216  33.641  1.00  0.00     0.093 A 
ATOM      8  C   UNL     1      -4.890  67.003  34.086  1.00  0.00     0.123 A 
ATOM      9  C   UNL     1      -6.067  66.515  33.522  1.00  0.00     0.094 A 
ATOM     10  C   UNL     1      -6.704  67.214  32.494  1.00  0.00     0.146 A 
ATOM     11  O   UNL     1      -7.817  66.709  31.978  1.00  0.00    -0.452 OA
ENDROOT
BRANCH   1  12
ATOM     12  C   UNL     1      -9.733  66.626  30.516  1.00  0.00     0.025 A 
ATOM     13  C   UNL     1      -9.711  65.862  29.341  1.00  0.00     0.016 A 
ATOM     14  C   UNL     1     -10.867  65.222  28.891  1.00  0.00     0.051 A 
ATOM     15  C   UNL     1     -12.062  65.317  29.613  1.00  0.00     0.157 A 
ATOM     16  C   UNL     1     -10.925  66.705  31.256  1.00  0.00     0.062 A 
ATOM     17  C   UNL     1     -12.090  66.064  30.815  1.00  0.00     0.158 A 
BRANCH  15  18
ATOM     18  O   UNL     1     -13.184  64.660  29.106  1.00  0.00    -0.504 OA
ATOM     19  H   UNL     1     -13.739  65.002  28.335  1.00  0.00     0.293 HD
ENDBRANCH  15  18
BRANCH  17  20
ATOM     20  O   UNL     1     -13.239  66.187  31.599  1.00  0.00    -0.504 OA
ATOM     21  H   UNL     1     -14.162  66.358  31.226  1.00  0.00     0.293 HD
ENDBRANCH  17  20
ENDBRANCH   1  12
BRANCH   2  22
ATOM     22  O   UNL     1      -8.642  69.012  29.289  1.00  0.00    -0.502 OA
ATOM     23  H   UNL     1      -9.347  68.511  28.761  1.00  0.00     0.293 HD
ENDBRANCH   2  22
BRANCH   6  24
ATOM     24  O   UNL     1      -4.435  70.202  32.332  1.00  0.00    -0.507 OA
ATOM     25  H   UNL     1      -3.751  70.680  32.900  1.00  0.00     0.293 HD
ENDBRANCH   6  24
BRANCH   8  26
ATOM     26  O   UNL     1      -4.260  66.279  35.095  1.00  0.00    -0.508 OA
ATOM     27  H   UNL     1      -4.749  66.017  35.944  1.00  0.00     0.293 HD
ENDBRANCH   8  26
TORSDOF 6
ENDMDL
MODEL 5
REMARK VINA RESULT:    -6.568      1.597      7.080
REMARK INTER + INTRA:          -8.247
REMARK INTER:                  -7.929
REMARK INTRA:                  -0.318
REMARK UNBOUND:                -0.335
REMARK SMILES O=c1c(O)c(-c2ccc(O)c(O)c2)oc2cc(O)cc(O)c12
REMARK SMILES IDX 5 1 3 2 2 3 1 4 22 5 20 6 19 7 17 8 16 9 15 10 14 11 6 12
REMARK SMILES IDX 7 13 8 14 9 15 13 16 11 17 10 18 12 20 4 22 21 24 18 26
REMARK H PARENT 10 19 12 21 4 23 21 25 18 27
REMARK Flexibility Score: inf
ROOT
ATOM      1  C   UNL     1      -7.754  67.456  28.556  1.00  0.00     0.180 A 
ATOM      2  C   UNL     1      -7.514  68.404  27.547  1.00  0.00     0.208 A 
ATOM      3  C   UNL     1      -6.208  68.562  27.056  1.00  0.00     0.238 A 
ATOM      4  O   UNL     1      -6.008  69.374  26.116  1.00  0.00    -0.285 OA
ATOM      5  C   UNL     1      -5.156  67.780  27.593  1.00  0.00     0.111 A 
ATOM      6  C   UNL     1      -3.787  67.884  27.200  1.00  0.00     0.134 A 
ATOM      7  C   UNL     1      -2.853  66.971  27.703  1.00  0.00     0.093 A 
ATOM      8  C   UNL     1      -3.225  65.998  28.634  1.00  0.00     0.123 A 
ATOM      9  C   UNL     1      -4.547  65.928  29.069  1.00  0.00     0.094 A 
ATOM     10  C   UNL     1      -5.509  66.801  28.558  1.00  0.00     0.146 A 
ATOM     11  O   UNL     1      -6.759  66.693  28.991  1.00  0.00    -0.452 OA
ENDROOT
BRANCH   1  12
ATOM     12  C   UNL     1      -9.100  67.252  29.140  1.00  0.00     0.025 A 
ATOM     13  C   UNL     1      -9.876  66.162  28.720  1.00  0.00     0.016 A 
ATOM     14  C   UNL     1     -11.138  65.939  29.272  1.00  0.00     0.051 A 
ATOM     15  C   UNL     1     -11.645  66.788  30.263  1.00  0.00     0.157 A 
ATOM     16  C   UNL     1      -9.595  68.092  30.151  1.00  0.00     0.062 A 
ATOM     17  C   UNL     1     -10.860  67.875  30.713  1.00  0.00     0.158 A 
BRANCH  15  18
ATOM     18  O   UNL     1     -12.917  66.514  30.768  1.00  0.00    -0.504 OA
ATOM     19  H   UNL     1     -13.749  67.026  30.511  1.00  0.00     0.293 HD
ENDBRANCH  15  18
BRANCH  17  20
ATOM     20  O   UNL     1     -11.289  68.752  31.711  1.00  0.00    -0.504 OA
ATOM     21  H   UNL     1     -11.190  68.574  32.701  1.00  0.00     0.293 HD
ENDBRANCH  17  20
ENDBRANCH   1  12
BRANCH   2  22
ATOM     22  O   UNL     1      -8.571  69.150  27.017  1.00  0.00    -0.502 OA
ATOM     23  H   UNL     1      -9.328  69.503  27.590  1.00  0.00     0.293 HD
ENDBRANCH   2  22
BRANCH   6  24
ATOM     24  O   UNL     1      -3.294  68.875  26.347  1.00  0.00    -0.507 OA
ATOM     25  H   UNL     1      -2.513  68.757  25.718  1.00  0.00     0.293 HD
ENDBRANCH   6  24
BRANCH   8  26
ATOM     26  O   UNL     1      -2.286  65.104  29.141  1.00  0.00    -0.508 OA
ATOM     27  H   UNL     1      -1.592  64.669  28.545  1.00  0.00     0.293 HD
ENDBRANCH   8  26
TORSDOF 6
ENDMDL
MODEL 6
REMARK VINA RESULT:    -6.527      2.705      7.167
REMARK INTER + INTRA:          -8.197
REMARK INTER:                  -7.996
REMARK INTRA:                  -0.201
REMARK UNBOUND:                -0.335
REMARK SMILES O=c1c(O)c(-c2ccc(O)c(O)c2)oc2cc(O)cc(O)c12
REMARK SMILES IDX 5 1 3 2 2 3 1 4 22 5 20 6 19 7 17 8 16 9 15 10 14 11 6 12
REMARK SMILES IDX 7 13 8 14 9 15 13 16 11 17 10 18 12 20 4 22 21 24 18 26
REMARK H PARENT 10 19 12 21 4 23 21 25 18 27
REMARK Flexibility Score: inf
ROOT
ATOM      1  C   UNL     1      -6.682  67.371  31.526  1.00  0.00     0.180 A 
ATOM      2  C   UNL     1      -6.269  67.023  32.823  1.00  0.00     0.208 A 
ATOM      3  C   UNL     1      -4.918  67.179  33.173  1.00  0.00     0.238 A 
ATOM      4  O   UNL     1      -4.564  66.916  34.352  1.00  0.00    -0.285 OA
ATOM      5  C   UNL     1      -3.995  67.664  32.216  1.00  0.00     0.111 A 
ATOM      6  C   UNL     1      -2.595  67.824  32.448  1.00  0.00     0.134 A 
ATOM      7  C   UNL     1      -1.799  68.437  31.473  1.00  0.00     0.093 A 
ATOM      8  C   UNL     1      -2.339  68.836  30.248  1.00  0.00     0.123 A 
ATOM      9  C   UNL     1      -3.693  68.630  29.990  1.00  0.00     0.094 A 
ATOM     10  C   UNL     1      -4.520  68.055  30.956  1.00  0.00     0.146 A 
ATOM     11  O   UNL     1      -5.805  67.886  30.673  1.00  0.00    -0.452 OA
ENDROOT
BRANCH   1  12
ATOM     12  C   UNL     1      -8.085  67.211  31.077  1.00  0.00     0.025 A 
ATOM     13  C   UNL     1      -8.404  66.203  30.156  1.00  0.00     0.016 A 
ATOM     14  C   UNL     1      -9.722  66.022  29.735  1.00  0.00     0.051 A 
ATOM     15  C   UNL     1     -10.749  66.831  30.235  1.00  0.00     0.157 A 
ATOM     16  C   UNL     1      -9.116  68.010  31.599  1.00  0.00     0.062 A 
ATOM     17  C   UNL     1     -10.443  67.834  31.185  1.00  0.00     0.158 A 
BRANCH  15  18
ATOM     18  O   UNL     1     -12.044  66.603  29.767  1.00  0.00    -0.504 OA
ATOM     19  H   UNL     1     -12.759  67.314  29.717  1.00  0.00     0.293 HD
ENDBRANCH  15  18
BRANCH  17  20
ATOM     20  O   UNL     1     -11.416  68.665  31.743  1.00  0.00    -0.504 OA
ATOM     21  H   UNL     1     -12.379  68.691  31.439  1.00  0.00     0.293 HD
ENDBRANCH  17  20
ENDBRANCH   1  12
BRANCH   2  22
ATOM     22  O   UNL     1      -7.201  66.565  33.759  1.00  0.00    -0.502 OA
ATOM     23  H   UNL     1      -7.250  65.595  34.048  1.00  0.00     0.293 HD
ENDBRANCH   2  22
BRANCH   6  24
ATOM     24  O   UNL     1      -1.939  67.377  33.598  1.00  0.00    -0.507 OA
ATOM     25  H   UNL     1      -1.890  67.887  34.468  1.00  0.00     0.293 HD
ENDBRANCH   6  24
BRANCH   8  26
ATOM     26  O   UNL     1      -1.537  69.431  29.277  1.00  0.00    -0.508 OA
ATOM     27  H   UNL     1      -0.785  70.064  29.525  1.00  0.00     0.293 HD
ENDBRANCH   8  26
TORSDOF 6
ENDMDL
MODEL 7
REMARK VINA RESULT:    -6.514      3.203      7.125
REMARK INTER + INTRA:          -8.181
REMARK INTER:                  -7.930
REMARK INTRA:                  -0.251
REMARK UNBOUND:                -0.335
REMARK SMILES O=c1c(O)c(-c2ccc(O)c(O)c2)oc2cc(O)cc(O)c12
REMARK SMILES IDX 5 1 3 2 2 3 1 4 22 5 20 6 19 7 17 8 16 9 15 10 14 11 6 12
REMARK SMILES IDX 7 13 8 14 9 15 13 16 11 17 10 18 12 20 4 22 21 24 18 26
REMARK H PARENT 10 19 12 21 4 23 21 25 18 27
REMARK Flexibility Score: inf
ROOT
ATOM      1  C   UNL     1     -10.091  66.921  30.618  1.00  0.00     0.180 A 
ATOM      2  C   UNL     1      -9.997  68.134  29.914  1.00  0.00     0.208 A 
ATOM      3  C   UNL     1      -8.851  68.929  30.077  1.00  0.00     0.238 A 
ATOM      4  O   UNL     1      -8.749  69.987  29.403  1.00  0.00    -0.285 OA
ATOM      5  C   UNL     1      -7.822  68.509  30.954  1.00  0.00     0.111 A 
ATOM      6  C   UNL     1      -6.635  69.255  31.226  1.00  0.00     0.134 A 
ATOM      7  C   UNL     1      -5.625  68.683  32.009  1.00  0.00     0.093 A 
ATOM      8  C   UNL     1      -5.786  67.419  32.582  1.00  0.00     0.123 A 
ATOM      9  C   UNL     1      -6.966  66.709  32.371  1.00  0.00     0.094 A 
ATOM     10  C   UNL     1      -7.977  67.237  31.565  1.00  0.00     0.146 A 
ATOM     11  O   UNL     1      -9.080  66.524  31.381  1.00  0.00    -0.452 OA
ENDROOT
BRANCH   1  12
ATOM     12  C   UNL     1     -11.279  66.042  30.516  1.00  0.00     0.025 A 
ATOM     13  C   UNL     1     -11.459  65.255  29.370  1.00  0.00     0.016 A 
ATOM     14  C   UNL     1     -12.560  64.405  29.261  1.00  0.00     0.051 A 
ATOM     15  C   UNL     1     -13.494  64.310  30.300  1.00  0.00     0.157 A 
ATOM     16  C   UNL     1     -12.201  65.932  31.570  1.00  0.00     0.062 A 
ATOM     17  C   UNL     1     -13.308  65.080  31.473  1.00  0.00     0.158 A 
BRANCH  15  18
ATOM     18  O   UNL     1     -14.577  63.446  30.126  1.00  0.00    -0.504 OA
ATOM     19  H   UNL     1     -15.393  63.438  30.721  1.00  0.00     0.293 HD
ENDBRANCH  15  18
BRANCH  17  20
ATOM     20  O   UNL     1     -14.186  65.023  32.557  1.00  0.00    -0.504 OA
ATOM     21  H   UNL     1     -14.670  64.186  32.850  1.00  0.00     0.293 HD
ENDBRANCH  17  20
ENDBRANCH   1  12
BRANCH   2  22
ATOM     22  O   UNL     1     -11.015  68.519  29.037  1.00  0.00    -0.502 OA
ATOM     23  H   UNL     1     -11.055  69.441  28.620  1.00  0.00     0.293 HD
ENDBRANCH   2  22
BRANCH   6  24
ATOM     24  O   UNL     1      -6.414  70.560  30.779  1.00  0.00    -0.507 OA
ATOM     25  H   UNL     1      -7.142  71.223  30.555  1.00  0.00     0.293 HD
ENDBRANCH   6  24
BRANCH   8  26
ATOM     26  O   UNL     1      -4.782  66.864  33.373  1.00  0.00    -0.508 OA
ATOM     27  H   UNL     1      -4.974  66.512  34.304  1.00  0.00     0.293 HD
ENDBRANCH   8  26
TORSDOF 6
ENDMDL
MODEL 8
REMARK VINA RESULT:    -6.485      2.093      7.094
REMARK INTER + INTRA:          -8.147
REMARK INTER:                  -7.829
REMARK INTRA:                  -0.318
REMARK UNBOUND:                -0.335
REMARK SMILES O=c1c(O)c(-c2ccc(O)c(O)c2)oc2cc(O)cc(O)c12
REMARK SMILES IDX 5 1 3 2 2 3 1 4 22 5 20 6 19 7 17 8 16 9 15 10 14 11 6 12
REMARK SMILES IDX 7 13 8 14 9 15 13 16 11 17 10 18 12 20 4 22 21 24 18 26
REMARK H PARENT 10 19 12 21 4 23 21 25 18 27
REMARK Flexibility Score: inf
ROOT
ATOM      1  C   UNL     1      -9.805  66.647  29.351  1.00  0.00     0.180 A 
ATOM      2  C   UNL     1      -9.912  67.725  28.456  1.00  0.00     0.208 A 
ATOM      3  C   UNL     1      -8.746  68.245  27.873  1.00  0.00     0.238 A 
ATOM      4  O   UNL     1      -8.853  69.174  27.031  1.00  0.00    -0.285 OA
ATOM      5  C   UNL     1      -7.486  67.692  28.206  1.00  0.00     0.111 A 
ATOM      6  C   UNL     1      -6.235  68.166  27.706  1.00  0.00     0.134 A 
ATOM      7  C   UNL     1      -5.062  67.461  28.000  1.00  0.00     0.093 A 
ATOM      8  C   UNL     1      -5.086  66.335  28.827  1.00  0.00     0.123 A 
ATOM      9  C   UNL     1      -6.294  65.900  29.367  1.00  0.00     0.094 A 
ATOM     10  C   UNL     1      -7.486  66.561  29.064  1.00  0.00     0.146 A 
ATOM     11  O   UNL     1      -8.616  66.108  29.592  1.00  0.00    -0.452 OA
ENDROOT
BRANCH   1  12
ATOM     12  C   UNL     1     -10.988  66.061  30.024  1.00  0.00     0.025 A 
ATOM     13  C   UNL     1     -11.382  66.551  31.277  1.00  0.00     0.016 A 
ATOM     14  C   UNL     1     -12.505  66.028  31.920  1.00  0.00     0.051 A 
ATOM     15  C   UNL     1     -13.265  65.018  31.319  1.00  0.00     0.157 A 
ATOM     16  C   UNL     1     -11.761  65.064  29.408  1.00  0.00     0.062 A 
ATOM     17  C   UNL     1     -12.892  64.533  30.043  1.00  0.00     0.158 A 
BRANCH  15  18
ATOM     18  O   UNL     1     -14.372  64.532  32.018  1.00  0.00    -0.504 OA
ATOM     19  H   UNL     1     -15.214  65.065  32.181  1.00  0.00     0.293 HD
ENDBRANCH  15  18
BRANCH  17  20
ATOM     20  O   UNL     1     -13.612  63.543  29.373  1.00  0.00    -0.504 OA
ATOM     21  H   UNL     1     -13.567  62.560  29.600  1.00  0.00     0.293 HD
ENDBRANCH  17  20
ENDBRANCH   1  12
BRANCH   2  22
ATOM     22  O   UNL     1     -11.169  68.241  28.126  1.00  0.00    -0.502 OA
ATOM     23  H   UNL     1     -11.624  68.041  27.243  1.00  0.00     0.293 HD
ENDBRANCH   2  22
BRANCH   6  24
ATOM     24  O   UNL     1      -6.089  69.331  26.947  1.00  0.00    -0.507 OA
ATOM     25  H   UNL     1      -6.601  69.534  26.102  1.00  0.00     0.293 HD
ENDBRANCH   6  24
BRANCH   8  26
ATOM     26  O   UNL     1      -3.912  65.648  29.127  1.00  0.00    -0.508 OA
ATOM     27  H   UNL     1      -3.380  65.168  28.409  1.00  0.00     0.293 HD
ENDBRANCH   8  26
TORSDOF 6
ENDMDL
MODEL 9
REMARK VINA RESULT:    -6.343      3.089      4.608
REMARK INTER + INTRA:          -7.976
REMARK INTER:                  -7.666
REMARK INTRA:                  -0.309
REMARK UNBOUND:                -0.335
REMARK SMILES O=c1c(O)c(-c2ccc(O)c(O)c2)oc2cc(O)cc(O)c12
REMARK SMILES IDX 5 1 3 2 2 3 1 4 22 5 20 6 19 7 17 8 16 9 15 10 14 11 6 12
REMARK SMILES IDX 7 13 8 14 9 15 13 16 11 17 10 18 12 20 4 22 21 24 18 26
REMARK H PARENT 10 19 12 21 4 23 21 25 18 27
REMARK Flexibility Score: inf
ROOT
ATOM      1  C   UNL     1      -7.973  67.541  30.730  1.00  0.00     0.180 A 
ATOM      2  C   UNL     1      -8.425  66.427  30.002  1.00  0.00     0.208 A 
ATOM      3  C   UNL     1      -9.314  66.626  28.934  1.00  0.00     0.238 A 
ATOM      4  O   UNL     1      -9.673  65.631  28.253  1.00  0.00    -0.285 OA
ATOM      5  C   UNL     1      -9.753  67.934  28.618  1.00  0.00     0.111 A 
ATOM      6  C   UNL     1     -10.683  68.249  27.582  1.00  0.00     0.134 A 
ATOM      7  C   UNL     1     -10.945  69.589  27.272  1.00  0.00     0.093 A 
ATOM      8  C   UNL     1     -10.358  70.625  28.003  1.00  0.00     0.123 A 
ATOM      9  C   UNL     1      -9.494  70.327  29.054  1.00  0.00     0.094 A 
ATOM     10  C   UNL     1      -9.186  69.001  29.364  1.00  0.00     0.146 A 
ATOM     11  O   UNL     1      -8.350  68.760  30.367  1.00  0.00    -0.452 OA
ENDROOT
BRANCH   1  12
ATOM     12  C   UNL     1      -7.054  67.407  31.884  1.00  0.00     0.025 A 
ATOM     13  C   UNL     1      -7.573  67.078  33.144  1.00  0.00     0.016 A 
ATOM     14  C   UNL     1      -6.724  66.927  34.242  1.00  0.00     0.051 A 
ATOM     15  C   UNL     1      -5.341  67.086  34.101  1.00  0.00     0.157 A 
ATOM     16  C   UNL     1      -5.664  67.544  31.734  1.00  0.00     0.062 A 
ATOM     17  C   UNL     1      -4.803  67.393  32.828  1.00  0.00     0.158 A 
BRANCH  15  18
ATOM     18  O   UNL     1      -4.547  66.930  35.238  1.00  0.00    -0.504 OA
ATOM     19  H   UNL     1      -4.886  67.044  36.183  1.00  0.00     0.293 HD
ENDBRANCH  15  18
BRANCH  17  20
ATOM     20  O   UNL     1      -3.433  67.546  32.606  1.00  0.00    -0.504 OA
ATOM     21  H   UNL     1      -2.719  67.028  33.099  1.00  0.00     0.293 HD
ENDBRANCH  17  20
ENDBRANCH   1  12
BRANCH   2  22
ATOM     22  O   UNL     1      -7.963  65.146  30.319  1.00  0.00    -0.502 OA
ATOM     23  H   UNL     1      -7.081  64.987  30.791  1.00  0.00     0.293 HD
ENDBRANCH   2  22
BRANCH   6  24
ATOM     24  O   UNL     1     -11.393  67.290  26.853  1.00  0.00    -0.507 OA
ATOM     25  H   UNL     1     -12.197  66.786  27.196  1.00  0.00     0.293 HD
ENDBRANCH   6  24
BRANCH   8  26
ATOM     26  O   UNL     1     -10.636  71.956  27.698  1.00  0.00    -0.508 OA
ATOM     27  H   UNL     1     -10.368  72.363  26.810  1.00  0.00     0.293 HD
ENDBRANCH   8  26
TORSDOF 6
ENDMDL
