MODEL 1
REMARK VINA RESULT:    -4.031      0.000      0.000
REMARK INTER + INTRA:          -9.359
REMARK INTER:                  -7.330
REMARK INTRA:                  -2.029
REMARK UNBOUND:                -2.029
REMARK SMILES CCCCCCCCCCCCCC[C@H](C)C(=O)[O-]
REMARK SMILES IDX 9 1 10 2 11 3 12 4 13 5 14 6 15 7 16 8 17 9 18 10 19 11 8 12
REMARK SMILES IDX 7 13 6 14 5 15 4 16 3 17 2 18 1 19
REMARK H PARENT
REMARK Flexibility Score: inf
ROOT
ATOM      1  C   UNL     1      -3.337  25.502   2.639  1.00  0.00     0.000 C 
ENDROOT
BRANCH   1   2
ATOM      2  C   UNL     1      -3.926  26.727   3.358  1.00  0.00     0.000 C 
BRANCH   2   3
ATOM      3  C   UNL     1      -2.951  27.917   3.401  1.00  0.00     0.000 C 
BRANCH   3   4
ATOM      4  C   UNL     1      -2.014  28.037   2.182  1.00  0.00     0.000 C 
BRANCH   4   5
ATOM      5  C   UNL     1      -2.401  29.126   1.163  1.00  0.00     0.001 C 
BRANCH   5   6
ATOM      6  C   UNL     1      -3.692  29.870   1.546  1.00  0.00     0.009 C 
BRANCH   6   7
ATOM      7  C   UNL     1      -4.830  29.617   0.533  1.00  0.00     0.032 C 
ATOM      8  C   UNL     1      -4.282  28.971  -0.744  1.00  0.00     0.014 C 
BRANCH   7   9
ATOM      9  C   UNL     1      -5.560  30.888   0.192  1.00  0.00     0.044 C 
ATOM     10  O   UNL     1      -6.811  30.964   0.324  1.00  0.00    -0.550 OA
ATOM     11  O   UNL     1      -4.852  31.990  -0.272  1.00  0.00    -0.550 OA
ENDBRANCH   7   9
ENDBRANCH   6   7
ENDBRANCH   5   6
ENDBRANCH   4   5
ENDBRANCH   3   4
ENDBRANCH   2   3
ENDBRANCH   1   2
BRANCH   1  12
ATOM     12  C   UNL     1      -4.069  25.176   1.327  1.00  0.00     0.000 C 
BRANCH  12  13
ATOM     13  C   UNL     1      -5.387  25.957   1.180  1.00  0.00    -0.000 C 
BRANCH  13  14
ATOM     14  C   UNL     1      -6.588  25.039   0.901  1.00  0.00    -0.000 C 
BRANCH  14  15
ATOM     15  C   UNL     1      -7.516  24.889   2.120  1.00  0.00    -0.000 C 
BRANCH  15  16
ATOM     16  C   UNL     1      -7.622  26.181   2.947  1.00  0.00    -0.000 C 
BRANCH  16  17
ATOM     17  C   UNL     1      -8.115  25.923   4.381  1.00  0.00    -0.000 C 
BRANCH  17  18
ATOM     18  C   UNL     1      -7.035  26.213   5.435  1.00  0.00    -0.003 C 
ATOM     19  C   UNL     1      -7.357  25.601   6.798  1.00  0.00     0.004 C 
ENDBRANCH  17  18
ENDBRANCH  16  17
ENDBRANCH  15  16
ENDBRANCH  14  15
ENDBRANCH  13  14
ENDBRANCH  12  13
ENDBRANCH   1  12
TORSDOF 14
ENDMDL
MODEL 2
REMARK VINA RESULT:    -3.979      3.258      5.762
REMARK INTER + INTRA:          -9.264
REMARK INTER:                  -6.790
REMARK INTRA:                  -2.474
REMARK UNBOUND:                -2.029
REMARK SMILES CCCCCCCCCCCCCC[C@H](C)C(=O)[O-]
REMARK SMILES IDX 9 1 10 2 11 3 12 4 13 5 14 6 15 7 16 8 17 9 18 10 19 11 8 12
REMARK SMILES IDX 7 13 6 14 5 15 4 16 3 17 2 18 1 19
REMARK H PARENT
REMARK Flexibility Score: inf
ROOT
ATOM      1  C   UNL     1      -3.628  25.947  -1.146  1.00  0.00     0.000 C 
ENDROOT
BRANCH   1   2
ATOM      2  C   UNL     1      -2.809  25.771   0.145  1.00  0.00     0.000 C 
BRANCH   2   3
ATOM      3  C   UNL     1      -2.672  27.080   0.944  1.00  0.00     0.000 C 
BRANCH   3   4
ATOM      4  C   UNL     1      -2.635  26.908   2.476  1.00  0.00     0.000 C 
BRANCH   4   5
ATOM      5  C   UNL     1      -3.514  25.770   3.029  1.00  0.00     0.001 C 
BRANCH   5   6
ATOM      6  C   UNL     1      -4.930  26.238   3.406  1.00  0.00     0.009 C 
BRANCH   6   7
ATOM      7  C   UNL     1      -6.013  25.576   2.526  1.00  0.00     0.032 C 
ATOM      8  C   UNL     1      -5.538  24.209   2.022  1.00  0.00     0.014 C 
BRANCH   7   9
ATOM      9  C   UNL     1      -6.388  26.450   1.360  1.00  0.00     0.044 C 
ATOM     10  O   UNL     1      -6.857  25.945   0.305  1.00  0.00    -0.550 OA
ATOM     11  O   UNL     1      -6.219  27.826   1.442  1.00  0.00    -0.550 OA
ENDBRANCH   7   9
ENDBRANCH   6   7
ENDBRANCH   5   6
ENDBRANCH   4   5
ENDBRANCH   3   4
ENDBRANCH   2   3
ENDBRANCH   1   2
BRANCH   1  12
ATOM     12  C   UNL     1      -3.638  24.681  -2.018  1.00  0.00     0.000 C 
BRANCH  12  13
ATOM     13  C   UNL     1      -4.584  23.598  -1.470  1.00  0.00    -0.000 C 
BRANCH  13  14
ATOM     14  C   UNL     1      -3.927  22.209  -1.428  1.00  0.00    -0.000 C 
BRANCH  14  15
ATOM     15  C   UNL     1      -3.406  21.840  -0.028  1.00  0.00    -0.000 C 
BRANCH  15  16
ATOM     16  C   UNL     1      -1.990  21.241  -0.060  1.00  0.00    -0.000 C 
BRANCH  16  17
ATOM     17  C   UNL     1      -1.011  22.088  -0.891  1.00  0.00    -0.000 C 
BRANCH  17  18
ATOM     18  C   UNL     1      -0.401  23.244  -0.082  1.00  0.00    -0.003 C 
ATOM     19  C   UNL     1       0.311  24.272  -0.961  1.00  0.00     0.004 C 
ENDBRANCH  17  18
ENDBRANCH  16  17
ENDBRANCH  15  16
ENDBRANCH  14  15
ENDBRANCH  13  14
ENDBRANCH  12  13
ENDBRANCH   1  12
TORSDOF 14
ENDMDL
MODEL 3
REMARK VINA RESULT:    -3.923      3.477      6.056
REMARK INTER + INTRA:          -9.163
REMARK INTER:                  -6.630
REMARK INTRA:                  -2.533
REMARK UNBOUND:                -2.029
REMARK SMILES CCCCCCCCCCCCCC[C@H](C)C(=O)[O-]
REMARK SMILES IDX 9 1 10 2 11 3 12 4 13 5 14 6 15 7 16 8 17 9 18 10 19 11 8 12
REMARK SMILES IDX 7 13 6 14 5 15 4 16 3 17 2 18 1 19
REMARK H PARENT
REMARK Flexibility Score: inf
ROOT
ATOM      1  C   UNL     1      -2.389  28.164   0.091  1.00  0.00     0.000 C 
ENDROOT
BRANCH   1   2
ATOM      2  C   UNL     1      -3.283  28.585   1.270  1.00  0.00     0.000 C 
BRANCH   2   3
ATOM      3  C   UNL     1      -2.734  28.117   2.630  1.00  0.00     0.000 C 
BRANCH   3   4
ATOM      4  C   UNL     1      -2.696  26.588   2.827  1.00  0.00     0.000 C 
BRANCH   4   5
ATOM      5  C   UNL     1      -4.071  25.915   2.997  1.00  0.00     0.001 C 
BRANCH   5   6
ATOM      6  C   UNL     1      -4.361  24.865   1.911  1.00  0.00     0.009 C 
BRANCH   6   7
ATOM      7  C   UNL     1      -5.695  25.137   1.183  1.00  0.00     0.032 C 
ATOM      8  C   UNL     1      -6.209  26.544   1.506  1.00  0.00     0.014 C 
BRANCH   7   9
ATOM      9  C   UNL     1      -6.740  24.115   1.543  1.00  0.00     0.044 C 
ATOM     10  O   UNL     1      -6.707  23.531   2.659  1.00  0.00    -0.550 OA
ATOM     11  O   UNL     1      -7.751  23.810   0.640  1.00  0.00    -0.550 OA
ENDBRANCH   7   9
ENDBRANCH   6   7
ENDBRANCH   5   6
ENDBRANCH   4   5
ENDBRANCH   3   4
ENDBRANCH   2   3
ENDBRANCH   1   2
BRANCH   1  12
ATOM     12  C   UNL     1      -2.970  26.980  -0.699  1.00  0.00     0.000 C 
BRANCH  12  13
ATOM     13  C   UNL     1      -1.874  26.085  -1.307  1.00  0.00    -0.000 C 
BRANCH  13  14
ATOM     14  C   UNL     1      -0.809  25.677  -0.276  1.00  0.00    -0.000 C 
BRANCH  14  15
ATOM     15  C   UNL     1      -0.320  24.231  -0.468  1.00  0.00    -0.000 C 
BRANCH  15  16
ATOM     16  C   UNL     1      -1.052  23.231   0.443  1.00  0.00    -0.000 C 
BRANCH  16  17
ATOM     17  C   UNL     1      -1.651  22.050  -0.339  1.00  0.00    -0.000 C 
BRANCH  17  18
ATOM     18  C   UNL     1      -3.179  21.962  -0.193  1.00  0.00    -0.003 C 
ATOM     19  C   UNL     1      -3.922  22.835  -1.204  1.00  0.00     0.004 C 
ENDBRANCH  17  18
ENDBRANCH  16  17
ENDBRANCH  15  16
ENDBRANCH  14  15
ENDBRANCH  13  14
ENDBRANCH  12  13
ENDBRANCH   1  12
TORSDOF 14
ENDMDL
MODEL 4
REMARK VINA RESULT:    -3.818      1.479      2.424
REMARK INTER + INTRA:          -8.973
REMARK INTER:                  -7.282
REMARK INTRA:                  -1.690
REMARK UNBOUND:                -2.029
REMARK SMILES CCCCCCCCCCCCCC[C@H](C)C(=O)[O-]
REMARK SMILES IDX 9 1 10 2 11 3 12 4 13 5 14 6 15 7 16 8 17 9 18 10 19 11 8 12
REMARK SMILES IDX 7 13 6 14 5 15 4 16 3 17 2 18 1 19
REMARK H PARENT
REMARK Flexibility Score: inf
ROOT
ATOM      1  C   UNL     1      -2.163  26.362   1.504  1.00  0.00     0.000 C 
ENDROOT
BRANCH   1   2
ATOM      2  C   UNL     1      -2.572  27.291   0.348  1.00  0.00     0.000 C 
BRANCH   2   3
ATOM      3  C   UNL     1      -3.939  26.923  -0.256  1.00  0.00     0.000 C 
BRANCH   3   4
ATOM      4  C   UNL     1      -4.841  28.122  -0.609  1.00  0.00     0.000 C 
BRANCH   4   5
ATOM      5  C   UNL     1      -5.379  28.915   0.597  1.00  0.00     0.001 C 
BRANCH   5   6
ATOM      6  C   UNL     1      -5.237  30.438   0.422  1.00  0.00     0.009 C 
BRANCH   6   7
ATOM      7  C   UNL     1      -5.995  30.952  -0.820  1.00  0.00     0.032 C 
ATOM      8  C   UNL     1      -5.059  31.754  -1.731  1.00  0.00     0.014 C 
BRANCH   7   9
ATOM      9  C   UNL     1      -7.181  31.794  -0.434  1.00  0.00     0.044 C 
ATOM     10  O   UNL     1      -7.829  31.546   0.618  1.00  0.00    -0.550 OA
ATOM     11  O   UNL     1      -7.569  32.856  -1.241  1.00  0.00    -0.550 OA
ENDBRANCH   7   9
ENDBRANCH   6   7
ENDBRANCH   5   6
ENDBRANCH   4   5
ENDBRANCH   3   4
ENDBRANCH   2   3
ENDBRANCH   1   2
BRANCH   1  12
ATOM     12  C   UNL     1      -3.329  25.497   2.010  1.00  0.00     0.000 C 
BRANCH  12  13
ATOM     13  C   UNL     1      -3.839  25.946   3.391  1.00  0.00    -0.000 C 
BRANCH  13  14
ATOM     14  C   UNL     1      -5.291  26.450   3.346  1.00  0.00    -0.000 C 
BRANCH  14  15
ATOM     15  C   UNL     1      -6.206  25.548   2.500  1.00  0.00    -0.000 C 
BRANCH  15  16
ATOM     16  C   UNL     1      -7.377  24.964   3.310  1.00  0.00    -0.000 C 
BRANCH  16  17
ATOM     17  C   UNL     1      -7.891  25.936   4.386  1.00  0.00    -0.000 C 
BRANCH  17  18
ATOM     18  C   UNL     1      -7.835  25.332   5.798  1.00  0.00    -0.003 C 
ATOM     19  C   UNL     1      -7.067  26.208   6.788  1.00  0.00     0.004 C 
ENDBRANCH  17  18
ENDBRANCH  16  17
ENDBRANCH  15  16
ENDBRANCH  14  15
ENDBRANCH  13  14
ENDBRANCH  12  13
ENDBRANCH   1  12
TORSDOF 14
ENDMDL
MODEL 5
REMARK VINA RESULT:    -3.812      3.353      5.868
REMARK INTER + INTRA:          -8.961
REMARK INTER:                  -6.787
REMARK INTRA:                  -2.173
REMARK UNBOUND:                -2.029
REMARK SMILES CCCCCCCCCCCCCC[C@H](C)C(=O)[O-]
REMARK SMILES IDX 9 1 10 2 11 3 12 4 13 5 14 6 15 7 16 8 17 9 18 10 19 11 8 12
REMARK SMILES IDX 7 13 6 14 5 15 4 16 3 17 2 18 1 19
REMARK H PARENT
REMARK Flexibility Score: inf
ROOT
ATOM      1  C   UNL     1      -1.102  25.282  -0.326  1.00  0.00     0.000 C 
ENDROOT
BRANCH   1   2
ATOM      2  C   UNL     1      -1.726  26.192   0.747  1.00  0.00     0.000 C 
BRANCH   2   3
ATOM      3  C   UNL     1      -2.620  25.420   1.734  1.00  0.00     0.000 C 
BRANCH   3   4
ATOM      4  C   UNL     1      -3.026  26.205   2.997  1.00  0.00     0.000 C 
BRANCH   4   5
ATOM      5  C   UNL     1      -4.542  26.395   3.192  1.00  0.00     0.001 C 
BRANCH   5   6
ATOM      6  C   UNL     1      -5.372  25.775   2.054  1.00  0.00     0.009 C 
BRANCH   6   7
ATOM      7  C   UNL     1      -6.665  25.112   2.575  1.00  0.00     0.032 C 
ATOM      8  C   UNL     1      -7.486  24.541   1.412  1.00  0.00     0.014 C 
BRANCH   7   9
ATOM      9  C   UNL     1      -7.503  26.078   3.368  1.00  0.00     0.044 C 
ATOM     10  O   UNL     1      -7.836  25.814   4.554  1.00  0.00    -0.550 OA
ATOM     11  O   UNL     1      -7.914  27.274   2.792  1.00  0.00    -0.550 OA
ENDBRANCH   7   9
ENDBRANCH   6   7
ENDBRANCH   5   6
ENDBRANCH   4   5
ENDBRANCH   3   4
ENDBRANCH   2   3
ENDBRANCH   1   2
BRANCH   1  12
ATOM     12  C   UNL     1      -0.594  23.950   0.250  1.00  0.00     0.000 C 
BRANCH  12  13
ATOM     13  C   UNL     1      -0.853  22.763  -0.696  1.00  0.00    -0.000 C 
BRANCH  13  14
ATOM     14  C   UNL     1      -1.740  21.684  -0.055  1.00  0.00    -0.000 C 
BRANCH  14  15
ATOM     15  C   UNL     1      -3.179  21.697  -0.600  1.00  0.00    -0.000 C 
BRANCH  15  16
ATOM     16  C   UNL     1      -4.051  22.782   0.054  1.00  0.00    -0.000 C 
BRANCH  16  17
ATOM     17  C   UNL     1      -4.683  23.731  -0.979  1.00  0.00    -0.000 C 
BRANCH  17  18
ATOM     18  C   UNL     1      -4.375  23.314  -2.426  1.00  0.00    -0.003 C 
ATOM     19  C   UNL     1      -3.305  24.186  -3.080  1.00  0.00     0.004 C 
ENDBRANCH  17  18
ENDBRANCH  16  17
ENDBRANCH  15  16
ENDBRANCH  14  15
ENDBRANCH  13  14
ENDBRANCH  12  13
ENDBRANCH   1  12
TORSDOF 14
ENDMDL
MODEL 6
REMARK VINA RESULT:    -3.801      2.388      5.535
REMARK INTER + INTRA:          -8.942
REMARK INTER:                  -6.559
REMARK INTRA:                  -2.383
REMARK UNBOUND:                -2.029
REMARK SMILES CCCCCCCCCCCCCC[C@H](C)C(=O)[O-]
REMARK SMILES IDX 9 1 10 2 11 3 12 4 13 5 14 6 15 7 16 8 17 9 18 10 19 11 8 12
REMARK SMILES IDX 7 13 6 14 5 15 4 16 3 17 2 18 1 19
REMARK H PARENT
REMARK Flexibility Score: inf
ROOT
ATOM      1  C   UNL     1      -1.596  27.245   0.147  1.00  0.00     0.000 C 
ENDROOT
BRANCH   1   2
ATOM      2  C   UNL     1      -2.503  26.131   0.697  1.00  0.00     0.000 C 
BRANCH   2   3
ATOM      3  C   UNL     1      -2.800  26.294   2.199  1.00  0.00     0.000 C 
BRANCH   3   4
ATOM      4  C   UNL     1      -3.927  25.393   2.742  1.00  0.00     0.000 C 
BRANCH   4   5
ATOM      5  C   UNL     1      -4.588  24.470   1.701  1.00  0.00     0.001 C 
BRANCH   5   6
ATOM      6  C   UNL     1      -6.039  24.106   2.062  1.00  0.00     0.009 C 
BRANCH   6   7
ATOM      7  C   UNL     1      -7.057  25.064   1.405  1.00  0.00     0.032 C 
ATOM      8  C   UNL     1      -6.444  25.742   0.175  1.00  0.00     0.014 C 
BRANCH   7   9
ATOM      9  C   UNL     1      -7.543  26.105   2.376  1.00  0.00     0.044 C 
ATOM     10  O   UNL     1      -7.198  27.311   2.249  1.00  0.00    -0.550 OA
ATOM     11  O   UNL     1      -8.381  25.740   3.422  1.00  0.00    -0.550 OA
ENDBRANCH   7   9
ENDBRANCH   6   7
ENDBRANCH   5   6
ENDBRANCH   4   5
ENDBRANCH   3   4
ENDBRANCH   2   3
ENDBRANCH   1   2
BRANCH   1  12
ATOM     12  C   UNL     1      -2.236  28.007  -1.024  1.00  0.00     0.000 C 
BRANCH  12  13
ATOM     13  C   UNL     1      -3.766  28.115  -0.889  1.00  0.00    -0.000 C 
BRANCH  13  14
ATOM     14  C   UNL     1      -4.217  29.502  -0.401  1.00  0.00    -0.000 C 
BRANCH  14  15
ATOM     15  C   UNL     1      -4.337  29.583   1.130  1.00  0.00    -0.000 C 
BRANCH  15  16
ATOM     16  C   UNL     1      -3.284  30.510   1.760  1.00  0.00    -0.000 C 
BRANCH  16  17
ATOM     17  C   UNL     1      -2.663  29.915   3.036  1.00  0.00    -0.000 C 
BRANCH  17  18
ATOM     18  C   UNL     1      -1.176  29.571   2.860  1.00  0.00    -0.003 C 
ATOM     19  C   UNL     1      -0.469  30.485   1.860  1.00  0.00     0.004 C 
ENDBRANCH  17  18
ENDBRANCH  16  17
ENDBRANCH  15  16
ENDBRANCH  14  15
ENDBRANCH  13  14
ENDBRANCH  12  13
ENDBRANCH   1  12
TORSDOF 14
ENDMDL
MODEL 7
REMARK VINA RESULT:    -3.759      3.342      5.948
REMARK INTER + INTRA:          -8.864
REMARK INTER:                  -6.829
REMARK INTRA:                  -2.035
REMARK UNBOUND:                -2.029
REMARK SMILES CCCCCCCCCCCCCC[C@H](C)C(=O)[O-]
REMARK SMILES IDX 9 1 10 2 11 3 12 4 13 5 14 6 15 7 16 8 17 9 18 10 19 11 8 12
REMARK SMILES IDX 7 13 6 14 5 15 4 16 3 17 2 18 1 19
REMARK H PARENT
REMARK Flexibility Score: inf
ROOT
ATOM      1  C   UNL     1       0.144  23.776  -0.676  1.00  0.00     0.000 C 
ENDROOT
BRANCH   1   2
ATOM      2  C   UNL     1      -0.945  22.996   0.080  1.00  0.00     0.000 C 
BRANCH   2   3
ATOM      3  C   UNL     1      -1.508  21.818  -0.735  1.00  0.00     0.000 C 
BRANCH   3   4
ATOM      4  C   UNL     1      -3.032  21.613  -0.619  1.00  0.00     0.000 C 
BRANCH   4   5
ATOM      5  C   UNL     1      -3.759  22.611   0.300  1.00  0.00     0.001 C 
BRANCH   5   6
ATOM      6  C   UNL     1      -4.709  23.548  -0.467  1.00  0.00     0.009 C 
BRANCH   6   7
ATOM      7  C   UNL     1      -5.440  24.530   0.473  1.00  0.00     0.032 C 
ATOM      8  C   UNL     1      -5.765  23.856   1.811  1.00  0.00     0.014 C 
BRANCH   7   9
ATOM      9  C   UNL     1      -6.701  25.061  -0.154  1.00  0.00     0.044 C 
ATOM     10  O   UNL     1      -6.748  26.238  -0.601  1.00  0.00    -0.550 OA
ATOM     11  O   UNL     1      -7.825  24.250  -0.243  1.00  0.00    -0.550 OA
ENDBRANCH   7   9
ENDBRANCH   6   7
ENDBRANCH   5   6
ENDBRANCH   4   5
ENDBRANCH   3   4
ENDBRANCH   2   3
ENDBRANCH   1   2
BRANCH   1  12
ATOM     12  C   UNL     1      -0.310  25.187  -1.080  1.00  0.00     0.000 C 
BRANCH  12  13
ATOM     13  C   UNL     1      -1.679  25.558  -0.482  1.00  0.00    -0.000 C 
BRANCH  13  14
ATOM     14  C   UNL     1      -1.553  26.399   0.798  1.00  0.00    -0.000 C 
BRANCH  14  15
ATOM     15  C   UNL     1      -2.483  25.911   1.923  1.00  0.00    -0.000 C 
BRANCH  15  16
ATOM     16  C   UNL     1      -3.160  27.068   2.677  1.00  0.00    -0.000 C 
BRANCH  16  17
ATOM     17  C   UNL     1      -4.073  27.909   1.769  1.00  0.00    -0.000 C 
BRANCH  17  18
ATOM     18  C   UNL     1      -3.655  29.387   1.721  1.00  0.00    -0.003 C 
ATOM     19  C   UNL     1      -2.747  29.784   2.885  1.00  0.00     0.004 C 
ENDBRANCH  17  18
ENDBRANCH  16  17
ENDBRANCH  15  16
ENDBRANCH  14  15
ENDBRANCH  13  14
ENDBRANCH  12  13
ENDBRANCH   1  12
TORSDOF 14
ENDMDL
MODEL 8
REMARK VINA RESULT:    -3.749      2.647      5.616
REMARK INTER + INTRA:          -8.847
REMARK INTER:                  -6.307
REMARK INTRA:                  -2.540
REMARK UNBOUND:                -2.029
REMARK SMILES CCCCCCCCCCCCCC[C@H](C)C(=O)[O-]
REMARK SMILES IDX 9 1 10 2 11 3 12 4 13 5 14 6 15 7 16 8 17 9 18 10 19 11 8 12
REMARK SMILES IDX 7 13 6 14 5 15 4 16 3 17 2 18 1 19
REMARK H PARENT
REMARK Flexibility Score: inf
ROOT
ATOM      1  C   UNL     1      -2.246  26.622  -0.341  1.00  0.00     0.000 C 
ENDROOT
BRANCH   1   2
ATOM      2  C   UNL     1      -1.883  26.210   1.097  1.00  0.00     0.000 C 
BRANCH   2   3
ATOM      3  C   UNL     1      -2.185  27.315   2.126  1.00  0.00     0.000 C 
BRANCH   3   4
ATOM      4  C   UNL     1      -3.328  26.996   3.109  1.00  0.00     0.000 C 
BRANCH   4   5
ATOM      5  C   UNL     1      -3.988  25.616   2.922  1.00  0.00     0.001 C 
BRANCH   5   6
ATOM      6  C   UNL     1      -5.491  25.711   2.607  1.00  0.00     0.009 C 
BRANCH   6   7
ATOM      7  C   UNL     1      -6.026  24.426   1.939  1.00  0.00     0.032 C 
ATOM      8  C   UNL     1      -4.889  23.662   1.251  1.00  0.00     0.014 C 
BRANCH   7   9
ATOM      9  C   UNL     1      -7.113  24.731   0.944  1.00  0.00     0.044 C 
ATOM     10  O   UNL     1      -7.111  25.818   0.305  1.00  0.00    -0.550 OA
ATOM     11  O   UNL     1      -8.129  23.810   0.723  1.00  0.00    -0.550 OA
ENDBRANCH   7   9
ENDBRANCH   6   7
ENDBRANCH   5   6
ENDBRANCH   4   5
ENDBRANCH   3   4
ENDBRANCH   2   3
ENDBRANCH   1   2
BRANCH   1  12
ATOM     12  C   UNL     1      -3.747  26.477  -0.638  1.00  0.00     0.000 C 
BRANCH  12  13
ATOM     13  C   UNL     1      -4.216  27.414  -1.765  1.00  0.00    -0.000 C 
BRANCH  13  14
ATOM     14  C   UNL     1      -5.258  28.437  -1.285  1.00  0.00    -0.000 C 
BRANCH  14  15
ATOM     15  C   UNL     1      -5.045  28.858   0.180  1.00  0.00    -0.000 C 
BRANCH  15  16
ATOM     16  C   UNL     1      -5.268  30.363   0.403  1.00  0.00    -0.000 C 
BRANCH  16  17
ATOM     17  C   UNL     1      -3.986  31.088   0.847  1.00  0.00    -0.000 C 
BRANCH  17  18
ATOM     18  C   UNL     1      -2.711  30.368   0.379  1.00  0.00    -0.003 C 
ATOM     19  C   UNL     1      -2.202  30.878  -0.968  1.00  0.00     0.004 C 
ENDBRANCH  17  18
ENDBRANCH  16  17
ENDBRANCH  15  16
ENDBRANCH  14  15
ENDBRANCH  13  14
ENDBRANCH  12  13
ENDBRANCH   1  12
TORSDOF 14
ENDMDL
MODEL 9
REMARK VINA RESULT:    -3.743      3.043      5.986
REMARK INTER + INTRA:          -8.836
REMARK INTER:                  -6.623
REMARK INTRA:                  -2.213
REMARK UNBOUND:                -2.029
REMARK SMILES CCCCCCCCCCCCCC[C@H](C)C(=O)[O-]
REMARK SMILES IDX 9 1 10 2 11 3 12 4 13 5 14 6 15 7 16 8 17 9 18 10 19 11 8 12
REMARK SMILES IDX 7 13 6 14 5 15 4 16 3 17 2 18 1 19
REMARK H PARENT
REMARK Flexibility Score: inf
ROOT
ATOM      1  C   UNL     1      -0.673  29.286   2.711  1.00  0.00     0.000 C 
ENDROOT
BRANCH   1   2
ATOM      2  C   UNL     1      -1.799  28.980   3.715  1.00  0.00     0.000 C 
BRANCH   2   3
ATOM      3  C   UNL     1      -3.013  28.300   3.057  1.00  0.00     0.000 C 
BRANCH   3   4
ATOM      4  C   UNL     1      -2.960  26.759   3.024  1.00  0.00     0.000 C 
BRANCH   4   5
ATOM      5  C   UNL     1      -4.330  26.057   3.005  1.00  0.00     0.001 C 
BRANCH   5   6
ATOM      6  C   UNL     1      -4.431  24.974   1.917  1.00  0.00     0.009 C 
BRANCH   6   7
ATOM      7  C   UNL     1      -5.486  25.324   0.846  1.00  0.00     0.032 C 
ATOM      8  C   UNL     1      -5.431  26.816   0.500  1.00  0.00     0.014 C 
BRANCH   7   9
ATOM      9  C   UNL     1      -6.874  24.953   1.296  1.00  0.00     0.044 C 
ATOM     10  O   UNL     1      -7.182  23.748   1.497  1.00  0.00    -0.550 OA
ATOM     11  O   UNL     1      -7.826  25.945   1.493  1.00  0.00    -0.550 OA
ENDBRANCH   7   9
ENDBRANCH   6   7
ENDBRANCH   5   6
ENDBRANCH   4   5
ENDBRANCH   3   4
ENDBRANCH   2   3
ENDBRANCH   1   2
BRANCH   1  12
ATOM     12  C   UNL     1      -1.207  29.690   1.327  1.00  0.00     0.000 C 
BRANCH  12  13
ATOM     13  C   UNL     1      -0.240  29.313   0.191  1.00  0.00    -0.000 C 
BRANCH  13  14
ATOM     14  C   UNL     1      -0.356  27.835  -0.214  1.00  0.00    -0.000 C 
BRANCH  14  15
ATOM     15  C   UNL     1      -1.804  27.417  -0.526  1.00  0.00    -0.000 C 
BRANCH  15  16
ATOM     16  C   UNL     1      -1.975  25.891  -0.615  1.00  0.00    -0.000 C 
BRANCH  16  17
ATOM     17  C   UNL     1      -1.026  25.136   0.331  1.00  0.00    -0.000 C 
BRANCH  17  18
ATOM     18  C   UNL     1      -0.665  23.737  -0.192  1.00  0.00    -0.003 C 
ATOM     19  C   UNL     1      -1.843  22.764  -0.143  1.00  0.00     0.004 C 
ENDBRANCH  17  18
ENDBRANCH  16  17
ENDBRANCH  15  16
ENDBRANCH  14  15
ENDBRANCH  13  14
ENDBRANCH  12  13
ENDBRANCH   1  12
TORSDOF 14
ENDMDL
