MODEL 1
REMARK VINA RESULT:    -4.397      0.000      0.000
REMARK INTER + INTRA:          -6.503
REMARK INTER:                  -6.710
REMARK INTRA:                   0.207
REMARK UNBOUND:                 0.207
REMARK SMILES CC1=CCC[C@H](C)C(=O)C[C@@H](C(C)C)C(=O)C1
REMARK SMILES IDX 8 1 9 2 6 3 7 4 5 5 4 6 3 7 2 8 1 9 10 11 11 12 15 13 16 14
REMARK SMILES IDX 17 15 12 17 13 18 14 19
REMARK H PARENT
REMARK Flexibility Score: 70.00
ROOT
ATOM      1  C   UNL     1      70.862  60.736  24.653  1.00  0.00     0.136 C 
ATOM      2  O   UNL     1      71.042  60.216  23.561  1.00  0.00    -0.299 OA
ENDROOT
BRANCH   1   3
ATOM      3  C   UNL     1      71.515  62.099  24.877  1.00  0.00     0.053 C 
ATOM      4  C   UNL     1      71.675  62.832  23.539  1.00  0.00     0.016 C 
BRANCH   3   5
ATOM      5  C   UNL     1      70.877  63.023  25.950  1.00  0.00     0.015 C 
BRANCH   5   6
ATOM      6  C   UNL     1      71.754  63.446  27.161  1.00  0.00     0.028 C 
BRANCH   6   7
ATOM      7  C   UNL     1      72.877  62.508  27.529  1.00  0.00    -0.028 C 
ATOM      8  C   UNL     1      72.766  61.381  28.270  1.00  0.00    -0.070 CG0
ATOM      9  C   UNL     1      74.021  60.573  28.501  1.00  0.00     0.039 C 
ATOM     10  G   UNL     1      71.489  60.942  28.967  1.00  0.00     0.000 G0
ENDBRANCH   6   7
ENDBRANCH   5   6
ENDBRANCH   3   5
ENDBRANCH   1   3
BRANCH   1  11
ATOM     11  C   UNL     1      69.918  59.998  25.597  1.00  0.00     0.087 C 
BRANCH  11  12
ATOM     12  C   UNL     1      69.634  60.603  26.996  1.00  0.00     0.066 C 
BRANCH  12  13
ATOM     13  C   UNL     1      70.529  60.096  28.129  1.00  0.00     0.140 C 
ATOM     14  O   UNL     1      70.542  58.888  28.330  1.00  0.00    -0.299 OA
BRANCH  13  15
ATOM     15  C   UNL     1      71.484  60.938  28.951  1.00  0.00     0.106 CG0
ATOM     16  G   UNL     1      72.771  61.369  28.270  1.00  0.00     0.000 G0
ENDBRANCH  13  15
ENDBRANCH  12  13
BRANCH  12  17
ATOM     17  C   UNL     1      68.130  60.499  27.417  1.00  0.00    -0.006 C 
ATOM     18  C   UNL     1      67.178  60.193  26.250  1.00  0.00     0.008 C 
ATOM     19  C   UNL     1      67.649  61.750  28.174  1.00  0.00     0.008 C 
ENDBRANCH  12  17
ENDBRANCH  11  12
ENDBRANCH   1  11
TORSDOF 1
ENDMDL
MODEL 2
REMARK VINA RESULT:    -3.145     12.199     14.182
REMARK INTER + INTRA:          -4.593
REMARK INTER:                  -4.502
REMARK INTRA:                  -0.091
REMARK UNBOUND:                 0.207
REMARK SMILES CC1=CCC[C@H](C)C(=O)C[C@@H](C(C)C)C(=O)C1
REMARK SMILES IDX 8 1 9 2 6 3 7 4 5 5 4 6 3 7 2 8 1 9 10 11 11 12 15 13 16 14
REMARK SMILES IDX 17 15 12 17 13 18 14 19
REMARK H PARENT
REMARK Flexibility Score: 70.00
ROOT
ATOM      1  C   UNL     1      75.606  72.547  22.921  1.00  0.00     0.136 C 
ATOM      2  O   UNL     1      76.519  72.875  23.667  1.00  0.00    -0.299 OA
ENDROOT
BRANCH   1   3
ATOM      3  C   UNL     1      75.958  72.385  21.442  1.00  0.00     0.053 C 
ATOM      4  C   UNL     1      77.008  71.281  21.269  1.00  0.00     0.016 C 
BRANCH   3   5
ATOM      5  C   UNL     1      74.778  72.198  20.450  1.00  0.00     0.015 C 
BRANCH   5   6
ATOM      6  C   UNL     1      74.091  73.473  19.889  1.00  0.00     0.028 C 
BRANCH   6   7
ATOM      7  C   UNL     1      74.759  74.786  20.211  1.00  0.00    -0.028 C 
ATOM      8  C   UNL     1      74.387  75.655  21.181  1.00  0.00    -0.070 CG0
ATOM      9  C   UNL     1      75.215  76.908  21.348  1.00  0.00     0.039 C 
ATOM     10  G   UNL     1      73.138  75.498  22.032  1.00  0.00     0.000 G0
ENDBRANCH   6   7
ENDBRANCH   5   6
ENDBRANCH   3   5
ENDBRANCH   1   3
BRANCH   1  11
ATOM     11  C   UNL     1      74.272  72.238  23.592  1.00  0.00     0.087 C 
BRANCH  11  12
ATOM     12  C   UNL     1      73.024  73.064  23.192  1.00  0.00     0.066 C 
BRANCH  12  13
ATOM     13  C   UNL     1      73.197  74.585  23.233  1.00  0.00     0.140 C 
ATOM     14  O   UNL     1      73.502  75.081  24.310  1.00  0.00    -0.299 OA
BRANCH  13  15
ATOM     15  C   UNL     1      73.133  75.519  22.042  1.00  0.00     0.106 CG0
ATOM     16  G   UNL     1      74.389  75.626  21.193  1.00  0.00     0.000 G0
ENDBRANCH  13  15
ENDBRANCH  12  13
BRANCH  12  17
ATOM     17  C   UNL     1      71.735  72.652  23.979  1.00  0.00    -0.006 C 
ATOM     18  C   UNL     1      71.239  71.234  23.660  1.00  0.00     0.008 C 
ATOM     19  C   UNL     1      70.590  73.664  23.793  1.00  0.00     0.008 C 
ENDBRANCH  12  17
ENDBRANCH  11  12
ENDBRANCH   1  11
TORSDOF 1
ENDMDL
MODEL 3
REMARK VINA RESULT:    -2.910     12.839     14.637
REMARK INTER + INTRA:          -4.234
REMARK INTER:                  -3.835
REMARK INTRA:                  -0.399
REMARK UNBOUND:                 0.207
REMARK SMILES CC1=CCC[C@H](C)C(=O)C[C@@H](C(C)C)C(=O)C1
REMARK SMILES IDX 8 1 9 2 6 3 7 4 5 5 4 6 3 7 2 8 1 9 10 11 11 12 15 13 16 14
REMARK SMILES IDX 17 15 12 17 13 18 14 19
REMARK H PARENT
REMARK Flexibility Score: 70.00
ROOT
ATOM      1  C   UNL     1      74.031  72.733  22.366  1.00  0.00     0.136 C 
ATOM      2  O   UNL     1      73.400  71.744  22.021  1.00  0.00    -0.299 OA
ENDROOT
BRANCH   1   3
ATOM      3  C   UNL     1      74.898  73.397  21.296  1.00  0.00     0.053 C 
ATOM      4  C   UNL     1      75.712  72.337  20.545  1.00  0.00     0.016 C 
BRANCH   3   5
ATOM      5  C   UNL     1      74.187  74.363  20.309  1.00  0.00     0.015 C 
BRANCH   5   6
ATOM      6  C   UNL     1      74.201  75.881  20.639  1.00  0.00     0.028 C 
BRANCH   6   7
ATOM      7  C   UNL     1      75.210  76.329  21.667  1.00  0.00    -0.028 C 
ATOM      8  C   UNL     1      74.944  76.671  22.950  1.00  0.00    -0.070 CG0
ATOM      9  C   UNL     1      76.113  77.071  23.819  1.00  0.00     0.039 C 
ATOM     10  G   UNL     1      73.545  76.780  23.531  1.00  0.00     0.000 G0
ENDBRANCH   6   7
ENDBRANCH   5   6
ENDBRANCH   3   5
ENDBRANCH   1   3
BRANCH   1  11
ATOM     11  C   UNL     1      73.777  73.227  23.786  1.00  0.00     0.087 C 
BRANCH  11  12
ATOM     12  C   UNL     1      72.650  74.263  24.028  1.00  0.00     0.066 C 
BRANCH  12  13
ATOM     13  C   UNL     1      73.114  75.653  24.468  1.00  0.00     0.140 C 
ATOM     14  O   UNL     1      73.237  75.845  25.671  1.00  0.00    -0.299 OA
BRANCH  13  15
ATOM     15  C   UNL     1      73.542  76.779  23.547  1.00  0.00     0.106 CG0
ATOM     16  G   UNL     1      74.934  76.678  22.948  1.00  0.00     0.000 G0
ENDBRANCH  13  15
ENDBRANCH  12  13
BRANCH  12  17
ATOM     17  C   UNL     1      71.534  73.743  24.994  1.00  0.00    -0.006 C 
ATOM     18  C   UNL     1      71.426  72.211  25.052  1.00  0.00     0.008 C 
ATOM     19  C   UNL     1      70.157  74.355  24.678  1.00  0.00     0.008 C 
ENDBRANCH  12  17
ENDBRANCH  11  12
ENDBRANCH   1  11
TORSDOF 1
ENDMDL
MODEL 4
REMARK VINA RESULT:    -2.905     11.402     13.616
REMARK INTER + INTRA:          -4.226
REMARK INTER:                  -4.044
REMARK INTRA:                  -0.182
REMARK UNBOUND:                 0.207
REMARK SMILES CC1=CCC[C@H](C)C(=O)C[C@@H](C(C)C)C(=O)C1
REMARK SMILES IDX 8 1 9 2 6 3 7 4 5 5 4 6 3 7 2 8 1 9 10 11 11 12 15 13 16 14
REMARK SMILES IDX 17 15 12 17 13 18 14 19
REMARK H PARENT
REMARK Flexibility Score: 70.00
ROOT
ATOM      1  C   UNL     1      72.587  71.303  25.457  1.00  0.00     0.136 C 
ATOM      2  O   UNL     1      72.461  70.404  26.277  1.00  0.00    -0.299 OA
ENDROOT
BRANCH   1   3
ATOM      3  C   UNL     1      71.308  71.796  24.781  1.00  0.00     0.053 C 
ATOM      4  C   UNL     1      70.716  72.972  25.569  1.00  0.00     0.016 C 
BRANCH   3   5
ATOM      5  C   UNL     1      71.387  72.120  23.264  1.00  0.00     0.015 C 
BRANCH   5   6
ATOM      6  C   UNL     1      71.246  73.604  22.829  1.00  0.00     0.028 C 
BRANCH   6   7
ATOM      7  C   UNL     1      72.187  74.073  21.746  1.00  0.00    -0.028 C 
ATOM      8  C   UNL     1      73.376  74.693  21.935  1.00  0.00    -0.070 CG0
ATOM      9  C   UNL     1      74.173  75.058  20.704  1.00  0.00     0.039 C 
ATOM     10  G   UNL     1      73.901  75.135  23.290  1.00  0.00     0.000 G0
ENDBRANCH   6   7
ENDBRANCH   5   6
ENDBRANCH   3   5
ENDBRANCH   1   3
BRANCH   1  11
ATOM     11  C   UNL     1      73.991  71.879  25.307  1.00  0.00     0.087 C 
BRANCH  11  12
ATOM     12  C   UNL     1      74.183  73.415  25.384  1.00  0.00     0.066 C 
BRANCH  12  13
ATOM     13  C   UNL     1      74.660  74.087  24.094  1.00  0.00     0.140 C 
ATOM     14  O   UNL     1      75.717  73.692  23.619  1.00  0.00    -0.299 OA
BRANCH  13  15
ATOM     15  C   UNL     1      73.891  75.117  23.292  1.00  0.00     0.106 CG0
ATOM     16  G   UNL     1      73.398  74.684  21.922  1.00  0.00     0.000 G0
ENDBRANCH  13  15
ENDBRANCH  12  13
BRANCH  12  17
ATOM     17  C   UNL     1      75.083  73.863  26.583  1.00  0.00    -0.006 C 
ATOM     18  C   UNL     1      75.182  72.821  27.709  1.00  0.00     0.008 C 
ATOM     19  C   UNL     1      74.650  75.222  27.162  1.00  0.00     0.008 C 
ENDBRANCH  12  17
ENDBRANCH  11  12
ENDBRANCH   1  11
TORSDOF 1
ENDMDL
MODEL 5
REMARK VINA RESULT:    -2.893     10.412     12.171
REMARK INTER + INTRA:          -4.207
REMARK INTER:                  -4.065
REMARK INTRA:                  -0.143
REMARK UNBOUND:                 0.207
REMARK SMILES CC1=CCC[C@H](C)C(=O)C[C@@H](C(C)C)C(=O)C1
REMARK SMILES IDX 8 1 9 2 6 3 7 4 5 5 4 6 3 7 2 8 1 9 10 11 11 12 15 13 16 14
REMARK SMILES IDX 17 15 12 17 13 18 14 19
REMARK H PARENT
REMARK Flexibility Score: 70.00
ROOT
ATOM      1  C   UNL     1      73.912  71.486  25.809  1.00  0.00     0.136 C 
ATOM      2  O   UNL     1      72.929  70.780  25.987  1.00  0.00    -0.299 OA
ENDROOT
BRANCH   1   3
ATOM      3  C   UNL     1      73.703  72.748  24.972  1.00  0.00     0.053 C 
ATOM      4  C   UNL     1      73.057  72.387  23.628  1.00  0.00     0.016 C 
BRANCH   3   5
ATOM      5  C   UNL     1      72.964  73.934  25.650  1.00  0.00     0.015 C 
BRANCH   5   6
ATOM      6  C   UNL     1      73.594  74.549  26.929  1.00  0.00     0.028 C 
BRANCH   6   7
ATOM      7  C   UNL     1      75.088  74.760  26.899  1.00  0.00    -0.028 C 
ATOM      8  C   UNL     1      75.989  74.215  27.749  1.00  0.00    -0.070 CG0
ATOM      9  C   UNL     1      77.446  74.543  27.524  1.00  0.00     0.039 C 
ATOM     10  G   UNL     1      75.617  73.388  28.969  1.00  0.00     0.000 G0
ENDBRANCH   6   7
ENDBRANCH   5   6
ENDBRANCH   3   5
ENDBRANCH   1   3
BRANCH   1  11
ATOM     11  C   UNL     1      75.180  71.064  26.542  1.00  0.00     0.087 C 
BRANCH  11  12
ATOM     12  C   UNL     1      75.128  70.871  28.079  1.00  0.00     0.066 C 
BRANCH  12  13
ATOM     13  C   UNL     1      75.914  71.895  28.901  1.00  0.00     0.140 C 
ATOM     14  O   UNL     1      76.910  71.492  29.488  1.00  0.00    -0.299 OA
BRANCH  13  15
ATOM     15  C   UNL     1      75.637  73.384  28.965  1.00  0.00     0.106 CG0
ATOM     16  G   UNL     1      76.000  74.198  27.734  1.00  0.00     0.000 G0
ENDBRANCH  13  15
ENDBRANCH  12  13
BRANCH  12  17
ATOM     17  C   UNL     1      75.507  69.421  28.530  1.00  0.00    -0.006 C 
ATOM     18  C   UNL     1      76.638  68.789  27.704  1.00  0.00     0.008 C 
ATOM     19  C   UNL     1      74.288  68.481  28.557  1.00  0.00     0.008 C 
ENDBRANCH  12  17
ENDBRANCH  11  12
ENDBRANCH   1  11
TORSDOF 1
ENDMDL
MODEL 6
REMARK VINA RESULT:    -2.857     12.231     13.833
REMARK INTER + INTRA:          -4.153
REMARK INTER:                  -3.817
REMARK INTRA:                  -0.336
REMARK UNBOUND:                 0.207
REMARK SMILES CC1=CCC[C@H](C)C(=O)C[C@@H](C(C)C)C(=O)C1
REMARK SMILES IDX 8 1 9 2 6 3 7 4 5 5 4 6 3 7 2 8 1 9 10 11 11 12 15 13 16 14
REMARK SMILES IDX 17 15 12 17 13 18 14 19
REMARK H PARENT
REMARK Flexibility Score: 70.00
ROOT
ATOM      1  C   UNL     1      72.459  72.468  23.966  1.00  0.00     0.136 C 
ATOM      2  O   UNL     1      72.187  71.395  24.488  1.00  0.00    -0.299 OA
ENDROOT
BRANCH   1   3
ATOM      3  C   UNL     1      72.145  73.723  24.780  1.00  0.00     0.053 C 
ATOM      4  C   UNL     1      70.659  73.745  25.160  1.00  0.00     0.016 C 
BRANCH   3   5
ATOM      5  C   UNL     1      73.044  74.010  26.014  1.00  0.00     0.015 C 
BRANCH   5   6
ATOM      6  C   UNL     1      74.102  75.140  25.896  1.00  0.00     0.028 C 
BRANCH   6   7
ATOM      7  C   UNL     1      74.235  75.788  24.540  1.00  0.00    -0.028 C 
ATOM      8  C   UNL     1      75.035  75.371  23.530  1.00  0.00    -0.070 CG0
ATOM      9  C   UNL     1      74.997  76.158  22.242  1.00  0.00     0.039 C 
ATOM     10  G   UNL     1      76.038  74.236  23.651  1.00  0.00     0.000 G0
ENDBRANCH   6   7
ENDBRANCH   5   6
ENDBRANCH   3   5
ENDBRANCH   1   3
BRANCH   1  11
ATOM     11  C   UNL     1      73.175  72.395  22.622  1.00  0.00     0.087 C 
BRANCH  11  12
ATOM     12  C   UNL     1      74.703  72.133  22.600  1.00  0.00     0.066 C 
BRANCH  12  13
ATOM     13  C   UNL     1      75.506  72.819  23.708  1.00  0.00     0.140 C 
ATOM     14  O   UNL     1      75.808  72.138  24.680  1.00  0.00    -0.299 OA
BRANCH  13  15
ATOM     15  C   UNL     1      76.056  74.230  23.663  1.00  0.00     0.106 CG0
ATOM     16  G   UNL     1      75.040  75.353  23.533  1.00  0.00     0.000 G0
ENDBRANCH  13  15
ENDBRANCH  12  13
BRANCH  12  17
ATOM     17  C   UNL     1      75.357  72.425  21.209  1.00  0.00    -0.006 C 
ATOM     18  C   UNL     1      74.382  72.306  20.027  1.00  0.00     0.008 C 
ATOM     19  C   UNL     1      76.600  71.552  20.954  1.00  0.00     0.008 C 
ENDBRANCH  12  17
ENDBRANCH  11  12
ENDBRANCH   1  11
TORSDOF 1
ENDMDL
MODEL 7
REMARK VINA RESULT:    -2.769     13.114     14.543
REMARK INTER + INTRA:          -4.018
REMARK INTER:                  -3.624
REMARK INTRA:                  -0.394
REMARK UNBOUND:                 0.207
REMARK SMILES CC1=CCC[C@H](C)C(=O)C[C@@H](C(C)C)C(=O)C1
REMARK SMILES IDX 8 1 9 2 6 3 7 4 5 5 4 6 3 7 2 8 1 9 10 11 11 12 15 13 16 14
REMARK SMILES IDX 17 15 12 17 13 18 14 19
REMARK H PARENT
REMARK Flexibility Score: 70.00
ROOT
ATOM      1  C   UNL     1      76.025  72.526  23.259  1.00  0.00     0.136 C 
ATOM      2  O   UNL     1      76.037  71.541  23.985  1.00  0.00    -0.299 OA
ENDROOT
BRANCH   1   3
ATOM      3  C   UNL     1      76.131  72.268  21.756  1.00  0.00     0.053 C 
ATOM      4  C   UNL     1      77.372  71.419  21.454  1.00  0.00     0.016 C 
BRANCH   3   5
ATOM      5  C   UNL     1      74.874  71.696  21.046  1.00  0.00     0.015 C 
BRANCH   5   6
ATOM      6  C   UNL     1      73.962  72.687  20.272  1.00  0.00     0.028 C 
BRANCH   6   7
ATOM      7  C   UNL     1      74.380  74.136  20.299  1.00  0.00    -0.028 C 
ATOM      8  C   UNL     1      73.954  75.074  21.178  1.00  0.00    -0.070 CG0
ATOM      9  C   UNL     1      74.521  76.467  21.038  1.00  0.00     0.039 C 
ATOM     10  G   UNL     1      72.872  74.838  22.218  1.00  0.00     0.000 G0
ENDBRANCH   6   7
ENDBRANCH   5   6
ENDBRANCH   3   5
ENDBRANCH   1   3
BRANCH   1  11
ATOM     11  C   UNL     1      75.795  73.865  23.952  1.00  0.00     0.087 C 
BRANCH  11  12
ATOM     12  C   UNL     1      74.363  74.230  24.419  1.00  0.00     0.066 C 
BRANCH  12  13
ATOM     13  C   UNL     1      73.248  73.950  23.409  1.00  0.00     0.140 C 
ATOM     14  O   UNL     1      72.540  72.973  23.618  1.00  0.00    -0.299 OA
BRANCH  13  15
ATOM     15  C   UNL     1      72.869  74.833  22.237  1.00  0.00     0.106 CG0
ATOM     16  G   UNL     1      73.944  75.074  21.191  1.00  0.00     0.000 G0
ENDBRANCH  13  15
ENDBRANCH  12  13
BRANCH  12  17
ATOM     17  C   UNL     1      74.246  75.698  24.951  1.00  0.00    -0.006 C 
ATOM     18  C   UNL     1      75.490  76.558  24.681  1.00  0.00     0.008 C 
ATOM     19  C   UNL     1      73.887  75.749  26.447  1.00  0.00     0.008 C 
ENDBRANCH  12  17
ENDBRANCH  11  12
ENDBRANCH   1  11
TORSDOF 1
ENDMDL
MODEL 8
REMARK VINA RESULT:    -2.753     11.917     13.691
REMARK INTER + INTRA:          -3.994
REMARK INTER:                  -4.031
REMARK INTRA:                   0.038
REMARK UNBOUND:                 0.207
REMARK SMILES CC1=CCC[C@H](C)C(=O)C[C@@H](C(C)C)C(=O)C1
REMARK SMILES IDX 8 1 9 2 6 3 7 4 5 5 4 6 3 7 2 8 1 9 10 11 11 12 15 13 16 14
REMARK SMILES IDX 17 15 12 17 13 18 14 19
REMARK H PARENT
REMARK Flexibility Score: 70.00
ROOT
ATOM      1  C   UNL     1      74.732  72.494  22.018  1.00  0.00     0.136 C 
ATOM      2  O   UNL     1      75.819  72.081  22.400  1.00  0.00    -0.299 OA
ENDROOT
BRANCH   1   3
ATOM      3  C   UNL     1      74.734  73.348  20.751  1.00  0.00     0.053 C 
ATOM      4  C   UNL     1      73.515  73.006  19.885  1.00  0.00     0.016 C 
BRANCH   3   5
ATOM      5  C   UNL     1      74.881  74.884  20.932  1.00  0.00     0.015 C 
BRANCH   5   6
ATOM      6  C   UNL     1      75.056  75.433  22.374  1.00  0.00     0.028 C 
BRANCH   6   7
ATOM      7  C   UNL     1      73.867  76.153  22.961  1.00  0.00    -0.028 C 
ATOM      8  C   UNL     1      73.397  76.020  24.224  1.00  0.00    -0.070 CG0
ATOM      9  C   UNL     1      72.201  76.857  24.613  1.00  0.00     0.039 C 
ATOM     10  G   UNL     1      73.928  75.012  25.229  1.00  0.00     0.000 G0
ENDBRANCH   6   7
ENDBRANCH   5   6
ENDBRANCH   3   5
ENDBRANCH   1   3
BRANCH   1  11
ATOM     11  C   UNL     1      73.519  72.005  22.801  1.00  0.00     0.087 C 
BRANCH  11  12
ATOM     12  C   UNL     1      72.842  72.966  23.811  1.00  0.00     0.066 C 
BRANCH  12  13
ATOM     13  C   UNL     1      73.759  73.537  24.895  1.00  0.00     0.140 C 
ATOM     14  O   UNL     1      74.491  72.748  25.478  1.00  0.00    -0.299 OA
BRANCH  13  15
ATOM     15  C   UNL     1      73.924  75.005  25.236  1.00  0.00     0.106 CG0
ATOM     16  G   UNL     1      73.403  76.003  24.216  1.00  0.00     0.000 G0
ENDBRANCH  13  15
ENDBRANCH  12  13
BRANCH  12  17
ATOM     17  C   UNL     1      71.554  72.363  24.465  1.00  0.00    -0.006 C 
ATOM     18  C   UNL     1      70.999  71.134  23.728  1.00  0.00     0.008 C 
ATOM     19  C   UNL     1      70.444  73.414  24.644  1.00  0.00     0.008 C 
ENDBRANCH  12  17
ENDBRANCH  11  12
ENDBRANCH   1  11
TORSDOF 1
ENDMDL
MODEL 9
REMARK VINA RESULT:    -2.739     11.528     13.371
REMARK INTER + INTRA:          -3.973
REMARK INTER:                  -3.906
REMARK INTRA:                  -0.067
REMARK UNBOUND:                 0.207
REMARK SMILES CC1=CCC[C@H](C)C(=O)C[C@@H](C(C)C)C(=O)C1
REMARK SMILES IDX 8 1 9 2 6 3 7 4 5 5 4 6 3 7 2 8 1 9 10 11 11 12 15 13 16 14
REMARK SMILES IDX 17 15 12 17 13 18 14 19
REMARK H PARENT
REMARK Flexibility Score: 70.00
ROOT
ATOM      1  C   UNL     1      72.112  72.894  23.305  1.00  0.00     0.136 C 
ATOM      2  O   UNL     1      70.969  72.855  22.872  1.00  0.00    -0.299 OA
ENDROOT
BRANCH   1   3
ATOM      3  C   UNL     1      72.278  72.707  24.813  1.00  0.00     0.053 C 
ATOM      4  C   UNL     1      70.906  72.720  25.499  1.00  0.00     0.016 C 
BRANCH   3   5
ATOM      5  C   UNL     1      73.131  71.498  25.287  1.00  0.00     0.015 C 
BRANCH   5   6
ATOM      6  C   UNL     1      74.360  71.786  26.192  1.00  0.00     0.028 C 
BRANCH   6   7
ATOM      7  C   UNL     1      74.553  73.221  26.616  1.00  0.00    -0.028 C 
ATOM      8  C   UNL     1      75.260  74.163  25.948  1.00  0.00    -0.070 CG0
ATOM      9  C   UNL     1      75.305  75.550  26.544  1.00  0.00     0.039 C 
ATOM     10  G   UNL     1      76.090  73.885  24.707  1.00  0.00     0.000 G0
ENDBRANCH   6   7
ENDBRANCH   5   6
ENDBRANCH   3   5
ENDBRANCH   1   3
BRANCH   1  11
ATOM     11  C   UNL     1      73.219  73.014  22.263  1.00  0.00     0.087 C 
BRANCH  11  12
ATOM     12  C   UNL     1      74.686  72.763  22.695  1.00  0.00     0.066 C 
BRANCH  12  13
ATOM     13  C   UNL     1      75.383  73.941  23.381  1.00  0.00     0.140 C 
ATOM     14  O   UNL     1      75.271  75.039  22.850  1.00  0.00    -0.299 OA
BRANCH  13  15
ATOM     15  C   UNL     1      76.104  73.894  24.713  1.00  0.00     0.106 CG0
ATOM     16  G   UNL     1      75.270  74.180  25.950  1.00  0.00     0.000 G0
ENDBRANCH  13  15
ENDBRANCH  12  13
BRANCH  12  17
ATOM     17  C   UNL     1      75.583  72.213  21.537  1.00  0.00    -0.006 C 
ATOM     18  C   UNL     1      75.043  72.523  20.132  1.00  0.00     0.008 C 
ATOM     19  C   UNL     1      75.853  70.704  21.675  1.00  0.00     0.008 C 
ENDBRANCH  12  17
ENDBRANCH  11  12
ENDBRANCH   1  11
TORSDOF 1
ENDMDL
