MODEL 1
REMARK VINA RESULT:    -6.826      0.000      0.000
REMARK INTER + INTRA:         -13.127
REMARK INTER:                 -12.413
REMARK INTRA:                  -0.715
REMARK UNBOUND:                -0.715
REMARK SMILES CCCCCCCCCCCCCCCC(=O)[O-]
REMARK SMILES IDX 9 1 10 2 11 3 12 4 13 5 14 6 15 7 16 8 17 9 18 10 8 11 7 12
REMARK SMILES IDX 6 13 5 14 4 15 3 16 2 17 1 18
REMARK H PARENT
REMARK Flexibility Score: inf
ROOT
ATOM      1  C   UNL     1      12.698  -2.203 -22.973  1.00  0.00     0.000 C 
ENDROOT
BRANCH   1   2
ATOM      2  C   UNL     1      11.408  -2.115 -22.141  1.00  0.00     0.000 C 
BRANCH   2   3
ATOM      3  C   UNL     1      11.484  -1.042 -21.041  1.00  0.00     0.000 C 
BRANCH   3   4
ATOM      4  C   UNL     1      12.936  -0.769 -20.598  1.00  0.00     0.000 C 
BRANCH   4   5
ATOM      5  C   UNL     1      13.092  -0.578 -19.080  1.00  0.00     0.000 C 
BRANCH   5   6
ATOM      6  C   UNL     1      11.866   0.077 -18.429  1.00  0.00     0.006 C 
BRANCH   6   7
ATOM      7  C   UNL     1      12.172   0.518 -16.995  1.00  0.00     0.053 C 
BRANCH   7   8
ATOM      8  C   UNL     1      13.311   1.488 -16.977  1.00  0.00     0.041 C 
ATOM      9  O   UNL     1      13.265   2.532 -17.679  1.00  0.00    -0.550 OA
ATOM     10  O   UNL     1      14.404   1.262 -16.150  1.00  0.00    -0.550 OA
ENDBRANCH   7   8
ENDBRANCH   6   7
ENDBRANCH   5   6
ENDBRANCH   4   5
ENDBRANCH   3   4
ENDBRANCH   2   3
ENDBRANCH   1   2
BRANCH   1  11
ATOM     11  C   UNL     1      12.902  -3.582 -23.636  1.00  0.00     0.000 C 
BRANCH  11  12
ATOM     12  C   UNL     1      14.381  -4.009 -23.636  1.00  0.00    -0.000 C 
BRANCH  12  13
ATOM     13  C   UNL     1      14.681  -5.108 -24.667  1.00  0.00    -0.000 C 
BRANCH  13  14
ATOM     14  C   UNL     1      15.462  -4.585 -25.881  1.00  0.00    -0.000 C 
BRANCH  14  15
ATOM     15  C   UNL     1      16.755  -3.885 -25.443  1.00  0.00    -0.000 C 
BRANCH  15  16
ATOM     16  C   UNL     1      17.675  -4.850 -24.686  1.00  0.00    -0.000 C 
BRANCH  16  17
ATOM     17  C   UNL     1      19.099  -4.292 -24.591  1.00  0.00    -0.003 C 
ATOM     18  C   UNL     1      19.088  -2.839 -24.116  1.00  0.00     0.004 C 
ENDBRANCH  16  17
ENDBRANCH  15  16
ENDBRANCH  14  15
ENDBRANCH  13  14
ENDBRANCH  12  13
ENDBRANCH  11  12
ENDBRANCH   1  11
TORSDOF 14
ENDMDL
MODEL 2
REMARK VINA RESULT:    -6.788      1.269      2.449
REMARK INTER + INTRA:         -13.059
REMARK INTER:                 -12.177
REMARK INTRA:                  -0.882
REMARK UNBOUND:                -0.715
REMARK SMILES CCCCCCCCCCCCCCCC(=O)[O-]
REMARK SMILES IDX 9 1 10 2 11 3 12 4 13 5 14 6 15 7 16 8 17 9 18 10 8 11 7 12
REMARK SMILES IDX 6 13 5 14 4 15 3 16 2 17 1 18
REMARK H PARENT
REMARK Flexibility Score: inf
ROOT
ATOM      1  C   UNL     1      12.911  -4.382 -24.249  1.00  0.00     0.000 C 
ENDROOT
BRANCH   1   2
ATOM      2  C   UNL     1      13.433  -3.353 -23.232  1.00  0.00     0.000 C 
BRANCH   2   3
ATOM      3  C   UNL     1      12.521  -2.120 -23.116  1.00  0.00     0.000 C 
BRANCH   3   4
ATOM      4  C   UNL     1      11.149  -2.470 -22.502  1.00  0.00     0.000 C 
BRANCH   4   5
ATOM      5  C   UNL     1      10.855  -1.727 -21.189  1.00  0.00     0.000 C 
BRANCH   5   6
ATOM      6  C   UNL     1      12.092  -1.030 -20.603  1.00  0.00     0.006 C 
BRANCH   6   7
ATOM      7  C   UNL     1      11.926  -0.783 -19.101  1.00  0.00     0.053 C 
BRANCH   7   8
ATOM      8  C   UNL     1      13.218  -0.325 -18.500  1.00  0.00     0.041 C 
ATOM      9  O   UNL     1      13.251   0.710 -17.782  1.00  0.00    -0.550 OA
ATOM     10  O   UNL     1      14.378  -1.064 -18.697  1.00  0.00    -0.550 OA
ENDBRANCH   7   8
ENDBRANCH   6   7
ENDBRANCH   5   6
ENDBRANCH   4   5
ENDBRANCH   3   4
ENDBRANCH   2   3
ENDBRANCH   1   2
BRANCH   1  11
ATOM     11  C   UNL     1      14.008  -5.336 -24.768  1.00  0.00     0.000 C 
BRANCH  11  12
ATOM     12  C   UNL     1      14.759  -4.748 -25.977  1.00  0.00    -0.000 C 
BRANCH  12  13
ATOM     13  C   UNL     1      16.128  -4.163 -25.598  1.00  0.00    -0.000 C 
BRANCH  13  14
ATOM     14  C   UNL     1      16.815  -4.944 -24.469  1.00  0.00    -0.000 C 
BRANCH  14  15
ATOM     15  C   UNL     1      18.313  -4.623 -24.410  1.00  0.00    -0.000 C 
BRANCH  15  16
ATOM     16  C   UNL     1      18.581  -3.167 -24.810  1.00  0.00    -0.000 C 
BRANCH  16  17
ATOM     17  C   UNL     1      20.085  -2.872 -24.839  1.00  0.00    -0.003 C 
ATOM     18  C   UNL     1      20.865  -3.917 -24.042  1.00  0.00     0.004 C 
ENDBRANCH  16  17
ENDBRANCH  15  16
ENDBRANCH  14  15
ENDBRANCH  13  14
ENDBRANCH  12  13
ENDBRANCH  11  12
ENDBRANCH   1  11
TORSDOF 14
ENDMDL
MODEL 3
REMARK VINA RESULT:    -6.719      0.727      1.118
REMARK INTER + INTRA:         -12.933
REMARK INTER:                 -12.198
REMARK INTRA:                  -0.735
REMARK UNBOUND:                -0.715
REMARK SMILES CCCCCCCCCCCCCCCC(=O)[O-]
REMARK SMILES IDX 9 1 10 2 11 3 12 4 13 5 14 6 15 7 16 8 17 9 18 10 8 11 7 12
REMARK SMILES IDX 6 13 5 14 4 15 3 16 2 17 1 18
REMARK H PARENT
REMARK Flexibility Score: inf
ROOT
ATOM      1  C   UNL     1      12.600  -2.149 -23.231  1.00  0.00     0.000 C 
ENDROOT
BRANCH   1   2
ATOM      2  C   UNL     1      11.301  -2.218 -22.412  1.00  0.00     0.000 C 
BRANCH   2   3
ATOM      3  C   UNL     1      11.364  -1.372 -21.128  1.00  0.00     0.000 C 
BRANCH   3   4
ATOM      4  C   UNL     1      12.676  -0.565 -21.031  1.00  0.00     0.000 C 
BRANCH   4   5
ATOM      5  C   UNL     1      13.214  -0.436 -19.596  1.00  0.00     0.000 C 
BRANCH   5   6
ATOM      6  C   UNL     1      12.146  -0.711 -18.527  1.00  0.00     0.006 C 
BRANCH   6   7
ATOM      7  C   UNL     1      11.768   0.571 -17.781  1.00  0.00     0.053 C 
BRANCH   7   8
ATOM      8  C   UNL     1      12.996   1.289 -17.317  1.00  0.00     0.041 C 
ATOM      9  O   UNL     1      13.715   0.793 -16.410  1.00  0.00    -0.550 OA
ATOM     10  O   UNL     1      13.371   2.485 -17.916  1.00  0.00    -0.550 OA
ENDBRANCH   7   8
ENDBRANCH   6   7
ENDBRANCH   5   6
ENDBRANCH   4   5
ENDBRANCH   3   4
ENDBRANCH   2   3
ENDBRANCH   1   2
BRANCH   1  11
ATOM     11  C   UNL     1      13.383  -3.479 -23.243  1.00  0.00     0.000 C 
BRANCH  11  12
ATOM     12  C   UNL     1      13.031  -4.346 -24.466  1.00  0.00    -0.000 C 
BRANCH  12  13
ATOM     13  C   UNL     1      14.275  -4.856 -25.210  1.00  0.00    -0.000 C 
BRANCH  13  14
ATOM     14  C   UNL     1      15.581  -4.531 -24.472  1.00  0.00    -0.000 C 
BRANCH  14  15
ATOM     15  C   UNL     1      16.706  -4.206 -25.462  1.00  0.00    -0.000 C 
BRANCH  15  16
ATOM     16  C   UNL     1      18.048  -4.770 -24.978  1.00  0.00    -0.000 C 
BRANCH  16  17
ATOM     17  C   UNL     1      18.910  -3.671 -24.347  1.00  0.00    -0.003 C 
ATOM     18  C   UNL     1      20.347  -3.736 -24.864  1.00  0.00     0.004 C 
ENDBRANCH  16  17
ENDBRANCH  15  16
ENDBRANCH  14  15
ENDBRANCH  13  14
ENDBRANCH  12  13
ENDBRANCH  11  12
ENDBRANCH   1  11
TORSDOF 14
ENDMDL
MODEL 4
REMARK VINA RESULT:    -6.357      4.103      8.487
REMARK INTER + INTRA:         -12.275
REMARK INTER:                 -11.525
REMARK INTRA:                  -0.750
REMARK UNBOUND:                -0.715
REMARK SMILES CCCCCCCCCCCCCCCC(=O)[O-]
REMARK SMILES IDX 9 1 10 2 11 3 12 4 13 5 14 6 15 7 16 8 17 9 18 10 8 11 7 12
REMARK SMILES IDX 6 13 5 14 4 15 3 16 2 17 1 18
REMARK H PARENT
REMARK Flexibility Score: inf
ROOT
ATOM      1  C   UNL     1      13.123  -3.672 -23.255  1.00  0.00     0.000 C 
ENDROOT
BRANCH   1   2
ATOM      2  C   UNL     1      12.993  -4.317 -24.644  1.00  0.00     0.000 C 
BRANCH   2   3
ATOM      3  C   UNL     1      14.254  -5.096 -25.056  1.00  0.00     0.000 C 
BRANCH   3   4
ATOM      4  C   UNL     1      15.520  -4.559 -24.357  1.00  0.00     0.000 C 
BRANCH   4   5
ATOM      5  C   UNL     1      16.631  -4.139 -25.334  1.00  0.00     0.000 C 
BRANCH   5   6
ATOM      6  C   UNL     1      17.999  -4.743 -24.984  1.00  0.00     0.006 C 
BRANCH   6   7
ATOM      7  C   UNL     1      18.896  -3.715 -24.290  1.00  0.00     0.053 C 
BRANCH   7   8
ATOM      8  C   UNL     1      20.337  -4.004 -24.568  1.00  0.00     0.041 C 
ATOM      9  O   UNL     1      21.114  -4.316 -23.627  1.00  0.00    -0.550 OA
ATOM     10  O   UNL     1      20.814  -3.971 -25.872  1.00  0.00    -0.550 OA
ENDBRANCH   7   8
ENDBRANCH   6   7
ENDBRANCH   5   6
ENDBRANCH   4   5
ENDBRANCH   3   4
ENDBRANCH   2   3
ENDBRANCH   1   2
BRANCH   1  11
ATOM     11  C   UNL     1      12.721  -2.181 -23.236  1.00  0.00     0.000 C 
BRANCH  11  12
ATOM     12  C   UNL     1      11.389  -1.951 -22.499  1.00  0.00    -0.000 C 
BRANCH  12  13
ATOM     13  C   UNL     1      11.586  -1.419 -21.071  1.00  0.00    -0.000 C 
BRANCH  13  14
ATOM     14  C   UNL     1      12.845  -0.551 -20.930  1.00  0.00    -0.000 C 
BRANCH  14  15
ATOM     15  C   UNL     1      13.245  -0.397 -19.457  1.00  0.00    -0.000 C 
BRANCH  15  16
ATOM     16  C   UNL     1      12.061  -0.698 -18.530  1.00  0.00    -0.000 C 
BRANCH  16  17
ATOM     17  C   UNL     1      11.661   0.545 -17.728  1.00  0.00    -0.003 C 
ATOM     18  C   UNL     1      12.893   1.263 -17.178  1.00  0.00     0.004 C 
ENDBRANCH  16  17
ENDBRANCH  15  16
ENDBRANCH  14  15
ENDBRANCH  13  14
ENDBRANCH  12  13
ENDBRANCH  11  12
ENDBRANCH   1  11
TORSDOF 14
ENDMDL
MODEL 5
REMARK VINA RESULT:    -6.242      1.541      1.954
REMARK INTER + INTRA:         -12.065
REMARK INTER:                 -11.451
REMARK INTRA:                  -0.613
REMARK UNBOUND:                -0.715
REMARK SMILES CCCCCCCCCCCCCCCC(=O)[O-]
REMARK SMILES IDX 9 1 10 2 11 3 12 4 13 5 14 6 15 7 16 8 17 9 18 10 8 11 7 12
REMARK SMILES IDX 6 13 5 14 4 15 3 16 2 17 1 18
REMARK H PARENT
REMARK Flexibility Score: inf
ROOT
ATOM      1  C   UNL     1      11.758  -1.870 -22.877  1.00  0.00     0.000 C 
ENDROOT
BRANCH   1   2
ATOM      2  C   UNL     1      11.002  -2.118 -21.561  1.00  0.00     0.000 C 
BRANCH   2   3
ATOM      3  C   UNL     1      11.237  -1.006 -20.524  1.00  0.00     0.000 C 
BRANCH   3   4
ATOM      4  C   UNL     1      10.333  -1.171 -19.285  1.00  0.00     0.000 C 
BRANCH   4   5
ATOM      5  C   UNL     1      10.286   0.077 -18.387  1.00  0.00     0.000 C 
BRANCH   5   6
ATOM      6  C   UNL     1      11.659   0.741 -18.211  1.00  0.00     0.006 C 
BRANCH   6   7
ATOM      7  C   UNL     1      12.405   0.157 -17.008  1.00  0.00     0.053 C 
BRANCH   7   8
ATOM      8  C   UNL     1      13.160  -1.072 -17.406  1.00  0.00     0.041 C 
ATOM      9  O   UNL     1      13.992  -1.027 -18.351  1.00  0.00    -0.550 OA
ATOM     10  O   UNL     1      12.978  -2.258 -16.706  1.00  0.00    -0.550 OA
ENDBRANCH   7   8
ENDBRANCH   6   7
ENDBRANCH   5   6
ENDBRANCH   4   5
ENDBRANCH   3   4
ENDBRANCH   2   3
ENDBRANCH   1   2
BRANCH   1  11
ATOM     11  C   UNL     1      12.910  -2.870 -23.115  1.00  0.00     0.000 C 
BRANCH  11  12
ATOM     12  C   UNL     1      12.489  -4.027 -24.039  1.00  0.00    -0.000 C 
BRANCH  12  13
ATOM     13  C   UNL     1      13.604  -5.065 -24.235  1.00  0.00    -0.000 C 
BRANCH  13  14
ATOM     14  C   UNL     1      14.945  -4.615 -23.640  1.00  0.00    -0.000 C 
BRANCH  14  15
ATOM     15  C   UNL     1      15.946  -4.257 -24.746  1.00  0.00    -0.000 C 
BRANCH  15  16
ATOM     16  C   UNL     1      17.314  -4.898 -24.479  1.00  0.00    -0.000 C 
BRANCH  16  17
ATOM     17  C   UNL     1      18.438  -4.086 -25.133  1.00  0.00    -0.003 C 
ATOM     18  C   UNL     1      19.198  -3.264 -24.093  1.00  0.00     0.004 C 
ENDBRANCH  16  17
ENDBRANCH  15  16
ENDBRANCH  14  15
ENDBRANCH  13  14
ENDBRANCH  12  13
ENDBRANCH  11  12
ENDBRANCH   1  11
TORSDOF 14
ENDMDL
MODEL 6
REMARK VINA RESULT:    -6.182      4.000      8.443
REMARK INTER + INTRA:         -11.956
REMARK INTER:                 -11.263
REMARK INTRA:                  -0.693
REMARK UNBOUND:                -0.715
REMARK SMILES CCCCCCCCCCCCCCCC(=O)[O-]
REMARK SMILES IDX 9 1 10 2 11 3 12 4 13 5 14 6 15 7 16 8 17 9 18 10 8 11 7 12
REMARK SMILES IDX 6 13 5 14 4 15 3 16 2 17 1 18
REMARK H PARENT
REMARK Flexibility Score: inf
ROOT
ATOM      1  C   UNL     1      12.250  -4.204 -23.942  1.00  0.00     0.000 C 
ENDROOT
BRANCH   1   2
ATOM      2  C   UNL     1      13.344  -5.178 -24.408  1.00  0.00     0.000 C 
BRANCH   2   3
ATOM      3  C   UNL     1      13.660  -5.042 -25.908  1.00  0.00     0.000 C 
BRANCH   3   4
ATOM      4  C   UNL     1      15.164  -4.813 -26.164  1.00  0.00     0.000 C 
BRANCH   4   5
ATOM      5  C   UNL     1      15.958  -4.464 -24.894  1.00  0.00     0.000 C 
BRANCH   5   6
ATOM      6  C   UNL     1      17.219  -3.637 -25.183  1.00  0.00     0.006 C 
BRANCH   6   7
ATOM      7  C   UNL     1      18.481  -4.377 -24.730  1.00  0.00     0.053 C 
BRANCH   7   8
ATOM      8  C   UNL     1      19.701  -3.563 -25.027  1.00  0.00     0.041 C 
ATOM      9  O   UNL     1      19.616  -2.311 -25.137  1.00  0.00    -0.550 OA
ATOM     10  O   UNL     1      20.939  -4.181 -25.140  1.00  0.00    -0.550 OA
ENDBRANCH   7   8
ENDBRANCH   6   7
ENDBRANCH   5   6
ENDBRANCH   4   5
ENDBRANCH   3   4
ENDBRANCH   2   3
ENDBRANCH   1   2
BRANCH   1  11
ATOM     11  C   UNL     1      12.812  -2.943 -23.250  1.00  0.00     0.000 C 
BRANCH  11  12
ATOM     12  C   UNL     1      11.694  -2.044 -22.692  1.00  0.00    -0.000 C 
BRANCH  12  13
ATOM     13  C   UNL     1      12.080  -1.372 -21.365  1.00  0.00    -0.000 C 
BRANCH  13  14
ATOM     14  C   UNL     1      10.931  -1.367 -20.347  1.00  0.00    -0.000 C 
BRANCH  14  15
ATOM     15  C   UNL     1      11.401  -0.827 -18.990  1.00  0.00    -0.000 C 
BRANCH  15  16
ATOM     16  C   UNL     1      12.610   0.102 -19.155  1.00  0.00    -0.000 C 
BRANCH  16  17
ATOM     17  C   UNL     1      12.535   1.280 -18.177  1.00  0.00    -0.003 C 
ATOM     18  C   UNL     1      12.662   0.802 -16.731  1.00  0.00     0.004 C 
ENDBRANCH  16  17
ENDBRANCH  15  16
ENDBRANCH  14  15
ENDBRANCH  13  14
ENDBRANCH  12  13
ENDBRANCH  11  12
ENDBRANCH   1  11
TORSDOF 14
ENDMDL
MODEL 7
REMARK VINA RESULT:    -5.589      3.797      7.926
REMARK INTER + INTRA:         -10.878
REMARK INTER:                  -9.764
REMARK INTRA:                  -1.114
REMARK UNBOUND:                -0.715
REMARK SMILES CCCCCCCCCCCCCCCC(=O)[O-]
REMARK SMILES IDX 9 1 10 2 11 3 12 4 13 5 14 6 15 7 16 8 17 9 18 10 8 11 7 12
REMARK SMILES IDX 6 13 5 14 4 15 3 16 2 17 1 18
REMARK H PARENT
REMARK Flexibility Score: inf
ROOT
ATOM      1  C   UNL     1      10.712  -2.826 -22.513  1.00  0.00     0.000 C 
ENDROOT
BRANCH   1   2
ATOM      2  C   UNL     1      12.054  -2.077 -22.501  1.00  0.00     0.000 C 
BRANCH   2   3
ATOM      3  C   UNL     1      13.095  -2.711 -23.440  1.00  0.00     0.000 C 
BRANCH   3   4
ATOM      4  C   UNL     1      12.550  -3.973 -24.140  1.00  0.00     0.000 C 
BRANCH   4   5
ATOM      5  C   UNL     1      13.538  -5.152 -24.141  1.00  0.00     0.000 C 
BRANCH   5   6
ATOM      6  C   UNL     1      14.998  -4.712 -23.957  1.00  0.00     0.006 C 
BRANCH   6   7
ATOM      7  C   UNL     1      15.678  -4.476 -25.308  1.00  0.00     0.053 C 
BRANCH   7   8
ATOM      8  C   UNL     1      17.134  -4.188 -25.119  1.00  0.00     0.041 C 
ATOM      9  O   UNL     1      17.658  -3.182 -25.666  1.00  0.00    -0.550 OA
ATOM     10  O   UNL     1      17.904  -5.006 -24.302  1.00  0.00    -0.550 OA
ENDBRANCH   7   8
ENDBRANCH   6   7
ENDBRANCH   5   6
ENDBRANCH   4   5
ENDBRANCH   3   4
ENDBRANCH   2   3
ENDBRANCH   1   2
BRANCH   1  11
ATOM     11  C   UNL     1       9.875  -2.597 -21.236  1.00  0.00     0.000 C 
BRANCH  11  12
ATOM     12  C   UNL     1      10.209  -1.255 -20.560  1.00  0.00    -0.000 C 
BRANCH  12  13
ATOM     13  C   UNL     1      10.235  -1.353 -19.027  1.00  0.00    -0.000 C 
BRANCH  13  14
ATOM     14  C   UNL     1      10.375   0.016 -18.348  1.00  0.00    -0.000 C 
BRANCH  14  15
ATOM     15  C   UNL     1      11.825   0.271 -17.916  1.00  0.00    -0.000 C 
BRANCH  15  16
ATOM     16  C   UNL     1      12.699  -0.965 -18.163  1.00  0.00    -0.000 C 
BRANCH  16  17
ATOM     17  C   UNL     1      13.863  -0.637 -19.103  1.00  0.00    -0.003 C 
ATOM     18  C   UNL     1      13.411   0.283 -20.237  1.00  0.00     0.004 C 
ENDBRANCH  16  17
ENDBRANCH  15  16
ENDBRANCH  14  15
ENDBRANCH  13  14
ENDBRANCH  12  13
ENDBRANCH  11  12
ENDBRANCH   1  11
TORSDOF 14
ENDMDL
MODEL 8
REMARK VINA RESULT:    -5.282      3.835      8.311
REMARK INTER + INTRA:         -10.319
REMARK INTER:                  -9.467
REMARK INTRA:                  -0.853
REMARK UNBOUND:                -0.715
REMARK SMILES CCCCCCCCCCCCCCCC(=O)[O-]
REMARK SMILES IDX 9 1 10 2 11 3 12 4 13 5 14 6 15 7 16 8 17 9 18 10 8 11 7 12
REMARK SMILES IDX 6 13 5 14 4 15 3 16 2 17 1 18
REMARK H PARENT
REMARK Flexibility Score: inf
ROOT
ATOM      1  C   UNL     1      11.184  -2.840 -22.871  1.00  0.00     0.000 C 
ENDROOT
BRANCH   1   2
ATOM      2  C   UNL     1      11.517  -4.025 -23.792  1.00  0.00     0.000 C 
BRANCH   2   3
ATOM      3  C   UNL     1      13.004  -4.071 -24.185  1.00  0.00     0.000 C 
BRANCH   3   4
ATOM      4  C   UNL     1      13.294  -5.176 -25.222  1.00  0.00     0.000 C 
BRANCH   4   5
ATOM      5  C   UNL     1      14.657  -5.024 -25.918  1.00  0.00     0.000 C 
BRANCH   5   6
ATOM      6  C   UNL     1      15.797  -4.701 -24.942  1.00  0.00     0.006 C 
BRANCH   6   7
ATOM      7  C   UNL     1      16.720  -3.619 -25.510  1.00  0.00     0.053 C 
BRANCH   7   8
ATOM      8  C   UNL     1      18.123  -3.820 -25.028  1.00  0.00     0.041 C 
ATOM      9  O   UNL     1      18.424  -4.849 -24.367  1.00  0.00    -0.550 OA
ATOM     10  O   UNL     1      19.107  -2.894 -25.346  1.00  0.00    -0.550 OA
ENDBRANCH   7   8
ENDBRANCH   6   7
ENDBRANCH   5   6
ENDBRANCH   4   5
ENDBRANCH   3   4
ENDBRANCH   2   3
ENDBRANCH   1   2
BRANCH   1  11
ATOM     11  C   UNL     1      12.386  -1.902 -22.628  1.00  0.00     0.000 C 
BRANCH  11  12
ATOM     12  C   UNL     1      12.373  -1.303 -21.210  1.00  0.00    -0.000 C 
BRANCH  12  13
ATOM     13  C   UNL     1      13.071   0.064 -21.137  1.00  0.00    -0.000 C 
BRANCH  13  14
ATOM     14  C   UNL     1      13.221   0.577 -19.698  1.00  0.00    -0.000 C 
BRANCH  14  15
ATOM     15  C   UNL     1      13.212  -0.584 -18.696  1.00  0.00    -0.000 C 
BRANCH  15  16
ATOM     16  C   UNL     1      12.145  -0.372 -17.615  1.00  0.00    -0.000 C 
BRANCH  16  17
ATOM     17  C   UNL     1      10.849   0.178 -18.222  1.00  0.00    -0.003 C 
ATOM     18  C   UNL     1       9.991  -0.949 -18.796  1.00  0.00     0.004 C 
ENDBRANCH  16  17
ENDBRANCH  15  16
ENDBRANCH  14  15
ENDBRANCH  13  14
ENDBRANCH  12  13
ENDBRANCH  11  12
ENDBRANCH   1  11
TORSDOF 14
ENDMDL
MODEL 9
REMARK VINA RESULT:    -4.934      1.676      2.621
REMARK INTER + INTRA:          -9.687
REMARK INTER:                  -9.023
REMARK INTRA:                  -0.664
REMARK UNBOUND:                -0.715
REMARK SMILES CCCCCCCCCCCCCCCC(=O)[O-]
REMARK SMILES IDX 9 1 10 2 11 3 12 4 13 5 14 6 15 7 16 8 17 9 18 10 8 11 7 12
REMARK SMILES IDX 6 13 5 14 4 15 3 16 2 17 1 18
REMARK H PARENT
REMARK Flexibility Score: inf
ROOT
ATOM      1  C   UNL     1      13.339  -1.211 -21.210  1.00  0.00     0.000 C 
ENDROOT
BRANCH   1   2
ATOM      2  C   UNL     1      12.619  -0.044 -20.514  1.00  0.00     0.000 C 
BRANCH   2   3
ATOM      3  C   UNL     1      13.212   1.326 -20.887  1.00  0.00     0.000 C 
BRANCH   3   4
ATOM      4  C   UNL     1      13.112   2.336 -19.724  1.00  0.00     0.000 C 
BRANCH   4   5
ATOM      5  C   UNL     1      12.386   1.780 -18.488  1.00  0.00     0.000 C 
BRANCH   5   6
ATOM      6  C   UNL     1      13.153   2.026 -17.180  1.00  0.00     0.006 C 
BRANCH   6   7
ATOM      7  C   UNL     1      13.495   0.705 -16.484  1.00  0.00     0.053 C 
BRANCH   7   8
ATOM      8  C   UNL     1      12.416  -0.305 -16.718  1.00  0.00     0.041 C 
ATOM      9  O   UNL     1      12.666  -1.363 -17.355  1.00  0.00    -0.550 OA
ATOM     10  O   UNL     1      11.145  -0.099 -16.197  1.00  0.00    -0.550 OA
ENDBRANCH   7   8
ENDBRANCH   6   7
ENDBRANCH   5   6
ENDBRANCH   4   5
ENDBRANCH   3   4
ENDBRANCH   2   3
ENDBRANCH   1   2
BRANCH   1  11
ATOM     11  C   UNL     1      12.595  -1.726 -22.460  1.00  0.00     0.000 C 
BRANCH  11  12
ATOM     12  C   UNL     1      13.303  -2.937 -23.095  1.00  0.00    -0.000 C 
BRANCH  12  13
ATOM     13  C   UNL     1      12.345  -3.831 -23.897  1.00  0.00    -0.000 C 
BRANCH  13  14
ATOM     14  C   UNL     1      13.075  -4.719 -24.914  1.00  0.00    -0.000 C 
BRANCH  14  15
ATOM     15  C   UNL     1      14.438  -5.169 -24.374  1.00  0.00    -0.000 C 
BRANCH  15  16
ATOM     16  C   UNL     1      15.571  -4.753 -25.320  1.00  0.00    -0.000 C 
BRANCH  16  17
ATOM     17  C   UNL     1      16.807  -4.304 -24.534  1.00  0.00    -0.003 C 
ATOM     18  C   UNL     1      17.784  -3.547 -25.433  1.00  0.00     0.004 C 
ENDBRANCH  16  17
ENDBRANCH  15  16
ENDBRANCH  14  15
ENDBRANCH  13  14
ENDBRANCH  12  13
ENDBRANCH  11  12
ENDBRANCH   1  11
TORSDOF 14
ENDMDL
