MODEL 1
REMARK VINA RESULT:    -6.488      0.000      0.000
REMARK INTER + INTRA:          -6.678
REMARK INTER:                  -6.678
REMARK INTRA:                   0.000
REMARK UNBOUND:                 0.000
REMARK SMILES C[C@@H]1CC[C@]2(OC1)O[C@@H]1C[C@H]3[C@@H]4CC=C5C[C@@H](O)CC[C@@]5(C)[C@@H]4CC[C@@]3(C)[C@@H]1[C@H]2C
REMARK SMILES IDX 1 1 2 2 3 3 4 4 5 5 29 6 28 7 9 8 8 9 10 10 11 11 26 12
REMARK SMILES IDX 25 13 24 14 23 15 12 16 13 17 14 18 15 19 21 20 20 21 19 22
REMARK SMILES IDX 17 23 16 24 22 25 27 26 30 27 6 28 7 29 18 30
REMARK H PARENT 18 31
REMARK Flexibility Score: inf
ROOT
ATOM      1  C   UNL     1       4.878  -9.669   5.029  1.00  0.00     0.010 C 
ATOM      2  C   UNL     1       3.413 -10.125   5.090  1.00  0.00     0.012 C 
ATOM      3  C   UNL     1       2.688  -9.913   3.750  1.00  0.00     0.011 C 
ATOM      4  C   UNL     1       2.371  -8.434   3.514  1.00  0.00     0.066 C 
ATOM      5  C   UNL     1       1.700  -7.798   4.756  1.00  0.00     0.171 C 
ATOM      6  C   UNL     1       1.495  -6.281   4.528  1.00  0.00     0.052 C 
ATOM      7  C   UNL     1       0.130  -6.010   5.169  1.00  0.00     0.033 C 
ATOM      8  C   UNL     1      -0.340  -7.379   5.620  1.00  0.00     0.126 C 
ATOM      9  O   UNL     1       0.412  -8.354   4.938  1.00  0.00    -0.346 OA
ATOM     10  C   UNL     1      -1.825  -7.489   5.281  1.00  0.00     0.037 C 
ATOM     11  C   UNL     1      -2.294  -6.078   4.884  1.00  0.00     0.002 C 
ATOM     12  C   UNL     1      -1.016  -5.410   4.289  1.00  0.00    -0.024 C 
ATOM     13  C   UNL     1      -1.043  -3.855   4.406  1.00  0.00     0.008 C 
ATOM     14  C   UNL     1      -2.473  -3.320   4.375  1.00  0.00     0.005 C 
ATOM     15  C   UNL     1      -3.254  -3.780   5.635  1.00  0.00     0.003 C 
ATOM     16  C   UNL     1      -2.896  -5.253   6.068  1.00  0.00     0.000 C 
ATOM     17  C   UNL     1      -4.072  -5.998   6.752  1.00  0.00     0.031 C 
ATOM     18  C   UNL     1      -5.057  -5.090   7.428  1.00  0.00    -0.027 C 
ATOM     19  C   UNL     1      -5.444  -3.925   6.875  1.00  0.00    -0.065 C 
ATOM     20  C   UNL     1      -4.795  -3.447   5.571  1.00  0.00    -0.008 C 
ATOM     21  C   UNL     1      -4.962  -1.899   5.417  1.00  0.00     0.014 C 
ATOM     22  C   UNL     1      -6.356  -1.386   5.787  1.00  0.00     0.033 C 
ATOM     23  C   UNL     1      -6.696  -1.743   7.236  1.00  0.00     0.118 C 
ATOM     24  C   UNL     1      -6.693  -3.261   7.426  1.00  0.00     0.063 C 
ATOM     25  C   UNL     1      -5.500  -4.150   4.382  1.00  0.00     0.016 C 
ATOM     26  C   UNL     1      -0.929  -5.804   2.785  1.00  0.00     0.012 C 
ATOM     27  C   UNL     1       2.605  -5.400   5.127  1.00  0.00     0.014 C 
ATOM     28  O   UNL     1       2.497  -8.016   5.920  1.00  0.00    -0.349 OA
ATOM     29  C   UNL     1       2.649  -9.396   6.207  1.00  0.00     0.167 C 
ENDROOT
BRANCH  23  30
ATOM     30  O   UNL     1      -5.779  -1.155   8.125  1.00  0.00    -0.393 OA
ATOM     31  H   UNL     1      -5.301  -0.448   7.615  1.00  0.00     0.210 HD
ENDBRANCH  23  30
TORSDOF 1
ENDMDL
MODEL 2
REMARK VINA RESULT:    -5.915      1.529      1.869
REMARK INTER + INTRA:          -6.088
REMARK INTER:                  -6.088
REMARK INTRA:                   0.000
REMARK UNBOUND:                 0.000
REMARK SMILES C[C@@H]1CC[C@]2(OC1)O[C@@H]1C[C@H]3[C@@H]4CC=C5C[C@@H](O)CC[C@@]5(C)[C@@H]4CC[C@@]3(C)[C@@H]1[C@H]2C
REMARK SMILES IDX 1 1 2 2 3 3 4 4 5 5 29 6 28 7 9 8 8 9 10 10 11 11 26 12
REMARK SMILES IDX 25 13 24 14 23 15 12 16 13 17 14 18 15 19 21 20 20 21 19 22
REMARK SMILES IDX 17 23 16 24 22 25 27 26 30 27 6 28 7 29 18 30
REMARK H PARENT 18 31
REMARK Flexibility Score: inf
ROOT
ATOM      1  C   UNL     1       5.129 -10.125   5.038  1.00  0.00     0.010 C 
ATOM      2  C   UNL     1       4.026  -9.901   3.993  1.00  0.00     0.012 C 
ATOM      3  C   UNL     1       4.096  -8.495   3.375  1.00  0.00     0.011 C 
ATOM      4  C   UNL     1       3.591  -7.429   4.350  1.00  0.00     0.066 C 
ATOM      5  C   UNL     1       2.229  -7.831   4.966  1.00  0.00     0.171 C 
ATOM      6  C   UNL     1       1.801  -6.790   6.029  1.00  0.00     0.052 C 
ATOM      7  C   UNL     1       0.288  -6.674   5.817  1.00  0.00     0.033 C 
ATOM      8  C   UNL     1       0.014  -7.576   4.630  1.00  0.00     0.126 C 
ATOM      9  O   UNL     1       1.231  -7.816   3.964  1.00  0.00    -0.346 OA
ATOM     10  C   UNL     1      -0.980  -6.854   3.725  1.00  0.00     0.037 C 
ATOM     11  C   UNL     1      -1.505  -5.645   4.518  1.00  0.00     0.002 C 
ATOM     12  C   UNL     1      -0.325  -5.277   5.469  1.00  0.00    -0.024 C 
ATOM     13  C   UNL     1      -0.801  -4.547   6.762  1.00  0.00     0.008 C 
ATOM     14  C   UNL     1      -2.077  -3.746   6.510  1.00  0.00     0.005 C 
ATOM     15  C   UNL     1      -3.261  -4.697   6.187  1.00  0.00     0.003 C 
ATOM     16  C   UNL     1      -2.829  -5.927   5.301  1.00  0.00     0.000 C 
ATOM     17  C   UNL     1      -3.955  -6.440   4.367  1.00  0.00     0.031 C 
ATOM     18  C   UNL     1      -5.340  -6.150   4.867  1.00  0.00    -0.027 C 
ATOM     19  C   UNL     1      -5.654  -4.977   5.447  1.00  0.00    -0.065 C 
ATOM     20  C   UNL     1      -4.558  -3.937   5.708  1.00  0.00    -0.008 C 
ATOM     21  C   UNL     1      -5.003  -2.951   6.838  1.00  0.00     0.014 C 
ATOM     22  C   UNL     1      -6.456  -2.487   6.719  1.00  0.00     0.033 C 
ATOM     23  C   UNL     1      -7.410  -3.684   6.753  1.00  0.00     0.118 C 
ATOM     24  C   UNL     1      -7.125  -4.625   5.582  1.00  0.00     0.063 C 
ATOM     25  C   UNL     1      -4.320  -3.133   4.403  1.00  0.00     0.016 C 
ATOM     26  C   UNL     1       0.643  -4.341   4.686  1.00  0.00     0.012 C 
ATOM     27  C   UNL     1       2.159  -7.183   7.472  1.00  0.00     0.014 C 
ATOM     28  O   UNL     1       2.312  -9.128   5.556  1.00  0.00    -0.349 OA
ATOM     29  C   UNL     1       2.631 -10.125   4.599  1.00  0.00     0.167 C 
ENDROOT
BRANCH  23  30
ATOM     30  O   UNL     1      -7.288  -4.388   7.964  1.00  0.00    -0.393 OA
ATOM     31  H   UNL     1      -6.334  -4.323   8.236  1.00  0.00     0.210 HD
ENDBRANCH  23  30
TORSDOF 1
ENDMDL
MODEL 3
REMARK VINA RESULT:    -5.604      1.558      8.630
REMARK INTER + INTRA:          -5.768
REMARK INTER:                  -5.768
REMARK INTRA:                   0.000
REMARK UNBOUND:                 0.000
REMARK SMILES C[C@@H]1CC[C@]2(OC1)O[C@@H]1C[C@H]3[C@@H]4CC=C5C[C@@H](O)CC[C@@]5(C)[C@@H]4CC[C@@]3(C)[C@@H]1[C@H]2C
REMARK SMILES IDX 1 1 2 2 3 3 4 4 5 5 29 6 28 7 9 8 8 9 10 10 11 11 26 12
REMARK SMILES IDX 25 13 24 14 23 15 12 16 13 17 14 18 15 19 21 20 20 21 19 22
REMARK SMILES IDX 17 23 16 24 22 25 27 26 30 27 6 28 7 29 18 30
REMARK H PARENT 18 31
REMARK Flexibility Score: inf
ROOT
ATOM      1  C   UNL     1      -8.150  -2.471   7.375  1.00  0.00     0.010 C 
ATOM      2  C   UNL     1      -6.735  -1.875   7.372  1.00  0.00     0.012 C 
ATOM      3  C   UNL     1      -6.234  -1.590   5.947  1.00  0.00     0.011 C 
ATOM      4  C   UNL     1      -5.850  -2.880   5.219  1.00  0.00     0.066 C 
ATOM      5  C   UNL     1      -4.932  -3.767   6.096  1.00  0.00     0.171 C 
ATOM      6  C   UNL     1      -4.654  -5.111   5.379  1.00  0.00     0.052 C 
ATOM      7  C   UNL     1      -3.183  -5.387   5.709  1.00  0.00     0.033 C 
ATOM      8  C   UNL     1      -2.749  -4.165   6.494  1.00  0.00     0.126 C 
ATOM      9  O   UNL     1      -3.678  -3.134   6.262  1.00  0.00    -0.346 OA
ATOM     10  C   UNL     1      -1.356  -3.777   6.005  1.00  0.00     0.037 C 
ATOM     11  C   UNL     1      -0.855  -4.937   5.126  1.00  0.00     0.002 C 
ATOM     12  C   UNL     1      -2.161  -5.552   4.536  1.00  0.00    -0.024 C 
ATOM     13  C   UNL     1      -1.996  -7.056   4.157  1.00  0.00     0.008 C 
ATOM     14  C   UNL     1      -0.556  -7.375   3.763  1.00  0.00     0.005 C 
ATOM     15  C   UNL     1       0.390  -7.216   4.983  1.00  0.00     0.003 C 
ATOM     16  C   UNL     1       0.000  -5.993   5.899  1.00  0.00     0.000 C 
ATOM     17  C   UNL     1       1.215  -5.344   6.612  1.00  0.00     0.031 C 
ATOM     18  C   UNL     1       2.366  -6.282   6.827  1.00  0.00    -0.027 C 
ATOM     19  C   UNL     1       2.741  -7.173   5.891  1.00  0.00    -0.065 C 
ATOM     20  C   UNL     1       1.919  -7.321   4.606  1.00  0.00    -0.008 C 
ATOM     21  C   UNL     1       2.174  -8.720   3.955  1.00  0.00     0.014 C 
ATOM     22  C   UNL     1       3.646  -9.142   3.949  1.00  0.00     0.033 C 
ATOM     23  C   UNL     1       4.199  -9.191   5.376  1.00  0.00     0.118 C 
ATOM     24  C   UNL     1       4.112  -7.810   6.029  1.00  0.00     0.063 C 
ATOM     25  C   UNL     1       2.356  -6.215   3.610  1.00  0.00     0.016 C 
ATOM     26  C   UNL     1      -2.532  -4.745   3.257  1.00  0.00     0.012 C 
ATOM     27  C   UNL     1      -5.576  -6.260   5.821  1.00  0.00     0.014 C 
ATOM     28  O   UNL     1      -5.534  -4.005   7.367  1.00  0.00    -0.349 OA
ATOM     29  C   UNL     1      -5.739  -2.801   8.089  1.00  0.00     0.167 C 
ENDROOT
BRANCH  23  30
ATOM     30  O   UNL     1       3.493 -10.125   6.155  1.00  0.00    -0.393 OA
ATOM     31  H   UNL     1       2.560  -9.790   6.227  1.00  0.00     0.210 HD
ENDBRANCH  23  30
TORSDOF 1
ENDMDL
MODEL 4
REMARK VINA RESULT:    -5.173      1.612      2.353
REMARK INTER + INTRA:          -5.324
REMARK INTER:                  -5.324
REMARK INTRA:                   0.000
REMARK UNBOUND:                 0.000
REMARK SMILES C[C@@H]1CC[C@]2(OC1)O[C@@H]1C[C@H]3[C@@H]4CC=C5C[C@@H](O)CC[C@@]5(C)[C@@H]4CC[C@@]3(C)[C@@H]1[C@H]2C
REMARK SMILES IDX 1 1 2 2 3 3 4 4 5 5 29 6 28 7 9 8 8 9 10 10 11 11 26 12
REMARK SMILES IDX 25 13 24 14 23 15 12 16 13 17 14 18 15 19 21 20 20 21 19 22
REMARK SMILES IDX 17 23 16 24 22 25 27 26 30 27 6 28 7 29 18 30
REMARK H PARENT 18 31
REMARK Flexibility Score: inf
ROOT
ATOM      1  C   UNL     1       4.342  -9.378   2.771  1.00  0.00     0.010 C 
ATOM      2  C   UNL     1       3.879  -9.128   4.213  1.00  0.00     0.012 C 
ATOM      3  C   UNL     1       2.793 -10.125   4.650  1.00  0.00     0.011 C 
ATOM      4  C   UNL     1       1.443  -9.799   4.005  1.00  0.00     0.066 C 
ATOM      5  C   UNL     1       1.092  -8.299   4.166  1.00  0.00     0.171 C 
ATOM      6  C   UNL     1      -0.220  -7.980   3.409  1.00  0.00     0.052 C 
ATOM      7  C   UNL     1      -0.929  -6.989   4.337  1.00  0.00     0.033 C 
ATOM      8  C   UNL     1      -0.016  -6.901   5.544  1.00  0.00     0.126 C 
ATOM      9  O   UNL     1       0.849  -8.011   5.530  1.00  0.00    -0.346 OA
ATOM     10  C   UNL     1      -0.899  -6.903   6.789  1.00  0.00     0.037 C 
ATOM     11  C   UNL     1      -2.348  -6.712   6.306  1.00  0.00     0.002 C 
ATOM     12  C   UNL     1      -2.354  -7.342   4.879  1.00  0.00    -0.024 C 
ATOM     13  C   UNL     1      -3.459  -6.734   3.961  1.00  0.00     0.008 C 
ATOM     14  C   UNL     1      -4.661  -6.263   4.775  1.00  0.00     0.005 C 
ATOM     15  C   UNL     1      -4.267  -5.069   5.686  1.00  0.00     0.003 C 
ATOM     16  C   UNL     1      -2.822  -5.222   6.297  1.00  0.00     0.000 C 
ATOM     17  C   UNL     1      -2.667  -4.558   7.689  1.00  0.00     0.031 C 
ATOM     18  C   UNL     1      -3.615  -3.420   7.929  1.00  0.00    -0.027 C 
ATOM     19  C   UNL     1      -4.899  -3.469   7.528  1.00  0.00    -0.065 C 
ATOM     20  C   UNL     1      -5.397  -4.666   6.711  1.00  0.00    -0.008 C 
ATOM     21  C   UNL     1      -6.681  -4.278   5.906  1.00  0.00     0.014 C 
ATOM     22  C   UNL     1      -7.690  -3.453   6.708  1.00  0.00     0.033 C 
ATOM     23  C   UNL     1      -7.051  -2.154   7.208  1.00  0.00     0.118 C 
ATOM     24  C   UNL     1      -5.866  -2.463   8.125  1.00  0.00     0.063 C 
ATOM     25  C   UNL     1      -5.746  -5.820   7.686  1.00  0.00     0.016 C 
ATOM     26  C   UNL     1      -2.609  -8.871   5.034  1.00  0.00     0.012 C 
ATOM     27  C   UNL     1      -0.007  -7.406   1.998  1.00  0.00     0.014 C 
ATOM     28  O   UNL     1       2.153  -7.483   3.673  1.00  0.00    -0.349 OA
ATOM     29  C   UNL     1       3.358  -7.692   4.390  1.00  0.00     0.167 C 
ENDROOT
BRANCH  23  30
ATOM     30  O   UNL     1      -6.618  -1.362   6.130  1.00  0.00    -0.393 OA
ATOM     31  H   UNL     1      -5.953  -0.721   6.496  1.00  0.00     0.210 HD
ENDBRANCH  23  30
TORSDOF 1
ENDMDL
MODEL 5
REMARK VINA RESULT:    -4.874      3.285      7.418
REMARK INTER + INTRA:          -5.016
REMARK INTER:                  -5.016
REMARK INTRA:                   0.000
REMARK UNBOUND:                 0.000
REMARK SMILES C[C@@H]1CC[C@]2(OC1)O[C@@H]1C[C@H]3[C@@H]4CC=C5C[C@@H](O)CC[C@@]5(C)[C@@H]4CC[C@@]3(C)[C@@H]1[C@H]2C
REMARK SMILES IDX 1 1 2 2 3 3 4 4 5 5 29 6 28 7 9 8 8 9 10 10 11 11 26 12
REMARK SMILES IDX 25 13 24 14 23 15 12 16 13 17 14 18 15 19 21 20 20 21 19 22
REMARK SMILES IDX 17 23 16 24 22 25 27 26 30 27 6 28 7 29 18 30
REMARK H PARENT 18 31
REMARK Flexibility Score: inf
ROOT
ATOM      1  C   UNL     1      -6.705  -9.641   1.451  1.00  0.00     0.010 C 
ATOM      2  C   UNL     1      -6.266  -9.783   2.915  1.00  0.00     0.012 C 
ATOM      3  C   UNL     1      -6.563  -8.513   3.730  1.00  0.00     0.011 C 
ATOM      4  C   UNL     1      -5.580  -7.389   3.391  1.00  0.00     0.066 C 
ATOM      5  C   UNL     1      -4.117  -7.892   3.429  1.00  0.00     0.171 C 
ATOM      6  C   UNL     1      -3.158  -6.765   2.974  1.00  0.00     0.052 C 
ATOM      7  C   UNL     1      -1.952  -6.932   3.904  1.00  0.00     0.033 C 
ATOM      8  C   UNL     1      -2.360  -8.059   4.833  1.00  0.00     0.126 C 
ATOM      9  O   UNL     1      -3.757  -8.212   4.759  1.00  0.00    -0.346 OA
ATOM     10  C   UNL     1      -1.918  -7.675   6.242  1.00  0.00     0.037 C 
ATOM     11  C   UNL     1      -1.002  -6.446   6.100  1.00  0.00     0.002 C 
ATOM     12  C   UNL     1      -1.524  -5.734   4.815  1.00  0.00    -0.024 C 
ATOM     13  C   UNL     1      -0.424  -4.877   4.116  1.00  0.00     0.008 C 
ATOM     14  C   UNL     1       0.593  -4.349   5.125  1.00  0.00     0.005 C 
ATOM     15  C   UNL     1       1.402  -5.519   5.745  1.00  0.00     0.003 C 
ATOM     16  C   UNL     1       0.519  -6.798   6.005  1.00  0.00     0.000 C 
ATOM     17  C   UNL     1       0.994  -7.640   7.218  1.00  0.00     0.031 C 
ATOM     18  C   UNL     1       2.456  -7.494   7.524  1.00  0.00    -0.027 C 
ATOM     19  C   UNL     1       3.081  -6.305   7.453  1.00  0.00    -0.065 C 
ATOM     20  C   UNL     1       2.321  -5.073   6.948  1.00  0.00    -0.008 C 
ATOM     21  C   UNL     1       3.325  -3.990   6.431  1.00  0.00     0.014 C 
ATOM     22  C   UNL     1       4.545  -3.793   7.334  1.00  0.00     0.033 C 
ATOM     23  C   UNL     1       5.321  -5.104   7.487  1.00  0.00     0.118 C 
ATOM     24  C   UNL     1       4.437  -6.176   8.125  1.00  0.00     0.063 C 
ATOM     25  C   UNL     1       1.504  -4.479   8.125  1.00  0.00     0.016 C 
ATOM     26  C   UNL     1      -2.702  -4.805   5.230  1.00  0.00     0.012 C 
ATOM     27  C   UNL     1      -2.763  -6.838   1.489  1.00  0.00     0.014 C 
ATOM     28  O   UNL     1      -3.961  -9.036   2.590  1.00  0.00    -0.349 OA
ATOM     29  C   UNL     1      -4.770 -10.119   3.018  1.00  0.00     0.167 C 
ENDROOT
BRANCH  23  30
ATOM     30  O   UNL     1       5.786  -5.558   6.240  1.00  0.00    -0.393 OA
ATOM     31  H   UNL     1       5.634  -6.540   6.219  1.00  0.00     0.210 HD
ENDBRANCH  23  30
TORSDOF 1
ENDMDL
MODEL 6
REMARK VINA RESULT:    -4.634      3.453      5.273
REMARK INTER + INTRA:          -4.770
REMARK INTER:                  -4.770
REMARK INTRA:                   0.000
REMARK UNBOUND:                 0.000
REMARK SMILES C[C@@H]1CC[C@]2(OC1)O[C@@H]1C[C@H]3[C@@H]4CC=C5C[C@@H](O)CC[C@@]5(C)[C@@H]4CC[C@@]3(C)[C@@H]1[C@H]2C
REMARK SMILES IDX 1 1 2 2 3 3 4 4 5 5 29 6 28 7 9 8 8 9 10 10 11 11 26 12
REMARK SMILES IDX 25 13 24 14 23 15 12 16 13 17 14 18 15 19 21 20 20 21 19 22
REMARK SMILES IDX 17 23 16 24 22 25 27 26 30 27 6 28 7 29 18 30
REMARK H PARENT 18 31
REMARK Flexibility Score: inf
ROOT
ATOM      1  C   UNL     1       6.827  -5.027   8.123  1.00  0.00     0.010 C 
ATOM      2  C   UNL     1       6.086  -4.286   7.000  1.00  0.00     0.012 C 
ATOM      3  C   UNL     1       4.982  -3.367   7.548  1.00  0.00     0.011 C 
ATOM      4  C   UNL     1       3.767  -4.170   8.019  1.00  0.00     0.066 C 
ATOM      5  C   UNL     1       3.324  -5.197   6.949  1.00  0.00     0.171 C 
ATOM      6  C   UNL     1       2.168  -6.068   7.497  1.00  0.00     0.052 C 
ATOM      7  C   UNL     1       1.250  -6.240   6.283  1.00  0.00     0.033 C 
ATOM      8  C   UNL     1       1.911  -5.405   5.204  1.00  0.00     0.126 C 
ATOM      9  O   UNL     1       2.812  -4.516   5.819  1.00  0.00    -0.346 OA
ATOM     10  C   UNL     1       0.807  -4.652   4.465  1.00  0.00     0.037 C 
ATOM     11  C   UNL     1      -0.529  -5.257   4.929  1.00  0.00     0.002 C 
ATOM     12  C   UNL     1      -0.234  -5.754   6.378  1.00  0.00    -0.024 C 
ATOM     13  C   UNL     1      -1.169  -6.925   6.812  1.00  0.00     0.008 C 
ATOM     14  C   UNL     1      -2.525  -6.841   6.115  1.00  0.00     0.005 C 
ATOM     15  C   UNL     1      -2.367  -7.066   4.587  1.00  0.00     0.003 C 
ATOM     16  C   UNL     1      -1.059  -6.404   4.007  1.00  0.00     0.000 C 
ATOM     17  C   UNL     1      -1.204  -5.941   2.534  1.00  0.00     0.031 C 
ATOM     18  C   UNL     1      -2.231  -6.706   1.754  1.00  0.00    -0.027 C 
ATOM     19  C   UNL     1      -3.410  -7.065   2.293  1.00  0.00    -0.065 C 
ATOM     20  C   UNL     1      -3.689  -6.784   3.774  1.00  0.00    -0.008 C 
ATOM     21  C   UNL     1      -4.812  -7.734   4.306  1.00  0.00     0.014 C 
ATOM     22  C   UNL     1      -5.992  -7.898   3.345  1.00  0.00     0.033 C 
ATOM     23  C   UNL     1      -5.519  -8.454   1.998  1.00  0.00     0.118 C 
ATOM     24  C   UNL     1      -4.519  -7.496   1.349  1.00  0.00     0.063 C 
ATOM     25  C   UNL     1      -4.165  -5.314   3.917  1.00  0.00     0.016 C 
ATOM     26  C   UNL     1      -0.445  -4.553   7.346  1.00  0.00     0.012 C 
ATOM     27  C   UNL     1       2.620  -7.416   8.082  1.00  0.00     0.014 C 
ATOM     28  O   UNL     1       4.422  -6.024   6.567  1.00  0.00    -0.349 OA
ATOM     29  C   UNL     1       5.476  -5.272   5.990  1.00  0.00     0.167 C 
ENDROOT
BRANCH  23  30
ATOM     30  O   UNL     1      -4.924  -9.718   2.159  1.00  0.00    -0.393 OA
ATOM     31  H   UNL     1      -3.953  -9.601   1.983  1.00  0.00     0.210 HD
ENDBRANCH  23  30
TORSDOF 1
ENDMDL
MODEL 7
REMARK VINA RESULT:    -4.497      2.547      2.994
REMARK INTER + INTRA:          -4.628
REMARK INTER:                  -4.628
REMARK INTRA:                   0.000
REMARK UNBOUND:                 0.000
REMARK SMILES C[C@@H]1CC[C@]2(OC1)O[C@@H]1C[C@H]3[C@@H]4CC=C5C[C@@H](O)CC[C@@]5(C)[C@@H]4CC[C@@]3(C)[C@@H]1[C@H]2C
REMARK SMILES IDX 1 1 2 2 3 3 4 4 5 5 29 6 28 7 9 8 8 9 10 10 11 11 26 12
REMARK SMILES IDX 25 13 24 14 23 15 12 16 13 17 14 18 15 19 21 20 20 21 19 22
REMARK SMILES IDX 17 23 16 24 22 25 27 26 30 27 6 28 7 29 18 30
REMARK H PARENT 18 31
REMARK Flexibility Score: inf
ROOT
ATOM      1  C   UNL     1       4.479  -8.433   3.083  1.00  0.00     0.010 C 
ATOM      2  C   UNL     1       3.618  -9.116   4.156  1.00  0.00     0.012 C 
ATOM      3  C   UNL     1       2.631 -10.125   3.545  1.00  0.00     0.011 C 
ATOM      4  C   UNL     1       1.465  -9.418   2.850  1.00  0.00     0.066 C 
ATOM      5  C   UNL     1       0.845  -8.330   3.761  1.00  0.00     0.171 C 
ATOM      6  C   UNL     1      -0.255  -7.559   2.991  1.00  0.00     0.052 C 
ATOM      7  C   UNL     1      -1.335  -7.333   4.054  1.00  0.00     0.033 C 
ATOM      8  C   UNL     1      -0.799  -8.048   5.278  1.00  0.00     0.126 C 
ATOM      9  O   UNL     1       0.208  -8.942   4.866  1.00  0.00    -0.346 OA
ATOM     10  C   UNL     1      -1.967  -8.789   5.924  1.00  0.00     0.037 C 
ATOM     11  C   UNL     1      -3.247  -8.284   5.236  1.00  0.00     0.002 C 
ATOM     12  C   UNL     1      -2.775  -7.891   3.803  1.00  0.00    -0.024 C 
ATOM     13  C   UNL     1      -3.681  -6.802   3.151  1.00  0.00     0.008 C 
ATOM     14  C   UNL     1      -5.116  -6.892   3.666  1.00  0.00     0.005 C 
ATOM     15  C   UNL     1      -5.175  -6.539   5.176  1.00  0.00     0.003 C 
ATOM     16  C   UNL     1      -3.938  -7.093   5.979  1.00  0.00     0.000 C 
ATOM     17  C   UNL     1      -4.266  -7.444   7.454  1.00  0.00     0.031 C 
ATOM     18  C   UNL     1      -5.416  -6.666   8.023  1.00  0.00    -0.027 C 
ATOM     19  C   UNL     1      -6.522  -6.406   7.302  1.00  0.00    -0.065 C 
ATOM     20  C   UNL     1      -6.586  -6.816   5.827  1.00  0.00    -0.008 C 
ATOM     21  C   UNL     1      -7.657  -5.962   5.071  1.00  0.00     0.014 C 
ATOM     22  C   UNL     1      -8.962  -5.776   5.849  1.00  0.00     0.033 C 
ATOM     23  C   UNL     1      -8.697  -5.095   7.194  1.00  0.00     0.118 C 
ATOM     24  C   UNL     1      -7.763  -5.951   8.050  1.00  0.00     0.063 C 
ATOM     25  C   UNL     1      -6.987  -8.312   5.747  1.00  0.00     0.016 C 
ATOM     26  C   UNL     1      -2.810  -9.174   2.921  1.00  0.00     0.012 C 
ATOM     27  C   UNL     1       0.227  -6.242   2.360  1.00  0.00     0.014 C 
ATOM     28  O   UNL     1       1.852  -7.426   4.214  1.00  0.00    -0.349 OA
ATOM     29  C   UNL     1       2.842  -8.082   4.988  1.00  0.00     0.167 C 
ENDROOT
BRANCH  23  30
ATOM     30  O   UNL     1      -8.130  -3.822   7.008  1.00  0.00    -0.393 OA
ATOM     31  H   UNL     1      -8.653  -3.379   6.287  1.00  0.00     0.210 HD
ENDBRANCH  23  30
TORSDOF 1
ENDMDL
MODEL 8
REMARK VINA RESULT:    -4.492      2.700      3.714
REMARK INTER + INTRA:          -4.623
REMARK INTER:                  -4.623
REMARK INTRA:                   0.000
REMARK UNBOUND:                 0.000
REMARK SMILES C[C@@H]1CC[C@]2(OC1)O[C@@H]1C[C@H]3[C@@H]4CC=C5C[C@@H](O)CC[C@@]5(C)[C@@H]4CC[C@@]3(C)[C@@H]1[C@H]2C
REMARK SMILES IDX 1 1 2 2 3 3 4 4 5 5 29 6 28 7 9 8 8 9 10 10 11 11 26 12
REMARK SMILES IDX 25 13 24 14 23 15 12 16 13 17 14 18 15 19 21 20 20 21 19 22
REMARK SMILES IDX 17 23 16 24 22 25 27 26 30 27 6 28 7 29 18 30
REMARK H PARENT 18 31
REMARK Flexibility Score: inf
ROOT
ATOM      1  C   UNL     1       6.196  -4.801   6.873  1.00  0.00     0.010 C 
ATOM      2  C   UNL     1       5.151  -5.066   7.966  1.00  0.00     0.012 C 
ATOM      3  C   UNL     1       4.724  -6.543   8.007  1.00  0.00     0.011 C 
ATOM      4  C   UNL     1       3.802  -6.891   6.837  1.00  0.00     0.066 C 
ATOM      5  C   UNL     1       2.657  -5.858   6.697  1.00  0.00     0.171 C 
ATOM      6  C   UNL     1       1.809  -6.174   5.441  1.00  0.00     0.052 C 
ATOM      7  C   UNL     1       0.378  -5.874   5.898  1.00  0.00     0.033 C 
ATOM      8  C   UNL     1       0.531  -5.503   7.359  1.00  0.00     0.126 C 
ATOM      9  O   UNL     1       1.785  -5.962   7.806  1.00  0.00    -0.346 OA
ATOM     10  C   UNL     1      -0.608  -6.171   8.124  1.00  0.00     0.037 C 
ATOM     11  C   UNL     1      -1.593  -6.710   7.072  1.00  0.00     0.002 C 
ATOM     12  C   UNL     1      -0.693  -7.013   5.835  1.00  0.00    -0.024 C 
ATOM     13  C   UNL     1      -1.481  -6.953   4.490  1.00  0.00     0.008 C 
ATOM     14  C   UNL     1      -2.948  -7.330   4.689  1.00  0.00     0.005 C 
ATOM     15  C   UNL     1      -3.668  -6.271   5.566  1.00  0.00     0.003 C 
ATOM     16  C   UNL     1      -2.756  -5.723   6.729  1.00  0.00     0.000 C 
ATOM     17  C   UNL     1      -3.553  -5.306   7.993  1.00  0.00     0.031 C 
ATOM     18  C   UNL     1      -4.971  -4.904   7.713  1.00  0.00    -0.027 C 
ATOM     19  C   UNL     1      -5.735  -5.567   6.825  1.00  0.00    -0.065 C 
ATOM     20  C   UNL     1      -5.126  -6.700   5.991  1.00  0.00    -0.008 C 
ATOM     21  C   UNL     1      -5.971  -6.936   4.696  1.00  0.00     0.014 C 
ATOM     22  C   UNL     1      -7.484  -6.914   4.931  1.00  0.00     0.033 C 
ATOM     23  C   UNL     1      -7.919  -5.572   5.525  1.00  0.00     0.118 C 
ATOM     24  C   UNL     1      -7.235  -5.341   6.873  1.00  0.00     0.063 C 
ATOM     25  C   UNL     1      -5.133  -7.998   6.840  1.00  0.00     0.016 C 
ATOM     26  C   UNL     1      -0.104  -8.443   6.013  1.00  0.00     0.012 C 
ATOM     27  C   UNL     1       2.206  -5.362   4.196  1.00  0.00     0.014 C 
ATOM     28  O   UNL     1       3.187  -4.536   6.612  1.00  0.00    -0.349 OA
ATOM     29  C   UNL     1       3.910  -4.179   7.778  1.00  0.00     0.167 C 
ENDROOT
BRANCH  23  30
ATOM     30  O   UNL     1      -7.611  -4.514   4.653  1.00  0.00    -0.393 OA
ATOM     31  H   UNL     1      -8.349  -4.467   3.989  1.00  0.00     0.210 HD
ENDBRANCH  23  30
TORSDOF 1
ENDMDL
MODEL 9
REMARK VINA RESULT:    -4.390      1.998      8.719
REMARK INTER + INTRA:          -4.519
REMARK INTER:                  -4.519
REMARK INTRA:                   0.000
REMARK UNBOUND:                 0.000
REMARK SMILES C[C@@H]1CC[C@]2(OC1)O[C@@H]1C[C@H]3[C@@H]4CC=C5C[C@@H](O)CC[C@@]5(C)[C@@H]4CC[C@@]3(C)[C@@H]1[C@H]2C
REMARK SMILES IDX 1 1 2 2 3 3 4 4 5 5 29 6 28 7 9 8 8 9 10 10 11 11 26 12
REMARK SMILES IDX 25 13 24 14 23 15 12 16 13 17 14 18 15 19 21 20 20 21 19 22
REMARK SMILES IDX 17 23 16 24 22 25 27 26 30 27 6 28 7 29 18 30
REMARK H PARENT 18 31
REMARK Flexibility Score: inf
ROOT
ATOM      1  C   UNL     1      -6.529  -1.684   6.398  1.00  0.00     0.010 C 
ATOM      2  C   UNL     1      -6.548  -3.134   5.890  1.00  0.00     0.012 C 
ATOM      3  C   UNL     1      -6.261  -4.141   7.016  1.00  0.00     0.011 C 
ATOM      4  C   UNL     1      -4.780  -4.141   7.402  1.00  0.00     0.066 C 
ATOM      5  C   UNL     1      -3.873  -4.246   6.152  1.00  0.00     0.171 C 
ATOM      6  C   UNL     1      -2.385  -4.131   6.565  1.00  0.00     0.052 C 
ATOM      7  C   UNL     1      -1.687  -5.141   5.650  1.00  0.00     0.033 C 
ATOM      8  C   UNL     1      -2.823  -5.780   4.876  1.00  0.00     0.126 C 
ATOM      9  O   UNL     1      -4.027  -5.521   5.558  1.00  0.00    -0.346 OA
ATOM     10  C   UNL     1      -2.541  -7.279   4.800  1.00  0.00     0.037 C 
ATOM     11  C   UNL     1      -1.097  -7.483   5.291  1.00  0.00     0.002 C 
ATOM     12  C   UNL     1      -0.870  -6.310   6.293  1.00  0.00    -0.024 C 
ATOM     13  C   UNL     1       0.634  -5.921   6.430  1.00  0.00     0.008 C 
ATOM     14  C   UNL     1       1.544  -7.122   6.181  1.00  0.00     0.005 C 
ATOM     15  C   UNL     1       1.435  -7.591   4.706  1.00  0.00     0.003 C 
ATOM     16  C   UNL     1      -0.034  -7.495   4.144  1.00  0.00     0.000 C 
ATOM     17  C   UNL     1      -0.355  -8.566   3.069  1.00  0.00     0.031 C 
ATOM     18  C   UNL     1       0.850  -9.058   2.322  1.00  0.00    -0.027 C 
ATOM     19  C   UNL     1       2.022  -9.292   2.941  1.00  0.00    -0.065 C 
ATOM     20  C   UNL     1       2.181  -8.953   4.427  1.00  0.00    -0.008 C 
ATOM     21  C   UNL     1       3.693  -8.774   4.785  1.00  0.00     0.014 C 
ATOM     22  C   UNL     1       4.607  -9.831   4.161  1.00  0.00     0.033 C 
ATOM     23  C   UNL     1       4.491  -9.812   2.634  1.00  0.00     0.118 C 
ATOM     24  C   UNL     1       3.057 -10.125   2.205  1.00  0.00     0.063 C 
ATOM     25  C   UNL     1       1.601 -10.123   5.265  1.00  0.00     0.016 C 
ATOM     26  C   UNL     1      -1.405  -6.763   7.684  1.00  0.00     0.012 C 
ATOM     27  C   UNL     1      -1.802  -2.715   6.423  1.00  0.00     0.014 C 
ATOM     28  O   UNL     1      -4.201  -3.224   5.211  1.00  0.00    -0.349 OA
ATOM     29  C   UNL     1      -5.537  -3.338   4.750  1.00  0.00     0.167 C 
ENDROOT
BRANCH  23  30
ATOM     30  O   UNL     1       4.875  -8.562   2.118  1.00  0.00    -0.393 OA
ATOM     31  H   UNL     1       4.868  -8.647   1.128  1.00  0.00     0.210 HD
ENDBRANCH  23  30
TORSDOF 1
ENDMDL
