MODEL 1
REMARK VINA RESULT:    -0.304      0.000      0.000
REMARK INTER + INTRA:           0.113
REMARK INTER:                  -0.357
REMARK INTRA:                   0.470
REMARK UNBOUND:                 0.470
REMARK SMILES O=c1c(O)c(-c2ccc(O)c(O)c2)oc2cc(O)ccc12
REMARK SMILES IDX 5 1 3 2 2 3 1 4 21 5 15 6 14 7 16 8 17 9 19 10 20 11 6 12
REMARK SMILES IDX 7 13 8 14 9 15 13 16 11 17 10 18 12 20 4 22 18 24
REMARK H PARENT 10 19 12 21 4 23 18 25
REMARK Flexibility Score: inf
ROOT
ATOM      1  C   UNL     1      11.670 -13.480   5.057  1.00  0.00     0.180 A 
ATOM      2  C   UNL     1      10.566 -12.603   5.047  1.00  0.00     0.208 A 
ATOM      3  C   UNL     1      10.801 -11.220   4.998  1.00  0.00     0.235 A 
ATOM      4  O   UNL     1       9.829 -10.415   4.977  1.00  0.00    -0.285 OA
ATOM      5  C   UNL     1      12.122 -10.744   4.981  1.00  0.00     0.069 A 
ATOM      6  C   UNL     1      13.172 -11.686   5.017  1.00  0.00     0.142 A 
ATOM      7  O   UNL     1      12.907 -12.987   5.054  1.00  0.00    -0.452 OA
ATOM      8  C   UNL     1      14.502 -11.251   5.011  1.00  0.00     0.094 A 
ATOM      9  C   UNL     1      14.797  -9.881   4.968  1.00  0.00     0.119 A 
ATOM     10  C   UNL     1      13.757  -8.947   4.930  1.00  0.00     0.047 A 
ATOM     11  C   UNL     1      12.425  -9.371   4.937  1.00  0.00     0.020 A 
ENDROOT
BRANCH   1  12
ATOM     12  C   UNL     1      11.506 -14.951   5.089  1.00  0.00     0.025 A 
ATOM     13  C   UNL     1      10.234 -15.544   5.115  1.00  0.00     0.016 A 
ATOM     14  C   UNL     1      10.104 -16.934   5.122  1.00  0.00     0.051 A 
ATOM     15  C   UNL     1      11.234 -17.758   5.089  1.00  0.00     0.157 A 
ATOM     16  C   UNL     1      12.641 -15.774   5.035  1.00  0.00     0.062 A 
ATOM     17  C   UNL     1      12.521 -17.170   5.040  1.00  0.00     0.158 A 
BRANCH  15  18
ATOM     18  O   UNL     1      11.035 -19.140   5.102  1.00  0.00    -0.504 OA
ATOM     19  H   UNL     1      10.334 -19.614   4.552  1.00  0.00     0.293 HD
ENDBRANCH  15  18
BRANCH  17  20
ATOM     20  O   UNL     1      13.694 -17.926   4.997  1.00  0.00    -0.504 OA
ATOM     21  H   UNL     1      14.568 -17.637   5.409  1.00  0.00     0.293 HD
ENDBRANCH  17  20
ENDBRANCH   1  12
BRANCH   2  22
ATOM     22  O   UNL     1       9.264 -13.104   5.115  1.00  0.00    -0.502 OA
ATOM     23  H   UNL     1       9.044 -14.072   4.911  1.00  0.00     0.293 HD
ENDBRANCH   2  22
BRANCH   9  24
ATOM     24  O   UNL     1      16.118  -9.440   4.961  1.00  0.00    -0.508 OA
ATOM     25  H   UNL     1      16.559  -9.104   4.113  1.00  0.00     0.293 HD
ENDBRANCH   9  24
TORSDOF 5
ENDMDL
MODEL 2
REMARK VINA RESULT:     0.163      2.877      8.926
REMARK INTER + INTRA:           0.661
REMARK INTER:                   0.192
REMARK INTRA:                   0.470
REMARK UNBOUND:                 0.470
REMARK SMILES O=c1c(O)c(-c2ccc(O)c(O)c2)oc2cc(O)ccc12
REMARK SMILES IDX 5 1 3 2 2 3 1 4 21 5 15 6 14 7 16 8 17 9 19 10 20 11 6 12
REMARK SMILES IDX 7 13 8 14 9 15 13 16 11 17 10 18 12 20 4 22 18 24
REMARK H PARENT 10 19 12 21 4 23 18 25
REMARK Flexibility Score: inf
ROOT
ATOM      1  C   UNL     1      11.490 -18.435   5.087  1.00  0.00     0.180 A 
ATOM      2  C   UNL     1      12.588 -19.318   5.052  1.00  0.00     0.208 A 
ATOM      3  C   UNL     1      12.344 -20.700   5.014  1.00  0.00     0.235 A 
ATOM      4  O   UNL     1      13.311 -21.511   4.971  1.00  0.00    -0.285 OA
ATOM      5  C   UNL     1      11.021 -21.168   5.034  1.00  0.00     0.069 A 
ATOM      6  C   UNL     1       9.977 -20.220   5.094  1.00  0.00     0.142 A 
ATOM      7  O   UNL     1      10.250 -18.921   5.118  1.00  0.00    -0.452 OA
ATOM      8  C   UNL     1       8.645 -20.647   5.125  1.00  0.00     0.094 A 
ATOM      9  C   UNL     1       8.341 -22.015   5.094  1.00  0.00     0.119 A 
ATOM     10  C   UNL     1       9.374 -22.956   5.033  1.00  0.00     0.047 A 
ATOM     11  C   UNL     1      10.708 -22.539   5.003  1.00  0.00     0.020 A 
ENDROOT
BRANCH   1  12
ATOM     12  C   UNL     1      11.664 -16.965   5.109  1.00  0.00     0.025 A 
ATOM     13  C   UNL     1      12.939 -16.379   5.093  1.00  0.00     0.016 A 
ATOM     14  C   UNL     1      13.077 -14.990   5.090  1.00  0.00     0.051 A 
ATOM     15  C   UNL     1      11.951 -14.160   5.090  1.00  0.00     0.157 A 
ATOM     16  C   UNL     1      10.532 -16.135   5.087  1.00  0.00     0.062 A 
ATOM     17  C   UNL     1      10.661 -14.740   5.084  1.00  0.00     0.158 A 
BRANCH  15  18
ATOM     18  O   UNL     1      12.158 -12.779   5.093  1.00  0.00    -0.504 OA
ATOM     19  H   UNL     1      11.416 -12.097   5.148  1.00  0.00     0.293 HD
ENDBRANCH  15  18
BRANCH  17  20
ATOM     20  O   UNL     1       9.491 -13.977   5.074  1.00  0.00    -0.504 OA
ATOM     21  H   UNL     1       9.424 -13.043   5.451  1.00  0.00     0.293 HD
ENDBRANCH  17  20
ENDBRANCH   1  12
BRANCH   2  22
ATOM     22  O   UNL     1      13.895 -18.825   5.083  1.00  0.00    -0.502 OA
ATOM     23  H   UNL     1      14.383 -18.530   4.246  1.00  0.00     0.293 HD
ENDBRANCH   2  22
BRANCH   9  24
ATOM     24  O   UNL     1       7.018 -22.449   5.125  1.00  0.00    -0.508 OA
ATOM     25  H   UNL     1       6.699 -23.215   4.542  1.00  0.00     0.293 HD
ENDBRANCH   9  24
TORSDOF 5
ENDMDL
MODEL 3
REMARK VINA RESULT:     2.591      1.679      7.273
REMARK INTER + INTRA:           3.515
REMARK INTER:                   2.974
REMARK INTRA:                   0.541
REMARK UNBOUND:                 0.470
REMARK SMILES O=c1c(O)c(-c2ccc(O)c(O)c2)oc2cc(O)ccc12
REMARK SMILES IDX 5 1 3 2 2 3 1 4 21 5 15 6 14 7 16 8 17 9 19 10 20 11 6 12
REMARK SMILES IDX 7 13 8 14 9 15 13 16 11 17 10 18 12 20 4 22 18 24
REMARK H PARENT 10 19 12 21 4 23 18 25
REMARK Flexibility Score: inf
ROOT
ATOM      1  C   UNL     1      11.576 -14.923   4.998  1.00  0.00     0.180 A 
ATOM      2  C   UNL     1      12.853 -15.520   5.041  1.00  0.00     0.208 A 
ATOM      3  C   UNL     1      12.945 -16.921   5.069  1.00  0.00     0.235 A 
ATOM      4  O   UNL     1      14.076 -17.479   5.097  1.00  0.00    -0.285 OA
ATOM      5  C   UNL     1      11.770 -17.689   5.075  1.00  0.00     0.069 A 
ATOM      6  C   UNL     1      10.530 -17.015   5.055  1.00  0.00     0.142 A 
ATOM      7  O   UNL     1      10.487 -15.688   5.019  1.00  0.00    -0.452 OA
ATOM      8  C   UNL     1       9.337 -17.746   5.070  1.00  0.00     0.094 A 
ATOM      9  C   UNL     1       9.366 -19.147   5.103  1.00  0.00     0.119 A 
ATOM     10  C   UNL     1      10.594 -19.816   5.121  1.00  0.00     0.047 A 
ATOM     11  C   UNL     1      11.792 -19.095   5.108  1.00  0.00     0.020 A 
ENDROOT
BRANCH   1  12
ATOM     12  C   UNL     1      11.397 -13.454   4.948  1.00  0.00     0.025 A 
ATOM     13  C   UNL     1      10.120 -12.876   4.857  1.00  0.00     0.016 A 
ATOM     14  C   UNL     1       9.975 -11.488   4.835  1.00  0.00     0.051 A 
ATOM     15  C   UNL     1      11.093 -10.651   4.916  1.00  0.00     0.157 A 
ATOM     16  C   UNL     1      12.518 -12.617   5.051  1.00  0.00     0.062 A 
ATOM     17  C   UNL     1      12.382 -11.223   5.030  1.00  0.00     0.158 A 
BRANCH  15  18
ATOM     18  O   UNL     1      10.878  -9.272   4.884  1.00  0.00    -0.504 OA
ATOM     19  H   UNL     1      10.075  -8.835   4.455  1.00  0.00     0.293 HD
ENDBRANCH  15  18
BRANCH  17  20
ATOM     20  O   UNL     1      13.543 -10.453   5.125  1.00  0.00    -0.504 OA
ATOM     21  H   UNL     1      14.329 -10.687   5.711  1.00  0.00     0.293 HD
ENDBRANCH  17  20
ENDBRANCH   1  12
BRANCH   2  22
ATOM     22  O   UNL     1      14.004 -14.729   5.084  1.00  0.00    -0.502 OA
ATOM     23  H   UNL     1      14.700 -14.745   4.349  1.00  0.00     0.293 HD
ENDBRANCH   2  22
BRANCH   9  24
ATOM     24  O   UNL     1       8.183 -19.882   5.118  1.00  0.00    -0.508 OA
ATOM     25  H   UNL     1       7.558 -19.861   5.915  1.00  0.00     0.293 HD
ENDBRANCH   9  24
TORSDOF 5
ENDMDL
