MODEL 1
REMARK VINA RESULT:    -4.864      0.000      0.000
REMARK INTER + INTRA:          -4.864
REMARK INTER:                  -4.864
REMARK INTRA:                   0.000
REMARK UNBOUND:                 0.000
REMARK SMILES CC(C)=C1CC[C@@H](C)CC1=O
REMARK SMILES IDX 8 1 7 2 6 3 5 4 4 5 2 6 1 7 3 8 10 9 11 10 9 11
REMARK H PARENT
REMARK Flexibility Score: inf
ROOT
ATOM      1  C   UNL     1       0.497   4.015  18.236  1.00  0.00     0.008 C 
ATOM      2  C   UNL     1       0.319   4.691  16.873  1.00  0.00    -0.006 C 
ATOM      3  C   UNL     1      -0.385   6.049  17.030  1.00  0.00     0.008 C 
ATOM      4  C   UNL     1      -0.482   6.786  15.688  1.00  0.00     0.039 C 
ATOM      5  C   UNL     1      -1.103   5.928  14.593  1.00  0.00    -0.006 C 
ATOM      6  C   UNL     1      -1.848   6.485  13.594  1.00  0.00    -0.070 C 
ATOM      7  C   UNL     1      -2.517   5.639  12.534  1.00  0.00     0.039 C 
ATOM      8  C   UNL     1      -2.074   7.977  13.522  1.00  0.00     0.039 C 
ATOM      9  C   UNL     1      -0.751   4.478  14.618  1.00  0.00     0.159 C 
ATOM     10  O   UNL     1      -0.660   3.808  13.555  1.00  0.00    -0.295 OA
ATOM     11  C   UNL     1      -0.487   3.789  15.926  1.00  0.00     0.084 C 
ENDROOT
TORSDOF 0
ENDMDL
MODEL 2
REMARK VINA RESULT:    -4.862      1.024      4.126
REMARK INTER + INTRA:          -4.862
REMARK INTER:                  -4.862
REMARK INTRA:                   0.000
REMARK UNBOUND:                 0.000
REMARK SMILES CC(C)=C1CC[C@@H](C)CC1=O
REMARK SMILES IDX 8 1 7 2 6 3 5 4 4 5 2 6 1 7 3 8 10 9 11 10 9 11
REMARK H PARENT
REMARK Flexibility Score: inf
ROOT
ATOM      1  C   UNL     1      -2.345   6.438  10.901  1.00  0.00     0.008 C 
ATOM      2  C   UNL     1      -2.285   6.160  12.406  1.00  0.00    -0.006 C 
ATOM      3  C   UNL     1      -1.890   7.431  13.176  1.00  0.00     0.008 C 
ATOM      4  C   UNL     1      -1.922   7.198  14.692  1.00  0.00     0.039 C 
ATOM      5  C   UNL     1      -1.109   5.981  15.114  1.00  0.00    -0.006 C 
ATOM      6  C   UNL     1      -0.477   5.935  16.324  1.00  0.00    -0.070 C 
ATOM      7  C   UNL     1       0.379   4.758  16.730  1.00  0.00     0.039 C 
ATOM      8  C   UNL     1      -0.572   7.083  17.302  1.00  0.00     0.039 C 
ATOM      9  C   UNL     1      -1.145   4.813  14.185  1.00  0.00     0.159 C 
ATOM     10  O   UNL     1      -1.068   3.632  14.614  1.00  0.00    -0.295 OA
ATOM     11  C   UNL     1      -1.285   5.033  12.706  1.00  0.00     0.084 C 
ENDROOT
TORSDOF 0
ENDMDL
MODEL 3
REMARK VINA RESULT:    -4.715     17.307     19.290
REMARK INTER + INTRA:          -4.715
REMARK INTER:                  -4.715
REMARK INTRA:                   0.000
REMARK UNBOUND:                 0.000
REMARK SMILES CC(C)=C1CC[C@@H](C)CC1=O
REMARK SMILES IDX 8 1 7 2 6 3 5 4 4 5 2 6 1 7 3 8 10 9 11 10 9 11
REMARK H PARENT
REMARK Flexibility Score: inf
ROOT
ATOM      1  C   UNL     1     -17.308  -6.370   8.584  1.00  0.00     0.008 C 
ATOM      2  C   UNL     1     -16.812  -5.008   8.087  1.00  0.00    -0.006 C 
ATOM      3  C   UNL     1     -17.226  -4.782   6.624  1.00  0.00     0.008 C 
ATOM      4  C   UNL     1     -16.826  -3.382   6.141  1.00  0.00     0.039 C 
ATOM      5  C   UNL     1     -15.354  -3.078   6.386  1.00  0.00    -0.006 C 
ATOM      6  C   UNL     1     -14.647  -2.268   5.544  1.00  0.00    -0.070 C 
ATOM      7  C   UNL     1     -13.172  -2.004   5.745  1.00  0.00     0.039 C 
ATOM      8  C   UNL     1     -15.301  -1.625   4.342  1.00  0.00     0.039 C 
ATOM      9  C   UNL     1     -14.774  -3.618   7.652  1.00  0.00     0.159 C 
ATOM     10  O   UNL     1     -13.860  -3.007   8.267  1.00  0.00    -0.295 OA
ATOM     11  C   UNL     1     -15.285  -4.910   8.222  1.00  0.00     0.084 C 
ENDROOT
TORSDOF 0
ENDMDL
MODEL 4
REMARK VINA RESULT:    -4.682      1.790      4.317
REMARK INTER + INTRA:          -4.682
REMARK INTER:                  -4.682
REMARK INTRA:                   0.000
REMARK UNBOUND:                 0.000
REMARK SMILES CC(C)=C1CC[C@@H](C)CC1=O
REMARK SMILES IDX 8 1 7 2 6 3 5 4 4 5 2 6 1 7 3 8 10 9 11 10 9 11
REMARK H PARENT
REMARK Flexibility Score: inf
ROOT
ATOM      1  C   UNL     1      -1.677   4.720  11.699  1.00  0.00     0.008 C 
ATOM      2  C   UNL     1      -0.859   5.112  12.934  1.00  0.00    -0.006 C 
ATOM      3  C   UNL     1      -1.266   4.260  14.146  1.00  0.00     0.008 C 
ATOM      4  C   UNL     1      -0.388   4.569  15.366  1.00  0.00     0.039 C 
ATOM      5  C   UNL     1      -0.338   6.057  15.688  1.00  0.00    -0.006 C 
ATOM      6  C   UNL     1      -0.201   6.500  16.972  1.00  0.00    -0.070 C 
ATOM      7  C   UNL     1      -0.207   7.973  17.310  1.00  0.00     0.039 C 
ATOM      8  C   UNL     1      -0.075   5.533  18.126  1.00  0.00     0.039 C 
ATOM      9  C   UNL     1      -0.329   6.981  14.515  1.00  0.00     0.159 C 
ATOM     10  O   UNL     1       0.280   8.083  14.555  1.00  0.00    -0.295 OA
ATOM     11  C   UNL     1      -1.050   6.603  13.253  1.00  0.00     0.084 C 
ENDROOT
TORSDOF 0
ENDMDL
MODEL 5
REMARK VINA RESULT:    -4.583     18.525     20.118
REMARK INTER + INTRA:          -4.583
REMARK INTER:                  -4.583
REMARK INTRA:                   0.000
REMARK UNBOUND:                 0.000
REMARK SMILES CC(C)=C1CC[C@@H](C)CC1=O
REMARK SMILES IDX 8 1 7 2 6 3 5 4 4 5 2 6 1 7 3 8 10 9 11 10 9 11
REMARK H PARENT
REMARK Flexibility Score: inf
ROOT
ATOM      1  C   UNL     1     -15.751  -8.706   8.658  1.00  0.00     0.008 C 
ATOM      2  C   UNL     1     -16.040  -7.212   8.471  1.00  0.00    -0.006 C 
ATOM      3  C   UNL     1     -16.994  -6.989   7.287  1.00  0.00     0.008 C 
ATOM      4  C   UNL     1     -17.375  -5.509   7.148  1.00  0.00     0.039 C 
ATOM      5  C   UNL     1     -16.157  -4.595   7.099  1.00  0.00    -0.006 C 
ATOM      6  C   UNL     1     -16.171  -3.434   6.381  1.00  0.00    -0.070 C 
ATOM      7  C   UNL     1     -14.951  -2.547   6.278  1.00  0.00     0.039 C 
ATOM      8  C   UNL     1     -17.401  -2.998   5.619  1.00  0.00     0.039 C 
ATOM      9  C   UNL     1     -15.008  -4.986   7.968  1.00  0.00     0.159 C 
ATOM     10  O   UNL     1     -14.256  -4.119   8.488  1.00  0.00    -0.295 OA
ATOM     11  C   UNL     1     -14.734  -6.436   8.246  1.00  0.00     0.084 C 
ENDROOT
TORSDOF 0
ENDMDL
MODEL 6
REMARK VINA RESULT:    -4.479      2.007      3.235
REMARK INTER + INTRA:          -4.479
REMARK INTER:                  -4.479
REMARK INTRA:                   0.000
REMARK UNBOUND:                 0.000
REMARK SMILES CC(C)=C1CC[C@@H](C)CC1=O
REMARK SMILES IDX 8 1 7 2 6 3 5 4 4 5 2 6 1 7 3 8 10 9 11 10 9 11
REMARK H PARENT
REMARK Flexibility Score: inf
ROOT
ATOM      1  C   UNL     1      -0.355   9.464  18.346  1.00  0.00     0.008 C 
ATOM      2  C   UNL     1      -0.019   8.429  17.267  1.00  0.00    -0.006 C 
ATOM      3  C   UNL     1      -0.909   8.628  16.030  1.00  0.00     0.008 C 
ATOM      4  C   UNL     1      -0.519   7.666  14.900  1.00  0.00     0.039 C 
ATOM      5  C   UNL     1      -0.472   6.215  15.359  1.00  0.00    -0.006 C 
ATOM      6  C   UNL     1      -0.781   5.192  14.509  1.00  0.00    -0.070 C 
ATOM      7  C   UNL     1      -0.793   3.752  14.968  1.00  0.00     0.039 C 
ATOM      8  C   UNL     1      -1.165   5.456  13.072  1.00  0.00     0.039 C 
ATOM      9  C   UNL     1       0.040   5.980  16.742  1.00  0.00     0.159 C 
ATOM     10  O   UNL     1       0.679   4.935  17.035  1.00  0.00    -0.295 OA
ATOM     11  C   UNL     1      -0.194   7.004  17.815  1.00  0.00     0.084 C 
ENDROOT
TORSDOF 0
ENDMDL
MODEL 7
REMARK VINA RESULT:    -4.384      2.961      5.243
REMARK INTER + INTRA:          -4.384
REMARK INTER:                  -4.384
REMARK INTRA:                   0.000
REMARK UNBOUND:                 0.000
REMARK SMILES CC(C)=C1CC[C@@H](C)CC1=O
REMARK SMILES IDX 8 1 7 2 6 3 5 4 4 5 2 6 1 7 3 8 10 9 11 10 9 11
REMARK H PARENT
REMARK Flexibility Score: inf
ROOT
ATOM      1  C   UNL     1      -4.049   3.379   9.137  1.00  0.00     0.008 C 
ATOM      2  C   UNL     1      -3.745   4.018  10.497  1.00  0.00    -0.006 C 
ATOM      3  C   UNL     1      -4.393   5.407  10.600  1.00  0.00     0.008 C 
ATOM      4  C   UNL     1      -4.184   6.019  11.992  1.00  0.00     0.039 C 
ATOM      5  C   UNL     1      -2.721   6.023  12.414  1.00  0.00    -0.006 C 
ATOM      6  C   UNL     1      -2.218   7.007  13.217  1.00  0.00    -0.070 C 
ATOM      7  C   UNL     1      -0.755   7.054  13.596  1.00  0.00     0.039 C 
ATOM      8  C   UNL     1      -3.096   8.122  13.734  1.00  0.00     0.039 C 
ATOM      9  C   UNL     1      -1.914   4.838  11.997  1.00  0.00     0.159 C 
ATOM     10  O   UNL     1      -0.969   4.407  12.709  1.00  0.00    -0.295 OA
ATOM     11  C   UNL     1      -2.228   4.130  10.711  1.00  0.00     0.084 C 
ENDROOT
TORSDOF 0
ENDMDL
MODEL 8
REMARK VINA RESULT:    -4.281      3.225      4.923
REMARK INTER + INTRA:          -4.281
REMARK INTER:                  -4.281
REMARK INTRA:                   0.000
REMARK UNBOUND:                 0.000
REMARK SMILES CC(C)=C1CC[C@@H](C)CC1=O
REMARK SMILES IDX 8 1 7 2 6 3 5 4 4 5 2 6 1 7 3 8 10 9 11 10 9 11
REMARK H PARENT
REMARK Flexibility Score: inf
ROOT
ATOM      1  C   UNL     1      -0.412   7.127  13.739  1.00  0.00     0.008 C 
ATOM      2  C   UNL     1      -1.449   6.173  13.136  1.00  0.00    -0.006 C 
ATOM      3  C   UNL     1      -0.903   5.518  11.857  1.00  0.00     0.008 C 
ATOM      4  C   UNL     1      -1.888   4.484  11.296  1.00  0.00     0.039 C 
ATOM      5  C   UNL     1      -3.289   5.052  11.111  1.00  0.00    -0.006 C 
ATOM      6  C   UNL     1      -4.107   4.611  10.110  1.00  0.00    -0.070 C 
ATOM      7  C   UNL     1      -5.477   5.206   9.881  1.00  0.00     0.039 C 
ATOM      8  C   UNL     1      -3.662   3.527   9.155  1.00  0.00     0.039 C 
ATOM      9  C   UNL     1      -3.746   6.023  12.149  1.00  0.00     0.159 C 
ATOM     10  O   UNL     1      -4.958   6.103  12.482  1.00  0.00    -0.295 OA
ATOM     11  C   UNL     1      -2.754   6.923  12.826  1.00  0.00     0.084 C 
ENDROOT
TORSDOF 0
ENDMDL
