MODEL 1
REMARK VINA RESULT:    -4.224      0.000      0.000
REMARK INTER + INTRA:          -9.406
REMARK INTER:                  -7.680
REMARK INTRA:                  -1.726
REMARK UNBOUND:                -1.726
REMARK SMILES CCCCCCCCCCCCCCCC(=O)[O-]
REMARK SMILES IDX 9 1 10 2 11 3 12 4 13 5 14 6 15 7 16 8 17 9 18 10 8 11 7 12
REMARK SMILES IDX 6 13 5 14 4 15 3 16 2 17 1 18
REMARK H PARENT
REMARK Flexibility Score: inf
ROOT
ATOM      1  C   UNL     1      41.943  13.091  24.101  1.00  0.00     0.000 C 
ENDROOT
BRANCH   1   2
ATOM      2  C   UNL     1      43.275  12.355  23.914  1.00  0.00     0.000 C 
BRANCH   2   3
ATOM      3  C   UNL     1      43.447  11.889  22.461  1.00  0.00     0.000 C 
BRANCH   3   4
ATOM      4  C   UNL     1      44.847  12.194  21.896  1.00  0.00     0.000 C 
BRANCH   4   5
ATOM      5  C   UNL     1      45.722  10.957  21.615  1.00  0.00     0.000 C 
BRANCH   5   6
ATOM      6  C   UNL     1      44.964   9.729  21.068  1.00  0.00     0.006 C 
BRANCH   6   7
ATOM      7  C   UNL     1      45.315   8.405  21.766  1.00  0.00     0.053 C 
BRANCH   7   8
ATOM      8  C   UNL     1      44.986   8.438  23.228  1.00  0.00     0.041 C 
ATOM      9  O   UNL     1      43.807   8.667  23.606  1.00  0.00    -0.550 OA
ATOM     10  O   UNL     1      45.987   8.249  24.171  1.00  0.00    -0.550 OA
ENDBRANCH   7   8
ENDBRANCH   6   7
ENDBRANCH   5   6
ENDBRANCH   4   5
ENDBRANCH   3   4
ENDBRANCH   2   3
ENDBRANCH   1   2
BRANCH   1  11
ATOM     11  C   UNL     1      41.514  13.789  22.801  1.00  0.00     0.000 C 
BRANCH  11  12
ATOM     12  C   UNL     1      41.945  15.263  22.748  1.00  0.00    -0.000 C 
BRANCH  12  13
ATOM     13  C   UNL     1      41.625  15.925  21.397  1.00  0.00    -0.000 C 
BRANCH  13  14
ATOM     14  C   UNL     1      42.835  16.658  20.796  1.00  0.00    -0.000 C 
BRANCH  14  15
ATOM     15  C   UNL     1      44.176  16.024  21.200  1.00  0.00    -0.000 C 
BRANCH  15  16
ATOM     16  C   UNL     1      45.180  17.100  21.640  1.00  0.00    -0.000 C 
BRANCH  16  17
ATOM     17  C   UNL     1      45.683  16.886  23.075  1.00  0.00    -0.003 C 
ATOM     18  C   UNL     1      45.439  15.466  23.583  1.00  0.00     0.004 C 
ENDBRANCH  16  17
ENDBRANCH  15  16
ENDBRANCH  14  15
ENDBRANCH  13  14
ENDBRANCH  12  13
ENDBRANCH  11  12
ENDBRANCH   1  11
TORSDOF 14
ENDMDL
MODEL 2
REMARK VINA RESULT:    -4.219      1.591      3.004
REMARK INTER + INTRA:          -9.397
REMARK INTER:                  -7.109
REMARK INTRA:                  -2.289
REMARK UNBOUND:                -1.726
REMARK SMILES CCCCCCCCCCCCCCCC(=O)[O-]
REMARK SMILES IDX 9 1 10 2 11 3 12 4 13 5 14 6 15 7 16 8 17 9 18 10 8 11 7 12
REMARK SMILES IDX 6 13 5 14 4 15 3 16 2 17 1 18
REMARK H PARENT
REMARK Flexibility Score: inf
ROOT
ATOM      1  C   UNL     1      41.796  15.453  22.688  1.00  0.00     0.000 C 
ENDROOT
BRANCH   1   2
ATOM      2  C   UNL     1      41.736  13.921  22.652  1.00  0.00     0.000 C 
BRANCH   2   3
ATOM      3  C   UNL     1      40.897  13.376  23.817  1.00  0.00     0.000 C 
BRANCH   3   4
ATOM      4  C   UNL     1      41.587  12.217  24.560  1.00  0.00     0.000 C 
BRANCH   4   5
ATOM      5  C   UNL     1      43.108  12.108  24.332  1.00  0.00     0.000 C 
BRANCH   5   6
ATOM      6  C   UNL     1      43.580  10.790  23.684  1.00  0.00     0.006 C 
BRANCH   6   7
ATOM      7  C   UNL     1      43.674  10.836  22.151  1.00  0.00     0.053 C 
BRANCH   7   8
ATOM      8  C   UNL     1      44.925  10.185  21.645  1.00  0.00     0.041 C 
ATOM      9  O   UNL     1      46.046  10.526  22.108  1.00  0.00    -0.550 OA
ATOM     10  O   UNL     1      44.856   9.229  20.641  1.00  0.00    -0.550 OA
ENDBRANCH   7   8
ENDBRANCH   6   7
ENDBRANCH   5   6
ENDBRANCH   4   5
ENDBRANCH   3   4
ENDBRANCH   2   3
ENDBRANCH   1   2
BRANCH   1  11
ATOM     11  C   UNL     1      41.973  16.029  21.275  1.00  0.00     0.000 C 
BRANCH  11  12
ATOM     12  C   UNL     1      43.323  16.739  21.087  1.00  0.00    -0.000 C 
BRANCH  12  13
ATOM     13  C   UNL     1      44.250  15.996  20.110  1.00  0.00    -0.000 C 
BRANCH  13  14
ATOM     14  C   UNL     1      45.519  15.459  20.792  1.00  0.00    -0.000 C 
BRANCH  14  15
ATOM     15  C   UNL     1      45.317  14.067  21.413  1.00  0.00    -0.000 C 
BRANCH  15  16
ATOM     16  C   UNL     1      45.855  14.026  22.851  1.00  0.00    -0.000 C 
BRANCH  16  17
ATOM     17  C   UNL     1      45.239  15.114  23.744  1.00  0.00    -0.003 C 
ATOM     18  C   UNL     1      45.540  14.903  25.228  1.00  0.00     0.004 C 
ENDBRANCH  16  17
ENDBRANCH  15  16
ENDBRANCH  14  15
ENDBRANCH  13  14
ENDBRANCH  12  13
ENDBRANCH  11  12
ENDBRANCH   1  11
TORSDOF 14
ENDMDL
MODEL 3
REMARK VINA RESULT:    -4.107      2.793      6.795
REMARK INTER + INTRA:          -9.194
REMARK INTER:                  -7.752
REMARK INTRA:                  -1.441
REMARK UNBOUND:                -1.726
REMARK SMILES CCCCCCCCCCCCCCCC(=O)[O-]
REMARK SMILES IDX 9 1 10 2 11 3 12 4 13 5 14 6 15 7 16 8 17 9 18 10 8 11 7 12
REMARK SMILES IDX 6 13 5 14 4 15 3 16 2 17 1 18
REMARK H PARENT
REMARK Flexibility Score: inf
ROOT
ATOM      1  C   UNL     1      44.928  11.788  21.875  1.00  0.00     0.000 C 
ENDROOT
BRANCH   1   2
ATOM      2  C   UNL     1      45.953  12.898  21.617  1.00  0.00     0.000 C 
BRANCH   2   3
ATOM      3  C   UNL     1      45.318  14.285  21.792  1.00  0.00     0.000 C 
BRANCH   3   4
ATOM      4  C   UNL     1      45.585  15.221  20.598  1.00  0.00     0.000 C 
BRANCH   4   5
ATOM      5  C   UNL     1      44.348  15.971  20.067  1.00  0.00     0.000 C 
BRANCH   5   6
ATOM      6  C   UNL     1      43.492  16.670  21.144  1.00  0.00     0.006 C 
BRANCH   6   7
ATOM      7  C   UNL     1      42.035  16.186  21.209  1.00  0.00     0.053 C 
BRANCH   7   8
ATOM      8  C   UNL     1      41.801  15.266  22.368  1.00  0.00     0.041 C 
ATOM      9  O   UNL     1      42.206  15.582  23.518  1.00  0.00    -0.550 OA
ATOM     10  O   UNL     1      41.167  14.046  22.172  1.00  0.00    -0.550 OA
ENDBRANCH   7   8
ENDBRANCH   6   7
ENDBRANCH   5   6
ENDBRANCH   4   5
ENDBRANCH   3   4
ENDBRANCH   2   3
ENDBRANCH   1   2
BRANCH   1  11
ATOM     11  C   UNL     1      45.398  10.455  21.273  1.00  0.00     0.000 C 
BRANCH  11  12
ATOM     12  C   UNL     1      44.242   9.474  21.025  1.00  0.00    -0.000 C 
BRANCH  12  13
ATOM     13  C   UNL     1      44.345   8.207  21.891  1.00  0.00    -0.000 C 
BRANCH  13  14
ATOM     14  C   UNL     1      45.732   8.040  22.531  1.00  0.00    -0.000 C 
BRANCH  14  15
ATOM     15  C   UNL     1      45.689   8.094  24.067  1.00  0.00    -0.000 C 
BRANCH  15  16
ATOM     16  C   UNL     1      44.309   8.557  24.559  1.00  0.00    -0.000 C 
BRANCH  16  17
ATOM     17  C   UNL     1      44.378   9.856  25.375  1.00  0.00    -0.003 C 
ATOM     18  C   UNL     1      45.704  10.596  25.199  1.00  0.00     0.004 C 
ENDBRANCH  16  17
ENDBRANCH  15  16
ENDBRANCH  14  15
ENDBRANCH  13  14
ENDBRANCH  12  13
ENDBRANCH  11  12
ENDBRANCH   1  11
TORSDOF 14
ENDMDL
MODEL 4
REMARK VINA RESULT:    -4.082      1.349      2.604
REMARK INTER + INTRA:          -9.148
REMARK INTER:                  -7.156
REMARK INTRA:                  -1.992
REMARK UNBOUND:                -1.726
REMARK SMILES CCCCCCCCCCCCCCCC(=O)[O-]
REMARK SMILES IDX 9 1 10 2 11 3 12 4 13 5 14 6 15 7 16 8 17 9 18 10 8 11 7 12
REMARK SMILES IDX 6 13 5 14 4 15 3 16 2 17 1 18
REMARK H PARENT
REMARK Flexibility Score: inf
ROOT
ATOM      1  C   UNL     1      41.271  13.751  23.820  1.00  0.00     0.000 C 
ENDROOT
BRANCH   1   2
ATOM      2  C   UNL     1      41.405  12.361  24.452  1.00  0.00     0.000 C 
BRANCH   2   3
ATOM      3  C   UNL     1      42.766  11.734  24.117  1.00  0.00     0.000 C 
BRANCH   3   4
ATOM      4  C   UNL     1      43.131  11.856  22.626  1.00  0.00     0.000 C 
BRANCH   4   5
ATOM      5  C   UNL     1      44.629  12.078  22.335  1.00  0.00     0.000 C 
BRANCH   5   6
ATOM      6  C   UNL     1      45.297  10.987  21.472  1.00  0.00     0.006 C 
BRANCH   6   7
ATOM      7  C   UNL     1      45.983   9.873  22.278  1.00  0.00     0.053 C 
BRANCH   7   8
ATOM      8  C   UNL     1      45.381   8.529  22.001  1.00  0.00     0.041 C 
ATOM      9  O   UNL     1      45.833   7.503  22.575  1.00  0.00    -0.550 OA
ATOM     10  O   UNL     1      44.346   8.405  21.083  1.00  0.00    -0.550 OA
ENDBRANCH   7   8
ENDBRANCH   6   7
ENDBRANCH   5   6
ENDBRANCH   4   5
ENDBRANCH   3   4
ENDBRANCH   2   3
ENDBRANCH   1   2
BRANCH   1  11
ATOM     11  C   UNL     1      41.254  14.845  24.898  1.00  0.00     0.000 C 
BRANCH  11  12
ATOM     12  C   UNL     1      42.433  15.823  24.771  1.00  0.00    -0.000 C 
BRANCH  12  13
ATOM     13  C   UNL     1      43.767  15.202  25.221  1.00  0.00    -0.000 C 
BRANCH  13  14
ATOM     14  C   UNL     1      44.798  15.129  24.083  1.00  0.00    -0.000 C 
BRANCH  14  15
ATOM     15  C   UNL     1      44.599  16.230  23.028  1.00  0.00    -0.000 C 
BRANCH  15  16
ATOM     16  C   UNL     1      44.374  15.619  21.637  1.00  0.00    -0.000 C 
BRANCH  16  17
ATOM     17  C   UNL     1      43.448  16.474  20.759  1.00  0.00    -0.003 C 
ATOM     18  C   UNL     1      41.986  16.408  21.201  1.00  0.00     0.004 C 
ENDBRANCH  16  17
ENDBRANCH  15  16
ENDBRANCH  14  15
ENDBRANCH  13  14
ENDBRANCH  12  13
ENDBRANCH  11  12
ENDBRANCH   1  11
TORSDOF 14
ENDMDL
MODEL 5
REMARK VINA RESULT:    -4.051     16.390     19.249
REMARK INTER + INTRA:          -9.092
REMARK INTER:                  -7.508
REMARK INTRA:                  -1.584
REMARK UNBOUND:                -1.726
REMARK SMILES CCCCCCCCCCCCCCCC(=O)[O-]
REMARK SMILES IDX 9 1 10 2 11 3 12 4 13 5 14 6 15 7 16 8 17 9 18 10 8 11 7 12
REMARK SMILES IDX 6 13 5 14 4 15 3 16 2 17 1 18
REMARK H PARENT
REMARK Flexibility Score: inf
ROOT
ATOM      1  C   UNL     1      32.445  19.597  11.932  1.00  0.00     0.000 C 
ENDROOT
BRANCH   1   2
ATOM      2  C   UNL     1      32.007  18.400  11.081  1.00  0.00     0.000 C 
BRANCH   2   3
ATOM      3  C   UNL     1      31.172  18.857   9.876  1.00  0.00     0.000 C 
BRANCH   3   4
ATOM      4  C   UNL     1      29.699  18.422   9.968  1.00  0.00     0.000 C 
BRANCH   4   5
ATOM      5  C   UNL     1      29.042  18.624  11.348  1.00  0.00     0.000 C 
BRANCH   5   6
ATOM      6  C   UNL     1      27.592  19.151  11.313  1.00  0.00     0.006 C 
BRANCH   6   7
ATOM      7  C   UNL     1      27.263  20.019  10.089  1.00  0.00     0.053 C 
BRANCH   7   8
ATOM      8  C   UNL     1      27.256  21.480  10.423  1.00  0.00     0.041 C 
ATOM      9  O   UNL     1      28.326  22.059  10.749  1.00  0.00    -0.550 OA
ATOM     10  O   UNL     1      26.064  22.192  10.407  1.00  0.00    -0.550 OA
ENDBRANCH   7   8
ENDBRANCH   6   7
ENDBRANCH   5   6
ENDBRANCH   4   5
ENDBRANCH   3   4
ENDBRANCH   2   3
ENDBRANCH   1   2
BRANCH   1  11
ATOM     11  C   UNL     1      31.500  19.796  13.127  1.00  0.00     0.000 C 
BRANCH  11  12
ATOM     12  C   UNL     1      30.883  21.203  13.169  1.00  0.00    -0.000 C 
BRANCH  12  13
ATOM     13  C   UNL     1      31.617  22.199  12.254  1.00  0.00    -0.000 C 
BRANCH  13  14
ATOM     14  C   UNL     1      32.567  23.125  13.031  1.00  0.00    -0.000 C 
BRANCH  14  15
ATOM     15  C   UNL     1      32.662  22.764  14.522  1.00  0.00    -0.000 C 
BRANCH  15  16
ATOM     16  C   UNL     1      34.128  22.699  14.977  1.00  0.00    -0.000 C 
BRANCH  16  17
ATOM     17  C   UNL     1      34.588  21.266  15.281  1.00  0.00    -0.003 C 
ATOM     18  C   UNL     1      35.245  20.587  14.079  1.00  0.00     0.004 C 
ENDBRANCH  16  17
ENDBRANCH  15  16
ENDBRANCH  14  15
ENDBRANCH  13  14
ENDBRANCH  12  13
ENDBRANCH  11  12
ENDBRANCH   1  11
TORSDOF 14
ENDMDL
MODEL 6
REMARK VINA RESULT:    -3.976      1.592      3.711
REMARK INTER + INTRA:          -8.956
REMARK INTER:                  -7.056
REMARK INTRA:                  -1.900
REMARK UNBOUND:                -1.726
REMARK SMILES CCCCCCCCCCCCCCCC(=O)[O-]
REMARK SMILES IDX 9 1 10 2 11 3 12 4 13 5 14 6 15 7 16 8 17 9 18 10 8 11 7 12
REMARK SMILES IDX 6 13 5 14 4 15 3 16 2 17 1 18
REMARK H PARENT
REMARK Flexibility Score: inf
ROOT
ATOM      1  C   UNL     1      42.841  16.680  20.749  1.00  0.00     0.000 C 
ENDROOT
BRANCH   1   2
ATOM      2  C   UNL     1      44.140  16.293  21.468  1.00  0.00     0.000 C 
BRANCH   2   3
ATOM      3  C   UNL     1      45.071  15.505  20.535  1.00  0.00     0.000 C 
BRANCH   3   4
ATOM      4  C   UNL     1      45.832  14.381  21.262  1.00  0.00     0.000 C 
BRANCH   4   5
ATOM      5  C   UNL     1      44.945  13.272  21.862  1.00  0.00     0.000 C 
BRANCH   5   6
ATOM      6  C   UNL     1      45.577  11.864  21.877  1.00  0.00     0.006 C 
BRANCH   6   7
ATOM      7  C   UNL     1      44.653  10.761  22.415  1.00  0.00     0.053 C 
BRANCH   7   8
ATOM      8  C   UNL     1      44.603   9.575  21.500  1.00  0.00     0.041 C 
ATOM      9  O   UNL     1      45.164   9.622  20.374  1.00  0.00    -0.550 OA
ATOM     10  O   UNL     1      43.910   8.433  21.877  1.00  0.00    -0.550 OA
ENDBRANCH   7   8
ENDBRANCH   6   7
ENDBRANCH   5   6
ENDBRANCH   4   5
ENDBRANCH   3   4
ENDBRANCH   2   3
ENDBRANCH   1   2
BRANCH   1  11
ATOM     11  C   UNL     1      41.631  15.983  21.389  1.00  0.00     0.000 C 
BRANCH  11  12
ATOM     12  C   UNL     1      41.994  15.224  22.675  1.00  0.00    -0.000 C 
BRANCH  12  13
ATOM     13  C   UNL     1      41.485  13.772  22.669  1.00  0.00    -0.000 C 
BRANCH  13  14
ATOM     14  C   UNL     1      40.914  13.340  24.029  1.00  0.00    -0.000 C 
BRANCH  14  15
ATOM     15  C   UNL     1      41.833  13.711  25.205  1.00  0.00    -0.000 C 
BRANCH  15  16
ATOM     16  C   UNL     1      43.090  12.829  25.216  1.00  0.00    -0.000 C 
BRANCH  16  17
ATOM     17  C   UNL     1      44.368  13.625  25.521  1.00  0.00    -0.003 C 
ATOM     18  C   UNL     1      45.627  12.759  25.494  1.00  0.00     0.004 C 
ENDBRANCH  16  17
ENDBRANCH  15  16
ENDBRANCH  14  15
ENDBRANCH  13  14
ENDBRANCH  12  13
ENDBRANCH  11  12
ENDBRANCH   1  11
TORSDOF 14
ENDMDL
MODEL 7
REMARK VINA RESULT:    -3.889      3.132      6.954
REMARK INTER + INTRA:          -8.798
REMARK INTER:                  -6.846
REMARK INTRA:                  -1.951
REMARK UNBOUND:                -1.726
REMARK SMILES CCCCCCCCCCCCCCCC(=O)[O-]
REMARK SMILES IDX 9 1 10 2 11 3 12 4 13 5 14 6 15 7 16 8 17 9 18 10 8 11 7 12
REMARK SMILES IDX 6 13 5 14 4 15 3 16 2 17 1 18
REMARK H PARENT
REMARK Flexibility Score: inf
ROOT
ATOM      1  C   UNL     1      45.033  10.579  21.408  1.00  0.00     0.000 C 
ENDROOT
BRANCH   1   2
ATOM      2  C   UNL     1      44.631  11.799  22.245  1.00  0.00     0.000 C 
BRANCH   2   3
ATOM      3  C   UNL     1      43.121  11.803  22.524  1.00  0.00     0.000 C 
BRANCH   3   4
ATOM      4  C   UNL     1      42.588  13.193  22.914  1.00  0.00     0.000 C 
BRANCH   4   5
ATOM      5  C   UNL     1      43.424  13.942  23.970  1.00  0.00     0.000 C 
BRANCH   5   6
ATOM      6  C   UNL     1      44.121  15.223  23.466  1.00  0.00     0.006 C 
BRANCH   6   7
ATOM      7  C   UNL     1      43.928  15.502  21.968  1.00  0.00     0.053 C 
BRANCH   7   8
ATOM      8  C   UNL     1      45.179  16.024  21.328  1.00  0.00     0.041 C 
ATOM      9  O   UNL     1      45.800  15.321  20.488  1.00  0.00    -0.550 OA
ATOM     10  O   UNL     1      45.676  17.270  21.686  1.00  0.00    -0.550 OA
ENDBRANCH   7   8
ENDBRANCH   6   7
ENDBRANCH   5   6
ENDBRANCH   4   5
ENDBRANCH   3   4
ENDBRANCH   2   3
ENDBRANCH   1   2
BRANCH   1  11
ATOM     11  C   UNL     1      43.896   9.546  21.363  1.00  0.00     0.000 C 
BRANCH  11  12
ATOM     12  C   UNL     1      44.377   8.119  21.671  1.00  0.00    -0.000 C 
BRANCH  12  13
ATOM     13  C   UNL     1      45.811   8.086  22.228  1.00  0.00    -0.000 C 
BRANCH  13  14
ATOM     14  C   UNL     1      45.854   7.748  23.727  1.00  0.00    -0.000 C 
BRANCH  14  15
ATOM     15  C   UNL     1      45.676   8.987  24.621  1.00  0.00    -0.000 C 
BRANCH  15  16
ATOM     16  C   UNL     1      44.538   8.774  25.630  1.00  0.00    -0.000 C 
BRANCH  16  17
ATOM     17  C   UNL     1      43.164   9.158  25.061  1.00  0.00    -0.003 C 
ATOM     18  C   UNL     1      42.521  10.328  25.807  1.00  0.00     0.004 C 
ENDBRANCH  16  17
ENDBRANCH  15  16
ENDBRANCH  14  15
ENDBRANCH  13  14
ENDBRANCH  12  13
ENDBRANCH  11  12
ENDBRANCH   1  11
TORSDOF 14
ENDMDL
MODEL 8
REMARK VINA RESULT:    -3.876      2.985      6.255
REMARK INTER + INTRA:          -8.773
REMARK INTER:                  -6.580
REMARK INTRA:                  -2.193
REMARK UNBOUND:                -1.726
REMARK SMILES CCCCCCCCCCCCCCCC(=O)[O-]
REMARK SMILES IDX 9 1 10 2 11 3 12 4 13 5 14 6 15 7 16 8 17 9 18 10 8 11 7 12
REMARK SMILES IDX 6 13 5 14 4 15 3 16 2 17 1 18
REMARK H PARENT
REMARK Flexibility Score: inf
ROOT
ATOM      1  C   UNL     1      44.029   8.423  21.976  1.00  0.00     0.000 C 
ENDROOT
BRANCH   1   2
ATOM      2  C   UNL     1      44.041   9.864  21.452  1.00  0.00     0.000 C 
BRANCH   2   3
ATOM      3  C   UNL     1      45.479  10.354  21.225  1.00  0.00     0.000 C 
BRANCH   3   4
ATOM      4  C   UNL     1      45.861  11.531  22.142  1.00  0.00     0.000 C 
BRANCH   4   5
ATOM      5  C   UNL     1      45.414  12.919  21.645  1.00  0.00     0.000 C 
BRANCH   5   6
ATOM      6  C   UNL     1      45.797  14.099  22.563  1.00  0.00     0.006 C 
BRANCH   6   7
ATOM      7  C   UNL     1      45.817  15.467  21.862  1.00  0.00     0.053 C 
BRANCH   7   8
ATOM      8  C   UNL     1      44.467  15.845  21.332  1.00  0.00     0.041 C 
ATOM      9  O   UNL     1      43.468  15.858  22.097  1.00  0.00    -0.550 OA
ATOM     10  O   UNL     1      44.308  16.148  19.986  1.00  0.00    -0.550 OA
ENDBRANCH   7   8
ENDBRANCH   6   7
ENDBRANCH   5   6
ENDBRANCH   4   5
ENDBRANCH   3   4
ENDBRANCH   2   3
ENDBRANCH   1   2
BRANCH   1  11
ATOM     11  C   UNL     1      45.426   8.000  22.454  1.00  0.00     0.000 C 
BRANCH  11  12
ATOM     12  C   UNL     1      45.570   8.044  23.984  1.00  0.00    -0.000 C 
BRANCH  12  13
ATOM     13  C   UNL     1      44.267   8.460  24.689  1.00  0.00    -0.000 C 
BRANCH  13  14
ATOM     14  C   UNL     1      44.369   9.843  25.351  1.00  0.00    -0.000 C 
BRANCH  14  15
ATOM     15  C   UNL     1      43.291  10.821  24.855  1.00  0.00    -0.000 C 
BRANCH  15  16
ATOM     16  C   UNL     1      43.714  12.276  25.109  1.00  0.00    -0.000 C 
BRANCH  16  17
ATOM     17  C   UNL     1      42.745  13.290  24.483  1.00  0.00    -0.003 C 
ATOM     18  C   UNL     1      42.094  12.773  23.200  1.00  0.00     0.004 C 
ENDBRANCH  16  17
ENDBRANCH  15  16
ENDBRANCH  14  15
ENDBRANCH  13  14
ENDBRANCH  12  13
ENDBRANCH  11  12
ENDBRANCH   1  11
TORSDOF 14
ENDMDL
