MODEL 1
REMARK VINA RESULT:    -2.483      0.000      0.000
REMARK INTER + INTRA:          -2.701
REMARK INTER:                  -2.701
REMARK INTRA:                   0.000
REMARK UNBOUND:                 0.000
REMARK SMILES [NH3+]CC(=O)[O-]
REMARK SMILES IDX 2 1 1 2 3 6 4 7 5 8
REMARK H PARENT 1 3 1 4 1 5
REMARK Flexibility Score: inf
ROOT
ATOM      1  C   UNL     1      25.731  30.125  33.984  1.00  0.00     0.312 C 
ENDROOT
BRANCH   1   2
ATOM      2  N   UNL     1      25.829  29.049  34.968  1.00  0.00    -0.353 N 
ATOM      3  H   UNL     1      25.025  29.098  35.635  1.00  0.00     0.344 HD
ATOM      4  H   UNL     1      25.805  28.129  34.472  1.00  0.00     0.344 HD
ATOM      5  H   UNL     1      26.730  29.127  35.494  1.00  0.00     0.344 HD
ENDBRANCH   1   2
BRANCH   1   6
ATOM      6  C   UNL     1      24.782  29.754  32.886  1.00  0.00     0.096 C 
ATOM      7  O   UNL     1      23.540  29.782  33.086  1.00  0.00    -0.544 OA
ATOM      8  O   UNL     1      25.272  29.328  31.658  1.00  0.00    -0.544 OA
ENDBRANCH   1   6
TORSDOF 2
ENDMDL
MODEL 2
REMARK VINA RESULT:    -2.362     19.899     20.106
REMARK INTER + INTRA:          -2.569
REMARK INTER:                  -2.569
REMARK INTRA:                   0.000
REMARK UNBOUND:                 0.000
REMARK SMILES [NH3+]CC(=O)[O-]
REMARK SMILES IDX 2 1 1 2 3 6 4 7 5 8
REMARK H PARENT 1 3 1 4 1 5
REMARK Flexibility Score: inf
ROOT
ATOM      1  C   UNL     1      19.035  46.879  26.408  1.00  0.00     0.312 C 
ENDROOT
BRANCH   1   2
ATOM      2  N   UNL     1      19.434  48.121  25.750  1.00  0.00    -0.353 N 
ATOM      3  H   UNL     1      18.646  48.808  25.772  1.00  0.00     0.344 HD
ATOM      4  H   UNL     1      20.254  48.528  26.255  1.00  0.00     0.344 HD
ATOM      5  H   UNL     1      19.708  47.929  24.759  1.00  0.00     0.344 HD
ENDBRANCH   1   2
BRANCH   1   6
ATOM      6  C   UNL     1      17.613  46.539  26.082  1.00  0.00     0.096 C 
ATOM      7  O   UNL     1      17.223  46.531  24.885  1.00  0.00    -0.544 OA
ATOM      8  O   UNL     1      16.707  46.284  27.103  1.00  0.00    -0.544 OA
ENDBRANCH   1   6
TORSDOF 2
ENDMDL
MODEL 3
REMARK VINA RESULT:    -2.356     12.453     12.650
REMARK INTER + INTRA:          -2.562
REMARK INTER:                  -2.562
REMARK INTRA:                   0.000
REMARK UNBOUND:                 0.000
REMARK SMILES [NH3+]CC(=O)[O-]
REMARK SMILES IDX 2 1 1 2 3 6 4 7 5 8
REMARK H PARENT 1 3 1 4 1 5
REMARK Flexibility Score: inf
ROOT
ATOM      1  C   UNL     1      18.735  38.465  26.386  1.00  0.00     0.312 C 
ENDROOT
BRANCH   1   2
ATOM      2  N   UNL     1      18.669  39.535  25.393  1.00  0.00    -0.353 N 
ATOM      3  H   UNL     1      17.736  39.530  24.921  1.00  0.00     0.344 HD
ATOM      4  H   UNL     1      18.803  40.455  25.872  1.00  0.00     0.344 HD
ATOM      5  H   UNL     1      19.426  39.410  24.682  1.00  0.00     0.344 HD
ENDBRANCH   1   2
BRANCH   1   6
ATOM      6  C   UNL     1      19.744  37.434  25.987  1.00  0.00     0.096 C 
ATOM      7  O   UNL     1      20.949  37.563  26.326  1.00  0.00    -0.544 OA
ATOM      8  O   UNL     1      19.363  36.357  25.197  1.00  0.00    -0.544 OA
ENDBRANCH   1   6
TORSDOF 2
ENDMDL
MODEL 4
REMARK VINA RESULT:    -2.327      1.744      1.877
REMARK INTER + INTRA:          -2.531
REMARK INTER:                  -2.531
REMARK INTRA:                   0.000
REMARK UNBOUND:                 0.000
REMARK SMILES [NH3+]CC(=O)[O-]
REMARK SMILES IDX 2 1 1 2 3 6 4 7 5 8
REMARK H PARENT 1 3 1 4 1 5
REMARK Flexibility Score: inf
ROOT
ATOM      1  C   UNL     1      25.060  29.668  32.601  1.00  0.00     0.312 C 
ENDROOT
BRANCH   1   2
ATOM      2  N   UNL     1      24.078  29.464  33.664  1.00  0.00    -0.353 N 
ATOM      3  H   UNL     1      24.403  28.711  34.313  1.00  0.00     0.344 HD
ATOM      4  H   UNL     1      23.967  30.353  34.202  1.00  0.00     0.344 HD
ATOM      5  H   UNL     1      23.153  29.200  33.251  1.00  0.00     0.344 HD
ENDBRANCH   1   2
BRANCH   1   6
ATOM      6  C   UNL     1      24.468  30.464  31.479  1.00  0.00     0.096 C 
ATOM      7  O   UNL     1      23.616  31.359  31.718  1.00  0.00    -0.544 OA
ATOM      8  O   UNL     1      24.819  30.181  30.165  1.00  0.00    -0.544 OA
ENDBRANCH   1   6
TORSDOF 2
ENDMDL
MODEL 5
REMARK VINA RESULT:    -2.312      7.881      8.108
REMARK INTER + INTRA:          -2.515
REMARK INTER:                  -2.515
REMARK INTRA:                   0.000
REMARK UNBOUND:                 0.000
REMARK SMILES [NH3+]CC(=O)[O-]
REMARK SMILES IDX 2 1 1 2 3 6 4 7 5 8
REMARK H PARENT 1 3 1 4 1 5
REMARK Flexibility Score: inf
ROOT
ATOM      1  C   UNL     1      23.822  30.382  40.257  1.00  0.00     0.312 C 
ENDROOT
BRANCH   1   2
ATOM      2  N   UNL     1      24.725  30.760  39.172  1.00  0.00    -0.353 N 
ATOM      3  H   UNL     1      24.899  31.791  39.194  1.00  0.00     0.344 HD
ATOM      4  H   UNL     1      25.634  30.259  39.293  1.00  0.00     0.344 HD
ATOM      5  H   UNL     1      24.309  30.492  38.250  1.00  0.00     0.344 HD
ENDBRANCH   1   2
BRANCH   1   6
ATOM      6  C   UNL     1      24.596  29.967  41.470  1.00  0.00     0.096 C 
ATOM      7  O   UNL     1      24.245  28.956  42.131  1.00  0.00    -0.544 OA
ATOM      8  O   UNL     1      25.675  30.730  41.900  1.00  0.00    -0.544 OA
ENDBRANCH   1   6
TORSDOF 2
ENDMDL
MODEL 6
REMARK VINA RESULT:    -2.250     20.040     20.117
REMARK INTER + INTRA:          -2.448
REMARK INTER:                  -2.448
REMARK INTRA:                   0.000
REMARK UNBOUND:                 0.000
REMARK SMILES [NH3+]CC(=O)[O-]
REMARK SMILES IDX 2 1 1 2 3 6 4 7 5 8
REMARK H PARENT 1 3 1 4 1 5
REMARK Flexibility Score: inf
ROOT
ATOM      1  C   UNL     1      16.563  46.257  27.293  1.00  0.00     0.312 C 
ENDROOT
BRANCH   1   2
ATOM      2  N   UNL     1      15.175  46.210  26.836  1.00  0.00    -0.353 N 
ATOM      3  H   UNL     1      15.132  45.842  25.859  1.00  0.00     0.344 HD
ATOM      4  H   UNL     1      14.629  45.578  27.463  1.00  0.00     0.344 HD
ATOM      5  H   UNL     1      14.755  47.168  26.871  1.00  0.00     0.344 HD
ENDBRANCH   1   2
BRANCH   1   6
ATOM      6  C   UNL     1      17.477  46.640  26.171  1.00  0.00     0.096 C 
ATOM      7  O   UNL     1      18.466  47.388  26.388  1.00  0.00    -0.544 OA
ATOM      8  O   UNL     1      17.207  46.214  24.877  1.00  0.00    -0.544 OA
ENDBRANCH   1   6
TORSDOF 2
ENDMDL
MODEL 7
REMARK VINA RESULT:    -2.245      8.112      8.593
REMARK INTER + INTRA:          -2.441
REMARK INTER:                  -2.441
REMARK INTRA:                   0.000
REMARK UNBOUND:                 0.000
REMARK SMILES [NH3+]CC(=O)[O-]
REMARK SMILES IDX 2 1 1 2 3 6 4 7 5 8
REMARK H PARENT 1 3 1 4 1 5
REMARK Flexibility Score: inf
ROOT
ATOM      1  C   UNL     1      24.312  28.888  42.133  1.00  0.00     0.312 C 
ENDROOT
BRANCH   1   2
ATOM      2  N   UNL     1      25.406  28.274  42.883  1.00  0.00    -0.353 N 
ATOM      3  H   UNL     1      25.235  28.371  43.910  1.00  0.00     0.344 HD
ATOM      4  H   UNL     1      25.459  27.258  42.641  1.00  0.00     0.344 HD
ATOM      5  H   UNL     1      26.313  28.731  42.631  1.00  0.00     0.344 HD
ENDBRANCH   1   2
BRANCH   1   6
ATOM      6  C   UNL     1      24.777  30.132  41.442  1.00  0.00     0.096 C 
ATOM      7  O   UNL     1      24.200  30.529  40.397  1.00  0.00    -0.544 OA
ATOM      8  O   UNL     1      25.880  30.825  41.925  1.00  0.00    -0.544 OA
ENDBRANCH   1   6
TORSDOF 2
ENDMDL
MODEL 8
REMARK VINA RESULT:    -2.231     19.579     19.768
REMARK INTER + INTRA:          -2.427
REMARK INTER:                  -2.427
REMARK INTRA:                   0.000
REMARK UNBOUND:                 0.000
REMARK SMILES [NH3+]CC(=O)[O-]
REMARK SMILES IDX 2 1 1 2 3 6 4 7 5 8
REMARK H PARENT 1 3 1 4 1 5
REMARK Flexibility Score: inf
ROOT
ATOM      1  C   UNL     1      17.584  46.111  24.939  1.00  0.00     0.312 C 
ENDROOT
BRANCH   1   2
ATOM      2  N   UNL     1      17.949  44.697  24.875  1.00  0.00    -0.353 N 
ATOM      3  H   UNL     1      18.882  44.588  24.415  1.00  0.00     0.344 HD
ATOM      4  H   UNL     1      18.001  44.313  25.846  1.00  0.00     0.344 HD
ATOM      5  H   UNL     1      17.226  44.165  24.338  1.00  0.00     0.344 HD
ENDBRANCH   1   2
BRANCH   1   6
ATOM      6  C   UNL     1      18.561  46.872  25.781  1.00  0.00     0.096 C 
ATOM      7  O   UNL     1      18.643  48.124  25.680  1.00  0.00    -0.544 OA
ATOM      8  O   UNL     1      19.416  46.193  26.640  1.00  0.00    -0.544 OA
ENDBRANCH   1   6
TORSDOF 2
ENDMDL
MODEL 9
REMARK VINA RESULT:    -2.202      9.701     10.030
REMARK INTER + INTRA:          -2.395
REMARK INTER:                  -2.395
REMARK INTRA:                   0.000
REMARK UNBOUND:                 0.000
REMARK SMILES [NH3+]CC(=O)[O-]
REMARK SMILES IDX 2 1 1 2 3 6 4 7 5 8
REMARK H PARENT 1 3 1 4 1 5
REMARK Flexibility Score: inf
ROOT
ATOM      1  C   UNL     1      20.193  31.967  41.350  1.00  0.00     0.312 C 
ENDROOT
BRANCH   1   2
ATOM      2  N   UNL     1      19.682  33.148  42.041  1.00  0.00    -0.353 N 
ATOM      3  H   UNL     1      18.853  33.532  41.532  1.00  0.00     0.344 HD
ATOM      4  H   UNL     1      19.392  32.880  43.009  1.00  0.00     0.344 HD
ATOM      5  H   UNL     1      20.429  33.879  42.102  1.00  0.00     0.344 HD
ENDBRANCH   1   2
BRANCH   1   6
ATOM      6  C   UNL     1      19.070  31.065  40.941  1.00  0.00     0.096 C 
ATOM      7  O   UNL     1      17.880  31.373  41.212  1.00  0.00    -0.544 OA
ATOM      8  O   UNL     1      19.342  29.859  40.309  1.00  0.00    -0.544 OA
ENDBRANCH   1   6
TORSDOF 2
ENDMDL
