MODEL 1
REMARK VINA RESULT:    -4.424      0.000      0.000
REMARK INTER + INTRA:          -9.985
REMARK INTER:                  -6.752
REMARK INTRA:                  -3.233
REMARK UNBOUND:                -3.233
REMARK SMILES CC(=O)CCC=C(C)CCC=C(C)CCC=C(C)C
REMARK SMILES IDX 10 1 11 2 12 3 13 4 14 5 15 6 16 7 18 8 17 9 19 10 9 11 7 12
REMARK SMILES IDX 6 13 8 14 5 15 4 16 2 17 3 18 1 19
REMARK H PARENT
REMARK Flexibility Score: inf
ROOT
ATOM      1  C   UNL     1      -0.662   0.046  27.184  1.00  0.00     0.032 C 
ENDROOT
BRANCH   1   2
ATOM      2  C   UNL     1      -0.397   0.570  28.575  1.00  0.00    -0.028 C 
ATOM      3  C   UNL     1      -0.527   1.863  28.954  1.00  0.00    -0.077 C 
ATOM      4  C   UNL     1      -0.256   2.214  30.393  1.00  0.00     0.039 C 
BRANCH   3   5
ATOM      5  C   UNL     1      -0.887   2.974  27.988  1.00  0.00     0.034 C 
BRANCH   5   6
ATOM      6  C   UNL     1      -1.742   4.039  28.683  1.00  0.00     0.032 C 
BRANCH   6   7
ATOM      7  C   UNL     1      -3.207   3.677  28.641  1.00  0.00    -0.028 C 
ATOM      8  C   UNL     1      -3.462   4.054  31.096  1.00  0.00     0.039 C 
ATOM      9  C   UNL     1      -3.998   3.681  29.734  1.00  0.00    -0.080 C 
ATOM     10  C   UNL     1      -5.448   3.303  29.580  1.00  0.00     0.039 C 
ENDBRANCH   6   7
ENDBRANCH   5   6
ENDBRANCH   3   5
ENDBRANCH   1   2
BRANCH   1  11
ATOM     11  C   UNL     1      -1.965  -0.765  27.110  1.00  0.00     0.034 C 
BRANCH  11  12
ATOM     12  C   UNL     1      -3.193   0.121  27.234  1.00  0.00    -0.077 C 
ATOM     13  C   UNL     1      -3.996   0.132  28.324  1.00  0.00    -0.028 C 
ATOM     14  C   UNL     1      -3.571   0.992  26.063  1.00  0.00     0.039 C 
BRANCH  13  15
ATOM     15  C   UNL     1      -3.762  -0.666  29.582  1.00  0.00     0.035 C 
BRANCH  15  16
ATOM     16  C   UNL     1      -3.514   0.256  30.781  1.00  0.00     0.079 C 
BRANCH  16  17
ATOM     17  C   UNL     1      -4.625   0.124  31.789  1.00  0.00     0.130 C 
ATOM     18  O   UNL     1      -5.406  -0.812  31.701  1.00  0.00    -0.300 OA
ATOM     19  C   UNL     1      -4.788   1.110  32.907  1.00  0.00     0.087 C 
ENDBRANCH  16  17
ENDBRANCH  15  16
ENDBRANCH  13  15
ENDBRANCH  11  12
ENDBRANCH   1  11
TORSDOF 9
ENDMDL
MODEL 2
REMARK VINA RESULT:    -4.210      2.319      4.864
REMARK INTER + INTRA:          -9.658
REMARK INTER:                  -6.704
REMARK INTRA:                  -2.954
REMARK UNBOUND:                -3.233
REMARK SMILES CC(=O)CCC=C(C)CCC=C(C)CCC=C(C)C
REMARK SMILES IDX 10 1 11 2 12 3 13 4 14 5 15 6 16 7 18 8 17 9 19 10 9 11 7 12
REMARK SMILES IDX 6 13 8 14 5 15 4 16 2 17 3 18 1 19
REMARK H PARENT
REMARK Flexibility Score: inf
ROOT
ATOM      1  C   UNL     1      -0.275   0.392  28.787  1.00  0.00     0.032 C 
ENDROOT
BRANCH   1   2
ATOM      2  C   UNL     1      -0.859   0.323  27.396  1.00  0.00    -0.028 C 
ATOM      3  C   UNL     1      -2.075  -0.185  27.090  1.00  0.00    -0.077 C 
ATOM      4  C   UNL     1      -2.522  -0.146  25.652  1.00  0.00     0.039 C 
BRANCH   3   5
ATOM      5  C   UNL     1      -2.983  -0.830  28.118  1.00  0.00     0.034 C 
BRANCH   5   6
ATOM      6  C   UNL     1      -3.978   0.191  28.677  1.00  0.00     0.032 C 
BRANCH   6   7
ATOM      7  C   UNL     1      -4.012   0.152  30.186  1.00  0.00    -0.028 C 
ATOM      8  C   UNL     1      -5.440   2.199  30.294  1.00  0.00     0.039 C 
ATOM      9  C   UNL     1      -4.675   1.062  30.931  1.00  0.00    -0.080 C 
ATOM     10  C   UNL     1      -4.644   0.929  32.431  1.00  0.00     0.039 C 
ENDBRANCH   6   7
ENDBRANCH   5   6
ENDBRANCH   3   5
ENDBRANCH   1   2
BRANCH   1  11
ATOM     11  C   UNL     1       0.066   1.831  29.201  1.00  0.00     0.034 C 
BRANCH  11  12
ATOM     12  C   UNL     1      -1.069   2.485  29.971  1.00  0.00    -0.077 C 
ATOM     13  C   UNL     1      -1.987   3.299  29.396  1.00  0.00    -0.028 C 
ATOM     14  C   UNL     1      -1.149   2.263  31.459  1.00  0.00     0.039 C 
BRANCH  13  15
ATOM     15  C   UNL     1      -2.060   3.620  27.925  1.00  0.00     0.035 C 
BRANCH  15  16
ATOM     16  C   UNL     1      -3.493   3.480  27.401  1.00  0.00     0.079 C 
BRANCH  16  17
ATOM     17  C   UNL     1      -3.521   3.586  25.899  1.00  0.00     0.130 C 
ATOM     18  O   UNL     1      -2.659   4.236  25.327  1.00  0.00    -0.300 OA
ATOM     19  C   UNL     1      -4.579   2.901  25.086  1.00  0.00     0.087 C 
ENDBRANCH  16  17
ENDBRANCH  15  16
ENDBRANCH  13  15
ENDBRANCH  11  12
ENDBRANCH   1  11
TORSDOF 9
ENDMDL
MODEL 3
REMARK VINA RESULT:    -4.170      1.284      2.101
REMARK INTER + INTRA:          -9.597
REMARK INTER:                  -6.603
REMARK INTRA:                  -2.994
REMARK UNBOUND:                -3.233
REMARK SMILES CC(=O)CCC=C(C)CCC=C(C)CCC=C(C)C
REMARK SMILES IDX 10 1 11 2 12 3 13 4 14 5 15 6 16 7 18 8 17 9 19 10 9 11 7 12
REMARK SMILES IDX 6 13 8 14 5 15 4 16 2 17 3 18 1 19
REMARK H PARENT
REMARK Flexibility Score: inf
ROOT
ATOM      1  C   UNL     1       0.117   1.203  29.174  1.00  0.00     0.032 C 
ENDROOT
BRANCH   1   2
ATOM      2  C   UNL     1      -0.310   2.340  30.069  1.00  0.00    -0.028 C 
ATOM      3  C   UNL     1      -0.473   3.623  29.669  1.00  0.00    -0.077 C 
ATOM      4  C   UNL     1      -0.938   4.633  30.685  1.00  0.00     0.039 C 
BRANCH   3   5
ATOM      5  C   UNL     1      -0.164   4.094  28.262  1.00  0.00     0.034 C 
BRANCH   5   6
ATOM      6  C   UNL     1      -1.365   4.834  27.664  1.00  0.00     0.032 C 
BRANCH   6   7
ATOM      7  C   UNL     1      -2.168   3.933  26.758  1.00  0.00    -0.028 C 
ATOM      8  C   UNL     1      -3.974   3.680  28.464  1.00  0.00     0.039 C 
ATOM      9  C   UNL     1      -3.357   3.402  27.113  1.00  0.00    -0.080 C 
ATOM     10  C   UNL     1      -4.076   2.515  26.131  1.00  0.00     0.039 C 
ENDBRANCH   6   7
ENDBRANCH   5   6
ENDBRANCH   3   5
ENDBRANCH   1   2
BRANCH   1  11
ATOM     11  C   UNL     1      -0.886   0.039  29.199  1.00  0.00     0.034 C 
BRANCH  11  12
ATOM     12  C   UNL     1      -1.733  -0.009  27.937  1.00  0.00    -0.077 C 
ATOM     13  C   UNL     1      -3.022  -0.423  27.921  1.00  0.00    -0.028 C 
ATOM     14  C   UNL     1      -1.091   0.372  26.628  1.00  0.00     0.039 C 
BRANCH  13  15
ATOM     15  C   UNL     1      -3.817  -0.828  29.136  1.00  0.00     0.035 C 
BRANCH  15  16
ATOM     16  C   UNL     1      -4.797   0.276  29.547  1.00  0.00     0.079 C 
BRANCH  16  17
ATOM     17  C   UNL     1      -4.680   0.567  31.020  1.00  0.00     0.130 C 
ATOM     18  O   UNL     1      -5.401  -0.026  31.808  1.00  0.00    -0.300 OA
ATOM     19  C   UNL     1      -3.688   1.562  31.545  1.00  0.00     0.087 C 
ENDBRANCH  16  17
ENDBRANCH  15  16
ENDBRANCH  13  15
ENDBRANCH  11  12
ENDBRANCH   1  11
TORSDOF 9
ENDMDL
MODEL 4
REMARK VINA RESULT:    -4.104      1.722      3.721
REMARK INTER + INTRA:          -9.497
REMARK INTER:                  -7.205
REMARK INTRA:                  -2.291
REMARK UNBOUND:                -3.233
REMARK SMILES CC(=O)CCC=C(C)CCC=C(C)CCC=C(C)C
REMARK SMILES IDX 10 1 11 2 12 3 13 4 14 5 15 6 16 7 18 8 17 9 19 10 9 11 7 12
REMARK SMILES IDX 6 13 8 14 5 15 4 16 2 17 3 18 1 19
REMARK H PARENT
REMARK Flexibility Score: inf
ROOT
ATOM      1  C   UNL     1      -0.313   1.599  29.642  1.00  0.00     0.032 C 
ENDROOT
BRANCH   1   2
ATOM      2  C   UNL     1      -0.333   0.502  28.605  1.00  0.00    -0.028 C 
ATOM      3  C   UNL     1      -1.131   0.484  27.511  1.00  0.00    -0.077 C 
ATOM      4  C   UNL     1      -1.002  -0.673  26.555  1.00  0.00     0.039 C 
BRANCH   3   5
ATOM      5  C   UNL     1      -2.174   1.547  27.233  1.00  0.00     0.034 C 
BRANCH   5   6
ATOM      6  C   UNL     1      -3.558   0.914  27.059  1.00  0.00     0.032 C 
BRANCH   6   7
ATOM      7  C   UNL     1      -3.893   0.004  28.216  1.00  0.00    -0.028 C 
ATOM      8  C   UNL     1      -5.547   1.633  29.135  1.00  0.00     0.039 C 
ATOM      9  C   UNL     1      -4.796   0.323  29.167  1.00  0.00    -0.080 C 
ATOM     10  C   UNL     1      -5.055  -0.660  30.279  1.00  0.00     0.039 C 
ENDBRANCH   6   7
ENDBRANCH   5   6
ENDBRANCH   3   5
ENDBRANCH   1   2
BRANCH   1  11
ATOM     11  C   UNL     1      -1.461   1.459  30.653  1.00  0.00     0.034 C 
BRANCH  11  12
ATOM     12  C   UNL     1      -2.218   2.764  30.838  1.00  0.00    -0.077 C 
ATOM     13  C   UNL     1      -3.293   2.893  31.651  1.00  0.00    -0.028 C 
ATOM     14  C   UNL     1      -1.786   3.964  30.035  1.00  0.00     0.039 C 
BRANCH  13  15
ATOM     15  C   UNL     1      -3.851   1.802  32.529  1.00  0.00     0.035 C 
BRANCH  15  16
ATOM     16  C   UNL     1      -4.271   2.354  33.895  1.00  0.00     0.079 C 
BRANCH  16  17
ATOM     17  C   UNL     1      -5.565   1.729  34.345  1.00  0.00     0.130 C 
ATOM     18  O   UNL     1      -5.860   1.747  35.531  1.00  0.00    -0.300 OA
ATOM     19  C   UNL     1      -6.508   1.093  33.367  1.00  0.00     0.087 C 
ENDBRANCH  16  17
ENDBRANCH  15  16
ENDBRANCH  13  15
ENDBRANCH  11  12
ENDBRANCH   1  11
TORSDOF 9
ENDMDL
MODEL 5
REMARK VINA RESULT:    -4.068      1.494      2.116
REMARK INTER + INTRA:          -9.442
REMARK INTER:                  -6.641
REMARK INTRA:                  -2.801
REMARK UNBOUND:                -3.233
REMARK SMILES CC(=O)CCC=C(C)CCC=C(C)CCC=C(C)C
REMARK SMILES IDX 10 1 11 2 12 3 13 4 14 5 15 6 16 7 18 8 17 9 19 10 9 11 7 12
REMARK SMILES IDX 6 13 8 14 5 15 4 16 2 17 3 18 1 19
REMARK H PARENT
REMARK Flexibility Score: inf
ROOT
ATOM      1  C   UNL     1      -0.986   0.181  29.362  1.00  0.00     0.032 C 
ENDROOT
BRANCH   1   2
ATOM      2  C   UNL     1      -0.367   1.557  29.413  1.00  0.00    -0.028 C 
ATOM      3  C   UNL     1      -0.554   2.527  28.488  1.00  0.00    -0.077 C 
ATOM      4  C   UNL     1       0.111   3.860  28.707  1.00  0.00     0.039 C 
BRANCH   3   5
ATOM      5  C   UNL     1      -1.364   2.316  27.224  1.00  0.00     0.034 C 
BRANCH   5   6
ATOM      6  C   UNL     1      -2.433   3.403  27.079  1.00  0.00     0.032 C 
BRANCH   6   7
ATOM      7  C   UNL     1      -3.815   2.851  27.338  1.00  0.00    -0.028 C 
ATOM      8  C   UNL     1      -3.784   3.645  29.706  1.00  0.00     0.039 C 
ATOM      9  C   UNL     1      -4.437   2.955  28.531  1.00  0.00    -0.080 C 
ATOM     10  C   UNL     1      -5.816   2.368  28.681  1.00  0.00     0.039 C 
ENDBRANCH   6   7
ENDBRANCH   5   6
ENDBRANCH   3   5
ENDBRANCH   1   2
BRANCH   1  11
ATOM     11  C   UNL     1      -2.189   0.053  30.309  1.00  0.00     0.034 C 
BRANCH  11  12
ATOM     12  C   UNL     1      -3.431  -0.440  29.586  1.00  0.00    -0.077 C 
ATOM     13  C   UNL     1      -4.589  -0.745  30.218  1.00  0.00    -0.028 C 
ATOM     14  C   UNL     1      -3.357  -0.655  28.096  1.00  0.00     0.039 C 
BRANCH  13  15
ATOM     15  C   UNL     1      -4.839  -0.581  31.696  1.00  0.00     0.035 C 
BRANCH  15  16
ATOM     16  C   UNL     1      -5.580   0.728  31.988  1.00  0.00     0.079 C 
BRANCH  16  17
ATOM     17  C   UNL     1      -4.867   1.514  33.057  1.00  0.00     0.130 C 
ATOM     18  O   UNL     1      -3.769   1.992  32.817  1.00  0.00    -0.300 OA
ATOM     19  C   UNL     1      -5.481   1.733  34.408  1.00  0.00     0.087 C 
ENDBRANCH  16  17
ENDBRANCH  15  16
ENDBRANCH  13  15
ENDBRANCH  11  12
ENDBRANCH   1  11
TORSDOF 9
ENDMDL
MODEL 6
REMARK VINA RESULT:    -4.017      8.201     10.706
REMARK INTER + INTRA:          -9.363
REMARK INTER:                  -6.867
REMARK INTRA:                  -2.496
REMARK UNBOUND:                -3.233
REMARK SMILES CC(=O)CCC=C(C)CCC=C(C)CCC=C(C)C
REMARK SMILES IDX 10 1 11 2 12 3 13 4 14 5 15 6 16 7 18 8 17 9 19 10 9 11 7 12
REMARK SMILES IDX 6 13 8 14 5 15 4 16 2 17 3 18 1 19
REMARK H PARENT
REMARK Flexibility Score: inf
ROOT
ATOM      1  C   UNL     1     -12.984   0.241  28.091  1.00  0.00     0.032 C 
ENDROOT
BRANCH   1   2
ATOM      2  C   UNL     1     -11.687   0.930  27.740  1.00  0.00    -0.028 C 
ATOM      3  C   UNL     1     -11.540   1.853  26.761  1.00  0.00    -0.077 C 
ATOM      4  C   UNL     1     -10.180   2.471  26.563  1.00  0.00     0.039 C 
BRANCH   3   5
ATOM      5  C   UNL     1     -12.666   2.257  25.832  1.00  0.00     0.034 C 
BRANCH   5   6
ATOM      6  C   UNL     1     -13.431   3.458  26.398  1.00  0.00     0.032 C 
BRANCH   6   7
ATOM      7  C   UNL     1     -14.887   3.124  26.619  1.00  0.00    -0.028 C 
ATOM      8  C   UNL     1     -15.002   4.576  28.648  1.00  0.00     0.039 C 
ATOM      9  C   UNL     1     -15.610   3.628  27.641  1.00  0.00    -0.080 C 
ATOM     10  C   UNL     1     -17.057   3.230  27.769  1.00  0.00     0.039 C 
ENDBRANCH   6   7
ENDBRANCH   5   6
ENDBRANCH   3   5
ENDBRANCH   1   2
BRANCH   1  11
ATOM     11  C   UNL     1     -13.720   0.945  29.240  1.00  0.00     0.034 C 
BRANCH  11  12
ATOM     12  C   UNL     1     -12.930   0.896  30.537  1.00  0.00    -0.077 C 
ATOM     13  C   UNL     1     -12.210   1.941  31.011  1.00  0.00    -0.028 C 
ATOM     14  C   UNL     1     -12.898  -0.397  31.309  1.00  0.00     0.039 C 
BRANCH  13  15
ATOM     15  C   UNL     1     -12.140   3.305  30.372  1.00  0.00     0.035 C 
BRANCH  15  16
ATOM     16  C   UNL     1     -10.689   3.705  30.085  1.00  0.00     0.079 C 
BRANCH  16  17
ATOM     17  C   UNL     1     -10.612   5.143  29.646  1.00  0.00     0.130 C 
ATOM     18  O   UNL     1      -9.917   5.926  30.275  1.00  0.00    -0.300 OA
ATOM     19  C   UNL     1     -11.364   5.636  28.445  1.00  0.00     0.087 C 
ENDBRANCH  16  17
ENDBRANCH  15  16
ENDBRANCH  13  15
ENDBRANCH  11  12
ENDBRANCH   1  11
TORSDOF 9
ENDMDL
MODEL 7
REMARK VINA RESULT:    -3.975      2.843      4.515
REMARK INTER + INTRA:          -9.299
REMARK INTER:                  -6.783
REMARK INTRA:                  -2.516
REMARK UNBOUND:                -3.233
REMARK SMILES CC(=O)CCC=C(C)CCC=C(C)CCC=C(C)C
REMARK SMILES IDX 10 1 11 2 12 3 13 4 14 5 15 6 16 7 18 8 17 9 19 10 9 11 7 12
REMARK SMILES IDX 6 13 8 14 5 15 4 16 2 17 3 18 1 19
REMARK H PARENT
REMARK Flexibility Score: inf
ROOT
ATOM      1  C   UNL     1       0.104   1.600  29.229  1.00  0.00     0.032 C 
ENDROOT
BRANCH   1   2
ATOM      2  C   UNL     1      -0.318   0.387  28.436  1.00  0.00    -0.028 C 
ATOM      3  C   UNL     1      -1.083   0.418  27.320  1.00  0.00    -0.077 C 
ATOM      4  C   UNL     1      -1.385  -0.884  26.626  1.00  0.00     0.039 C 
BRANCH   3   5
ATOM      5  C   UNL     1      -1.682   1.695  26.765  1.00  0.00     0.034 C 
BRANCH   5   6
ATOM      6  C   UNL     1      -3.212   1.614  26.756  1.00  0.00     0.032 C 
BRANCH   6   7
ATOM      7  C   UNL     1      -3.801   2.251  27.992  1.00  0.00    -0.028 C 
ATOM      8  C   UNL     1      -4.223   0.026  29.044  1.00  0.00     0.039 C 
ATOM      9  C   UNL     1      -4.264   1.536  29.038  1.00  0.00    -0.080 C 
ATOM     10  C   UNL     1      -4.833   2.272  30.223  1.00  0.00     0.039 C 
ENDBRANCH   6   7
ENDBRANCH   5   6
ENDBRANCH   3   5
ENDBRANCH   1   2
BRANCH   1  11
ATOM     11  C   UNL     1      -0.903   1.946  30.336  1.00  0.00     0.034 C 
BRANCH  11  12
ATOM     12  C   UNL     1      -1.185   3.438  30.403  1.00  0.00    -0.077 C 
ATOM     13  C   UNL     1      -1.694   4.051  31.498  1.00  0.00    -0.028 C 
ATOM     14  C   UNL     1      -0.939   4.270  29.171  1.00  0.00     0.039 C 
BRANCH  13  15
ATOM     15  C   UNL     1      -1.988   3.374  32.812  1.00  0.00     0.035 C 
BRANCH  15  16
ATOM     16  C   UNL     1      -0.769   3.416  33.739  1.00  0.00     0.079 C 
BRANCH  16  17
ATOM     17  C   UNL     1      -0.913   4.517  34.756  1.00  0.00     0.130 C 
ATOM     18  O   UNL     1       0.063   4.871  35.400  1.00  0.00    -0.300 OA
ATOM     19  C   UNL     1      -2.229   5.199  34.990  1.00  0.00     0.087 C 
ENDBRANCH  16  17
ENDBRANCH  15  16
ENDBRANCH  13  15
ENDBRANCH  11  12
ENDBRANCH   1  11
TORSDOF 9
ENDMDL
MODEL 8
REMARK VINA RESULT:    -3.957      1.448      3.374
REMARK INTER + INTRA:          -9.272
REMARK INTER:                  -6.492
REMARK INTRA:                  -2.780
REMARK UNBOUND:                -3.233
REMARK SMILES CC(=O)CCC=C(C)CCC=C(C)CCC=C(C)C
REMARK SMILES IDX 10 1 11 2 12 3 13 4 14 5 15 6 16 7 18 8 17 9 19 10 9 11 7 12
REMARK SMILES IDX 6 13 8 14 5 15 4 16 2 17 3 18 1 19
REMARK H PARENT
REMARK Flexibility Score: inf
ROOT
ATOM      1  C   UNL     1      -0.127   1.642  29.451  1.00  0.00     0.032 C 
ENDROOT
BRANCH   1   2
ATOM      2  C   UNL     1      -0.377   0.453  28.556  1.00  0.00    -0.028 C 
ATOM      3  C   UNL     1      -1.012   0.501  27.361  1.00  0.00    -0.077 C 
ATOM      4  C   UNL     1      -1.149  -0.776  26.574  1.00  0.00     0.039 C 
BRANCH   3   5
ATOM      5  C   UNL     1      -1.629   1.769  26.805  1.00  0.00     0.034 C 
BRANCH   5   6
ATOM      6  C   UNL     1      -3.097   1.539  26.435  1.00  0.00     0.032 C 
BRANCH   6   7
ATOM      7  C   UNL     1      -4.022   2.206  27.424  1.00  0.00    -0.028 C 
ATOM      8  C   UNL     1      -5.383   3.228  25.596  1.00  0.00     0.039 C 
ATOM      9  C   UNL     1      -5.065   2.977  27.051  1.00  0.00    -0.080 C 
ATOM     10  C   UNL     1      -5.926   3.595  28.122  1.00  0.00     0.039 C 
ENDBRANCH   6   7
ENDBRANCH   5   6
ENDBRANCH   3   5
ENDBRANCH   1   2
BRANCH   1  11
ATOM     11  C   UNL     1      -1.172   1.751  30.572  1.00  0.00     0.034 C 
BRANCH  11  12
ATOM     12  C   UNL     1      -2.053   2.979  30.410  1.00  0.00    -0.077 C 
ATOM     13  C   UNL     1      -3.310   3.063  30.905  1.00  0.00    -0.028 C 
ATOM     14  C   UNL     1      -1.523   4.142  29.612  1.00  0.00     0.039 C 
BRANCH  13  15
ATOM     15  C   UNL     1      -3.989   2.001  31.733  1.00  0.00     0.035 C 
BRANCH  15  16
ATOM     16  C   UNL     1      -4.995   1.207  30.893  1.00  0.00     0.079 C 
BRANCH  16  17
ATOM     17  C   UNL     1      -4.569  -0.233  30.779  1.00  0.00     0.130 C 
ATOM     18  O   UNL     1      -4.870  -1.019  31.665  1.00  0.00    -0.300 OA
ATOM     19  C   UNL     1      -3.793  -0.729  29.595  1.00  0.00     0.087 C 
ENDBRANCH  16  17
ENDBRANCH  15  16
ENDBRANCH  13  15
ENDBRANCH  11  12
ENDBRANCH   1  11
TORSDOF 9
ENDMDL
MODEL 9
REMARK VINA RESULT:    -3.952      2.446      5.098
REMARK INTER + INTRA:          -9.264
REMARK INTER:                  -6.954
REMARK INTRA:                  -2.310
REMARK UNBOUND:                -3.233
REMARK SMILES CC(=O)CCC=C(C)CCC=C(C)CCC=C(C)C
REMARK SMILES IDX 10 1 11 2 12 3 13 4 14 5 15 6 16 7 18 8 17 9 19 10 9 11 7 12
REMARK SMILES IDX 6 13 8 14 5 15 4 16 2 17 3 18 1 19
REMARK H PARENT
REMARK Flexibility Score: inf
ROOT
ATOM      1  C   UNL     1      -0.260   0.362  28.547  1.00  0.00     0.032 C 
ENDROOT
BRANCH   1   2
ATOM      2  C   UNL     1      -0.948   0.352  27.204  1.00  0.00    -0.028 C 
ATOM      3  C   UNL     1      -2.190  -0.134  26.972  1.00  0.00    -0.077 C 
ATOM      4  C   UNL     1      -2.744  -0.037  25.575  1.00  0.00     0.039 C 
BRANCH   3   5
ATOM      5  C   UNL     1      -3.025  -0.809  28.042  1.00  0.00     0.034 C 
BRANCH   5   6
ATOM      6  C   UNL     1      -4.067   0.161  28.606  1.00  0.00     0.032 C 
BRANCH   6   7
ATOM      7  C   UNL     1      -4.598  -0.318  29.936  1.00  0.00    -0.028 C 
ATOM      8  C   UNL     1      -5.342   1.981  30.567  1.00  0.00     0.039 C 
ATOM      9  C   UNL     1      -5.180   0.503  30.835  1.00  0.00    -0.080 C 
ATOM     10  C   UNL     1      -5.676  -0.081  32.133  1.00  0.00     0.039 C 
ENDBRANCH   6   7
ENDBRANCH   5   6
ENDBRANCH   3   5
ENDBRANCH   1   2
BRANCH   1  11
ATOM     11  C   UNL     1      -0.027   1.790  29.066  1.00  0.00     0.034 C 
BRANCH  11  12
ATOM     12  C   UNL     1      -1.273   2.369  29.716  1.00  0.00    -0.077 C 
ATOM     13  C   UNL     1      -2.027   3.340  29.147  1.00  0.00    -0.028 C 
ATOM     14  C   UNL     1      -1.662   1.877  31.086  1.00  0.00     0.039 C 
BRANCH  13  15
ATOM     15  C   UNL     1      -1.787   3.936  27.783  1.00  0.00     0.035 C 
BRANCH  15  16
ATOM     16  C   UNL     1      -0.851   5.146  27.866  1.00  0.00     0.079 C 
BRANCH  16  17
ATOM     17  C   UNL     1      -1.575   6.337  28.436  1.00  0.00     0.130 C 
ATOM     18  O   UNL     1      -1.303   6.720  29.564  1.00  0.00    -0.300 OA
ATOM     19  C   UNL     1      -2.615   7.073  27.646  1.00  0.00     0.087 C 
ENDBRANCH  16  17
ENDBRANCH  15  16
ENDBRANCH  13  15
ENDBRANCH  11  12
ENDBRANCH   1  11
TORSDOF 9
ENDMDL
