MODEL 1
REMARK VINA RESULT:    -4.535      0.000      0.000
REMARK INTER + INTRA:          -5.789
REMARK INTER:                  -5.462
REMARK INTRA:                  -0.327
REMARK UNBOUND:                -0.327
REMARK SMILES O=c1c(O)c(-c2ccc(O)c(O)c2)oc2cc(O)cc(O)c12
REMARK SMILES IDX 5 1 3 2 2 3 1 4 22 5 20 6 19 7 17 8 16 9 15 10 14 11 6 12
REMARK SMILES IDX 7 13 8 14 9 15 13 16 11 17 10 18 12 20 4 22 21 24 18 26
REMARK H PARENT 10 19 12 21 4 23 21 25 18 27
REMARK Flexibility Score: inf
ROOT
ATOM      1  C   UNL     1       3.168  -4.169  -7.486  1.00  0.00     0.180 A 
ATOM      2  C   UNL     1       3.126  -2.913  -8.121  1.00  0.00     0.208 A 
ATOM      3  C   UNL     1       1.942  -2.517  -8.764  1.00  0.00     0.238 A 
ATOM      4  O   UNL     1       1.889  -1.389  -9.325  1.00  0.00    -0.285 OA
ATOM      5  C   UNL     1       0.832  -3.387  -8.778  1.00  0.00     0.111 A 
ATOM      6  C   UNL     1      -0.396  -3.065  -9.407  1.00  0.00     0.134 A 
ATOM      7  C   UNL     1      -1.450  -3.989  -9.386  1.00  0.00     0.093 A 
ATOM      8  C   UNL     1      -1.303  -5.226  -8.752  1.00  0.00     0.123 A 
ATOM      9  C   UNL     1      -0.094  -5.548  -8.129  1.00  0.00     0.094 A 
ATOM     10  C   UNL     1       0.970  -4.640  -8.138  1.00  0.00     0.146 A 
ATOM     11  O   UNL     1       2.106  -4.970  -7.535  1.00  0.00    -0.452 OA
ENDROOT
BRANCH   1  12
ATOM     12  C   UNL     1       4.371  -4.650  -6.772  1.00  0.00     0.025 A 
ATOM     13  C   UNL     1       5.250  -5.535  -7.418  1.00  0.00     0.016 A 
ATOM     14  C   UNL     1       6.382  -6.018  -6.756  1.00  0.00     0.051 A 
ATOM     15  C   UNL     1       6.643  -5.635  -5.434  1.00  0.00     0.157 A 
ATOM     16  C   UNL     1       4.627  -4.286  -5.438  1.00  0.00     0.062 A 
ATOM     17  C   UNL     1       5.762  -4.772  -4.772  1.00  0.00     0.158 A 
BRANCH  15  18
ATOM     18  O   UNL     1       7.772  -6.114  -4.771  1.00  0.00    -0.504 OA
ATOM     19  H   UNL     1       8.091  -5.700  -3.902  1.00  0.00     0.293 HD
ENDBRANCH  15  18
BRANCH  17  20
ATOM     20  O   UNL     1       6.017  -4.405  -3.452  1.00  0.00    -0.504 OA
ATOM     21  H   UNL     1       6.172  -5.099  -2.729  1.00  0.00     0.293 HD
ENDBRANCH  17  20
ENDBRANCH   1  12
BRANCH   2  22
ATOM     22  O   UNL     1       4.255  -2.091  -8.134  1.00  0.00    -0.502 OA
ATOM     23  H   UNL     1       5.196  -2.461  -8.071  1.00  0.00     0.293 HD
ENDBRANCH   2  22
BRANCH   6  24
ATOM     24  O   UNL     1      -0.573  -1.839 -10.049  1.00  0.00    -0.507 OA
ATOM     25  H   UNL     1      -1.338  -1.219  -9.810  1.00  0.00     0.293 HD
ENDBRANCH   6  24
BRANCH   8  26
ATOM     26  O   UNL     1      -2.366  -6.125  -8.747  1.00  0.00    -0.508 OA
ATOM     27  H   UNL     1      -2.302  -7.024  -9.210  1.00  0.00     0.293 HD
ENDBRANCH   8  26
TORSDOF 6
ENDMDL
MODEL 2
REMARK VINA RESULT:    -4.457     20.690     21.933
REMARK INTER + INTRA:          -5.695
REMARK INTER:                  -5.370
REMARK INTRA:                  -0.326
REMARK UNBOUND:                -0.327
REMARK SMILES O=c1c(O)c(-c2ccc(O)c(O)c2)oc2cc(O)cc(O)c12
REMARK SMILES IDX 5 1 3 2 2 3 1 4 22 5 20 6 19 7 17 8 16 9 15 10 14 11 6 12
REMARK SMILES IDX 7 13 8 14 9 15 13 16 11 17 10 18 12 20 4 22 21 24 18 26
REMARK H PARENT 10 19 12 21 4 23 21 25 18 27
REMARK Flexibility Score: inf
ROOT
ATOM      1  C   UNL     1      -9.983   1.379   8.389  1.00  0.00     0.180 A 
ATOM      2  C   UNL     1      -8.872   1.742   9.173  1.00  0.00     0.208 A 
ATOM      3  C   UNL     1      -8.626   3.103   9.414  1.00  0.00     0.238 A 
ATOM      4  O   UNL     1      -7.640   3.438  10.125  1.00  0.00    -0.285 OA
ATOM      5  C   UNL     1      -9.480   4.075   8.853  1.00  0.00     0.111 A 
ATOM      6  C   UNL     1      -9.299   5.467   9.043  1.00  0.00     0.134 A 
ATOM      7  C   UNL     1     -10.187   6.371   8.443  1.00  0.00     0.093 A 
ATOM      8  C   UNL     1     -11.247   5.914   7.657  1.00  0.00     0.123 A 
ATOM      9  C   UNL     1     -11.431   4.542   7.466  1.00  0.00     0.094 A 
ATOM     10  C   UNL     1     -10.557   3.623   8.056  1.00  0.00     0.146 A 
ATOM     11  O   UNL     1     -10.758   2.325   7.862  1.00  0.00    -0.452 OA
ENDROOT
BRANCH   1  12
ATOM     12  C   UNL     1     -10.319  -0.034   8.106  1.00  0.00     0.025 A 
ATOM     13  C   UNL     1      -9.937  -0.603   6.880  1.00  0.00     0.016 A 
ATOM     14  C   UNL     1     -10.262  -1.929   6.583  1.00  0.00     0.051 A 
ATOM     15  C   UNL     1     -10.986  -2.701   7.501  1.00  0.00     0.157 A 
ATOM     16  C   UNL     1     -11.064  -0.806   9.015  1.00  0.00     0.062 A 
ATOM     17  C   UNL     1     -11.393  -2.137   8.717  1.00  0.00     0.158 A 
BRANCH  15  18
ATOM     18  O   UNL     1     -11.311  -4.025   7.210  1.00  0.00    -0.504 OA
ATOM     19  H   UNL     1     -12.260  -4.301   6.988  1.00  0.00     0.293 HD
ENDBRANCH  15  18
BRANCH  17  20
ATOM     20  O   UNL     1     -12.125  -2.903   9.622  1.00  0.00    -0.504 OA
ATOM     21  H   UNL     1     -11.737  -3.739  10.046  1.00  0.00     0.293 HD
ENDBRANCH  17  20
ENDBRANCH   1  12
BRANCH   2  22
ATOM     22  O   UNL     1      -8.013   0.761   9.677  1.00  0.00    -0.502 OA
ATOM     23  H   UNL     1      -7.283   0.971  10.346  1.00  0.00     0.293 HD
ENDBRANCH   2  22
BRANCH   6  24
ATOM     24  O   UNL     1      -8.249   5.954   9.822  1.00  0.00    -0.507 OA
ATOM     25  H   UNL     1      -8.342   6.800  10.372  1.00  0.00     0.293 HD
ENDBRANCH   6  24
BRANCH   8  26
ATOM     26  O   UNL     1     -12.114   6.835   7.072  1.00  0.00    -0.508 OA
ATOM     27  H   UNL     1     -12.115   7.810   7.347  1.00  0.00     0.293 HD
ENDBRANCH   8  26
TORSDOF 6
ENDMDL
MODEL 3
REMARK VINA RESULT:    -4.445      5.586      8.016
REMARK INTER + INTRA:          -5.682
REMARK INTER:                  -5.356
REMARK INTRA:                  -0.325
REMARK UNBOUND:                -0.327
REMARK SMILES O=c1c(O)c(-c2ccc(O)c(O)c2)oc2cc(O)cc(O)c12
REMARK SMILES IDX 5 1 3 2 2 3 1 4 22 5 20 6 19 7 17 8 16 9 15 10 14 11 6 12
REMARK SMILES IDX 7 13 8 14 9 15 13 16 11 17 10 18 12 20 4 22 21 24 18 26
REMARK H PARENT 10 19 12 21 4 23 21 25 18 27
REMARK Flexibility Score: inf
ROOT
ATOM      1  C   UNL     1       6.528   1.007  -6.379  1.00  0.00     0.180 A 
ATOM      2  C   UNL     1       7.180   0.483  -5.246  1.00  0.00     0.208 A 
ATOM      3  C   UNL     1       6.883  -0.827  -4.839  1.00  0.00     0.238 A 
ATOM      4  O   UNL     1       7.469  -1.312  -3.832  1.00  0.00    -0.285 OA
ATOM      5  C   UNL     1       5.931  -1.581  -5.556  1.00  0.00     0.111 A 
ATOM      6  C   UNL     1       5.572  -2.907  -5.209  1.00  0.00     0.134 A 
ATOM      7  C   UNL     1       4.608  -3.587  -5.967  1.00  0.00     0.093 A 
ATOM      8  C   UNL     1       3.995  -2.970  -7.060  1.00  0.00     0.123 A 
ATOM      9  C   UNL     1       4.346  -1.662  -7.408  1.00  0.00     0.094 A 
ATOM     10  C   UNL     1       5.306  -0.967  -6.666  1.00  0.00     0.146 A 
ATOM     11  O   UNL     1       5.624   0.273  -7.021  1.00  0.00    -0.452 OA
ENDROOT
BRANCH   1  12
ATOM     12  C   UNL     1       6.801   2.372  -6.881  1.00  0.00     0.025 A 
ATOM     13  C   UNL     1       7.833   2.573  -7.812  1.00  0.00     0.016 A 
ATOM     14  C   UNL     1       8.122   3.856  -8.284  1.00  0.00     0.051 A 
ATOM     15  C   UNL     1       7.392   4.958  -7.822  1.00  0.00     0.157 A 
ATOM     16  C   UNL     1       6.085   3.485  -6.405  1.00  0.00     0.062 A 
ATOM     17  C   UNL     1       6.375   4.774  -6.877  1.00  0.00     0.158 A 
BRANCH  15  18
ATOM     18  O   UNL     1       7.675   6.240  -8.292  1.00  0.00    -0.504 OA
ATOM     19  H   UNL     1       7.495   6.504  -9.254  1.00  0.00     0.293 HD
ENDBRANCH  15  18
BRANCH  17  20
ATOM     20  O   UNL     1       5.661   5.875  -6.408  1.00  0.00    -0.504 OA
ATOM     21  H   UNL     1       5.781   6.797  -6.814  1.00  0.00     0.293 HD
ENDBRANCH  17  20
ENDBRANCH   1  12
BRANCH   2  22
ATOM     22  O   UNL     1       8.083   1.268  -4.525  1.00  0.00    -0.502 OA
ATOM     23  H   UNL     1       8.018   1.384  -3.521  1.00  0.00     0.293 HD
ENDBRANCH   2  22
BRANCH   6  24
ATOM     24  O   UNL     1       6.165  -3.549  -4.121  1.00  0.00    -0.507 OA
ATOM     25  H   UNL     1       6.561  -4.479  -4.203  1.00  0.00     0.293 HD
ENDBRANCH   6  24
BRANCH   8  26
ATOM     26  O   UNL     1       3.040  -3.669  -7.796  1.00  0.00    -0.508 OA
ATOM     27  H   UNL     1       2.377  -3.189  -8.393  1.00  0.00     0.293 HD
ENDBRANCH   8  26
TORSDOF 6
ENDMDL
MODEL 4
REMARK VINA RESULT:    -4.388      5.799      8.191
REMARK INTER + INTRA:          -5.613
REMARK INTER:                  -5.541
REMARK INTRA:                  -0.072
REMARK UNBOUND:                -0.327
REMARK SMILES O=c1c(O)c(-c2ccc(O)c(O)c2)oc2cc(O)cc(O)c12
REMARK SMILES IDX 5 1 3 2 2 3 1 4 22 5 20 6 19 7 17 8 16 9 15 10 14 11 6 12
REMARK SMILES IDX 7 13 8 14 9 15 13 16 11 17 10 18 12 20 4 22 21 24 18 26
REMARK H PARENT 10 19 12 21 4 23 21 25 18 27
REMARK Flexibility Score: inf
ROOT
ATOM      1  C   UNL     1       3.162   1.787  -9.225  1.00  0.00     0.180 A 
ATOM      2  C   UNL     1       4.513   2.157  -9.370  1.00  0.00     0.208 A 
ATOM      3  C   UNL     1       4.833   3.516  -9.513  1.00  0.00     0.238 A 
ATOM      4  O   UNL     1       6.041   3.860  -9.632  1.00  0.00    -0.285 OA
ATOM      5  C   UNL     1       3.801   4.477  -9.528  1.00  0.00     0.111 A 
ATOM      6  C   UNL     1       4.038   5.866  -9.672  1.00  0.00     0.134 A 
ATOM      7  C   UNL     1       2.956   6.758  -9.687  1.00  0.00     0.093 A 
ATOM      8  C   UNL     1       1.645   6.291  -9.564  1.00  0.00     0.123 A 
ATOM      9  C   UNL     1       1.405   4.922  -9.421  1.00  0.00     0.094 A 
ATOM     10  C   UNL     1       2.470   4.015  -9.402  1.00  0.00     0.146 A 
ATOM     11  O   UNL     1       2.214   2.720  -9.260  1.00  0.00    -0.452 OA
ENDROOT
BRANCH   1  12
ATOM     12  C   UNL     1       2.746   0.378  -9.051  1.00  0.00     0.025 A 
ATOM     13  C   UNL     1       1.744  -0.154  -9.879  1.00  0.00     0.016 A 
ATOM     14  C   UNL     1       1.321  -1.476  -9.718  1.00  0.00     0.051 A 
ATOM     15  C   UNL     1       1.883  -2.281  -8.719  1.00  0.00     0.157 A 
ATOM     16  C   UNL     1       3.292  -0.428  -8.036  1.00  0.00     0.062 A 
ATOM     17  C   UNL     1       2.867  -1.755  -7.873  1.00  0.00     0.158 A 
BRANCH  15  18
ATOM     18  O   UNL     1       1.465  -3.601  -8.557  1.00  0.00    -0.504 OA
ATOM     19  H   UNL     1       1.340  -4.218  -9.351  1.00  0.00     0.293 HD
ENDBRANCH  15  18
BRANCH  17  20
ATOM     20  O   UNL     1       3.414  -2.553  -6.871  1.00  0.00    -0.504 OA
ATOM     21  H   UNL     1       3.160  -3.530  -6.773  1.00  0.00     0.293 HD
ENDBRANCH  17  20
ENDBRANCH   1  12
BRANCH   2  22
ATOM     22  O   UNL     1       5.512   1.181  -9.401  1.00  0.00    -0.502 OA
ATOM     23  H   UNL     1       6.404   1.303  -8.937  1.00  0.00     0.293 HD
ENDBRANCH   2  22
BRANCH   6  24
ATOM     24  O   UNL     1       5.336   6.363  -9.798  1.00  0.00    -0.507 OA
ATOM     25  H   UNL     1       5.519   7.285 -10.178  1.00  0.00     0.293 HD
ENDBRANCH   6  24
BRANCH   8  26
ATOM     26  O   UNL     1       0.589   7.199  -9.583  1.00  0.00    -0.508 OA
ATOM     27  H   UNL     1       0.750   8.200  -9.559  1.00  0.00     0.293 HD
ENDBRANCH   8  26
TORSDOF 6
ENDMDL
MODEL 5
REMARK VINA RESULT:    -4.275      2.864      7.128
REMARK INTER + INTRA:          -5.476
REMARK INTER:                  -5.246
REMARK INTRA:                  -0.230
REMARK UNBOUND:                -0.327
REMARK SMILES O=c1c(O)c(-c2ccc(O)c(O)c2)oc2cc(O)cc(O)c12
REMARK SMILES IDX 5 1 3 2 2 3 1 4 22 5 20 6 19 7 17 8 16 9 15 10 14 11 6 12
REMARK SMILES IDX 7 13 8 14 9 15 13 16 11 17 10 18 12 20 4 22 21 24 18 26
REMARK H PARENT 10 19 12 21 4 23 21 25 18 27
REMARK Flexibility Score: inf
ROOT
ATOM      1  C   UNL     1       2.897  -1.409  -8.101  1.00  0.00     0.180 A 
ATOM      2  C   UNL     1       3.407  -0.405  -8.946  1.00  0.00     0.208 A 
ATOM      3  C   UNL     1       4.594   0.250  -8.581  1.00  0.00     0.238 A 
ATOM      4  O   UNL     1       5.065   1.144  -9.336  1.00  0.00    -0.285 OA
ATOM      5  C   UNL     1       5.238  -0.094  -7.375  1.00  0.00     0.111 A 
ATOM      6  C   UNL     1       6.435   0.520  -6.934  1.00  0.00     0.134 A 
ATOM      7  C   UNL     1       7.010   0.128  -5.716  1.00  0.00     0.093 A 
ATOM      8  C   UNL     1       6.413  -0.862  -4.932  1.00  0.00     0.123 A 
ATOM      9  C   UNL     1       5.231  -1.473  -5.363  1.00  0.00     0.094 A 
ATOM     10  C   UNL     1       4.643  -1.097  -6.575  1.00  0.00     0.146 A 
ATOM     11  O   UNL     1       3.523  -1.697  -6.962  1.00  0.00    -0.452 OA
ENDROOT
BRANCH   1  12
ATOM     12  C   UNL     1       1.662  -2.158  -8.425  1.00  0.00     0.025 A 
ATOM     13  C   UNL     1       1.756  -3.491  -8.858  1.00  0.00     0.016 A 
ATOM     14  C   UNL     1       0.605  -4.210  -9.189  1.00  0.00     0.051 A 
ATOM     15  C   UNL     1      -0.655  -3.603  -9.105  1.00  0.00     0.157 A 
ATOM     16  C   UNL     1       0.397  -1.547  -8.363  1.00  0.00     0.062 A 
ATOM     17  C   UNL     1      -0.759  -2.267  -8.697  1.00  0.00     0.158 A 
BRANCH  15  18
ATOM     18  O   UNL     1      -1.806  -4.318  -9.433  1.00  0.00    -0.504 OA
ATOM     19  H   UNL     1      -1.929  -5.283  -9.150  1.00  0.00     0.293 HD
ENDBRANCH  15  18
BRANCH  17  20
ATOM     20  O   UNL     1      -2.012  -1.662  -8.629  1.00  0.00    -0.504 OA
ATOM     21  H   UNL     1      -2.429  -1.402  -7.742  1.00  0.00     0.293 HD
ENDBRANCH  17  20
ENDBRANCH   1  12
BRANCH   2  22
ATOM     22  O   UNL     1       2.723  -0.048 -10.110  1.00  0.00    -0.502 OA
ATOM     23  H   UNL     1       2.881   0.833 -10.584  1.00  0.00     0.293 HD
ENDBRANCH   2  22
BRANCH   6  24
ATOM     24  O   UNL     1       7.055   1.513  -7.694  1.00  0.00    -0.507 OA
ATOM     25  H   UNL     1       7.803   1.298  -8.343  1.00  0.00     0.293 HD
ENDBRANCH   6  24
BRANCH   8  26
ATOM     26  O   UNL     1       7.004  -1.232  -3.726  1.00  0.00    -0.508 OA
ATOM     27  H   UNL     1       7.218  -0.548  -3.009  1.00  0.00     0.293 HD
ENDBRANCH   8  26
TORSDOF 6
ENDMDL
MODEL 6
REMARK VINA RESULT:    -4.158      5.344      7.756
REMARK INTER + INTRA:          -5.336
REMARK INTER:                  -5.004
REMARK INTRA:                  -0.332
REMARK UNBOUND:                -0.327
REMARK SMILES O=c1c(O)c(-c2ccc(O)c(O)c2)oc2cc(O)cc(O)c12
REMARK SMILES IDX 5 1 3 2 2 3 1 4 22 5 20 6 19 7 17 8 16 9 15 10 14 11 6 12
REMARK SMILES IDX 7 13 8 14 9 15 13 16 11 17 10 18 12 20 4 22 21 24 18 26
REMARK H PARENT 10 19 12 21 4 23 21 25 18 27
REMARK Flexibility Score: inf
ROOT
ATOM      1  C   UNL     1       5.813   1.048  -7.391  1.00  0.00     0.180 A 
ATOM      2  C   UNL     1       4.864   0.543  -8.300  1.00  0.00     0.208 A 
ATOM      3  C   UNL     1       4.362  -0.753  -8.106  1.00  0.00     0.238 A 
ATOM      4  O   UNL     1       3.503  -1.212  -8.908  1.00  0.00    -0.285 OA
ATOM      5  C   UNL     1       4.828  -1.527  -7.023  1.00  0.00     0.111 A 
ATOM      6  C   UNL     1       4.376  -2.843  -6.760  1.00  0.00     0.134 A 
ATOM      7  C   UNL     1       4.896  -3.551  -5.668  1.00  0.00     0.093 A 
ATOM      8  C   UNL     1       5.859  -2.973  -4.836  1.00  0.00     0.123 A 
ATOM      9  C   UNL     1       6.308  -1.674  -5.090  1.00  0.00     0.094 A 
ATOM     10  C   UNL     1       5.801  -0.950  -6.174  1.00  0.00     0.146 A 
ATOM     11  O   UNL     1       6.242   0.283  -6.390  1.00  0.00    -0.452 OA
ENDROOT
BRANCH   1  12
ATOM     12  C   UNL     1       6.376   2.411  -7.517  1.00  0.00     0.025 A 
ATOM     13  C   UNL     1       7.564   2.604  -8.239  1.00  0.00     0.016 A 
ATOM     14  C   UNL     1       8.125   3.879  -8.354  1.00  0.00     0.051 A 
ATOM     15  C   UNL     1       7.513   4.976  -7.735  1.00  0.00     0.157 A 
ATOM     16  C   UNL     1       5.777   3.513  -6.880  1.00  0.00     0.062 A 
ATOM     17  C   UNL     1       6.339   4.793  -6.992  1.00  0.00     0.158 A 
BRANCH  15  18
ATOM     18  O   UNL     1       8.067   6.250  -7.848  1.00  0.00    -0.504 OA
ATOM     19  H   UNL     1       9.064   6.385  -7.970  1.00  0.00     0.293 HD
ENDBRANCH  15  18
BRANCH  17  20
ATOM     20  O   UNL     1       5.741   5.884  -6.367  1.00  0.00    -0.504 OA
ATOM     21  H   UNL     1       5.633   5.925  -5.359  1.00  0.00     0.293 HD
ENDBRANCH  17  20
ENDBRANCH   1  12
BRANCH   2  22
ATOM     22  O   UNL     1       4.455   1.312  -9.393  1.00  0.00    -0.502 OA
ATOM     23  H   UNL     1       3.487   1.571  -9.541  1.00  0.00     0.293 HD
ENDBRANCH   2  22
BRANCH   6  24
ATOM     24  O   UNL     1       3.417  -3.448  -7.573  1.00  0.00    -0.507 OA
ATOM     25  H   UNL     1       3.619  -3.710  -8.531  1.00  0.00     0.293 HD
ENDBRANCH   6  24
BRANCH   8  26
ATOM     26  O   UNL     1       6.359  -3.700  -3.758  1.00  0.00    -0.508 OA
ATOM     27  H   UNL     1       5.904  -3.686  -2.852  1.00  0.00     0.293 HD
ENDBRANCH   8  26
TORSDOF 6
ENDMDL
MODEL 7
REMARK VINA RESULT:    -4.079      2.859      3.944
REMARK INTER + INTRA:          -5.241
REMARK INTER:                  -4.965
REMARK INTRA:                  -0.276
REMARK UNBOUND:                -0.327
REMARK SMILES O=c1c(O)c(-c2ccc(O)c(O)c2)oc2cc(O)cc(O)c12
REMARK SMILES IDX 5 1 3 2 2 3 1 4 22 5 20 6 19 7 17 8 16 9 15 10 14 11 6 12
REMARK SMILES IDX 7 13 8 14 9 15 13 16 11 17 10 18 12 20 4 22 21 24 18 26
REMARK H PARENT 10 19 12 21 4 23 21 25 18 27
REMARK Flexibility Score: inf
ROOT
ATOM      1  C   UNL     1       3.692  -1.933  -7.587  1.00  0.00     0.180 A 
ATOM      2  C   UNL     1       3.991  -3.242  -8.011  1.00  0.00     0.208 A 
ATOM      3  C   UNL     1       2.976  -4.013  -8.599  1.00  0.00     0.238 A 
ATOM      4  O   UNL     1       3.235  -5.182  -8.993  1.00  0.00    -0.285 OA
ATOM      5  C   UNL     1       1.680  -3.472  -8.734  1.00  0.00     0.111 A 
ATOM      6  C   UNL     1       0.600  -4.184  -9.312  1.00  0.00     0.134 A 
ATOM      7  C   UNL     1      -0.662  -3.580  -9.401  1.00  0.00     0.093 A 
ATOM      8  C   UNL     1      -0.867  -2.283  -8.926  1.00  0.00     0.123 A 
ATOM      9  C   UNL     1       0.195  -1.574  -8.356  1.00  0.00     0.094 A 
ATOM     10  C   UNL     1       1.462  -2.159  -8.258  1.00  0.00     0.146 A 
ATOM     11  O   UNL     1       2.455  -1.462  -7.716  1.00  0.00    -0.452 OA
ENDROOT
BRANCH   1  12
ATOM     12  C   UNL     1       4.712  -1.052  -6.976  1.00  0.00     0.025 A 
ATOM     13  C   UNL     1       5.325  -0.058  -7.758  1.00  0.00     0.016 A 
ATOM     14  C   UNL     1       6.305   0.771  -7.207  1.00  0.00     0.051 A 
ATOM     15  C   UNL     1       6.698   0.610  -5.872  1.00  0.00     0.157 A 
ATOM     16  C   UNL     1       5.125  -1.223  -5.643  1.00  0.00     0.062 A 
ATOM     17  C   UNL     1       6.111  -0.392  -5.090  1.00  0.00     0.158 A 
BRANCH  15  18
ATOM     18  O   UNL     1       7.674   1.437  -5.319  1.00  0.00    -0.504 OA
ATOM     19  H   UNL     1       8.661   1.269  -5.475  1.00  0.00     0.293 HD
ENDBRANCH  15  18
BRANCH  17  20
ATOM     20  O   UNL     1       6.514  -0.559  -3.767  1.00  0.00    -0.504 OA
ATOM     21  H   UNL     1       6.772   0.232  -3.186  1.00  0.00     0.293 HD
ENDBRANCH  17  20
ENDBRANCH   1  12
BRANCH   2  22
ATOM     22  O   UNL     1       5.270  -3.771  -7.821  1.00  0.00    -0.502 OA
ATOM     23  H   UNL     1       6.066  -3.192  -7.580  1.00  0.00     0.293 HD
ENDBRANCH   2  22
BRANCH   6  24
ATOM     24  O   UNL     1       0.773  -5.482  -9.794  1.00  0.00    -0.507 OA
ATOM     25  H   UNL     1       0.642  -6.293  -9.201  1.00  0.00     0.293 HD
ENDBRANCH   6  24
BRANCH   8  26
ATOM     26  O   UNL     1      -2.131  -1.707  -9.027  1.00  0.00    -0.508 OA
ATOM     27  H   UNL     1      -2.422  -1.209  -9.861  1.00  0.00     0.293 HD
ENDBRANCH   8  26
TORSDOF 6
ENDMDL
MODEL 8
REMARK VINA RESULT:    -4.076      3.316      5.958
REMARK INTER + INTRA:          -5.236
REMARK INTER:                  -5.612
REMARK INTRA:                   0.375
REMARK UNBOUND:                -0.327
REMARK SMILES O=c1c(O)c(-c2ccc(O)c(O)c2)oc2cc(O)cc(O)c12
REMARK SMILES IDX 5 1 3 2 2 3 1 4 22 5 20 6 19 7 17 8 16 9 15 10 14 11 6 12
REMARK SMILES IDX 7 13 8 14 9 15 13 16 11 17 10 18 12 20 4 22 21 24 18 26
REMARK H PARENT 10 19 12 21 4 23 21 25 18 27
REMARK Flexibility Score: inf
ROOT
ATOM      1  C   UNL     1       2.365  -0.716  -8.947  1.00  0.00     0.180 A 
ATOM      2  C   UNL     1       3.173  -1.794  -8.538  1.00  0.00     0.208 A 
ATOM      3  C   UNL     1       2.588  -3.061  -8.386  1.00  0.00     0.238 A 
ATOM      4  O   UNL     1       3.304  -4.037  -8.032  1.00  0.00    -0.285 OA
ATOM      5  C   UNL     1       1.208  -3.224  -8.626  1.00  0.00     0.111 A 
ATOM      6  C   UNL     1       0.540  -4.466  -8.492  1.00  0.00     0.134 A 
ATOM      7  C   UNL     1      -0.838  -4.544  -8.738  1.00  0.00     0.093 A 
ATOM      8  C   UNL     1      -1.561  -3.409  -9.113  1.00  0.00     0.123 A 
ATOM      9  C   UNL     1      -0.907  -2.181  -9.248  1.00  0.00     0.094 A 
ATOM     10  C   UNL     1       0.467  -2.082  -9.008  1.00  0.00     0.146 A 
ATOM     11  O   UNL     1       1.063  -0.904  -9.148  1.00  0.00    -0.452 OA
ENDROOT
BRANCH   1  12
ATOM     12  C   UNL     1       2.912   0.645  -9.147  1.00  0.00     0.025 A 
ATOM     13  C   UNL     1       4.277   0.806  -9.435  1.00  0.00     0.016 A 
ATOM     14  C   UNL     1       4.819   2.082  -9.607  1.00  0.00     0.051 A 
ATOM     15  C   UNL     1       4.006   3.216  -9.480  1.00  0.00     0.157 A 
ATOM     16  C   UNL     1       2.105   1.788  -8.999  1.00  0.00     0.062 A 
ATOM     17  C   UNL     1       2.648   3.070  -9.170  1.00  0.00     0.158 A 
BRANCH  15  18
ATOM     18  O   UNL     1       4.542   4.492  -9.653  1.00  0.00    -0.504 OA
ATOM     19  H   UNL     1       4.549   4.945 -10.559  1.00  0.00     0.293 HD
ENDBRANCH  15  18
BRANCH  17  20
ATOM     20  O   UNL     1       1.847   4.200  -9.030  1.00  0.00    -0.504 OA
ATOM     21  H   UNL     1       0.876   4.202  -9.324  1.00  0.00     0.293 HD
ENDBRANCH  17  20
ENDBRANCH   1  12
BRANCH   2  22
ATOM     22  O   UNL     1       4.528  -1.595  -8.260  1.00  0.00    -0.502 OA
ATOM     23  H   UNL     1       4.939  -0.672  -8.201  1.00  0.00     0.293 HD
ENDBRANCH   2  22
BRANCH   6  24
ATOM     24  O   UNL     1       1.234  -5.617  -8.117  1.00  0.00    -0.507 OA
ATOM     25  H   UNL     1       2.247  -5.644  -8.091  1.00  0.00     0.293 HD
ENDBRANCH   6  24
BRANCH   8  26
ATOM     26  O   UNL     1      -2.930  -3.515  -9.352  1.00  0.00    -0.508 OA
ATOM     27  H   UNL     1      -3.496  -4.214  -8.884  1.00  0.00     0.293 HD
ENDBRANCH   8  26
TORSDOF 6
ENDMDL
MODEL 9
REMARK VINA RESULT:    -3.232     16.115     17.535
REMARK INTER + INTRA:          -4.220
REMARK INTER:                  -4.570
REMARK INTRA:                   0.350
REMARK UNBOUND:                -0.327
REMARK SMILES O=c1c(O)c(-c2ccc(O)c(O)c2)oc2cc(O)cc(O)c12
REMARK SMILES IDX 5 1 3 2 2 3 1 4 22 5 20 6 19 7 17 8 16 9 15 10 14 11 6 12
REMARK SMILES IDX 7 13 8 14 9 15 13 16 11 17 10 18 12 20 4 22 21 24 18 26
REMARK H PARENT 10 19 12 21 4 23 21 25 18 27
REMARK Flexibility Score: inf
ROOT
ATOM      1  C   UNL     1     -11.764   4.204  -5.247  1.00  0.00     0.180 A 
ATOM      2  C   UNL     1     -11.794   3.483  -6.456  1.00  0.00     0.208 A 
ATOM      3  C   UNL     1     -11.759   4.189  -7.669  1.00  0.00     0.238 A 
ATOM      4  O   UNL     1     -11.774   3.553  -8.758  1.00  0.00    -0.285 OA
ATOM      5  C   UNL     1     -11.714   5.599  -7.653  1.00  0.00     0.111 A 
ATOM      6  C   UNL     1     -11.680   6.386  -8.830  1.00  0.00     0.134 A 
ATOM      7  C   UNL     1     -11.646   7.784  -8.731  1.00  0.00     0.093 A 
ATOM      8  C   UNL     1     -11.647   8.411  -7.482  1.00  0.00     0.123 A 
ATOM      9  C   UNL     1     -11.679   7.639  -6.317  1.00  0.00     0.094 A 
ATOM     10  C   UNL     1     -11.712   6.243  -6.394  1.00  0.00     0.146 A 
ATOM     11  O   UNL     1     -11.738   5.534  -5.271  1.00  0.00    -0.452 OA
ENDROOT
BRANCH   1  12
ATOM     12  C   UNL     1     -11.780   3.531  -3.929  1.00  0.00     0.025 A 
ATOM     13  C   UNL     1     -12.124   4.266  -2.783  1.00  0.00     0.016 A 
ATOM     14  C   UNL     1     -12.125   3.657  -1.525  1.00  0.00     0.051 A 
ATOM     15  C   UNL     1     -11.769   2.309  -1.394  1.00  0.00     0.157 A 
ATOM     16  C   UNL     1     -11.403   2.184  -3.789  1.00  0.00     0.062 A 
ATOM     17  C   UNL     1     -11.402   1.572  -2.527  1.00  0.00     0.158 A 
BRANCH  15  18
ATOM     18  O   UNL     1     -11.770   1.696  -0.142  1.00  0.00    -0.504 OA
ATOM     19  H   UNL     1     -11.444   2.182   0.686  1.00  0.00     0.293 HD
ENDBRANCH  15  18
BRANCH  17  20
ATOM     20  O   UNL     1     -11.034   0.235  -2.392  1.00  0.00    -0.504 OA
ATOM     21  H   UNL     1     -10.941  -0.375  -3.197  1.00  0.00     0.293 HD
ENDBRANCH  17  20
ENDBRANCH   1  12
BRANCH   2  22
ATOM     22  O   UNL     1     -11.888   2.089  -6.444  1.00  0.00    -0.502 OA
ATOM     23  H   UNL     1     -11.524   1.528  -5.684  1.00  0.00     0.293 HD
ENDBRANCH   2  22
BRANCH   6  24
ATOM     24  O   UNL     1     -11.679   5.790 -10.092  1.00  0.00    -0.507 OA
ATOM     25  H   UNL     1     -12.112   4.888 -10.255  1.00  0.00     0.293 HD
ENDBRANCH   6  24
BRANCH   8  26
ATOM     26  O   UNL     1     -11.613   9.801  -7.412  1.00  0.00    -0.508 OA
ATOM     27  H   UNL     1     -11.222  10.282  -6.610  1.00  0.00     0.293 HD
ENDBRANCH   8  26
TORSDOF 6
ENDMDL
