MODEL 1
REMARK VINA RESULT:     4.598      0.000      0.000
REMARK INTER + INTRA:           4.893
REMARK INTER:                   5.002
REMARK INTRA:                  -0.109
REMARK UNBOUND:                -0.109
REMARK SMILES CC(=O)[C@H]1CC[C@H]2[C@H]3CC=C4C[C@@H](O)CC[C@@]4(C)[C@H]3CC[C@]12C
REMARK SMILES IDX 4 1 5 2 6 3 7 4 22 5 21 6 20 7 19 8 8 9 9 10 10 11 11 12
REMARK SMILES IDX 17 13 16 14 15 15 13 16 12 17 18 18 23 19 2 20 1 21 3 22
REMARK SMILES IDX 14 23
REMARK H PARENT 14 24
REMARK Flexibility Score: inf
ROOT
ATOM      1  C   UNL     1      13.131 -11.866  11.909  1.00  0.00     0.062 C 
ATOM      2  C   UNL     1      11.653 -11.396  11.875  1.00  0.00     0.012 C 
ATOM      3  C   UNL     1      11.679  -9.857  11.928  1.00  0.00     0.005 C 
ATOM      4  C   UNL     1      13.162  -9.506  11.883  1.00  0.00    -0.001 C 
ATOM      5  C   UNL     1      13.891 -10.678  12.552  1.00  0.00    -0.020 C 
ATOM      6  C   UNL     1      15.376 -10.575  12.161  1.00  0.00     0.008 C 
ATOM      7  C   UNL     1      15.981  -9.210  12.568  1.00  0.00     0.005 C 
ATOM      8  C   UNL     1      15.183  -7.957  12.064  1.00  0.00     0.003 C 
ATOM      9  C   UNL     1      13.636  -8.093  12.290  1.00  0.00     0.000 C 
ATOM     10  C   UNL     1      13.126  -7.591  13.671  1.00  0.00     0.031 C 
ATOM     11  C   UNL     1      14.168  -6.963  14.561  1.00  0.00    -0.027 C 
ATOM     12  C   UNL     1      15.340  -6.468  14.115  1.00  0.00    -0.065 C 
ATOM     13  C   UNL     1      15.716  -6.583  12.637  1.00  0.00    -0.008 C 
ATOM     14  C   UNL     1      17.266  -6.458  12.448  1.00  0.00     0.014 C 
ATOM     15  C   UNL     1      17.905  -5.334  13.275  1.00  0.00     0.033 C 
ATOM     16  C   UNL     1      17.615  -5.527  14.766  1.00  0.00     0.118 C 
ATOM     17  C   UNL     1      16.103  -5.523  15.027  1.00  0.00     0.063 C 
ATOM     18  C   UNL     1      15.048  -5.406  11.875  1.00  0.00     0.016 C 
ATOM     19  C   UNL     1      13.751 -10.736  14.104  1.00  0.00     0.012 C 
ENDROOT
BRANCH   1  20
ATOM     20  C   UNL     1      13.392 -13.220  12.552  1.00  0.00     0.133 C 
ATOM     21  C   UNL     1      14.742 -13.880  12.547  1.00  0.00     0.088 C 
ATOM     22  O   UNL     1      12.465 -13.792  13.107  1.00  0.00    -0.300 OA
ENDBRANCH   1  20
BRANCH  16  23
ATOM     23  O   UNL     1      18.185  -6.731  15.214  1.00  0.00    -0.393 OA
ATOM     24  H   UNL     1      17.631  -7.467  14.845  1.00  0.00     0.210 HD
ENDBRANCH  16  23
TORSDOF 2
ENDMDL
