MODEL 1
REMARK VINA RESULT:    -4.767      0.000      0.000
REMARK INTER + INTRA:          -6.247
REMARK INTER:                  -5.882
REMARK INTRA:                  -0.365
REMARK UNBOUND:                -0.365
REMARK SMILES Oc1cc(O)c2cc(O)c(-c3cc(O)c(O)c(O)c3)[o+]c2c1
REMARK SMILES IDX 10 1 20 2 21 3 22 4 2 5 3 6 4 7 6 8 7 9 8 10 11 11 12 12
REMARK SMILES IDX 13 13 19 14 15 15 17 16 14 17 16 19 18 21 9 23 1 25 5 27
REMARK H PARENT 14 18 16 20 18 22 9 24 1 26 5 28
REMARK Flexibility Score: inf
ROOT
ATOM      1  C   UNL     1     -43.406 -21.584  27.151  1.00  0.00     0.402 A 
ATOM      2  O   UNL     1     -42.810 -20.589  26.498  1.00  0.00    -0.202 OA
ATOM      3  C   UNL     1     -41.569 -20.189  26.752  1.00  0.00     0.368 A 
ATOM      4  C   UNL     1     -41.030 -19.132  26.015  1.00  0.00     0.162 A 
ATOM      5  C   UNL     1     -39.728 -18.690  26.262  1.00  0.00     0.128 A 
ATOM      6  C   UNL     1     -38.960 -19.307  27.252  1.00  0.00     0.093 A 
ATOM      7  C   UNL     1     -39.476 -20.368  28.006  1.00  0.00     0.136 A 
ATOM      8  C   UNL     1     -40.798 -20.823  27.756  1.00  0.00     0.125 A 
ATOM      9  C   UNL     1     -41.392 -21.888  28.452  1.00  0.00     0.078 A 
ATOM     10  C   UNL     1     -42.698 -22.283  28.147  1.00  0.00     0.223 A 
ENDROOT
BRANCH   1  11
ATOM     11  C   UNL     1     -44.798 -21.930  26.783  1.00  0.00     0.091 A 
ATOM     12  C   UNL     1     -45.031 -22.948  25.850  1.00  0.00     0.068 A 
ATOM     13  C   UNL     1     -46.333 -23.285  25.470  1.00  0.00     0.162 A 
ATOM     14  C   UNL     1     -45.890 -21.221  27.306  1.00  0.00     0.068 A 
ATOM     15  C   UNL     1     -47.430 -22.589  26.011  1.00  0.00     0.200 A 
ATOM     16  C   UNL     1     -47.201 -21.540  26.934  1.00  0.00     0.162 A 
BRANCH  13  17
ATOM     17  O   UNL     1     -46.517 -24.317  24.551  1.00  0.00    -0.504 OA
ATOM     18  H   UNL     1     -46.346 -24.197  23.560  1.00  0.00     0.293 HD
ENDBRANCH  13  17
BRANCH  15  19
ATOM     19  O   UNL     1     -48.717 -22.963  25.613  1.00  0.00    -0.502 OA
ATOM     20  H   UNL     1     -49.293 -22.427  24.980  1.00  0.00     0.293 HD
ENDBRANCH  15  19
BRANCH  16  21
ATOM     21  O   UNL     1     -48.236 -20.789  27.497  1.00  0.00    -0.504 OA
ATOM     22  H   UNL     1     -49.086 -20.541  27.011  1.00  0.00     0.293 HD
ENDBRANCH  16  21
ENDBRANCH   1  11
BRANCH  10  23
ATOM     23  O   UNL     1     -43.272 -23.373  28.803  1.00  0.00    -0.500 OA
ATOM     24  H   UNL     1     -44.022 -23.911  28.386  1.00  0.00     0.294 HD
ENDBRANCH  10  23
BRANCH   5  25
ATOM     25  O   UNL     1     -39.185 -17.636  25.531  1.00  0.00    -0.507 OA
ATOM     26  H   UNL     1     -39.552 -17.376  24.622  1.00  0.00     0.293 HD
ENDBRANCH   5  25
BRANCH   7  27
ATOM     27  O   UNL     1     -38.646 -20.930  28.980  1.00  0.00    -0.507 OA
ATOM     28  H   UNL     1     -38.295 -20.435  29.786  1.00  0.00     0.293 HD
ENDBRANCH   7  27
TORSDOF 7
ENDMDL
MODEL 2
REMARK VINA RESULT:    -4.746      2.391      7.478
REMARK INTER + INTRA:          -6.221
REMARK INTER:                  -5.860
REMARK INTRA:                  -0.362
REMARK UNBOUND:                -0.365
REMARK SMILES Oc1cc(O)c2cc(O)c(-c3cc(O)c(O)c(O)c3)[o+]c2c1
REMARK SMILES IDX 10 1 20 2 21 3 22 4 2 5 3 6 4 7 6 8 7 9 8 10 11 11 12 12
REMARK SMILES IDX 13 13 19 14 15 15 17 16 14 17 16 19 18 21 9 23 1 25 5 27
REMARK H PARENT 14 18 16 20 18 22 9 24 1 26 5 28
REMARK Flexibility Score: inf
ROOT
ATOM      1  C   UNL     1     -39.788 -20.234  26.199  1.00  0.00     0.402 A 
ATOM      2  O   UNL     1     -41.062 -20.492  25.913  1.00  0.00    -0.202 OA
ATOM      3  C   UNL     1     -41.890 -21.101  26.754  1.00  0.00     0.368 A 
ATOM      4  C   UNL     1     -43.211 -21.332  26.361  1.00  0.00     0.162 A 
ATOM      5  C   UNL     1     -44.103 -21.973  27.225  1.00  0.00     0.128 A 
ATOM      6  C   UNL     1     -43.672 -22.386  28.488  1.00  0.00     0.093 A 
ATOM      7  C   UNL     1     -42.353 -22.168  28.906  1.00  0.00     0.136 A 
ATOM      8  C   UNL     1     -41.444 -21.515  28.033  1.00  0.00     0.125 A 
ATOM      9  C   UNL     1     -40.109 -21.242  28.372  1.00  0.00     0.078 A 
ATOM     10  C   UNL     1     -39.273 -20.590  27.460  1.00  0.00     0.223 A 
ENDROOT
BRANCH   1  11
ATOM     11  C   UNL     1     -38.961 -19.558  25.173  1.00  0.00     0.091 A 
ATOM     12  C   UNL     1     -39.123 -18.183  24.955  1.00  0.00     0.068 A 
ATOM     13  C   UNL     1     -38.370 -17.521  23.981  1.00  0.00     0.162 A 
ATOM     14  C   UNL     1     -38.059 -20.274  24.373  1.00  0.00     0.068 A 
ATOM     15  C   UNL     1     -37.448 -18.235  23.193  1.00  0.00     0.200 A 
ATOM     16  C   UNL     1     -37.300 -19.629  23.389  1.00  0.00     0.162 A 
BRANCH  13  17
ATOM     17  O   UNL     1     -38.553 -16.149  23.811  1.00  0.00    -0.504 OA
ATOM     18  H   UNL     1     -37.875 -15.568  23.334  1.00  0.00     0.293 HD
ENDBRANCH  13  17
BRANCH  15  19
ATOM     19  O   UNL     1     -36.708 -17.534  22.237  1.00  0.00    -0.502 OA
ATOM     20  H   UNL     1     -35.933 -17.924  21.721  1.00  0.00     0.293 HD
ENDBRANCH  15  19
BRANCH  16  21
ATOM     21  O   UNL     1     -36.423 -20.409  22.632  1.00  0.00    -0.504 OA
ATOM     22  H   UNL     1     -36.704 -20.981  21.849  1.00  0.00     0.293 HD
ENDBRANCH  16  21
ENDBRANCH   1  11
BRANCH  10  23
ATOM     23  O   UNL     1     -37.961 -20.275  27.815  1.00  0.00    -0.500 OA
ATOM     24  H   UNL     1     -37.406 -20.888  28.399  1.00  0.00     0.294 HD
ENDBRANCH  10  23
BRANCH   5  25
ATOM     25  O   UNL     1     -45.421 -22.205  26.840  1.00  0.00    -0.507 OA
ATOM     26  H   UNL     1     -45.956 -22.979  27.217  1.00  0.00     0.293 HD
ENDBRANCH   5  25
BRANCH   7  27
ATOM     27  O   UNL     1     -41.999 -22.615  30.182  1.00  0.00    -0.507 OA
ATOM     28  H   UNL     1     -42.591 -23.178  30.775  1.00  0.00     0.293 HD
ENDBRANCH   7  27
TORSDOF 7
ENDMDL
MODEL 3
REMARK VINA RESULT:    -4.737      2.210      6.699
REMARK INTER + INTRA:          -6.210
REMARK INTER:                  -5.826
REMARK INTRA:                  -0.384
REMARK UNBOUND:                -0.365
REMARK SMILES Oc1cc(O)c2cc(O)c(-c3cc(O)c(O)c(O)c3)[o+]c2c1
REMARK SMILES IDX 10 1 20 2 21 3 22 4 2 5 3 6 4 7 6 8 7 9 8 10 11 11 12 12
REMARK SMILES IDX 13 13 19 14 15 15 17 16 14 17 16 19 18 21 9 23 1 25 5 27
REMARK H PARENT 14 18 16 20 18 22 9 24 1 26 5 28
REMARK Flexibility Score: inf
ROOT
ATOM      1  C   UNL     1     -42.695 -21.543  27.138  1.00  0.00     0.402 A 
ATOM      2  O   UNL     1     -43.132 -20.455  26.507  1.00  0.00    -0.202 OA
ATOM      3  C   UNL     1     -44.415 -20.114  26.443  1.00  0.00     0.368 A 
ATOM      4  C   UNL     1     -44.776 -18.954  25.755  1.00  0.00     0.162 A 
ATOM      5  C   UNL     1     -46.118 -18.573  25.670  1.00  0.00     0.128 A 
ATOM      6  C   UNL     1     -47.103 -19.356  26.276  1.00  0.00     0.093 A 
ATOM      7  C   UNL     1     -46.768 -20.524  26.971  1.00  0.00     0.136 A 
ATOM      8  C   UNL     1     -45.406 -20.914  27.062  1.00  0.00     0.125 A 
ATOM      9  C   UNL     1     -44.975 -22.060  27.750  1.00  0.00     0.078 A 
ATOM     10  C   UNL     1     -43.614 -22.378  27.801  1.00  0.00     0.223 A 
ENDROOT
BRANCH   1  11
ATOM     11  C   UNL     1     -41.241 -21.822  27.130  1.00  0.00     0.091 A 
ATOM     12  C   UNL     1     -40.428 -21.262  28.123  1.00  0.00     0.068 A 
ATOM     13  C   UNL     1     -39.049 -21.493  28.131  1.00  0.00     0.162 A 
ATOM     14  C   UNL     1     -40.649 -22.589  26.115  1.00  0.00     0.068 A 
ATOM     15  C   UNL     1     -38.457 -22.280  27.127  1.00  0.00     0.200 A 
ATOM     16  C   UNL     1     -39.269 -22.826  26.104  1.00  0.00     0.162 A 
BRANCH  13  17
ATOM     17  O   UNL     1     -38.282 -20.929  29.150  1.00  0.00    -0.504 OA
ATOM     18  H   UNL     1     -37.589 -20.211  28.973  1.00  0.00     0.293 HD
ENDBRANCH  13  17
BRANCH  15  19
ATOM     19  O   UNL     1     -37.077 -22.495  27.176  1.00  0.00    -0.502 OA
ATOM     20  H   UNL     1     -36.393 -21.892  26.743  1.00  0.00     0.293 HD
ENDBRANCH  15  19
BRANCH  16  21
ATOM     21  O   UNL     1     -38.753 -23.599  25.060  1.00  0.00    -0.504 OA
ATOM     22  H   UNL     1     -37.861 -23.431  24.618  1.00  0.00     0.293 HD
ENDBRANCH  16  21
ENDBRANCH   1  11
BRANCH  10  23
ATOM     23  O   UNL     1     -43.182 -23.489  28.525  1.00  0.00    -0.500 OA
ATOM     24  H   UNL     1     -43.396 -24.434  28.229  1.00  0.00     0.294 HD
ENDBRANCH  10  23
BRANCH   5  25
ATOM     25  O   UNL     1     -46.485 -17.417  24.985  1.00  0.00    -0.507 OA
ATOM     26  H   UNL     1     -47.080 -16.714  25.410  1.00  0.00     0.293 HD
ENDBRANCH   5  25
BRANCH   7  27
ATOM     27  O   UNL     1     -47.812 -21.254  27.546  1.00  0.00    -0.507 OA
ATOM     28  H   UNL     1     -48.075 -21.204  28.518  1.00  0.00     0.293 HD
ENDBRANCH   7  27
TORSDOF 7
ENDMDL
MODEL 4
REMARK VINA RESULT:    -4.611      5.486      7.353
REMARK INTER + INTRA:          -6.055
REMARK INTER:                  -5.670
REMARK INTRA:                  -0.385
REMARK UNBOUND:                -0.365
REMARK SMILES Oc1cc(O)c2cc(O)c(-c3cc(O)c(O)c(O)c3)[o+]c2c1
REMARK SMILES IDX 10 1 20 2 21 3 22 4 2 5 3 6 4 7 6 8 7 9 8 10 11 11 12 12
REMARK SMILES IDX 13 13 19 14 15 15 17 16 14 17 16 19 18 21 9 23 1 25 5 27
REMARK H PARENT 14 18 16 20 18 22 9 24 1 26 5 28
REMARK Flexibility Score: inf
ROOT
ATOM      1  C   UNL     1     -40.701 -16.798  25.231  1.00  0.00     0.402 A 
ATOM      2  O   UNL     1     -40.416 -17.420  26.373  1.00  0.00    -0.202 OA
ATOM      3  C   UNL     1     -39.720 -18.551  26.434  1.00  0.00     0.368 A 
ATOM      4  C   UNL     1     -39.474 -19.131  27.680  1.00  0.00     0.162 A 
ATOM      5  C   UNL     1     -38.747 -20.321  27.774  1.00  0.00     0.128 A 
ATOM      6  C   UNL     1     -38.264 -20.934  26.615  1.00  0.00     0.093 A 
ATOM      7  C   UNL     1     -38.497 -20.373  25.354  1.00  0.00     0.136 A 
ATOM      8  C   UNL     1     -39.233 -19.163  25.254  1.00  0.00     0.125 A 
ATOM      9  C   UNL     1     -39.502 -18.522  24.034  1.00  0.00     0.078 A 
ATOM     10  C   UNL     1     -40.231 -17.328  24.015  1.00  0.00     0.223 A 
ENDROOT
BRANCH   1  11
ATOM     11  C   UNL     1     -41.494 -15.549  25.292  1.00  0.00     0.091 A 
ATOM     12  C   UNL     1     -40.840 -14.328  25.500  1.00  0.00     0.068 A 
ATOM     13  C   UNL     1     -41.564 -13.135  25.580  1.00  0.00     0.162 A 
ATOM     14  C   UNL     1     -42.894 -15.567  25.204  1.00  0.00     0.068 A 
ATOM     15  C   UNL     1     -42.966 -13.149  25.469  1.00  0.00     0.200 A 
ATOM     16  C   UNL     1     -43.636 -14.383  25.287  1.00  0.00     0.162 A 
BRANCH  13  17
ATOM     17  O   UNL     1     -40.868 -11.941  25.771  1.00  0.00    -0.504 OA
ATOM     18  H   UNL     1     -41.334 -11.042  25.799  1.00  0.00     0.293 HD
ENDBRANCH  13  17
BRANCH  15  19
ATOM     19  O   UNL     1     -43.652 -11.933  25.545  1.00  0.00    -0.502 OA
ATOM     20  H   UNL     1     -43.209 -11.028  25.503  1.00  0.00     0.293 HD
ENDBRANCH  15  19
BRANCH  16  21
ATOM     21  O   UNL     1     -45.026 -14.481  25.190  1.00  0.00    -0.504 OA
ATOM     22  H   UNL     1     -45.593 -13.915  24.576  1.00  0.00     0.293 HD
ENDBRANCH  16  21
ENDBRANCH   1  11
BRANCH  10  23
ATOM     23  O   UNL     1     -40.456 -16.665  22.808  1.00  0.00    -0.500 OA
ATOM     24  H   UNL     1     -39.821 -16.756  22.024  1.00  0.00     0.294 HD
ENDBRANCH  10  23
BRANCH   5  25
ATOM     25  O   UNL     1     -38.498 -20.905  29.013  1.00  0.00    -0.507 OA
ATOM     26  H   UNL     1     -38.336 -21.901  29.108  1.00  0.00     0.293 HD
ENDBRANCH   5  25
BRANCH   7  27
ATOM     27  O   UNL     1     -37.983 -21.049  24.243  1.00  0.00    -0.507 OA
ATOM     28  H   UNL     1     -38.161 -22.019  24.033  1.00  0.00     0.293 HD
ENDBRANCH   7  27
TORSDOF 7
ENDMDL
MODEL 5
REMARK VINA RESULT:    -4.588      3.173      4.811
REMARK INTER + INTRA:          -6.026
REMARK INTER:                  -5.642
REMARK INTRA:                  -0.384
REMARK UNBOUND:                -0.365
REMARK SMILES Oc1cc(O)c2cc(O)c(-c3cc(O)c(O)c(O)c3)[o+]c2c1
REMARK SMILES IDX 10 1 20 2 21 3 22 4 2 5 3 6 4 7 6 8 7 9 8 10 11 11 12 12
REMARK SMILES IDX 13 13 19 14 15 15 17 16 14 17 16 19 18 21 9 23 1 25 5 27
REMARK H PARENT 14 18 16 20 18 22 9 24 1 26 5 28
REMARK Flexibility Score: inf
ROOT
ATOM      1  C   UNL     1     -42.593 -19.014  25.443  1.00  0.00     0.402 A 
ATOM      2  O   UNL     1     -41.696 -19.227  26.403  1.00  0.00    -0.202 OA
ATOM      3  C   UNL     1     -40.550 -19.868  26.202  1.00  0.00     0.368 A 
ATOM      4  C   UNL     1     -39.673 -20.044  27.275  1.00  0.00     0.162 A 
ATOM      5  C   UNL     1     -38.461 -20.717  27.093  1.00  0.00     0.128 A 
ATOM      6  C   UNL     1     -38.126 -21.216  25.832  1.00  0.00     0.093 A 
ATOM      7  C   UNL     1     -38.987 -21.053  24.741  1.00  0.00     0.136 A 
ATOM      8  C   UNL     1     -40.218 -20.368  24.920  1.00  0.00     0.125 A 
ATOM      9  C   UNL     1     -41.136 -20.145  23.881  1.00  0.00     0.078 A 
ATOM     10  C   UNL     1     -42.327 -19.458  24.133  1.00  0.00     0.223 A 
ENDROOT
BRANCH   1  11
ATOM     11  C   UNL     1     -43.840 -18.296  25.793  1.00  0.00     0.091 A 
ATOM     12  C   UNL     1     -43.846 -16.895  25.804  1.00  0.00     0.068 A 
ATOM     13  C   UNL     1     -45.003 -16.190  26.148  1.00  0.00     0.162 A 
ATOM     14  C   UNL     1     -45.000 -18.987  26.171  1.00  0.00     0.068 A 
ATOM     15  C   UNL     1     -46.175 -16.882  26.506  1.00  0.00     0.200 A 
ATOM     16  C   UNL     1     -46.167 -18.297  26.524  1.00  0.00     0.162 A 
BRANCH  13  17
ATOM     17  O   UNL     1     -44.968 -14.796  26.128  1.00  0.00    -0.504 OA
ATOM     18  H   UNL     1     -45.793 -14.230  26.290  1.00  0.00     0.293 HD
ENDBRANCH  13  17
BRANCH  15  19
ATOM     19  O   UNL     1     -47.312 -16.139  26.834  1.00  0.00    -0.502 OA
ATOM     20  H   UNL     1     -47.843 -15.592  26.173  1.00  0.00     0.293 HD
ENDBRANCH  15  19
BRANCH  16  21
ATOM     21  O   UNL     1     -47.282 -19.055  26.889  1.00  0.00    -0.504 OA
ATOM     22  H   UNL     1     -48.214 -18.900  26.533  1.00  0.00     0.293 HD
ENDBRANCH  16  21
ENDBRANCH   1  11
BRANCH  10  23
ATOM     23  O   UNL     1     -43.217 -19.193  23.092  1.00  0.00    -0.500 OA
ATOM     24  H   UNL     1     -42.979 -19.389  22.126  1.00  0.00     0.294 HD
ENDBRANCH  10  23
BRANCH   5  25
ATOM     25  O   UNL     1     -37.583 -20.896  28.158  1.00  0.00    -0.507 OA
ATOM     26  H   UNL     1     -37.886 -21.309  29.033  1.00  0.00     0.293 HD
ENDBRANCH   5  25
BRANCH   7  27
ATOM     27  O   UNL     1     -38.580 -21.584  23.514  1.00  0.00    -0.507 OA
ATOM     28  H   UNL     1     -38.987 -22.400  23.081  1.00  0.00     0.293 HD
ENDBRANCH   7  27
TORSDOF 7
ENDMDL
MODEL 6
REMARK VINA RESULT:    -4.581      2.745      7.387
REMARK INTER + INTRA:          -6.018
REMARK INTER:                  -5.654
REMARK INTRA:                  -0.363
REMARK UNBOUND:                -0.365
REMARK SMILES Oc1cc(O)c2cc(O)c(-c3cc(O)c(O)c(O)c3)[o+]c2c1
REMARK SMILES IDX 10 1 20 2 21 3 22 4 2 5 3 6 4 7 6 8 7 9 8 10 11 11 12 12
REMARK SMILES IDX 13 13 19 14 15 15 17 16 14 17 16 19 18 21 9 23 1 25 5 27
REMARK H PARENT 14 18 16 20 18 22 9 24 1 26 5 28
REMARK Flexibility Score: inf
ROOT
ATOM      1  C   UNL     1     -41.362 -19.105  26.015  1.00  0.00     0.402 A 
ATOM      2  O   UNL     1     -42.577 -19.644  26.092  1.00  0.00    -0.202 OA
ATOM      3  C   UNL     1     -43.695 -18.956  25.887  1.00  0.00     0.368 A 
ATOM      4  C   UNL     1     -44.925 -19.609  25.992  1.00  0.00     0.162 A 
ATOM      5  C   UNL     1     -46.117 -18.909  25.784  1.00  0.00     0.128 A 
ATOM      6  C   UNL     1     -46.078 -17.549  25.470  1.00  0.00     0.093 A 
ATOM      7  C   UNL     1     -44.859 -16.870  25.359  1.00  0.00     0.136 A 
ATOM      8  C   UNL     1     -43.646 -17.577  25.566  1.00  0.00     0.125 A 
ATOM      9  C   UNL     1     -42.378 -16.983  25.462  1.00  0.00     0.078 A 
ATOM     10  C   UNL     1     -41.225 -17.746  25.676  1.00  0.00     0.223 A 
ENDROOT
BRANCH   1  11
ATOM     11  C   UNL     1     -40.192 -19.974  26.275  1.00  0.00     0.091 A 
ATOM     12  C   UNL     1     -39.754 -20.162  27.593  1.00  0.00     0.068 A 
ATOM     13  C   UNL     1     -38.641 -20.962  27.868  1.00  0.00     0.162 A 
ATOM     14  C   UNL     1     -39.474 -20.567  25.226  1.00  0.00     0.068 A 
ATOM     15  C   UNL     1     -37.934 -21.576  26.818  1.00  0.00     0.200 A 
ATOM     16  C   UNL     1     -38.354 -21.368  25.482  1.00  0.00     0.162 A 
BRANCH  13  17
ATOM     17  O   UNL     1     -38.253 -21.135  29.196  1.00  0.00    -0.504 OA
ATOM     18  H   UNL     1     -38.912 -21.374  29.927  1.00  0.00     0.293 HD
ENDBRANCH  13  17
BRANCH  15  19
ATOM     19  O   UNL     1     -36.832 -22.376  27.136  1.00  0.00    -0.502 OA
ATOM     20  H   UNL     1     -35.967 -22.382  26.617  1.00  0.00     0.293 HD
ENDBRANCH  15  19
BRANCH  16  21
ATOM     21  O   UNL     1     -37.691 -21.924  24.386  1.00  0.00    -0.504 OA
ATOM     22  H   UNL     1     -36.792 -22.380  24.439  1.00  0.00     0.293 HD
ENDBRANCH  16  21
ENDBRANCH   1  11
BRANCH  10  23
ATOM     23  O   UNL     1     -39.965 -17.168  25.524  1.00  0.00    -0.500 OA
ATOM     24  H   UNL     1     -39.475 -16.745  26.305  1.00  0.00     0.294 HD
ENDBRANCH  10  23
BRANCH   5  25
ATOM     25  O   UNL     1     -47.346 -19.555  25.888  1.00  0.00    -0.507 OA
ATOM     26  H   UNL     1     -48.198 -19.135  25.535  1.00  0.00     0.293 HD
ENDBRANCH   5  25
BRANCH   7  27
ATOM     27  O   UNL     1     -44.905 -15.509  25.045  1.00  0.00    -0.507 OA
ATOM     28  H   UNL     1     -44.097 -14.908  24.989  1.00  0.00     0.293 HD
ENDBRANCH   7  27
TORSDOF 7
ENDMDL
MODEL 7
REMARK VINA RESULT:    -4.577      9.440     12.465
REMARK INTER + INTRA:          -6.013
REMARK INTER:                  -5.829
REMARK INTRA:                  -0.184
REMARK UNBOUND:                -0.365
REMARK SMILES Oc1cc(O)c2cc(O)c(-c3cc(O)c(O)c(O)c3)[o+]c2c1
REMARK SMILES IDX 10 1 20 2 21 3 22 4 2 5 3 6 4 7 6 8 7 9 8 10 11 11 12 12
REMARK SMILES IDX 13 13 19 14 15 15 17 16 14 17 16 19 18 21 9 23 1 25 5 27
REMARK H PARENT 14 18 16 20 18 22 9 24 1 26 5 28
REMARK Flexibility Score: inf
ROOT
ATOM      1  C   UNL     1     -40.491 -11.762  24.046  1.00  0.00     0.402 A 
ATOM      2  O   UNL     1     -41.512 -11.024  23.617  1.00  0.00    -0.202 OA
ATOM      3  C   UNL     1     -42.688 -10.977  24.233  1.00  0.00     0.368 A 
ATOM      4  C   UNL     1     -43.702 -10.174  23.704  1.00  0.00     0.162 A 
ATOM      5  C   UNL     1     -44.949 -10.108  24.331  1.00  0.00     0.128 A 
ATOM      6  C   UNL     1     -45.185 -10.848  25.491  1.00  0.00     0.093 A 
ATOM      7  C   UNL     1     -44.186 -11.661  26.041  1.00  0.00     0.136 A 
ATOM      8  C   UNL     1     -42.917 -11.730  25.411  1.00  0.00     0.125 A 
ATOM      9  C   UNL     1     -41.853 -12.506  25.898  1.00  0.00     0.078 A 
ATOM     10  C   UNL     1     -40.628 -12.520  25.224  1.00  0.00     0.223 A 
ENDROOT
BRANCH   1  11
ATOM     11  C   UNL     1     -39.232 -11.740  23.266  1.00  0.00     0.091 A 
ATOM     12  C   UNL     1     -38.616 -10.513  22.991  1.00  0.00     0.068 A 
ATOM     13  C   UNL     1     -37.437 -10.459  22.241  1.00  0.00     0.162 A 
ATOM     14  C   UNL     1     -38.673 -12.917  22.746  1.00  0.00     0.068 A 
ATOM     15  C   UNL     1     -36.863 -11.640  21.738  1.00  0.00     0.200 A 
ATOM     16  C   UNL     1     -37.496 -12.882  21.989  1.00  0.00     0.162 A 
BRANCH  13  17
ATOM     17  O   UNL     1     -36.849  -9.216  22.007  1.00  0.00    -0.504 OA
ATOM     18  H   UNL     1     -36.061  -9.099  21.380  1.00  0.00     0.293 HD
ENDBRANCH  13  17
BRANCH  15  19
ATOM     19  O   UNL     1     -35.678 -11.544  21.002  1.00  0.00    -0.502 OA
ATOM     20  H   UNL     1     -35.621 -11.173  20.065  1.00  0.00     0.293 HD
ENDBRANCH  15  19
BRANCH  16  21
ATOM     21  O   UNL     1     -37.000 -14.095  21.506  1.00  0.00    -0.504 OA
ATOM     22  H   UNL     1     -36.035 -14.383  21.581  1.00  0.00     0.293 HD
ENDBRANCH  16  21
ENDBRANCH   1  11
BRANCH  10  23
ATOM     23  O   UNL     1     -39.556 -13.252  25.736  1.00  0.00    -0.500 OA
ATOM     24  H   UNL     1     -39.663 -13.863  26.537  1.00  0.00     0.294 HD
ENDBRANCH  10  23
BRANCH   5  25
ATOM     25  O   UNL     1     -45.963  -9.309  23.808  1.00  0.00    -0.507 OA
ATOM     26  H   UNL     1     -45.894  -8.900  22.883  1.00  0.00     0.293 HD
ENDBRANCH   5  25
BRANCH   7  27
ATOM     27  O   UNL     1     -44.502 -12.373  27.202  1.00  0.00    -0.507 OA
ATOM     28  H   UNL     1     -44.945 -11.972  28.015  1.00  0.00     0.293 HD
ENDBRANCH   7  27
TORSDOF 7
ENDMDL
MODEL 8
REMARK VINA RESULT:    -4.479      8.660     10.062
REMARK INTER + INTRA:          -5.892
REMARK INTER:                  -5.517
REMARK INTRA:                  -0.375
REMARK UNBOUND:                -0.365
REMARK SMILES Oc1cc(O)c2cc(O)c(-c3cc(O)c(O)c(O)c3)[o+]c2c1
REMARK SMILES IDX 10 1 20 2 21 3 22 4 2 5 3 6 4 7 6 8 7 9 8 10 11 11 12 12
REMARK SMILES IDX 13 13 19 14 15 15 17 16 14 17 16 19 18 21 9 23 1 25 5 27
REMARK H PARENT 14 18 16 20 18 22 9 24 1 26 5 28
REMARK Flexibility Score: inf
ROOT
ATOM      1  C   UNL     1     -41.197 -12.651  24.113  1.00  0.00     0.402 A 
ATOM      2  O   UNL     1     -40.512 -11.605  23.656  1.00  0.00    -0.202 OA
ATOM      3  C   UNL     1     -39.275 -11.694  23.179  1.00  0.00     0.368 A 
ATOM      4  C   UNL     1     -38.637 -10.537  22.724  1.00  0.00     0.162 A 
ATOM      5  C   UNL     1     -37.335 -10.602  22.219  1.00  0.00     0.128 A 
ATOM      6  C   UNL     1     -36.668 -11.828  22.170  1.00  0.00     0.093 A 
ATOM      7  C   UNL     1     -37.285 -13.002  22.620  1.00  0.00     0.136 A 
ATOM      8  C   UNL     1     -38.609 -12.942  23.131  1.00  0.00     0.125 A 
ATOM      9  C   UNL     1     -39.310 -14.068  23.590  1.00  0.00     0.078 A 
ATOM     10  C   UNL     1     -40.615 -13.932  24.076  1.00  0.00     0.223 A 
ENDROOT
BRANCH   1  11
ATOM     11  C   UNL     1     -42.565 -12.422  24.629  1.00  0.00     0.091 A 
ATOM     12  C   UNL     1     -42.762 -12.256  26.007  1.00  0.00     0.068 A 
ATOM     13  C   UNL     1     -44.044 -12.057  26.526  1.00  0.00     0.162 A 
ATOM     14  C   UNL     1     -43.679 -12.425  23.777  1.00  0.00     0.068 A 
ATOM     15  C   UNL     1     -45.160 -12.037  25.669  1.00  0.00     0.200 A 
ATOM     16  C   UNL     1     -44.972 -12.231  24.279  1.00  0.00     0.162 A 
BRANCH  13  17
ATOM     17  O   UNL     1     -44.190 -11.880  27.901  1.00  0.00    -0.504 OA
ATOM     18  H   UNL     1     -43.503 -12.215  28.567  1.00  0.00     0.293 HD
ENDBRANCH  13  17
BRANCH  15  19
ATOM     19  O   UNL     1     -46.424 -11.826  26.227  1.00  0.00    -0.502 OA
ATOM     20  H   UNL     1     -46.675 -12.071  27.173  1.00  0.00     0.293 HD
ENDBRANCH  15  19
BRANCH  16  21
ATOM     21  O   UNL     1     -46.030 -12.247  23.368  1.00  0.00    -0.504 OA
ATOM     22  H   UNL     1     -46.866 -11.687  23.459  1.00  0.00     0.293 HD
ENDBRANCH  16  21
ENDBRANCH   1  11
BRANCH  10  23
ATOM     23  O   UNL     1     -41.330 -15.057  24.487  1.00  0.00    -0.500 OA
ATOM     24  H   UNL     1     -42.308 -15.001  24.743  1.00  0.00     0.294 HD
ENDBRANCH  10  23
BRANCH   5  25
ATOM     25  O   UNL     1     -36.693  -9.453  21.764  1.00  0.00    -0.507 OA
ATOM     26  H   UNL     1     -36.266  -9.411  20.846  1.00  0.00     0.293 HD
ENDBRANCH   5  25
BRANCH   7  27
ATOM     27  O   UNL     1     -36.550 -14.188  22.540  1.00  0.00    -0.507 OA
ATOM     28  H   UNL     1     -36.797 -15.045  23.011  1.00  0.00     0.293 HD
ENDBRANCH   7  27
TORSDOF 7
ENDMDL
MODEL 9
REMARK VINA RESULT:    -4.448      8.364     11.931
REMARK INTER + INTRA:          -5.854
REMARK INTER:                  -5.549
REMARK INTRA:                  -0.305
REMARK UNBOUND:                -0.365
REMARK SMILES Oc1cc(O)c2cc(O)c(-c3cc(O)c(O)c(O)c3)[o+]c2c1
REMARK SMILES IDX 10 1 20 2 21 3 22 4 2 5 3 6 4 7 6 8 7 9 8 10 11 11 12 12
REMARK SMILES IDX 13 13 19 14 15 15 17 16 14 17 16 19 18 21 9 23 1 25 5 27
REMARK H PARENT 14 18 16 20 18 22 9 24 1 26 5 28
REMARK Flexibility Score: inf
ROOT
ATOM      1  C   UNL     1     -40.609 -12.501  23.664  1.00  0.00     0.402 A 
ATOM      2  O   UNL     1     -41.690 -12.270  22.923  1.00  0.00    -0.202 OA
ATOM      3  C   UNL     1     -42.924 -12.555  23.324  1.00  0.00     0.368 A 
ATOM      4  C   UNL     1     -43.997 -12.278  22.473  1.00  0.00     0.162 A 
ATOM      5  C   UNL     1     -45.305 -12.570  22.868  1.00  0.00     0.128 A 
ATOM      6  C   UNL     1     -45.542 -13.142  24.120  1.00  0.00     0.093 A 
ATOM      7  C   UNL     1     -44.485 -13.431  24.991  1.00  0.00     0.136 A 
ATOM      8  C   UNL     1     -43.155 -13.133  24.596  1.00  0.00     0.125 A 
ATOM      9  C   UNL     1     -42.035 -13.375  25.409  1.00  0.00     0.078 A 
ATOM     10  C   UNL     1     -40.754 -13.051  24.952  1.00  0.00     0.223 A 
ENDROOT
BRANCH   1  11
ATOM     11  C   UNL     1     -39.285 -12.149  23.102  1.00  0.00     0.091 A 
ATOM     12  C   UNL     1     -38.410 -13.171  22.711  1.00  0.00     0.068 A 
ATOM     13  C   UNL     1     -37.147 -12.870  22.194  1.00  0.00     0.162 A 
ATOM     14  C   UNL     1     -38.862 -10.815  23.007  1.00  0.00     0.068 A 
ATOM     15  C   UNL     1     -36.731 -11.531  22.076  1.00  0.00     0.200 A 
ATOM     16  C   UNL     1     -37.599 -10.494  22.497  1.00  0.00     0.162 A 
BRANCH  13  17
ATOM     17  O   UNL     1     -36.317 -13.919  21.800  1.00  0.00    -0.504 OA
ATOM     18  H   UNL     1     -35.846 -14.517  22.469  1.00  0.00     0.293 HD
ENDBRANCH  13  17
BRANCH  15  19
ATOM     19  O   UNL     1     -35.463 -11.272  21.546  1.00  0.00    -0.502 OA
ATOM     20  H   UNL     1     -34.650 -11.052  22.101  1.00  0.00     0.293 HD
ENDBRANCH  15  19
BRANCH  16  21
ATOM     21  O   UNL     1     -37.249  -9.144  22.433  1.00  0.00    -0.504 OA
ATOM     22  H   UNL     1     -36.319  -8.790  22.606  1.00  0.00     0.293 HD
ENDBRANCH  16  21
ENDBRANCH   1  11
BRANCH  10  23
ATOM     23  O   UNL     1     -39.647 -13.245  25.778  1.00  0.00    -0.500 OA
ATOM     24  H   UNL     1     -39.717 -13.754  26.652  1.00  0.00     0.294 HD
ENDBRANCH  10  23
BRANCH   5  25
ATOM     25  O   UNL     1     -46.379 -12.296  22.025  1.00  0.00    -0.507 OA
ATOM     26  H   UNL     1     -47.302 -12.677  22.199  1.00  0.00     0.293 HD
ENDBRANCH   5  25
BRANCH   7  27
ATOM     27  O   UNL     1     -44.805 -14.006  26.224  1.00  0.00    -0.507 OA
ATOM     28  H   UNL     1     -44.305 -13.832  27.083  1.00  0.00     0.293 HD
ENDBRANCH   7  27
TORSDOF 7
ENDMDL
