MODEL 1
REMARK VINA RESULT:    -5.123      0.000      0.000
REMARK INTER + INTRA:          -6.494
REMARK INTER:                  -6.022
REMARK INTRA:                  -0.472
REMARK UNBOUND:                -0.472
REMARK SMILES C=C[C@@]1(C)CC[C@@H](C(=C)C)C[C@H]1C(=C)C
REMARK SMILES IDX 7 1 6 2 5 3 3 4 12 5 11 6 4 7 8 8 10 9 9 10 13 11 14 12
REMARK SMILES IDX 15 13 2 14 1 15
REMARK H PARENT
REMARK Flexibility Score: inf
ROOT
ATOM      1  C   UNL     1     166.423 162.131 199.262  1.00  0.00     0.015 C 
ATOM      2  C   UNL     1     167.153 162.042 200.629  1.00  0.00     0.009 C 
ATOM      3  C   UNL     1     167.715 163.369 201.186  1.00  0.00     0.012 C 
ATOM      4  C   UNL     1     168.477 164.205 200.127  1.00  0.00    -0.008 C 
ATOM      5  C   UNL     1     167.486 164.495 198.922  1.00  0.00     0.024 C 
ATOM      6  C   UNL     1     167.051 163.149 198.267  1.00  0.00     0.017 C 
ATOM      7  C   UNL     1     169.747 163.442 199.656  1.00  0.00     0.016 C 
ENDROOT
BRANCH   1   8
ATOM      8  C   UNL     1     164.893 162.243 199.352  1.00  0.00    -0.077 C 
ATOM      9  C   UNL     1     164.160 162.684 200.599  1.00  0.00     0.039 C 
ATOM     10  C   UNL     1     164.154 161.884 198.289  1.00  0.00     0.008 C 
ENDBRANCH   1   8
BRANCH   5  11
ATOM     11  C   UNL     1     166.263 165.404 199.223  1.00  0.00    -0.077 C 
ATOM     12  C   UNL     1     165.576 165.958 198.196  1.00  0.00     0.008 C 
ATOM     13  C   UNL     1     165.980 165.921 200.627  1.00  0.00     0.039 C 
ENDBRANCH   5  11
BRANCH   4  14
ATOM     14  C   UNL     1     169.030 165.513 200.697  1.00  0.00    -0.028 C 
ATOM     15  C   UNL     1     169.685 166.441 199.997  1.00  0.00     0.004 C 
ENDBRANCH   4  14
TORSDOF 3
ENDMDL
MODEL 2
REMARK VINA RESULT:    -5.123      3.276      6.528
REMARK INTER + INTRA:          -6.494
REMARK INTER:                  -6.024
REMARK INTRA:                  -0.470
REMARK UNBOUND:                -0.472
REMARK SMILES C=C[C@@]1(C)CC[C@@H](C(=C)C)C[C@H]1C(=C)C
REMARK SMILES IDX 7 1 6 2 5 3 3 4 12 5 11 6 4 7 8 8 10 9 9 10 13 11 14 12
REMARK SMILES IDX 15 13 2 14 1 15
REMARK H PARENT
REMARK Flexibility Score: inf
ROOT
ATOM      1  C   UNL     1     165.547 169.874 199.284  1.00  0.00     0.015 C 
ATOM      2  C   UNL     1     164.820 169.935 200.654  1.00  0.00     0.009 C 
ATOM      3  C   UNL     1     164.260 168.596 201.186  1.00  0.00     0.012 C 
ATOM      4  C   UNL     1     163.496 167.781 200.111  1.00  0.00    -0.008 C 
ATOM      5  C   UNL     1     164.484 167.516 198.899  1.00  0.00     0.024 C 
ATOM      6  C   UNL     1     164.918 168.875 198.270  1.00  0.00     0.017 C 
ATOM      7  C   UNL     1     162.225 168.553 199.659  1.00  0.00     0.016 C 
ENDROOT
BRANCH   1   8
ATOM      8  C   UNL     1     167.078 169.761 199.368  1.00  0.00    -0.077 C 
ATOM      9  C   UNL     1     167.813 169.291 200.603  1.00  0.00     0.039 C 
ATOM     10  C   UNL     1     167.814 170.145 198.313  1.00  0.00     0.008 C 
ENDBRANCH   1   8
BRANCH   5  11
ATOM     11  C   UNL     1     165.709 166.602 199.179  1.00  0.00    -0.077 C 
ATOM     12  C   UNL     1     166.407 166.085 198.139  1.00  0.00     0.008 C 
ATOM     13  C   UNL     1     165.983 166.040 200.567  1.00  0.00     0.039 C 
ENDBRANCH   5  11
BRANCH   4  14
ATOM     14  C   UNL     1     162.946 166.462 200.656  1.00  0.00    -0.028 C 
ATOM     15  C   UNL     1     162.301 165.542 199.937  1.00  0.00     0.004 C 
ENDBRANCH   4  14
TORSDOF 3
ENDMDL
MODEL 3
REMARK VINA RESULT:    -4.976      1.678      3.258
REMARK INTER + INTRA:          -6.321
REMARK INTER:                  -5.808
REMARK INTRA:                  -0.513
REMARK UNBOUND:                -0.472
REMARK SMILES C=C[C@@]1(C)CC[C@@H](C(=C)C)C[C@H]1C(=C)C
REMARK SMILES IDX 7 1 6 2 5 3 3 4 12 5 11 6 4 7 8 8 10 9 9 10 13 11 14 12
REMARK SMILES IDX 15 13 2 14 1 15
REMARK H PARENT
REMARK Flexibility Score: inf
ROOT
ATOM      1  C   UNL     1     164.059 163.508 199.955  1.00  0.00     0.015 C 
ATOM      2  C   UNL     1     165.220 164.338 200.569  1.00  0.00     0.009 C 
ATOM      3  C   UNL     1     166.589 164.217 199.862  1.00  0.00     0.012 C 
ATOM      4  C   UNL     1     166.979 162.755 199.526  1.00  0.00    -0.008 C 
ATOM      5  C   UNL     1     165.837 162.138 198.613  1.00  0.00     0.024 C 
ATOM      6  C   UNL     1     164.491 162.120 199.400  1.00  0.00     0.017 C 
ATOM      7  C   UNL     1     167.173 161.940 200.835  1.00  0.00     0.016 C 
ENDROOT
BRANCH   1   8
ATOM      8  C   UNL     1     163.148 164.285 198.992  1.00  0.00    -0.077 C 
ATOM      9  C   UNL     1     162.245 163.621 197.978  1.00  0.00     0.039 C 
ATOM     10  C   UNL     1     163.186 165.627 199.008  1.00  0.00     0.008 C 
ENDBRANCH   1   8
BRANCH   5  11
ATOM     11  C   UNL     1     165.661 162.753 197.198  1.00  0.00    -0.077 C 
ATOM     12  C   UNL     1     165.258 161.964 196.173  1.00  0.00     0.008 C 
ATOM     13  C   UNL     1     166.194 164.138 196.859  1.00  0.00     0.039 C 
ENDBRANCH   5  11
BRANCH   4  14
ATOM     14  C   UNL     1     168.338 162.655 198.831  1.00  0.00    -0.028 C 
ATOM     15  C   UNL     1     169.461 163.241 199.250  1.00  0.00     0.004 C 
ENDBRANCH   4  14
TORSDOF 3
ENDMDL
MODEL 4
REMARK VINA RESULT:    -4.939      0.931      4.353
REMARK INTER + INTRA:          -6.278
REMARK INTER:                  -5.693
REMARK INTRA:                  -0.585
REMARK UNBOUND:                -0.472
REMARK SMILES C=C[C@@]1(C)CC[C@@H](C(=C)C)C[C@H]1C(=C)C
REMARK SMILES IDX 7 1 6 2 5 3 3 4 12 5 11 6 4 7 8 8 10 9 9 10 13 11 14 12
REMARK SMILES IDX 15 13 2 14 1 15
REMARK H PARENT
REMARK Flexibility Score: inf
ROOT
ATOM      1  C   UNL     1     167.706 163.853 200.877  1.00  0.00     0.015 C 
ATOM      2  C   UNL     1     167.345 162.345 200.797  1.00  0.00     0.009 C 
ATOM      3  C   UNL     1     166.356 161.941 199.680  1.00  0.00     0.012 C 
ATOM      4  C   UNL     1     165.129 162.882 199.578  1.00  0.00    -0.008 C 
ATOM      5  C   UNL     1     165.657 164.357 199.332  1.00  0.00     0.024 C 
ATOM      6  C   UNL     1     166.526 164.811 200.544  1.00  0.00     0.017 C 
ATOM      7  C   UNL     1     164.273 162.786 200.871  1.00  0.00     0.016 C 
ENDROOT
BRANCH   1   8
ATOM      8  C   UNL     1     169.014 164.242 200.170  1.00  0.00    -0.077 C 
ATOM      9  C   UNL     1     169.481 165.671 200.004  1.00  0.00     0.039 C 
ATOM     10  C   UNL     1     169.765 163.274 199.621  1.00  0.00     0.008 C 
ENDBRANCH   1   8
BRANCH   5  11
ATOM     11  C   UNL     1     166.378 164.628 197.982  1.00  0.00    -0.077 C 
ATOM     12  C   UNL     1     166.261 165.844 197.396  1.00  0.00     0.008 C 
ATOM     13  C   UNL     1     166.976 163.497 197.157  1.00  0.00     0.039 C 
ENDBRANCH   5  11
BRANCH   4  14
ATOM     14  C   UNL     1     164.160 162.464 198.470  1.00  0.00    -0.028 C 
ATOM     15  C   UNL     1     163.008 163.074 198.185  1.00  0.00     0.004 C 
ENDBRANCH   4  14
TORSDOF 3
ENDMDL
MODEL 5
REMARK VINA RESULT:    -4.934      3.737      6.304
REMARK INTER + INTRA:          -6.272
REMARK INTER:                  -5.735
REMARK INTRA:                  -0.537
REMARK UNBOUND:                -0.472
REMARK SMILES C=C[C@@]1(C)CC[C@@H](C(=C)C)C[C@H]1C(=C)C
REMARK SMILES IDX 7 1 6 2 5 3 3 4 12 5 11 6 4 7 8 8 10 9 9 10 13 11 14 12
REMARK SMILES IDX 15 13 2 14 1 15
REMARK H PARENT
REMARK Flexibility Score: inf
ROOT
ATOM      1  C   UNL     1     167.897 168.373 200.091  1.00  0.00     0.015 C 
ATOM      2  C   UNL     1     166.715 167.529 200.642  1.00  0.00     0.009 C 
ATOM      3  C   UNL     1     165.360 167.706 199.920  1.00  0.00     0.012 C 
ATOM      4  C   UNL     1     164.995 169.188 199.654  1.00  0.00    -0.008 C 
ATOM      5  C   UNL     1     166.160 169.836 198.793  1.00  0.00     0.024 C 
ATOM      6  C   UNL     1     167.493 169.794 199.601  1.00  0.00     0.017 C 
ATOM      7  C   UNL     1     164.790 169.938 201.000  1.00  0.00     0.016 C 
ENDROOT
BRANCH   1   8
ATOM      8  C   UNL     1     168.813 167.634 199.104  1.00  0.00    -0.077 C 
ATOM      9  C   UNL     1     169.735 168.337 198.133  1.00  0.00     0.039 C 
ATOM     10  C   UNL     1     168.764 166.292 199.056  1.00  0.00     0.008 C 
ENDBRANCH   1   8
BRANCH   5  11
ATOM     11  C   UNL     1     166.352 169.292 197.351  1.00  0.00    -0.077 C 
ATOM     12  C   UNL     1     166.793 170.125 196.378  1.00  0.00     0.008 C 
ATOM     13  C   UNL     1     165.797 167.939 196.929  1.00  0.00     0.039 C 
ENDBRANCH   5  11
BRANCH   4  14
ATOM     14  C   UNL     1     163.650 169.344 198.943  1.00  0.00    -0.028 C 
ATOM     15  C   UNL     1     162.582 168.567 199.139  1.00  0.00     0.004 C 
ENDBRANCH   4  14
TORSDOF 3
ENDMDL
MODEL 6
REMARK VINA RESULT:    -4.898      1.924      4.653
REMARK INTER + INTRA:          -6.229
REMARK INTER:                  -5.684
REMARK INTRA:                  -0.545
REMARK UNBOUND:                -0.472
REMARK SMILES C=C[C@@]1(C)CC[C@@H](C(=C)C)C[C@H]1C(=C)C
REMARK SMILES IDX 7 1 6 2 5 3 3 4 12 5 11 6 4 7 8 8 10 9 9 10 13 11 14 12
REMARK SMILES IDX 15 13 2 14 1 15
REMARK H PARENT
REMARK Flexibility Score: inf
ROOT
ATOM      1  C   UNL     1     165.705 162.757 198.567  1.00  0.00     0.015 C 
ATOM      2  C   UNL     1     165.323 164.042 197.784  1.00  0.00     0.009 C 
ATOM      3  C   UNL     1     164.397 165.036 198.519  1.00  0.00     0.012 C 
ATOM      4  C   UNL     1     163.193 164.352 199.216  1.00  0.00    -0.008 C 
ATOM      5  C   UNL     1     163.760 163.278 200.237  1.00  0.00     0.024 C 
ATOM      6  C   UNL     1     164.563 162.190 199.460  1.00  0.00     0.017 C 
ATOM      7  C   UNL     1     162.260 163.702 198.157  1.00  0.00     0.016 C 
ENDROOT
BRANCH   1   8
ATOM      8  C   UNL     1     167.059 162.819 199.291  1.00  0.00    -0.077 C 
ATOM      9  C   UNL     1     167.456 161.876 200.404  1.00  0.00     0.039 C 
ATOM     10  C   UNL     1     167.924 163.793 198.962  1.00  0.00     0.008 C 
ENDBRANCH   1   8
BRANCH   5  11
ATOM     11  C   UNL     1     164.565 163.819 201.451  1.00  0.00    -0.077 C 
ATOM     12  C   UNL     1     164.388 163.260 202.671  1.00  0.00     0.008 C 
ATOM     13  C   UNL     1     165.330 165.134 201.377  1.00  0.00     0.039 C 
ENDBRANCH   5  11
BRANCH   4  14
ATOM     14  C   UNL     1     162.285 165.351 199.935  1.00  0.00    -0.028 C 
ATOM     15  C   UNL     1     162.435 166.677 199.917  1.00  0.00     0.004 C 
ENDBRANCH   4  14
TORSDOF 3
ENDMDL
MODEL 7
REMARK VINA RESULT:    -4.840      3.804      5.792
REMARK INTER + INTRA:          -6.161
REMARK INTER:                  -5.632
REMARK INTRA:                  -0.529
REMARK UNBOUND:                -0.472
REMARK SMILES C=C[C@@]1(C)CC[C@@H](C(=C)C)C[C@H]1C(=C)C
REMARK SMILES IDX 7 1 6 2 5 3 3 4 12 5 11 6 4 7 8 8 10 9 9 10 13 11 14 12
REMARK SMILES IDX 15 13 2 14 1 15
REMARK H PARENT
REMARK Flexibility Score: inf
ROOT
ATOM      1  C   UNL     1     164.303 169.489 199.293  1.00  0.00     0.015 C 
ATOM      2  C   UNL     1     164.371 168.701 197.957  1.00  0.00     0.009 C 
ATOM      3  C   UNL     1     165.693 167.950 197.679  1.00  0.00     0.012 C 
ATOM      4  C   UNL     1     166.955 168.803 197.964  1.00  0.00    -0.008 C 
ATOM      5  C   UNL     1     166.902 169.270 199.479  1.00  0.00     0.024 C 
ATOM      6  C   UNL     1     165.643 170.161 199.708  1.00  0.00     0.017 C 
ATOM      7  C   UNL     1     167.014 170.013 196.990  1.00  0.00     0.016 C 
ENDROOT
BRANCH   1   8
ATOM      8  C   UNL     1     163.622 168.741 200.450  1.00  0.00    -0.077 C 
ATOM      9  C   UNL     1     163.898 169.029 201.908  1.00  0.00     0.039 C 
ATOM     10  C   UNL     1     162.772 167.741 200.162  1.00  0.00     0.008 C 
ENDBRANCH   1   8
BRANCH   5  11
ATOM     11  C   UNL     1     167.018 168.160 200.560  1.00  0.00    -0.077 C 
ATOM     12  C   UNL     1     167.720 168.403 201.692  1.00  0.00     0.008 C 
ATOM     13  C   UNL     1     166.612 166.721 200.271  1.00  0.00     0.039 C 
ENDBRANCH   5  11
BRANCH   4  14
ATOM     14  C   UNL     1     168.253 168.044 197.679  1.00  0.00    -0.028 C 
ATOM     15  C   UNL     1     169.481 168.501 197.930  1.00  0.00     0.004 C 
ENDBRANCH   4  14
TORSDOF 3
ENDMDL
MODEL 8
REMARK VINA RESULT:    -4.827      1.334      4.382
REMARK INTER + INTRA:          -6.146
REMARK INTER:                  -5.637
REMARK INTRA:                  -0.510
REMARK UNBOUND:                -0.472
REMARK SMILES C=C[C@@]1(C)CC[C@@H](C(=C)C)C[C@H]1C(=C)C
REMARK SMILES IDX 7 1 6 2 5 3 3 4 12 5 11 6 4 7 8 8 10 9 9 10 13 11 14 12
REMARK SMILES IDX 15 13 2 14 1 15
REMARK H PARENT
REMARK Flexibility Score: inf
ROOT
ATOM      1  C   UNL     1     167.736 162.564 199.208  1.00  0.00     0.015 C 
ATOM      2  C   UNL     1     167.599 163.342 197.872  1.00  0.00     0.009 C 
ATOM      3  C   UNL     1     166.252 164.065 197.642  1.00  0.00     0.012 C 
ATOM      4  C   UNL     1     165.020 163.189 197.982  1.00  0.00    -0.008 C 
ATOM      5  C   UNL     1     165.143 162.733 199.497  1.00  0.00     0.024 C 
ATOM      6  C   UNL     1     166.427 161.868 199.680  1.00  0.00     0.017 C 
ATOM      7  C   UNL     1     164.947 161.972 197.019  1.00  0.00     0.016 C 
ENDROOT
BRANCH   1   8
ATOM      8  C   UNL     1     168.448 163.333 200.333  1.00  0.00    -0.077 C 
ATOM      9  C   UNL     1     168.204 163.079 201.803  1.00  0.00     0.039 C 
ATOM     10  C   UNL     1     169.296 164.322 200.004  1.00  0.00     0.008 C 
ENDBRANCH   1   8
BRANCH   5  11
ATOM     11  C   UNL     1     165.048 163.847 200.576  1.00  0.00    -0.077 C 
ATOM     12  C   UNL     1     164.397 163.597 201.736  1.00  0.00     0.008 C 
ATOM     13  C   UNL     1     165.412 165.292 200.262  1.00  0.00     0.039 C 
ENDBRANCH   5  11
BRANCH   4  14
ATOM     14  C   UNL     1     163.697 163.919 197.745  1.00  0.00    -0.028 C 
ATOM     15  C   UNL     1     162.486 163.423 198.006  1.00  0.00     0.004 C 
ENDBRANCH   4  14
TORSDOF 3
ENDMDL
MODEL 9
REMARK VINA RESULT:    -4.763      1.333      4.539
REMARK INTER + INTRA:          -6.071
REMARK INTER:                  -5.491
REMARK INTRA:                  -0.580
REMARK UNBOUND:                -0.472
REMARK SMILES C=C[C@@]1(C)CC[C@@H](C(=C)C)C[C@H]1C(=C)C
REMARK SMILES IDX 7 1 6 2 5 3 3 4 12 5 11 6 4 7 8 8 10 9 9 10 13 11 14 12
REMARK SMILES IDX 15 13 2 14 1 15
REMARK H PARENT
REMARK Flexibility Score: inf
ROOT
ATOM      1  C   UNL     1     167.420 163.380 198.735  1.00  0.00     0.015 C 
ATOM      2  C   UNL     1     166.223 164.318 198.420  1.00  0.00     0.009 C 
ATOM      3  C   UNL     1     165.199 164.518 199.560  1.00  0.00     0.012 C 
ATOM      4  C   UNL     1     164.788 163.195 200.254  1.00  0.00    -0.008 C 
ATOM      5  C   UNL     1     166.101 162.504 200.816  1.00  0.00     0.024 C 
ATOM      6  C   UNL     1     167.059 162.162 199.634  1.00  0.00     0.017 C 
ATOM      7  C   UNL     1     164.038 162.275 199.250  1.00  0.00     0.016 C 
ENDROOT
BRANCH   1   8
ATOM      8  C   UNL     1     168.704 164.098 199.182  1.00  0.00    -0.077 C 
ATOM      9  C   UNL     1     168.890 165.596 199.111  1.00  0.00     0.039 C 
ATOM     10  C   UNL     1     169.740 163.361 199.613  1.00  0.00     0.008 C 
ENDBRANCH   1   8
BRANCH   5  11
ATOM     11  C   UNL     1     166.849 163.243 201.959  1.00  0.00    -0.077 C 
ATOM     12  C   UNL     1     167.432 162.525 202.948  1.00  0.00     0.008 C 
ATOM     13  C   UNL     1     166.710 164.746 202.161  1.00  0.00     0.039 C 
ENDBRANCH   5  11
BRANCH   4  14
ATOM     14  C   UNL     1     163.771 163.412 201.376  1.00  0.00    -0.028 C 
ATOM     15  C   UNL     1     163.018 164.503 201.531  1.00  0.00     0.004 C 
ENDBRANCH   4  14
TORSDOF 3
ENDMDL
