MODEL 1
REMARK VINA RESULT:     0.821      0.000      0.000
REMARK INTER + INTRA:           1.804
REMARK INTER:                   0.893
REMARK INTRA:                   0.911
REMARK UNBOUND:                 0.911
REMARK SMILES C=C(C)[C@@H]1CC[C@H](C)C[C@@H]1O
REMARK SMILES IDX 8 1 7 2 6 3 5 4 4 5 10 6 9 7 11 8 2 10 1 11 3 12
REMARK H PARENT 11 9
REMARK Flexibility Score: inf
ROOT
ATOM      1  C   UNL     1      97.110  11.125  62.432  1.00  0.00     0.008 C 
ATOM      2  C   UNL     1      96.333   9.921  61.882  1.00  0.00    -0.012 C 
ATOM      3  C   UNL     1      96.752   8.609  62.597  1.00  0.00     0.004 C 
ATOM      4  C   UNL     1      95.741   8.187  63.669  1.00  0.00     0.011 C 
ATOM      5  C   UNL     1      94.360   7.895  63.036  1.00  0.00     0.043 C 
ATOM      6  C   UNL     1      93.993   8.891  61.884  1.00  0.00     0.121 C 
ATOM      7  C   UNL     1      94.809  10.191  61.954  1.00  0.00     0.035 C 
ENDROOT
BRANCH   6   8
ATOM      8  O   UNL     1      92.623   9.203  61.877  1.00  0.00    -0.392 OA
ATOM      9  H   UNL     1      92.488   9.875  61.159  1.00  0.00     0.210 HD
ENDBRANCH   6   8
BRANCH   5  10
ATOM     10  C   UNL     1      93.291   7.785  64.121  1.00  0.00    -0.075 C 
ATOM     11  C   UNL     1      91.989   7.799  63.790  1.00  0.00     0.008 C 
ATOM     12  C   UNL     1      93.659   7.657  65.578  1.00  0.00     0.039 C 
ENDBRANCH   5  10
TORSDOF 2
ENDMDL
MODEL 2
REMARK VINA RESULT:     1.735      1.334      1.821
REMARK INTER + INTRA:           2.798
REMARK INTER:                   1.981
REMARK INTRA:                   0.817
REMARK UNBOUND:                 0.911
REMARK SMILES C=C(C)[C@@H]1CC[C@H](C)C[C@@H]1O
REMARK SMILES IDX 8 1 7 2 6 3 5 4 4 5 10 6 9 7 11 8 2 10 1 11 3 12
REMARK H PARENT 11 9
REMARK Flexibility Score: inf
ROOT
ATOM      1  C   UNL     1      97.124  11.000  64.682  1.00  0.00     0.008 C 
ATOM      2  C   UNL     1      96.640  10.713  63.254  1.00  0.00    -0.012 C 
ATOM      3  C   UNL     1      97.123   9.320  62.768  1.00  0.00     0.004 C 
ATOM      4  C   UNL     1      96.019   8.261  62.862  1.00  0.00     0.011 C 
ATOM      5  C   UNL     1      94.825   8.630  61.953  1.00  0.00     0.043 C 
ATOM      6  C   UNL     1      94.513  10.165  61.945  1.00  0.00     0.121 C 
ATOM      7  C   UNL     1      95.103  10.886  63.167  1.00  0.00     0.035 C 
ENDROOT
BRANCH   6   8
ATOM      8  O   UNL     1      93.133  10.420  61.876  1.00  0.00    -0.392 OA
ATOM      9  H   UNL     1      92.747  10.129  62.743  1.00  0.00     0.210 HD
ENDBRANCH   6   8
BRANCH   5  10
ATOM     10  C   UNL     1      93.615   7.757  62.281  1.00  0.00    -0.075 C 
ATOM     11  C   UNL     1      93.587   6.469  61.900  1.00  0.00     0.008 C 
ATOM     12  C   UNL     1      92.431   8.307  63.037  1.00  0.00     0.039 C 
ENDBRANCH   5  10
TORSDOF 2
ENDMDL
MODEL 3
REMARK VINA RESULT:     1.868      1.812      4.216
REMARK INTER + INTRA:           2.943
REMARK INTER:                   1.758
REMARK INTRA:                   1.185
REMARK UNBOUND:                 0.911
REMARK SMILES C=C(C)[C@@H]1CC[C@H](C)C[C@@H]1O
REMARK SMILES IDX 8 1 7 2 6 3 5 4 4 5 10 6 9 7 11 8 2 10 1 11 3 12
REMARK H PARENT 11 9
REMARK Flexibility Score: inf
ROOT
ATOM      1  C   UNL     1      91.752   7.994  63.331  1.00  0.00     0.008 C 
ATOM      2  C   UNL     1      93.200   7.489  63.270  1.00  0.00    -0.012 C 
ATOM      3  C   UNL     1      93.827   7.753  61.875  1.00  0.00     0.004 C 
ATOM      4  C   UNL     1      94.742   8.982  61.877  1.00  0.00     0.011 C 
ATOM      5  C   UNL     1      95.935   8.777  62.840  1.00  0.00     0.043 C 
ATOM      6  C   UNL     1      95.536   8.028  64.156  1.00  0.00     0.121 C 
ATOM      7  C   UNL     1      94.026   8.095  64.432  1.00  0.00     0.035 C 
ENDROOT
BRANCH   6   8
ATOM      8  O   UNL     1      96.234   8.520  65.272  1.00  0.00    -0.392 OA
ATOM      9  H   UNL     1      95.668   8.333  66.066  1.00  0.00     0.210 HD
ENDBRANCH   6   8
BRANCH   5  10
ATOM     10  C   UNL     1      96.660  10.100  63.079  1.00  0.00    -0.075 C 
ATOM     11  C   UNL     1      96.909  10.930  62.052  1.00  0.00     0.008 C 
ATOM     12  C   UNL     1      97.111  10.511  64.458  1.00  0.00     0.039 C 
ENDBRANCH   5  10
TORSDOF 2
ENDMDL
MODEL 4
REMARK VINA RESULT:     3.408      1.725      4.165
REMARK INTER + INTRA:           4.618
REMARK INTER:                   4.215
REMARK INTRA:                   0.404
REMARK UNBOUND:                 0.911
REMARK SMILES C=C(C)[C@@H]1CC[C@H](C)C[C@@H]1O
REMARK SMILES IDX 8 1 7 2 6 3 5 4 4 5 10 6 9 7 11 8 2 10 1 11 3 12
REMARK H PARENT 11 9
REMARK Flexibility Score: inf
ROOT
ATOM      1  C   UNL     1      91.330   8.172  63.612  1.00  0.00     0.008 C 
ATOM      2  C   UNL     1      92.313   8.172  62.433  1.00  0.00    -0.012 C 
ATOM      3  C   UNL     1      92.518   9.605  61.875  1.00  0.00     0.004 C 
ATOM      4  C   UNL     1      93.826  10.235  62.367  1.00  0.00     0.011 C 
ATOM      5  C   UNL     1      95.046   9.418  61.880  1.00  0.00     0.043 C 
ATOM      6  C   UNL     1      94.797   7.871  61.910  1.00  0.00     0.121 C 
ATOM      7  C   UNL     1      93.639   7.484  62.843  1.00  0.00     0.035 C 
ENDROOT
BRANCH   6   8
ATOM      8  O   UNL     1      95.951   7.162  62.283  1.00  0.00    -0.392 OA
ATOM      9  H   UNL     1      96.475   7.015  61.454  1.00  0.00     0.210 HD
ENDBRANCH   6   8
BRANCH   5  10
ATOM     10  C   UNL     1      96.308   9.854  62.621  1.00  0.00    -0.075 C 
ATOM     11  C   UNL     1      97.099  10.809  62.104  1.00  0.00     0.008 C 
ATOM     12  C   UNL     1      96.700   9.235  63.939  1.00  0.00     0.039 C 
ENDBRANCH   5  10
TORSDOF 2
ENDMDL
