MODEL 1
REMARK VINA RESULT:    -3.217      0.000      0.000
REMARK INTER + INTRA:          -4.126
REMARK INTER:                  -3.969
REMARK INTRA:                  -0.158
REMARK UNBOUND:                -0.158
REMARK SMILES CCCCCC(=O)[O-]
REMARK SMILES IDX 4 1 5 2 6 3 7 4 8 5 3 6 2 7 1 8
REMARK H PARENT
REMARK Flexibility Score: inf
ROOT
ATOM      1  C   UNL     1      -2.371 -50.572   1.639  1.00  0.00     0.006 C 
ENDROOT
BRANCH   1   2
ATOM      2  C   UNL     1      -2.868 -51.484   2.772  1.00  0.00     0.053 C 
BRANCH   2   3
ATOM      3  C   UNL     1      -1.786 -51.796   3.759  1.00  0.00     0.041 C 
ATOM      4  O   UNL     1      -0.591 -51.904   3.377  1.00  0.00    -0.550 OA
ATOM      5  O   UNL     1      -2.102 -52.001   5.096  1.00  0.00    -0.550 OA
ENDBRANCH   2   3
ENDBRANCH   1   2
BRANCH   1   6
ATOM      6  C   UNL     1      -2.952 -50.910   0.253  1.00  0.00     0.000 C 
BRANCH   6   7
ATOM      7  C   UNL     1      -2.205 -52.059  -0.439  1.00  0.00    -0.003 C 
ATOM      8  C   UNL     1      -0.714 -51.755  -0.555  1.00  0.00     0.004 C 
ENDBRANCH   6   7
ENDBRANCH   1   6
TORSDOF 4
ENDMDL
MODEL 2
REMARK VINA RESULT:    -3.080      2.290      3.240
REMARK INTER + INTRA:          -3.958
REMARK INTER:                  -3.849
REMARK INTRA:                  -0.109
REMARK UNBOUND:                -0.158
REMARK SMILES CCCCCC(=O)[O-]
REMARK SMILES IDX 4 1 5 2 6 3 7 4 8 5 3 6 2 7 1 8
REMARK H PARENT
REMARK Flexibility Score: inf
ROOT
ATOM      1  C   UNL     1      -3.470 -50.710   0.399  1.00  0.00     0.006 C 
ENDROOT
BRANCH   1   2
ATOM      2  C   UNL     1      -2.945 -51.216   1.752  1.00  0.00     0.053 C 
BRANCH   2   3
ATOM      3  C   UNL     1      -1.452 -51.337   1.766  1.00  0.00     0.041 C 
ATOM      4  O   UNL     1      -0.804 -51.307   0.687  1.00  0.00    -0.550 OA
ATOM      5  O   UNL     1      -0.780 -51.518   2.968  1.00  0.00    -0.550 OA
ENDBRANCH   2   3
ENDBRANCH   1   2
BRANCH   1   6
ATOM      6  C   UNL     1      -4.912 -51.145   0.076  1.00  0.00     0.000 C 
BRANCH   6   7
ATOM      7  C   UNL     1      -5.565 -51.931   1.222  1.00  0.00    -0.003 C 
ATOM      8  C   UNL     1      -7.081 -51.756   1.215  1.00  0.00     0.004 C 
ENDBRANCH   6   7
ENDBRANCH   1   6
TORSDOF 4
ENDMDL
MODEL 3
REMARK VINA RESULT:    -3.056      1.800      2.632
REMARK INTER + INTRA:          -3.928
REMARK INTER:                  -3.842
REMARK INTRA:                  -0.086
REMARK UNBOUND:                -0.158
REMARK SMILES CCCCCC(=O)[O-]
REMARK SMILES IDX 4 1 5 2 6 3 7 4 8 5 3 6 2 7 1 8
REMARK H PARENT
REMARK Flexibility Score: inf
ROOT
ATOM      1  C   UNL     1      -2.986 -50.610   0.781  1.00  0.00     0.006 C 
ENDROOT
BRANCH   1   2
ATOM      2  C   UNL     1      -1.670 -51.205   1.306  1.00  0.00     0.053 C 
BRANCH   2   3
ATOM      3  C   UNL     1      -1.682 -51.370   2.794  1.00  0.00     0.041 C 
ATOM      4  O   UNL     1      -0.599 -51.415   3.435  1.00  0.00    -0.550 OA
ATOM      5  O   UNL     1      -2.888 -51.509   3.469  1.00  0.00    -0.550 OA
ENDBRANCH   2   3
ENDBRANCH   1   2
BRANCH   1   6
ATOM      6  C   UNL     1      -3.916 -51.631   0.099  1.00  0.00     0.000 C 
BRANCH   6   7
ATOM      7  C   UNL     1      -5.342 -51.098  -0.095  1.00  0.00    -0.003 C 
ATOM      8  C   UNL     1      -6.302 -51.718   0.917  1.00  0.00     0.004 C 
ENDBRANCH   6   7
ENDBRANCH   1   6
TORSDOF 4
ENDMDL
MODEL 4
REMARK VINA RESULT:    -2.953      1.911      3.100
REMARK INTER + INTRA:          -3.801
REMARK INTER:                  -3.756
REMARK INTRA:                  -0.045
REMARK UNBOUND:                -0.158
REMARK SMILES CCCCCC(=O)[O-]
REMARK SMILES IDX 4 1 5 2 6 3 7 4 8 5 3 6 2 7 1 8
REMARK H PARENT
REMARK Flexibility Score: inf
ROOT
ATOM      1  C   UNL     1      -2.404 -51.733   4.193  1.00  0.00     0.006 C 
ENDROOT
BRANCH   1   2
ATOM      2  C   UNL     1      -3.342 -51.667   5.408  1.00  0.00     0.053 C 
BRANCH   2   3
ATOM      3  C   UNL     1      -2.681 -51.038   6.596  1.00  0.00     0.041 C 
ATOM      4  O   UNL     1      -3.376 -50.502   7.498  1.00  0.00    -0.550 OA
ATOM      5  O   UNL     1      -1.295 -51.014   6.688  1.00  0.00    -0.550 OA
ENDBRANCH   2   3
ENDBRANCH   1   2
BRANCH   1   6
ATOM      6  C   UNL     1      -3.116 -51.586   2.835  1.00  0.00     0.000 C 
BRANCH   6   7
ATOM      7  C   UNL     1      -2.307 -50.756   1.827  1.00  0.00    -0.003 C 
ATOM      8  C   UNL     1      -3.018 -50.685   0.479  1.00  0.00     0.004 C 
ENDBRANCH   6   7
ENDBRANCH   1   6
TORSDOF 4
ENDMDL
MODEL 5
REMARK VINA RESULT:    -2.925      1.582      1.925
REMARK INTER + INTRA:          -3.766
REMARK INTER:                  -3.621
REMARK INTRA:                  -0.145
REMARK UNBOUND:                -0.158
REMARK SMILES CCCCCC(=O)[O-]
REMARK SMILES IDX 4 1 5 2 6 3 7 4 8 5 3 6 2 7 1 8
REMARK H PARENT
REMARK Flexibility Score: inf
ROOT
ATOM      1  C   UNL     1      -2.372 -50.654   1.855  1.00  0.00     0.006 C 
ENDROOT
BRANCH   1   2
ATOM      2  C   UNL     1      -2.706 -51.866   2.738  1.00  0.00     0.053 C 
BRANCH   2   3
ATOM      3  C   UNL     1      -3.975 -51.670   3.508  1.00  0.00     0.041 C 
ATOM      4  O   UNL     1      -5.087 -51.914   2.969  1.00  0.00    -0.550 OA
ATOM      5  O   UNL     1      -3.932 -51.185   4.809  1.00  0.00    -0.550 OA
ENDBRANCH   2   3
ENDBRANCH   1   2
BRANCH   1   6
ATOM      6  C   UNL     1      -2.808 -50.801   0.385  1.00  0.00     0.000 C 
BRANCH   6   7
ATOM      7  C   UNL     1      -2.180 -52.024  -0.300  1.00  0.00    -0.003 C 
ATOM      8  C   UNL     1      -0.733 -51.747  -0.697  1.00  0.00     0.004 C 
ENDBRANCH   6   7
ENDBRANCH   1   6
TORSDOF 4
ENDMDL
MODEL 6
REMARK VINA RESULT:    -2.873      1.800      2.633
REMARK INTER + INTRA:          -3.703
REMARK INTER:                  -3.629
REMARK INTRA:                  -0.074
REMARK UNBOUND:                -0.158
REMARK SMILES CCCCCC(=O)[O-]
REMARK SMILES IDX 4 1 5 2 6 3 7 4 8 5 3 6 2 7 1 8
REMARK H PARENT
REMARK Flexibility Score: inf
ROOT
ATOM      1  C   UNL     1      -1.315 -51.750   3.844  1.00  0.00     0.006 C 
ENDROOT
BRANCH   1   2
ATOM      2  C   UNL     1      -2.576 -51.794   4.721  1.00  0.00     0.053 C 
BRANCH   2   3
ATOM      3  C   UNL     1      -2.282 -51.446   6.148  1.00  0.00     0.041 C 
ATOM      4  O   UNL     1      -1.254 -51.905   6.712  1.00  0.00    -0.550 OA
ATOM      5  O   UNL     1      -3.160 -50.643   6.863  1.00  0.00    -0.550 OA
ENDBRANCH   2   3
ENDBRANCH   1   2
BRANCH   1   6
ATOM      6  C   UNL     1      -1.593 -51.828   2.331  1.00  0.00     0.000 C 
BRANCH   6   7
ATOM      7  C   UNL     1      -2.372 -50.614   1.807  1.00  0.00    -0.003 C 
ATOM      8  C   UNL     1      -2.847 -50.841   0.375  1.00  0.00     0.004 C 
ENDBRANCH   6   7
ENDBRANCH   1   6
TORSDOF 4
ENDMDL
MODEL 7
REMARK VINA RESULT:    -2.850      2.022      3.680
REMARK INTER + INTRA:          -3.674
REMARK INTER:                  -3.521
REMARK INTRA:                  -0.153
REMARK UNBOUND:                -0.158
REMARK SMILES CCCCCC(=O)[O-]
REMARK SMILES IDX 4 1 5 2 6 3 7 4 8 5 3 6 2 7 1 8
REMARK H PARENT
REMARK Flexibility Score: inf
ROOT
ATOM      1  C   UNL     1      -3.268 -50.957   0.446  1.00  0.00     0.006 C 
ENDROOT
BRANCH   1   2
ATOM      2  C   UNL     1      -2.302 -51.806  -0.395  1.00  0.00     0.053 C 
BRANCH   2   3
ATOM      3  C   UNL     1      -0.931 -51.861   0.208  1.00  0.00     0.041 C 
ATOM      4  O   UNL     1      -0.788 -52.125   1.430  1.00  0.00    -0.550 OA
ATOM      5  O   UNL     1       0.184 -51.589  -0.574  1.00  0.00    -0.550 OA
ENDBRANCH   2   3
ENDBRANCH   1   2
BRANCH   1   6
ATOM      6  C   UNL     1      -4.723 -51.463   0.441  1.00  0.00     0.000 C 
BRANCH   6   7
ATOM      7  C   UNL     1      -5.228 -51.828   1.844  1.00  0.00    -0.003 C 
ATOM      8  C   UNL     1      -4.074 -51.916   2.838  1.00  0.00     0.004 C 
ENDBRANCH   6   7
ENDBRANCH   1   6
TORSDOF 4
ENDMDL
MODEL 8
REMARK VINA RESULT:    -2.729      1.364      2.129
REMARK INTER + INTRA:          -3.524
REMARK INTER:                  -3.440
REMARK INTRA:                  -0.085
REMARK UNBOUND:                -0.158
REMARK SMILES CCCCCC(=O)[O-]
REMARK SMILES IDX 4 1 5 2 6 3 7 4 8 5 3 6 2 7 1 8
REMARK H PARENT
REMARK Flexibility Score: inf
ROOT
ATOM      1  C   UNL     1      -3.012 -51.712   2.552  1.00  0.00     0.006 C 
ENDROOT
BRANCH   1   2
ATOM      2  C   UNL     1      -2.946 -51.844   4.081  1.00  0.00     0.053 C 
BRANCH   2   3
ATOM      3  C   UNL     1      -1.540 -51.770   4.592  1.00  0.00     0.041 C 
ATOM      4  O   UNL     1      -1.306 -51.902   5.822  1.00  0.00    -0.550 OA
ATOM      5  O   UNL     1      -0.493 -51.523   3.714  1.00  0.00    -0.550 OA
ENDBRANCH   2   3
ENDBRANCH   1   2
BRANCH   1   6
ATOM      6  C   UNL     1      -4.440 -51.742   1.974  1.00  0.00     0.000 C 
BRANCH   6   7
ATOM      7  C   UNL     1      -4.502 -51.256   0.519  1.00  0.00    -0.003 C 
ATOM      8  C   UNL     1      -3.134 -50.772   0.044  1.00  0.00     0.004 C 
ENDBRANCH   6   7
ENDBRANCH   1   6
TORSDOF 4
ENDMDL
