MODEL 1
REMARK VINA RESULT:    -2.845      0.000      0.000
REMARK INTER + INTRA:          -3.401
REMARK INTER:                  -3.344
REMARK INTRA:                  -0.057
REMARK UNBOUND:                -0.057
REMARK SMILES O=C([O-])CCC(=O)[O-]
REMARK SMILES IDX 4 1 2 2 1 3 3 4 5 5 6 6 7 7 8 8
REMARK H PARENT
REMARK Flexibility Score: inf
ROOT
ATOM      1  C   UNL     1     -44.467 -49.397  36.141  1.00  0.00     0.059 C 
ENDROOT
BRANCH   1   2
ATOM      2  C   UNL     1     -45.574 -48.806  36.953  1.00  0.00     0.042 C 
ATOM      3  O   UNL     1     -45.412 -47.704  37.541  1.00  0.00    -0.550 OA
ATOM      4  O   UNL     1     -46.806 -49.446  37.021  1.00  0.00    -0.550 OA
ENDBRANCH   1   2
BRANCH   1   5
ATOM      5  C   UNL     1     -43.318 -48.397  35.996  1.00  0.00     0.059 C 
BRANCH   5   6
ATOM      6  C   UNL     1     -42.787 -48.410  34.597  1.00  0.00     0.042 C 
ATOM      7  O   UNL     1     -43.188 -49.272  33.774  1.00  0.00    -0.550 OA
ATOM      8  O   UNL     1     -41.884 -47.436  34.187  1.00  0.00    -0.550 OA
ENDBRANCH   5   6
ENDBRANCH   1   5
TORSDOF 3
ENDMDL
MODEL 2
REMARK VINA RESULT:    -2.831      0.072      4.134
REMARK INTER + INTRA:          -3.384
REMARK INTER:                  -3.332
REMARK INTRA:                  -0.052
REMARK UNBOUND:                -0.057
REMARK SMILES O=C([O-])CCC(=O)[O-]
REMARK SMILES IDX 4 1 2 2 1 3 3 4 5 5 6 6 7 7 8 8
REMARK H PARENT
REMARK Flexibility Score: inf
ROOT
ATOM      1  C   UNL     1     -43.294 -48.388  35.974  1.00  0.00     0.059 C 
ENDROOT
BRANCH   1   2
ATOM      2  C   UNL     1     -42.773 -48.367  34.573  1.00  0.00     0.042 C 
ATOM      3  O   UNL     1     -41.977 -47.463  34.205  1.00  0.00    -0.550 OA
ATOM      4  O   UNL     1     -43.128 -49.375  33.684  1.00  0.00    -0.550 OA
ENDBRANCH   1   2
BRANCH   1   5
ATOM      5  C   UNL     1     -44.457 -49.374  36.098  1.00  0.00     0.059 C 
BRANCH   5   6
ATOM      6  C   UNL     1     -45.550 -48.792  36.937  1.00  0.00     0.042 C 
ATOM      7  O   UNL     1     -45.383 -47.689  37.521  1.00  0.00    -0.550 OA
ATOM      8  O   UNL     1     -46.774 -49.443  37.035  1.00  0.00    -0.550 OA
ENDBRANCH   5   6
ENDBRANCH   1   5
TORSDOF 3
ENDMDL
MODEL 3
REMARK VINA RESULT:    -2.730      3.200      4.522
REMARK INTER + INTRA:          -3.266
REMARK INTER:                  -3.230
REMARK INTRA:                  -0.036
REMARK UNBOUND:                -0.057
REMARK SMILES O=C([O-])CCC(=O)[O-]
REMARK SMILES IDX 4 1 2 2 1 3 3 4 5 5 6 6 7 7 8 8
REMARK H PARENT
REMARK Flexibility Score: inf
ROOT
ATOM      1  C   UNL     1     -46.486 -50.842  38.344  1.00  0.00     0.059 C 
ENDROOT
BRANCH   1   2
ATOM      2  C   UNL     1     -47.262 -52.107  38.167  1.00  0.00     0.042 C 
ATOM      3  O   UNL     1     -47.426 -52.595  37.018  1.00  0.00    -0.550 OA
ATOM      4  O   UNL     1     -47.763 -52.777  39.276  1.00  0.00    -0.550 OA
ENDBRANCH   1   2
BRANCH   1   5
ATOM      5  C   UNL     1     -46.362 -50.100  37.012  1.00  0.00     0.059 C 
BRANCH   5   6
ATOM      6  C   UNL     1     -46.314 -48.622  37.239  1.00  0.00     0.042 C 
ATOM      7  O   UNL     1     -45.237 -48.067  37.578  1.00  0.00    -0.550 OA
ATOM      8  O   UNL     1     -47.450 -47.848  37.027  1.00  0.00    -0.550 OA
ENDBRANCH   5   6
ENDBRANCH   1   5
TORSDOF 3
ENDMDL
MODEL 4
REMARK VINA RESULT:    -2.726      1.499      2.264
REMARK INTER + INTRA:          -3.261
REMARK INTER:                  -3.145
REMARK INTRA:                  -0.116
REMARK UNBOUND:                -0.057
REMARK SMILES O=C([O-])CCC(=O)[O-]
REMARK SMILES IDX 4 1 2 2 1 3 3 4 5 5 6 6 7 7 8 8
REMARK H PARENT
REMARK Flexibility Score: inf
ROOT
ATOM      1  C   UNL     1     -45.096 -48.834  37.647  1.00  0.00     0.059 C 
ENDROOT
BRANCH   1   2
ATOM      2  C   UNL     1     -46.521 -48.902  37.201  1.00  0.00     0.042 C 
ATOM      3  O   UNL     1     -47.100 -50.015  37.094  1.00  0.00    -0.550 OA
ATOM      4  O   UNL     1     -47.228 -47.732  36.950  1.00  0.00    -0.550 OA
ENDBRANCH   1   2
BRANCH   1   5
ATOM      5  C   UNL     1     -44.188 -48.443  36.479  1.00  0.00     0.059 C 
BRANCH   5   6
ATOM      6  C   UNL     1     -43.916 -49.629  35.608  1.00  0.00     0.042 C 
ATOM      7  O   UNL     1     -43.616 -49.471  34.396  1.00  0.00    -0.550 OA
ATOM      8  O   UNL     1     -43.946 -50.910  36.148  1.00  0.00    -0.550 OA
ENDBRANCH   5   6
ENDBRANCH   1   5
TORSDOF 3
ENDMDL
MODEL 5
REMARK VINA RESULT:    -2.679      2.885      5.068
REMARK INTER + INTRA:          -3.206
REMARK INTER:                  -3.171
REMARK INTRA:                  -0.035
REMARK UNBOUND:                -0.057
REMARK SMILES O=C([O-])CCC(=O)[O-]
REMARK SMILES IDX 4 1 2 2 1 3 3 4 5 5 6 6 7 7 8 8
REMARK H PARENT
REMARK Flexibility Score: inf
ROOT
ATOM      1  C   UNL     1     -46.074 -50.059  38.034  1.00  0.00     0.059 C 
ENDROOT
BRANCH   1   2
ATOM      2  C   UNL     1     -46.050 -48.754  37.305  1.00  0.00     0.042 C 
ATOM      3  O   UNL     1     -44.957 -48.261  36.921  1.00  0.00    -0.550 OA
ATOM      4  O   UNL     1     -47.241 -48.103  37.005  1.00  0.00    -0.550 OA
ENDBRANCH   1   2
BRANCH   1   5
ATOM      5  C   UNL     1     -46.824 -51.114  37.218  1.00  0.00     0.059 C 
BRANCH   5   6
ATOM      6  C   UNL     1     -47.225 -52.262  38.089  1.00  0.00     0.042 C 
ATOM      7  O   UNL     1     -47.960 -53.177  37.634  1.00  0.00    -0.550 OA
ATOM      8  O   UNL     1     -46.746 -52.347  39.391  1.00  0.00    -0.550 OA
ENDBRANCH   5   6
ENDBRANCH   1   5
TORSDOF 3
ENDMDL
MODEL 6
REMARK VINA RESULT:    -2.662      2.497      4.929
REMARK INTER + INTRA:          -3.186
REMARK INTER:                  -3.103
REMARK INTRA:                  -0.082
REMARK UNBOUND:                -0.057
REMARK SMILES O=C([O-])CCC(=O)[O-]
REMARK SMILES IDX 4 1 2 2 1 3 3 4 5 5 6 6 7 7 8 8
REMARK H PARENT
REMARK Flexibility Score: inf
ROOT
ATOM      1  C   UNL     1     -46.858 -49.540  37.189  1.00  0.00     0.059 C 
ENDROOT
BRANCH   1   2
ATOM      2  C   UNL     1     -45.559 -48.847  36.933  1.00  0.00     0.042 C 
ATOM      3  O   UNL     1     -45.286 -47.769  37.524  1.00  0.00    -0.550 OA
ATOM      4  O   UNL     1     -44.624 -49.416  36.076  1.00  0.00    -0.550 OA
ENDBRANCH   1   2
BRANCH   1   5
ATOM      5  C   UNL     1     -46.655 -51.055  37.244  1.00  0.00     0.059 C 
BRANCH   5   6
ATOM      6  C   UNL     1     -46.918 -51.569  38.623  1.00  0.00     0.042 C 
ATOM      7  O   UNL     1     -47.462 -52.692  38.789  1.00  0.00    -0.550 OA
ATOM      8  O   UNL     1     -46.518 -50.829  39.730  1.00  0.00    -0.550 OA
ENDBRANCH   5   6
ENDBRANCH   1   5
TORSDOF 3
ENDMDL
MODEL 7
REMARK VINA RESULT:    -2.655      2.517      3.705
REMARK INTER + INTRA:          -3.177
REMARK INTER:                  -3.100
REMARK INTRA:                  -0.077
REMARK UNBOUND:                -0.057
REMARK SMILES O=C([O-])CCC(=O)[O-]
REMARK SMILES IDX 4 1 2 2 1 3 3 4 5 5 6 6 7 7 8 8
REMARK H PARENT
REMARK Flexibility Score: inf
ROOT
ATOM      1  C   UNL     1     -46.524 -51.172  37.245  1.00  0.00     0.059 C 
ENDROOT
BRANCH   1   2
ATOM      2  C   UNL     1     -46.903 -51.609  38.623  1.00  0.00     0.042 C 
ATOM      3  O   UNL     1     -46.550 -50.932  39.624  1.00  0.00    -0.550 OA
ATOM      4  O   UNL     1     -47.691 -52.740  38.802  1.00  0.00    -0.550 OA
ENDBRANCH   1   2
BRANCH   1   5
ATOM      5  C   UNL     1     -46.786 -49.675  37.068  1.00  0.00     0.059 C 
BRANCH   5   6
ATOM      6  C   UNL     1     -45.498 -48.937  36.879  1.00  0.00     0.042 C 
ATOM      7  O   UNL     1     -44.622 -49.382  36.093  1.00  0.00    -0.550 OA
ATOM      8  O   UNL     1     -45.285 -47.730  37.535  1.00  0.00    -0.550 OA
ENDBRANCH   5   6
ENDBRANCH   1   5
TORSDOF 3
ENDMDL
MODEL 8
REMARK VINA RESULT:    -2.629      5.177      6.692
REMARK INTER + INTRA:          -3.148
REMARK INTER:                  -3.039
REMARK INTRA:                  -0.108
REMARK UNBOUND:                -0.057
REMARK SMILES O=C([O-])CCC(=O)[O-]
REMARK SMILES IDX 4 1 2 2 1 3 3 4 5 5 6 6 7 7 8 8
REMARK H PARENT
REMARK Flexibility Score: inf
ROOT
ATOM      1  C   UNL     1     -47.326 -51.541  40.551  1.00  0.00     0.059 C 
ENDROOT
BRANCH   1   2
ATOM      2  C   UNL     1     -48.238 -52.341  41.424  1.00  0.00     0.042 C 
ATOM      3  O   UNL     1     -49.241 -52.922  40.930  1.00  0.00    -0.550 OA
ATOM      4  O   UNL     1     -47.956 -52.488  42.777  1.00  0.00    -0.550 OA
ENDBRANCH   1   2
BRANCH   1   5
ATOM      5  C   UNL     1     -46.614 -52.449  39.546  1.00  0.00     0.059 C 
BRANCH   5   6
ATOM      6  C   UNL     1     -47.188 -52.264  38.177  1.00  0.00     0.042 C 
ATOM      7  O   UNL     1     -47.968 -53.126  37.695  1.00  0.00    -0.550 OA
ATOM      8  O   UNL     1     -46.900 -51.114  37.451  1.00  0.00    -0.550 OA
ENDBRANCH   5   6
ENDBRANCH   1   5
TORSDOF 3
ENDMDL
MODEL 9
REMARK VINA RESULT:    -2.629      5.228      7.606
REMARK INTER + INTRA:          -3.147
REMARK INTER:                  -3.039
REMARK INTRA:                  -0.108
REMARK UNBOUND:                -0.057
REMARK SMILES O=C([O-])CCC(=O)[O-]
REMARK SMILES IDX 4 1 2 2 1 3 3 4 5 5 6 6 7 7 8 8
REMARK H PARENT
REMARK Flexibility Score: inf
ROOT
ATOM      1  C   UNL     1     -46.682 -52.597  39.481  1.00  0.00     0.059 C 
ENDROOT
BRANCH   1   2
ATOM      2  C   UNL     1     -47.241 -52.347  38.117  1.00  0.00     0.042 C 
ATOM      3  O   UNL     1     -48.035 -53.173  37.595  1.00  0.00    -0.550 OA
ATOM      4  O   UNL     1     -46.925 -51.175  37.439  1.00  0.00    -0.550 OA
ENDBRANCH   1   2
BRANCH   1   5
ATOM      5  C   UNL     1     -47.357 -51.689  40.510  1.00  0.00     0.059 C 
BRANCH   5   6
ATOM      6  C   UNL     1     -48.199 -52.496  41.447  1.00  0.00     0.042 C 
ATOM      7  O   UNL     1     -49.110 -53.241  41.000  1.00  0.00    -0.550 OA
ATOM      8  O   UNL     1     -47.945 -52.465  42.813  1.00  0.00    -0.550 OA
ENDBRANCH   5   6
ENDBRANCH   1   5
TORSDOF 3
ENDMDL
