MODEL 1
REMARK VINA RESULT:    -5.649      0.000      0.000
REMARK INTER + INTRA:          -5.979
REMARK INTER:                  -5.979
REMARK INTRA:                   0.000
REMARK UNBOUND:                 0.000
REMARK SMILES Cc1cc(O)c(C)c(C)c1O
REMARK SMILES IDX 1 1 2 2 3 3 4 4 6 5 8 6 10 7 9 8 7 9 11 10 5 12
REMARK H PARENT 11 11 5 13
REMARK Flexibility Score: inf
ROOT
ATOM      1  C   UNL     1     -10.509  -9.613  38.073  1.00  0.00     0.048 C 
ATOM      2  C   UNL     1     -11.549  -8.530  38.168  1.00  0.00    -0.005 A 
ATOM      3  C   UNL     1     -12.231  -8.117  37.021  1.00  0.00     0.053 A 
ATOM      4  C   UNL     1     -13.225  -7.140  37.089  1.00  0.00     0.119 A 
ATOM      5  C   UNL     1     -13.566  -6.562  38.336  1.00  0.00    -0.003 A 
ATOM      6  C   UNL     1     -12.792  -6.887  39.485  1.00  0.00    -0.002 A 
ATOM      7  C   UNL     1     -11.831  -7.927  39.404  1.00  0.00     0.121 A 
ATOM      8  C   UNL     1     -12.987  -6.148  40.791  1.00  0.00     0.049 C 
ATOM      9  C   UNL     1     -14.733  -5.604  38.423  1.00  0.00     0.049 C 
ENDROOT
BRANCH   7  10
ATOM     10  O   UNL     1     -11.149  -8.390  40.535  1.00  0.00    -0.507 OA
ATOM     11  H   UNL     1     -10.225  -8.800  40.507  1.00  0.00     0.293 HD
ENDBRANCH   7  10
BRANCH   4  12
ATOM     12  O   UNL     1     -13.841  -6.761  35.894  1.00  0.00    -0.508 OA
ATOM     13  H   UNL     1     -13.786  -5.828  35.506  1.00  0.00     0.293 HD
ENDBRANCH   4  12
TORSDOF 2
ENDMDL
MODEL 2
REMARK VINA RESULT:    -5.549      1.367      3.295
REMARK INTER + INTRA:          -5.873
REMARK INTER:                  -5.873
REMARK INTRA:                   0.000
REMARK UNBOUND:                 0.000
REMARK SMILES Cc1cc(O)c(C)c(C)c1O
REMARK SMILES IDX 1 1 2 2 3 3 4 4 6 5 8 6 10 7 9 8 7 9 11 10 5 12
REMARK H PARENT 11 11 5 13
REMARK Flexibility Score: inf
ROOT
ATOM      1  C   UNL     1     -15.139  -4.629  39.497  1.00  0.00     0.048 C 
ATOM      2  C   UNL     1     -14.253  -5.693  38.908  1.00  0.00    -0.005 A 
ATOM      3  C   UNL     1     -14.449  -6.112  37.590  1.00  0.00     0.053 A 
ATOM      4  C   UNL     1     -13.618  -7.070  37.010  1.00  0.00     0.119 A 
ATOM      5  C   UNL     1     -12.547  -7.622  37.753  1.00  0.00    -0.003 A 
ATOM      6  C   UNL     1     -12.419  -7.294  39.132  1.00  0.00    -0.002 A 
ATOM      7  C   UNL     1     -13.234  -6.272  39.681  1.00  0.00     0.121 A 
ATOM      8  C   UNL     1     -11.418  -8.009  40.014  1.00  0.00     0.049 C 
ATOM      9  C   UNL     1     -11.571  -8.560  37.077  1.00  0.00     0.049 C 
ENDROOT
BRANCH   7  10
ATOM     10  O   UNL     1     -13.049  -5.803  40.987  1.00  0.00    -0.507 OA
ATOM     11  H   UNL     1     -12.653  -4.900  41.210  1.00  0.00     0.293 HD
ENDBRANCH   7  10
BRANCH   4  12
ATOM     12  O   UNL     1     -13.896  -7.457  35.696  1.00  0.00    -0.508 OA
ATOM     13  H   UNL     1     -14.568  -6.986  35.104  1.00  0.00     0.293 HD
ENDBRANCH   4  12
TORSDOF 2
ENDMDL
MODEL 3
REMARK VINA RESULT:    -5.449      1.081      4.221
REMARK INTER + INTRA:          -5.767
REMARK INTER:                  -5.767
REMARK INTRA:                   0.000
REMARK UNBOUND:                 0.000
REMARK SMILES Cc1cc(O)c(C)c(C)c1O
REMARK SMILES IDX 1 1 2 2 3 3 4 4 6 5 8 6 10 7 9 8 7 9 11 10 5 12
REMARK H PARENT 11 11 5 13
REMARK Flexibility Score: inf
ROOT
ATOM      1  C   UNL     1     -15.126  -5.748  37.506  1.00  0.00     0.048 C 
ATOM      2  C   UNL     1     -13.947  -6.460  38.112  1.00  0.00    -0.005 A 
ATOM      3  C   UNL     1     -13.627  -6.258  39.456  1.00  0.00     0.053 A 
ATOM      4  C   UNL     1     -12.561  -6.934  40.050  1.00  0.00     0.119 A 
ATOM      5  C   UNL     1     -11.795  -7.853  39.293  1.00  0.00    -0.003 A 
ATOM      6  C   UNL     1     -12.036  -7.970  37.896  1.00  0.00    -0.002 A 
ATOM      7  C   UNL     1     -13.163  -7.322  37.328  1.00  0.00     0.121 A 
ATOM      8  C   UNL     1     -11.117  -8.784  37.011  1.00  0.00     0.049 C 
ATOM      9  C   UNL     1     -10.728  -8.680  39.975  1.00  0.00     0.049 C 
ENDROOT
BRANCH   7  10
ATOM     10  O   UNL     1     -13.534  -7.523  35.994  1.00  0.00    -0.507 OA
ATOM     11  H   UNL     1     -14.278  -7.014  35.534  1.00  0.00     0.293 HD
ENDBRANCH   7  10
BRANCH   4  12
ATOM     12  O   UNL     1     -12.287  -6.657  41.392  1.00  0.00    -0.508 OA
ATOM     13  H   UNL     1     -12.554  -5.796  41.852  1.00  0.00     0.293 HD
ENDBRANCH   4  12
TORSDOF 2
ENDMDL
MODEL 4
REMARK VINA RESULT:    -5.333      3.633      5.156
REMARK INTER + INTRA:          -5.645
REMARK INTER:                  -5.645
REMARK INTRA:                   0.000
REMARK UNBOUND:                 0.000
REMARK SMILES Cc1cc(O)c(C)c(C)c1O
REMARK SMILES IDX 1 1 2 2 3 3 4 4 6 5 8 6 10 7 9 8 7 9 11 10 5 12
REMARK H PARENT 11 11 5 13
REMARK Flexibility Score: inf
ROOT
ATOM      1  C   UNL     1     -17.422  -6.518  43.297  1.00  0.00     0.048 C 
ATOM      2  C   UNL     1     -16.908  -6.460  41.884  1.00  0.00    -0.005 A 
ATOM      3  C   UNL     1     -17.694  -6.943  40.836  1.00  0.00     0.053 A 
ATOM      4  C   UNL     1     -17.254  -6.867  39.514  1.00  0.00     0.119 A 
ATOM      5  C   UNL     1     -16.001  -6.281  39.217  1.00  0.00    -0.003 A 
ATOM      6  C   UNL     1     -15.142  -5.901  40.287  1.00  0.00    -0.002 A 
ATOM      7  C   UNL     1     -15.635  -5.929  41.617  1.00  0.00     0.121 A 
ATOM      8  C   UNL     1     -13.719  -5.459  40.026  1.00  0.00     0.049 C 
ATOM      9  C   UNL     1     -15.589  -6.081  37.775  1.00  0.00     0.049 C 
ENDROOT
BRANCH   7  10
ATOM     10  O   UNL     1     -14.890  -5.426  42.690  1.00  0.00    -0.507 OA
ATOM     11  H   UNL     1     -13.951  -5.063  42.600  1.00  0.00     0.293 HD
ENDBRANCH   7  10
BRANCH   4  12
ATOM     12  O   UNL     1     -18.087  -7.398  38.525  1.00  0.00    -0.508 OA
ATOM     13  H   UNL     1     -18.109  -7.060  37.572  1.00  0.00     0.293 HD
ENDBRANCH   4  12
TORSDOF 2
ENDMDL
MODEL 5
REMARK VINA RESULT:    -5.314      1.093      3.158
REMARK INTER + INTRA:          -5.625
REMARK INTER:                  -5.625
REMARK INTRA:                   0.000
REMARK UNBOUND:                 0.000
REMARK SMILES Cc1cc(O)c(C)c(C)c1O
REMARK SMILES IDX 1 1 2 2 3 3 4 4 6 5 8 6 10 7 9 8 7 9 11 10 5 12
REMARK H PARENT 11 11 5 13
REMARK Flexibility Score: inf
ROOT
ATOM      1  C   UNL     1     -11.277  -8.756  36.994  1.00  0.00     0.048 C 
ATOM      2  C   UNL     1     -12.117  -7.872  37.874  1.00  0.00    -0.005 A 
ATOM      3  C   UNL     1     -11.772  -7.694  39.216  1.00  0.00     0.053 A 
ATOM      4  C   UNL     1     -12.514  -6.851  40.043  1.00  0.00     0.119 A 
ATOM      5  C   UNL     1     -13.627  -6.147  39.522  1.00  0.00    -0.003 A 
ATOM      6  C   UNL     1     -14.058  -6.419  38.193  1.00  0.00    -0.002 A 
ATOM      7  C   UNL     1     -13.252  -7.230  37.353  1.00  0.00     0.121 A 
ATOM      8  C   UNL     1     -15.354  -5.846  37.661  1.00  0.00     0.049 C 
ATOM      9  C   UNL     1     -14.345  -5.135  40.387  1.00  0.00     0.049 C 
ENDROOT
BRANCH   7  10
ATOM     10  O   UNL     1     -13.548  -7.407  35.997  1.00  0.00    -0.507 OA
ATOM     11  H   UNL     1     -13.639  -8.312  35.555  1.00  0.00     0.293 HD
ENDBRANCH   7  10
BRANCH   4  12
ATOM     12  O   UNL     1     -12.122  -6.748  41.380  1.00  0.00    -0.508 OA
ATOM     13  H   UNL     1     -11.917  -7.547  41.966  1.00  0.00     0.293 HD
ENDBRANCH   4  12
TORSDOF 2
ENDMDL
MODEL 6
REMARK VINA RESULT:    -5.298      1.607      2.411
REMARK INTER + INTRA:          -5.608
REMARK INTER:                  -5.608
REMARK INTRA:                   0.000
REMARK UNBOUND:                 0.000
REMARK SMILES Cc1cc(O)c(C)c(C)c1O
REMARK SMILES IDX 1 1 2 2 3 3 4 4 6 5 8 6 10 7 9 8 7 9 11 10 5 12
REMARK H PARENT 11 11 5 13
REMARK Flexibility Score: inf
ROOT
ATOM      1  C   UNL     1     -11.369  -7.683  41.256  1.00  0.00     0.048 C 
ATOM      2  C   UNL     1     -12.117  -7.342  39.996  1.00  0.00    -0.005 A 
ATOM      3  C   UNL     1     -11.721  -7.901  38.778  1.00  0.00     0.053 A 
ATOM      4  C   UNL     1     -12.421  -7.628  37.602  1.00  0.00     0.119 A 
ATOM      5  C   UNL     1     -13.559  -6.787  37.633  1.00  0.00    -0.003 A 
ATOM      6  C   UNL     1     -13.892  -6.117  38.844  1.00  0.00    -0.002 A 
ATOM      7  C   UNL     1     -13.207  -6.458  40.038  1.00  0.00     0.121 A 
ATOM      8  C   UNL     1     -14.973  -5.058  38.877  1.00  0.00     0.049 C 
ATOM      9  C   UNL     1     -14.389  -6.603  36.383  1.00  0.00     0.049 C 
ENDROOT
BRANCH   7  10
ATOM     10  O   UNL     1     -13.593  -5.943  41.281  1.00  0.00    -0.507 OA
ATOM     11  H   UNL     1     -13.367  -5.010  41.598  1.00  0.00     0.293 HD
ENDBRANCH   7  10
BRANCH   4  12
ATOM     12  O   UNL     1     -11.946  -8.203  36.420  1.00  0.00    -0.508 OA
ATOM     13  H   UNL     1     -11.433  -9.075  36.388  1.00  0.00     0.293 HD
ENDBRANCH   4  12
TORSDOF 2
ENDMDL
MODEL 7
REMARK VINA RESULT:    -5.204      1.878      3.597
REMARK INTER + INTRA:          -5.508
REMARK INTER:                  -5.508
REMARK INTRA:                   0.000
REMARK UNBOUND:                 0.000
REMARK SMILES Cc1cc(O)c(C)c(C)c1O
REMARK SMILES IDX 1 1 2 2 3 3 4 4 6 5 8 6 10 7 9 8 7 9 11 10 5 12
REMARK H PARENT 11 11 5 13
REMARK Flexibility Score: inf
ROOT
ATOM      1  C   UNL     1     -13.627  -6.837  36.984  1.00  0.00     0.048 C 
ATOM      2  C   UNL     1     -12.577  -7.632  37.710  1.00  0.00    -0.005 A 
ATOM      3  C   UNL     1     -11.844  -8.606  37.028  1.00  0.00     0.053 A 
ATOM      4  C   UNL     1     -10.841  -9.332  37.670  1.00  0.00     0.119 A 
ATOM      5  C   UNL     1     -10.542  -9.076  39.030  1.00  0.00    -0.003 A 
ATOM      6  C   UNL     1     -11.366  -8.177  39.764  1.00  0.00    -0.002 A 
ATOM      7  C   UNL     1     -12.337  -7.405  39.075  1.00  0.00     0.121 A 
ATOM      8  C   UNL     1     -11.212  -8.023  41.261  1.00  0.00     0.049 C 
ATOM      9  C   UNL     1      -9.367  -9.770  39.682  1.00  0.00     0.049 C 
ENDROOT
BRANCH   7  10
ATOM     10  O   UNL     1     -13.069  -6.400  39.716  1.00  0.00    -0.507 OA
ATOM     11  H   UNL     1     -13.291  -5.508  39.293  1.00  0.00     0.293 HD
ENDBRANCH   7  10
BRANCH   4  12
ATOM     12  O   UNL     1     -10.172 -10.308  36.927  1.00  0.00    -0.508 OA
ATOM     13  H   UNL     1     -10.096 -10.289  35.918  1.00  0.00     0.293 HD
ENDBRANCH   4  12
TORSDOF 2
ENDMDL
MODEL 8
REMARK VINA RESULT:    -5.108      6.815      8.221
REMARK INTER + INTRA:          -5.407
REMARK INTER:                  -5.407
REMARK INTRA:                   0.000
REMARK UNBOUND:                 0.000
REMARK SMILES Cc1cc(O)c(C)c(C)c1O
REMARK SMILES IDX 1 1 2 2 3 3 4 4 6 5 8 6 10 7 9 8 7 9 11 10 5 12
REMARK H PARENT 11 11 5 13
REMARK Flexibility Score: inf
ROOT
ATOM      1  C   UNL     1     -17.970  -7.541  41.553  1.00  0.00     0.048 C 
ATOM      2  C   UNL     1     -17.515  -7.599  42.986  1.00  0.00    -0.005 A 
ATOM      3  C   UNL     1     -17.040  -6.444  43.614  1.00  0.00     0.053 A 
ATOM      4  C   UNL     1     -16.647  -6.465  44.952  1.00  0.00     0.119 A 
ATOM      5  C   UNL     1     -16.740  -7.663  45.700  1.00  0.00    -0.003 A 
ATOM      6  C   UNL     1     -17.103  -8.868  45.035  1.00  0.00    -0.002 A 
ATOM      7  C   UNL     1     -17.559  -8.811  43.693  1.00  0.00     0.121 A 
ATOM      8  C   UNL     1     -17.022 -10.204  45.742  1.00  0.00     0.049 C 
ATOM      9  C   UNL     1     -16.439  -7.647  47.182  1.00  0.00     0.049 C 
ENDROOT
BRANCH   7  10
ATOM     10  O   UNL     1     -18.070  -9.938  43.040  1.00  0.00    -0.507 OA
ATOM     11  H   UNL     1     -17.715 -10.876  43.175  1.00  0.00     0.293 HD
ENDBRANCH   7  10
BRANCH   4  12
ATOM     12  O   UNL     1     -16.157  -5.276  45.499  1.00  0.00    -0.508 OA
ATOM     13  H   UNL     1     -15.350  -4.784  45.138  1.00  0.00     0.293 HD
ENDBRANCH   4  12
TORSDOF 2
ENDMDL
MODEL 9
REMARK VINA RESULT:    -4.962      1.002      3.113
REMARK INTER + INTRA:          -5.253
REMARK INTER:                  -5.253
REMARK INTRA:                   0.000
REMARK UNBOUND:                 0.000
REMARK SMILES Cc1cc(O)c(C)c(C)c1O
REMARK SMILES IDX 1 1 2 2 3 3 4 4 6 5 8 6 10 7 9 8 7 9 11 10 5 12
REMARK H PARENT 11 11 5 13
REMARK Flexibility Score: inf
ROOT
ATOM      1  C   UNL     1     -13.914  -5.578  40.859  1.00  0.00     0.048 C 
ATOM      2  C   UNL     1     -13.246  -6.454  39.836  1.00  0.00    -0.005 A 
ATOM      3  C   UNL     1     -13.678  -6.428  38.507  1.00  0.00     0.053 A 
ATOM      4  C   UNL     1     -13.051  -7.205  37.533  1.00  0.00     0.119 A 
ATOM      5  C   UNL     1     -11.950  -8.024  37.880  1.00  0.00    -0.003 A 
ATOM      6  C   UNL     1     -11.585  -8.150  39.249  1.00  0.00    -0.002 A 
ATOM      7  C   UNL     1     -12.194  -7.304  40.212  1.00  0.00     0.121 A 
ATOM      8  C   UNL     1     -10.550  -9.163  39.691  1.00  0.00     0.049 C 
ATOM      9  C   UNL     1     -11.192  -8.759  36.797  1.00  0.00     0.049 C 
ENDROOT
BRANCH   7  10
ATOM     10  O   UNL     1     -11.769  -7.279  41.545  1.00  0.00    -0.507 OA
ATOM     11  H   UNL     1     -11.150  -6.575  41.925  1.00  0.00     0.293 HD
ENDBRANCH   7  10
BRANCH   4  12
ATOM     12  O   UNL     1     -13.560  -7.145  36.233  1.00  0.00    -0.508 OA
ATOM     13  H   UNL     1     -14.438  -7.565  35.955  1.00  0.00     0.293 HD
ENDBRANCH   4  12
TORSDOF 2
ENDMDL
