MODEL 1
REMARK VINA RESULT:    80.781      0.000      0.000
REMARK INTER + INTRA:         106.476
REMARK INTER:                 106.754
REMARK INTRA:                  -0.278
REMARK UNBOUND:                -0.278
REMARK SMILES CC[C@H](C=C[C@H](C)[C@@H]1CC[C@H]2C3=CC[C@@H]4C[C@H](O)CC[C@]4(C)[C@@H]3CC[C@]21C)C(C)C
REMARK SMILES IDX 6 1 7 2 5 3 4 4 3 5 2 6 1 7 28 8 29 9 30 10 8 11 9 12 26 13
REMARK SMILES IDX 10 14 11 15 25 16 27 17 12 18 24 19 23 20 13 21 21 22 14 23
REMARK SMILES IDX 15 24 20 25 22 26 16 27 19 28 17 29 18 30
REMARK H PARENT 18 31
REMARK Flexibility Score: inf
ROOT
ATOM      1  C   UNL     1      78.296   3.571  62.598  1.00  0.00     0.012 C 
ATOM      2  C   UNL     1      76.886   3.086  62.188  1.00  0.00     0.012 C 
ENDROOT
BRANCH   1   3
ATOM      3  C   UNL     1      78.329   4.815  63.472  1.00  0.00    -0.028 C 
ATOM      4  C   UNL     1      79.445   5.474  63.838  1.00  0.00    -0.027 C 
BRANCH   4   5
ATOM      5  C   UNL     1      79.368   6.695  64.736  1.00  0.00     0.014 C 
BRANCH   5   6
ATOM      6  C   UNL     1      80.183   7.850  64.099  1.00  0.00     0.004 C 
ATOM      7  C   UNL     1      81.223   7.369  63.084  1.00  0.00     0.004 C 
ENDBRANCH   5   6
BRANCH   5   8
ATOM      8  C   UNL     1      77.898   7.079  65.099  1.00  0.00    -0.011 C 
ATOM      9  C   UNL     1      77.385   8.235  64.225  1.00  0.00     0.008 C 
ATOM     10  C   UNL     1      77.683   7.402  66.587  1.00  0.00     0.008 C 
ENDBRANCH   5   8
ENDBRANCH   4   5
ENDBRANCH   1   3
BRANCH   1  11
ATOM     11  C   UNL     1      79.271   2.458  63.127  1.00  0.00     0.002 C 
ATOM     12  C   UNL     1      79.235   1.230  62.205  1.00  0.00     0.005 C 
ATOM     13  C   UNL     1      79.083   1.884  64.580  1.00  0.00    -0.023 C 
ATOM     14  C   UNL     1      78.398   0.168  62.910  1.00  0.00     0.009 C 
ATOM     15  C   UNL     1      78.213   0.617  64.372  1.00  0.00     0.021 C 
ATOM     16  C   UNL     1      80.481   1.535  65.225  1.00  0.00     0.008 C 
ATOM     17  C   UNL     1      78.388   2.856  65.569  1.00  0.00     0.012 C 
ATOM     18  C   UNL     1      78.558  -0.490  65.358  1.00  0.00    -0.067 C 
ATOM     19  C   UNL     1      80.989   0.110  64.953  1.00  0.00     0.009 C 
ATOM     20  C   UNL     1      79.992  -0.997  65.418  1.00  0.00     0.021 C 
ATOM     21  C   UNL     1      77.576  -1.073  66.065  1.00  0.00    -0.027 C 
ATOM     22  C   UNL     1      80.378  -1.732  66.760  1.00  0.00    -0.023 C 
ATOM     23  C   UNL     1      77.833  -2.006  67.206  1.00  0.00     0.031 C 
ATOM     24  C   UNL     1      79.215  -2.695  67.170  1.00  0.00     0.002 C 
ATOM     25  C   UNL     1      80.639  -0.733  67.923  1.00  0.00     0.010 C 
ATOM     26  C   UNL     1      81.662  -2.578  66.482  1.00  0.00     0.012 C 
ATOM     27  C   UNL     1      79.483  -3.408  68.525  1.00  0.00     0.036 C 
ATOM     28  C   UNL     1      80.963  -1.435  69.253  1.00  0.00     0.032 C 
ATOM     29  C   UNL     1      79.897  -2.463  69.676  1.00  0.00     0.114 C 
BRANCH  29  30
ATOM     30  O   UNL     1      78.771  -1.812  70.204  1.00  0.00    -0.393 OA
ATOM     31  H   UNL     1      78.260  -1.444  69.436  1.00  0.00     0.210 HD
ENDBRANCH  29  30
ENDBRANCH   1  11
TORSDOF 6
ENDMDL
MODEL 2
REMARK VINA RESULT:    80.907     10.816     13.970
REMARK INTER + INTRA:         106.643
REMARK INTER:                 107.660
REMARK INTRA:                  -1.017
REMARK UNBOUND:                -0.278
REMARK SMILES CC[C@H](C=C[C@H](C)[C@@H]1CC[C@H]2C3=CC[C@@H]4C[C@H](O)CC[C@]4(C)[C@@H]3CC[C@]21C)C(C)C
REMARK SMILES IDX 6 1 7 2 5 3 4 4 3 5 2 6 1 7 28 8 29 9 30 10 8 11 9 12 26 13
REMARK SMILES IDX 10 14 11 15 25 16 27 17 12 18 24 19 23 20 13 21 21 22 14 23
REMARK SMILES IDX 15 24 20 25 22 26 16 27 19 28 17 29 18 30
REMARK H PARENT 18 31
REMARK Flexibility Score: inf
ROOT
ATOM      1  C   UNL     1      81.705   3.947  74.306  1.00  0.00     0.012 C 
ATOM      2  C   UNL     1      80.994   4.009  72.935  1.00  0.00     0.012 C 
ENDROOT
BRANCH   1   3
ATOM      3  C   UNL     1      81.187   2.883  75.261  1.00  0.00    -0.028 C 
ATOM      4  C   UNL     1      79.888   2.648  75.527  1.00  0.00    -0.027 C 
BRANCH   4   5
ATOM      5  C   UNL     1      79.478   1.575  76.517  1.00  0.00     0.014 C 
BRANCH   5   6
ATOM      6  C   UNL     1      80.366   1.681  77.784  1.00  0.00     0.004 C 
ATOM      7  C   UNL     1      79.898   0.780  78.929  1.00  0.00     0.004 C 
ENDBRANCH   5   6
BRANCH   5   8
ATOM      8  C   UNL     1      77.944   1.589  76.814  1.00  0.00    -0.011 C 
ATOM      9  C   UNL     1      77.144   0.937  75.673  1.00  0.00     0.008 C 
ATOM     10  C   UNL     1      77.378   2.983  77.130  1.00  0.00     0.008 C 
ENDBRANCH   5   8
ENDBRANCH   4   5
ENDBRANCH   1   3
BRANCH   1  11
ATOM     11  C   UNL     1      83.276   3.978  74.260  1.00  0.00     0.002 C 
ATOM     12  C   UNL     1      83.863   3.008  75.297  1.00  0.00     0.005 C 
ATOM     13  C   UNL     1      84.035   5.335  74.494  1.00  0.00    -0.023 C 
ATOM     14  C   UNL     1      84.351   3.853  76.469  1.00  0.00     0.009 C 
ATOM     15  C   UNL     1      84.368   5.322  76.009  1.00  0.00     0.021 C 
ATOM     16  C   UNL     1      85.340   5.402  73.608  1.00  0.00     0.008 C 
ATOM     17  C   UNL     1      83.212   6.601  74.137  1.00  0.00     0.012 C 
ATOM     18  C   UNL     1      85.694   6.002  76.316  1.00  0.00    -0.067 C 
ATOM     19  C   UNL     1      86.605   4.824  74.263  1.00  0.00     0.009 C 
ATOM     20  C   UNL     1      86.953   5.497  75.627  1.00  0.00     0.021 C 
ATOM     21  C   UNL     1      85.745   6.949  77.267  1.00  0.00    -0.027 C 
ATOM     22  C   UNL     1      88.145   6.531  75.583  1.00  0.00    -0.023 C 
ATOM     23  C   UNL     1      86.939   7.822  77.489  1.00  0.00     0.031 C 
ATOM     24  C   UNL     1      88.270   7.228  76.979  1.00  0.00     0.002 C 
ATOM     25  C   UNL     1      87.936   7.621  74.493  1.00  0.00     0.010 C 
ATOM     26  C   UNL     1      89.455   5.731  75.297  1.00  0.00     0.012 C 
ATOM     27  C   UNL     1      89.377   8.318  77.002  1.00  0.00     0.036 C 
ATOM     28  C   UNL     1      89.062   8.670  74.474  1.00  0.00     0.032 C 
ATOM     29  C   UNL     1      89.298   9.337  75.842  1.00  0.00     0.114 C 
BRANCH  29  30
ATOM     30  O   UNL     1      88.304  10.295  76.098  1.00  0.00    -0.393 OA
ATOM     31  H   UNL     1      88.253  10.882  75.299  1.00  0.00     0.210 HD
ENDBRANCH  29  30
ENDBRANCH   1  11
TORSDOF 6
ENDMDL
MODEL 3
REMARK VINA RESULT:    81.890      3.080      9.583
REMARK INTER + INTRA:         107.942
REMARK INTER:                 107.143
REMARK INTRA:                   0.800
REMARK UNBOUND:                -0.278
REMARK SMILES CC[C@H](C=C[C@H](C)[C@@H]1CC[C@H]2C3=CC[C@@H]4C[C@H](O)CC[C@]4(C)[C@@H]3CC[C@]21C)C(C)C
REMARK SMILES IDX 6 1 7 2 5 3 4 4 3 5 2 6 1 7 28 8 29 9 30 10 8 11 9 12 26 13
REMARK SMILES IDX 10 14 11 15 25 16 27 17 12 18 24 19 23 20 13 21 21 22 14 23
REMARK SMILES IDX 15 24 20 25 22 26 16 27 19 28 17 29 18 30
REMARK H PARENT 18 31
REMARK Flexibility Score: inf
ROOT
ATOM      1  C   UNL     1      79.984  -2.642  69.663  1.00  0.00     0.012 C 
ATOM      2  C   UNL     1      79.669  -1.532  70.693  1.00  0.00     0.012 C 
ENDROOT
BRANCH   1   3
ATOM      3  C   UNL     1      79.923  -4.064  70.198  1.00  0.00    -0.028 C 
ATOM      4  C   UNL     1      79.197  -4.460  71.262  1.00  0.00    -0.027 C 
BRANCH   4   5
ATOM      5  C   UNL     1      79.226  -5.903  71.729  1.00  0.00     0.014 C 
BRANCH   5   6
ATOM      6  C   UNL     1      79.953  -5.983  73.096  1.00  0.00     0.004 C 
ATOM      7  C   UNL     1      80.057  -7.409  73.643  1.00  0.00     0.004 C 
ENDBRANCH   5   6
BRANCH   5   8
ATOM      8  C   UNL     1      77.809  -6.561  71.723  1.00  0.00    -0.011 C 
ATOM      9  C   UNL     1      77.243  -6.693  73.147  1.00  0.00     0.008 C 
ATOM     10  C   UNL     1      77.750  -7.918  71.001  1.00  0.00     0.008 C 
ENDBRANCH   5   8
ENDBRANCH   4   5
ENDBRANCH   1   3
BRANCH   1  11
ATOM     11  C   UNL     1      79.260  -2.507  68.275  1.00  0.00     0.002 C 
ATOM     12  C   UNL     1      79.941  -3.397  67.225  1.00  0.00     0.005 C 
ATOM     13  C   UNL     1      79.135  -1.094  67.596  1.00  0.00    -0.023 C 
ATOM     14  C   UNL     1      80.781  -2.480  66.343  1.00  0.00     0.009 C 
ATOM     15  C   UNL     1      80.354  -1.030  66.640  1.00  0.00     0.021 C 
ATOM     16  C   UNL     1      77.770  -0.972  66.813  1.00  0.00     0.008 C 
ATOM     17  C   UNL     1      79.166   0.099  68.586  1.00  0.00     0.012 C 
ATOM     18  C   UNL     1      80.051  -0.252  65.367  1.00  0.00    -0.067 C 
ATOM     19  C   UNL     1      77.811  -1.440  65.349  1.00  0.00     0.009 C 
ATOM     20  C   UNL     1      78.885  -0.696  64.496  1.00  0.00     0.021 C 
ATOM     21  C   UNL     1      80.882   0.731  64.982  1.00  0.00    -0.027 C 
ATOM     22  C   UNL     1      78.324   0.413  63.524  1.00  0.00    -0.023 C 
ATOM     23  C   UNL     1      80.560   1.690  63.880  1.00  0.00     0.031 C 
ATOM     24  C   UNL     1      79.523   1.167  62.860  1.00  0.00     0.002 C 
ATOM     25  C   UNL     1      77.429   1.446  64.267  1.00  0.00     0.010 C 
ATOM     26  C   UNL     1      77.499  -0.307  62.410  1.00  0.00     0.012 C 
ATOM     27  C   UNL     1      79.059   2.329  61.939  1.00  0.00     0.036 C 
ATOM     28  C   UNL     1      76.918   2.567  63.344  1.00  0.00     0.032 C 
ATOM     29  C   UNL     1      78.045   3.298  62.590  1.00  0.00     0.114 C 
BRANCH  29  30
ATOM     30  O   UNL     1      78.705   4.195  63.445  1.00  0.00    -0.393 OA
ATOM     31  H   UNL     1      79.626   3.848  63.577  1.00  0.00     0.210 HD
ENDBRANCH  29  30
ENDBRANCH   1  11
TORSDOF 6
ENDMDL
MODEL 4
REMARK VINA RESULT:    82.094      5.521      9.279
REMARK INTER + INTRA:         108.211
REMARK INTER:                 108.889
REMARK INTRA:                  -0.679
REMARK UNBOUND:                -0.278
REMARK SMILES CC[C@H](C=C[C@H](C)[C@@H]1CC[C@H]2C3=CC[C@@H]4C[C@H](O)CC[C@]4(C)[C@@H]3CC[C@]21C)C(C)C
REMARK SMILES IDX 6 1 7 2 5 3 4 4 3 5 2 6 1 7 28 8 29 9 30 10 8 11 9 12 26 13
REMARK SMILES IDX 10 14 11 15 25 16 27 17 12 18 24 19 23 20 13 21 21 22 14 23
REMARK SMILES IDX 15 24 20 25 22 26 16 27 19 28 17 29 18 30
REMARK H PARENT 18 31
REMARK Flexibility Score: inf
ROOT
ATOM      1  C   UNL     1      81.722  -2.664  69.367  1.00  0.00     0.012 C 
ATOM      2  C   UNL     1      81.158  -1.806  70.523  1.00  0.00     0.012 C 
ENDROOT
BRANCH   1   3
ATOM      3  C   UNL     1      81.017  -2.501  68.030  1.00  0.00    -0.028 C 
ATOM      4  C   UNL     1      80.238  -1.457  67.689  1.00  0.00    -0.027 C 
BRANCH   4   5
ATOM      5  C   UNL     1      79.559  -1.403  66.333  1.00  0.00     0.014 C 
BRANCH   5   6
ATOM      6  C   UNL     1      78.149  -2.038  66.442  1.00  0.00     0.004 C 
ATOM      7  C   UNL     1      77.748  -2.380  67.879  1.00  0.00     0.004 C 
ENDBRANCH   5   6
BRANCH   5   8
ATOM      8  C   UNL     1      79.564   0.033  65.718  1.00  0.00    -0.011 C 
ATOM      9  C   UNL     1      78.480   0.187  64.638  1.00  0.00     0.008 C 
ATOM     10  C   UNL     1      80.930   0.475  65.167  1.00  0.00     0.008 C 
ENDBRANCH   5   8
ENDBRANCH   4   5
ENDBRANCH   1   3
BRANCH   1  11
ATOM     11  C   UNL     1      83.286  -2.649  69.210  1.00  0.00     0.002 C 
ATOM     12  C   UNL     1      83.686  -2.006  67.873  1.00  0.00     0.005 C 
ATOM     13  C   UNL     1      84.088  -4.001  69.269  1.00  0.00    -0.023 C 
ATOM     14  C   UNL     1      84.075  -3.141  66.933  1.00  0.00     0.009 C 
ATOM     15  C   UNL     1      84.231  -4.416  67.782  1.00  0.00     0.021 C 
ATOM     16  C   UNL     1      85.493  -3.784  69.956  1.00  0.00     0.008 C 
ATOM     17  C   UNL     1      83.389  -5.127  70.076  1.00  0.00     0.012 C 
ATOM     18  C   UNL     1      85.547  -5.129  67.505  1.00  0.00    -0.067 C 
ATOM     19  C   UNL     1      86.633  -3.393  69.001  1.00  0.00     0.009 C 
ATOM     20  C   UNL     1      86.850  -4.422  67.849  1.00  0.00     0.021 C 
ATOM     21  C   UNL     1      85.536  -6.308  66.862  1.00  0.00    -0.027 C 
ATOM     22  C   UNL     1      88.095  -5.376  68.023  1.00  0.00    -0.023 C 
ATOM     23  C   UNL     1      86.742  -7.184  66.738  1.00  0.00     0.031 C 
ATOM     24  C   UNL     1      88.089  -6.441  66.877  1.00  0.00     0.002 C 
ATOM     25  C   UNL     1      88.085  -6.111  69.394  1.00  0.00     0.010 C 
ATOM     26  C   UNL     1      89.383  -4.501  67.895  1.00  0.00     0.012 C 
ATOM     27  C   UNL     1      89.246  -7.470  67.015  1.00  0.00     0.036 C 
ATOM     28  C   UNL     1      89.262  -7.087  69.558  1.00  0.00     0.032 C 
ATOM     29  C   UNL     1      89.368  -8.115  68.415  1.00  0.00     0.114 C 
BRANCH  29  30
ATOM     30  O   UNL     1      88.406  -9.125  68.574  1.00  0.00    -0.393 OA
ATOM     31  H   UNL     1      87.649  -8.904  67.971  1.00  0.00     0.210 HD
ENDBRANCH  29  30
ENDBRANCH   1  11
TORSDOF 6
ENDMDL
