MODEL 1
REMARK VINA RESULT:    -4.742      0.000      0.000
REMARK INTER + INTRA:          -7.789
REMARK INTER:                  -6.405
REMARK INTRA:                  -1.384
REMARK UNBOUND:                -1.384
REMARK SMILES CC(=O)CCC=C(C)CCC=C(C)C
REMARK SMILES IDX 7 1 6 2 8 3 9 4 10 5 11 6 13 7 12 8 14 9 5 10 4 11 2 12 3 13
REMARK SMILES IDX 1 14
REMARK H PARENT
REMARK Flexibility Score: inf
ROOT
ATOM      1  C   UNL     1      13.670 -20.082 -22.038  1.00  0.00    -0.077 C 
ATOM      2  C   UNL     1      13.306 -18.812 -22.334  1.00  0.00    -0.028 C 
ATOM      3  C   UNL     1      14.400 -20.872 -23.094  1.00  0.00     0.039 C 
ENDROOT
BRANCH   1   4
ATOM      4  C   UNL     1      13.373 -20.748 -20.706  1.00  0.00     0.034 C 
BRANCH   4   5
ATOM      5  C   UNL     1      14.625 -20.803 -19.822  1.00  0.00     0.032 C 
BRANCH   5   6
ATOM      6  C   UNL     1      14.648 -19.643 -18.859  1.00  0.00    -0.028 C 
ATOM      7  C   UNL     1      16.361 -18.377 -20.176  1.00  0.00     0.039 C 
ATOM      8  C   UNL     1      15.442 -18.557 -18.991  1.00  0.00    -0.080 C 
ATOM      9  C   UNL     1      15.386 -17.492 -17.925  1.00  0.00     0.039 C 
ENDBRANCH   5   6
ENDBRANCH   4   5
ENDBRANCH   1   4
BRANCH   2  10
ATOM     10  C   UNL     1      12.597 -17.853 -21.404  1.00  0.00     0.035 C 
BRANCH  10  11
ATOM     11  C   UNL     1      11.076 -17.929 -21.586  1.00  0.00     0.079 C 
BRANCH  11  12
ATOM     12  C   UNL     1      10.373 -18.273 -20.297  1.00  0.00     0.130 C 
ATOM     13  O   UNL     1       9.389 -18.998 -20.324  1.00  0.00    -0.300 OA
ATOM     14  C   UNL     1      10.859 -17.750 -18.978  1.00  0.00     0.087 C 
ENDBRANCH  11  12
ENDBRANCH  10  11
ENDBRANCH   2  10
TORSDOF 6
ENDMDL
MODEL 2
REMARK VINA RESULT:    -4.580      2.556      4.603
REMARK INTER + INTRA:          -7.570
REMARK INTER:                  -6.191
REMARK INTRA:                  -1.379
REMARK UNBOUND:                -1.384
REMARK SMILES CC(=O)CCC=C(C)CCC=C(C)C
REMARK SMILES IDX 7 1 6 2 8 3 9 4 10 5 11 6 13 7 12 8 14 9 5 10 4 11 2 12 3 13
REMARK SMILES IDX 1 14
REMARK H PARENT
REMARK Flexibility Score: inf
ROOT
ATOM      1  C   UNL     1      13.457 -18.735 -19.429  1.00  0.00    -0.077 C 
ATOM      2  C   UNL     1      13.629 -19.725 -20.336  1.00  0.00    -0.028 C 
ATOM      3  C   UNL     1      12.394 -17.701 -19.706  1.00  0.00     0.039 C 
ENDROOT
BRANCH   1   4
ATOM      4  C   UNL     1      14.281 -18.609 -18.161  1.00  0.00     0.034 C 
BRANCH   4   5
ATOM      5  C   UNL     1      15.252 -17.426 -18.244  1.00  0.00     0.032 C 
BRANCH   5   6
ATOM      6  C   UNL     1      16.630 -17.895 -18.638  1.00  0.00    -0.028 C 
ATOM      7  C   UNL     1      16.378 -17.151 -21.016  1.00  0.00     0.039 C 
ATOM      8  C   UNL     1      17.141 -17.801 -19.886  1.00  0.00    -0.080 C 
ATOM      9  C   UNL     1      18.522 -18.351 -20.140  1.00  0.00     0.039 C 
ENDBRANCH   5   6
ENDBRANCH   4   5
ENDBRANCH   1   4
BRANCH   2  10
ATOM     10  C   UNL     1      14.617 -20.866 -20.226  1.00  0.00     0.035 C 
BRANCH  10  11
ATOM     11  C   UNL     1      15.635 -20.828 -21.372  1.00  0.00     0.079 C 
BRANCH  11  12
ATOM     12  C   UNL     1      15.450 -21.981 -22.326  1.00  0.00     0.130 C 
ATOM     13  O   UNL     1      15.746 -23.111 -21.968  1.00  0.00    -0.300 OA
ATOM     14  C   UNL     1      14.901 -21.773 -23.706  1.00  0.00     0.087 C 
ENDBRANCH  11  12
ENDBRANCH  10  11
ENDBRANCH   2  10
TORSDOF 6
ENDMDL
MODEL 3
REMARK VINA RESULT:    -4.576      2.806      5.325
REMARK INTER + INTRA:          -7.565
REMARK INTER:                  -5.844
REMARK INTRA:                  -1.721
REMARK UNBOUND:                -1.384
REMARK SMILES CC(=O)CCC=C(C)CCC=C(C)C
REMARK SMILES IDX 7 1 6 2 8 3 9 4 10 5 11 6 13 7 12 8 14 9 5 10 4 11 2 12 3 13
REMARK SMILES IDX 1 14
REMARK H PARENT
REMARK Flexibility Score: inf
ROOT
ATOM      1  C   UNL     1      15.018 -18.088 -18.167  1.00  0.00    -0.077 C 
ATOM      2  C   UNL     1      16.343 -17.975 -18.422  1.00  0.00    -0.028 C 
ATOM      3  C   UNL     1      14.598 -18.840 -16.929  1.00  0.00     0.039 C 
ENDROOT
BRANCH   1   4
ATOM      4  C   UNL     1      13.941 -17.507 -19.065  1.00  0.00     0.034 C 
BRANCH   4   5
ATOM      5  C   UNL     1      12.998 -18.600 -19.580  1.00  0.00     0.032 C 
BRANCH   5   6
ATOM      6  C   UNL     1      13.358 -18.994 -20.990  1.00  0.00    -0.028 C 
ATOM      7  C   UNL     1      14.764 -20.934 -20.259  1.00  0.00     0.039 C 
ATOM      8  C   UNL     1      14.171 -20.026 -21.311  1.00  0.00    -0.080 C 
ATOM      9  C   UNL     1      14.475 -20.275 -22.766  1.00  0.00     0.039 C 
ENDBRANCH   5   6
ENDBRANCH   4   5
ENDBRANCH   1   4
BRANCH   2  10
ATOM     10  C   UNL     1      16.961 -17.239 -19.590  1.00  0.00     0.035 C 
BRANCH  10  11
ATOM     11  C   UNL     1      17.543 -18.220 -20.616  1.00  0.00     0.079 C 
BRANCH  11  12
ATOM     12  C   UNL     1      17.158 -17.851 -22.027  1.00  0.00     0.130 C 
ATOM     13  O   UNL     1      17.746 -18.367 -22.965  1.00  0.00    -0.300 OA
ATOM     14  C   UNL     1      16.060 -16.868 -22.305  1.00  0.00     0.087 C 
ENDBRANCH  11  12
ENDBRANCH  10  11
ENDBRANCH   2  10
TORSDOF 6
ENDMDL
MODEL 4
REMARK VINA RESULT:    -4.557      1.516      2.056
REMARK INTER + INTRA:          -7.540
REMARK INTER:                  -6.219
REMARK INTRA:                  -1.321
REMARK UNBOUND:                -1.384
REMARK SMILES CC(=O)CCC=C(C)CCC=C(C)C
REMARK SMILES IDX 7 1 6 2 8 3 9 4 10 5 11 6 13 7 12 8 14 9 5 10 4 11 2 12 3 13
REMARK SMILES IDX 1 14
REMARK H PARENT
REMARK Flexibility Score: inf
ROOT
ATOM      1  C   UNL     1      14.874 -17.921 -21.891  1.00  0.00    -0.077 C 
ATOM      2  C   UNL     1      13.769 -17.162 -21.701  1.00  0.00    -0.028 C 
ATOM      3  C   UNL     1      16.157 -17.221 -22.262  1.00  0.00     0.039 C 
ENDROOT
BRANCH   1   4
ATOM      4  C   UNL     1      14.883 -19.433 -21.759  1.00  0.00     0.034 C 
BRANCH   4   5
ATOM      5  C   UNL     1      15.786 -19.884 -20.605  1.00  0.00     0.032 C 
BRANCH   5   6
ATOM      6  C   UNL     1      15.043 -19.827 -19.294  1.00  0.00    -0.028 C 
ATOM      7  C   UNL     1      16.296 -17.814 -18.488  1.00  0.00     0.039 C 
ATOM      8  C   UNL     1      15.278 -18.918 -18.322  1.00  0.00    -0.080 C 
ATOM      9  C   UNL     1      14.483 -19.010 -17.045  1.00  0.00     0.039 C 
ENDBRANCH   5   6
ENDBRANCH   4   5
ENDBRANCH   1   4
BRANCH   2  10
ATOM     10  C   UNL     1      12.403 -17.671 -21.298  1.00  0.00     0.035 C 
BRANCH  10  11
ATOM     11  C   UNL     1      12.208 -17.587 -19.779  1.00  0.00     0.079 C 
BRANCH  11  12
ATOM     12  C   UNL     1      10.795 -17.927 -19.374  1.00  0.00     0.130 C 
ATOM     13  O   UNL     1      10.388 -17.591 -18.272  1.00  0.00    -0.300 OA
ATOM     14  C   UNL     1       9.873 -18.662 -20.300  1.00  0.00     0.087 C 
ENDBRANCH  11  12
ENDBRANCH  10  11
ENDBRANCH   2  10
TORSDOF 6
ENDMDL
MODEL 5
REMARK VINA RESULT:    -4.556      2.393      5.611
REMARK INTER + INTRA:          -7.538
REMARK INTER:                  -6.644
REMARK INTRA:                  -0.894
REMARK UNBOUND:                -1.384
REMARK SMILES CC(=O)CCC=C(C)CCC=C(C)C
REMARK SMILES IDX 7 1 6 2 8 3 9 4 10 5 11 6 13 7 12 8 14 9 5 10 4 11 2 12 3 13
REMARK SMILES IDX 1 14
REMARK H PARENT
REMARK Flexibility Score: inf
ROOT
ATOM      1  C   UNL     1      11.446 -17.908 -19.568  1.00  0.00    -0.077 C 
ATOM      2  C   UNL     1      12.701 -17.401 -19.530  1.00  0.00    -0.028 C 
ATOM      3  C   UNL     1      10.491 -17.515 -18.470  1.00  0.00     0.039 C 
ENDROOT
BRANCH   1   4
ATOM      4  C   UNL     1      10.959 -18.853 -20.652  1.00  0.00     0.034 C 
BRANCH   4   5
ATOM      5  C   UNL     1       9.738 -18.280 -21.380  1.00  0.00     0.032 C 
BRANCH   5   6
ATOM      6  C   UNL     1      10.142 -17.145 -22.287  1.00  0.00    -0.028 C 
ATOM      7  C   UNL     1       9.728 -18.458 -24.379  1.00  0.00     0.039 C 
ATOM      8  C   UNL     1      10.167 -17.218 -23.637  1.00  0.00    -0.080 C 
ATOM      9  C   UNL     1      10.634 -16.013 -24.413  1.00  0.00     0.039 C 
ENDBRANCH   5   6
ENDBRANCH   4   5
ENDBRANCH   1   4
BRANCH   2  10
ATOM     10  C   UNL     1      13.790 -17.651 -20.550  1.00  0.00     0.035 C 
BRANCH  10  11
ATOM     11  C   UNL     1      15.110 -18.031 -19.868  1.00  0.00     0.079 C 
BRANCH  11  12
ATOM     12  C   UNL     1      14.952 -19.233 -18.971  1.00  0.00     0.130 C 
ATOM     13  O   UNL     1      15.161 -19.121 -17.772  1.00  0.00    -0.300 OA
ATOM     14  C   UNL     1      14.536 -20.566 -19.518  1.00  0.00     0.087 C 
ENDBRANCH  11  12
ENDBRANCH  10  11
ENDBRANCH   2  10
TORSDOF 6
ENDMDL
MODEL 6
REMARK VINA RESULT:    -4.534      3.651      5.579
REMARK INTER + INTRA:          -7.508
REMARK INTER:                  -6.694
REMARK INTRA:                  -0.814
REMARK UNBOUND:                -1.384
REMARK SMILES CC(=O)CCC=C(C)CCC=C(C)C
REMARK SMILES IDX 7 1 6 2 8 3 9 4 10 5 11 6 13 7 12 8 14 9 5 10 4 11 2 12 3 13
REMARK SMILES IDX 1 14
REMARK H PARENT
REMARK Flexibility Score: inf
ROOT
ATOM      1  C   UNL     1      14.356 -20.720 -22.759  1.00  0.00    -0.077 C 
ATOM      2  C   UNL     1      14.592 -21.348 -23.935  1.00  0.00    -0.028 C 
ATOM      3  C   UNL     1      13.737 -19.346 -22.804  1.00  0.00     0.039 C 
ENDROOT
BRANCH   1   4
ATOM      4  C   UNL     1      14.688 -21.325 -21.407  1.00  0.00     0.034 C 
BRANCH   4   5
ATOM      5  C   UNL     1      13.749 -20.796 -20.317  1.00  0.00     0.032 C 
BRANCH   5   6
ATOM      6  C   UNL     1      14.537 -20.238 -19.159  1.00  0.00    -0.028 C 
ATOM      7  C   UNL     1      13.471 -17.977 -19.315  1.00  0.00     0.039 C 
ATOM      8  C   UNL     1      14.442 -18.965 -18.713  1.00  0.00    -0.080 C 
ATOM      9  C   UNL     1      15.325 -18.537 -17.569  1.00  0.00     0.039 C 
ENDBRANCH   5   6
ENDBRANCH   4   5
ENDBRANCH   1   4
BRANCH   2  10
ATOM     10  C   UNL     1      15.175 -22.734 -24.099  1.00  0.00     0.035 C 
BRANCH  10  11
ATOM     11  C   UNL     1      16.698 -22.677 -24.272  1.00  0.00     0.079 C 
BRANCH  11  12
ATOM     12  C   UNL     1      17.385 -23.829 -23.584  1.00  0.00     0.130 C 
ATOM     13  O   UNL     1      18.437 -24.258 -24.035  1.00  0.00    -0.300 OA
ATOM     14  C   UNL     1      16.810 -24.458 -22.350  1.00  0.00     0.087 C 
ENDBRANCH  11  12
ENDBRANCH  10  11
ENDBRANCH   2  10
TORSDOF 6
ENDMDL
MODEL 7
REMARK VINA RESULT:    -4.528      1.936      3.760
REMARK INTER + INTRA:          -7.501
REMARK INTER:                  -6.576
REMARK INTRA:                  -0.925
REMARK UNBOUND:                -1.384
REMARK SMILES CC(=O)CCC=C(C)CCC=C(C)C
REMARK SMILES IDX 7 1 6 2 8 3 9 4 10 5 11 6 13 7 12 8 14 9 5 10 4 11 2 12 3 13
REMARK SMILES IDX 1 14
REMARK H PARENT
REMARK Flexibility Score: inf
ROOT
ATOM      1  C   UNL     1      14.684 -18.958 -18.045  1.00  0.00    -0.077 C 
ATOM      2  C   UNL     1      14.642 -20.138 -18.708  1.00  0.00    -0.028 C 
ATOM      3  C   UNL     1      14.766 -18.996 -16.540  1.00  0.00     0.039 C 
ENDROOT
BRANCH   1   4
ATOM      4  C   UNL     1      14.645 -17.608 -18.737  1.00  0.00     0.034 C 
BRANCH   4   5
ATOM      5  C   UNL     1      15.826 -17.444 -19.701  1.00  0.00     0.032 C 
BRANCH   5   6
ATOM      6  C   UNL     1      17.124 -17.349 -18.941  1.00  0.00    -0.028 C 
ATOM      7  C   UNL     1      18.342 -18.869 -20.516  1.00  0.00     0.039 C 
ATOM      8  C   UNL     1      18.258 -18.003 -19.281  1.00  0.00    -0.080 C 
ATOM      9  C   UNL     1      19.471 -17.843 -18.400  1.00  0.00     0.039 C 
ENDBRANCH   5   6
ENDBRANCH   4   5
ENDBRANCH   1   4
BRANCH   2  10
ATOM     10  C   UNL     1      14.589 -20.310 -20.210  1.00  0.00     0.035 C 
BRANCH  10  11
ATOM     11  C   UNL     1      13.150 -20.538 -20.690  1.00  0.00     0.079 C 
BRANCH  11  12
ATOM     12  C   UNL     1      12.477 -19.247 -21.081  1.00  0.00     0.130 C 
ATOM     13  O   UNL     1      12.842 -18.659 -22.089  1.00  0.00    -0.300 OA
ATOM     14  C   UNL     1      11.360 -18.669 -20.264  1.00  0.00     0.087 C 
ENDBRANCH  11  12
ENDBRANCH  10  11
ENDBRANCH   2  10
TORSDOF 6
ENDMDL
MODEL 8
REMARK VINA RESULT:    -4.522      1.245      3.542
REMARK INTER + INTRA:          -7.492
REMARK INTER:                  -6.119
REMARK INTRA:                  -1.374
REMARK UNBOUND:                -1.384
REMARK SMILES CC(=O)CCC=C(C)CCC=C(C)C
REMARK SMILES IDX 7 1 6 2 8 3 9 4 10 5 11 6 13 7 12 8 14 9 5 10 4 11 2 12 3 13
REMARK SMILES IDX 1 14
REMARK H PARENT
REMARK Flexibility Score: inf
ROOT
ATOM      1  C   UNL     1      14.932 -17.643 -19.227  1.00  0.00    -0.077 C 
ATOM      2  C   UNL     1      13.600 -17.620 -19.471  1.00  0.00    -0.028 C 
ATOM      3  C   UNL     1      15.386 -17.834 -17.802  1.00  0.00     0.039 C 
ENDROOT
BRANCH   1   4
ATOM      4  C   UNL     1      15.983 -17.479 -20.310  1.00  0.00     0.034 C 
BRANCH   4   5
ATOM      5  C   UNL     1      16.682 -18.810 -20.612  1.00  0.00     0.032 C 
BRANCH   5   6
ATOM      6  C   UNL     1      16.042 -19.491 -21.795  1.00  0.00    -0.028 C 
ATOM      7  C   UNL     1      14.747 -21.096 -20.374  1.00  0.00     0.039 C 
ATOM      8  C   UNL     1      15.189 -20.536 -21.706  1.00  0.00    -0.080 C 
ATOM      9  C   UNL     1      14.659 -21.142 -22.980  1.00  0.00     0.039 C 
ENDBRANCH   5   6
ENDBRANCH   4   5
ENDBRANCH   1   4
BRANCH   2  10
ATOM     10  C   UNL     1      12.950 -17.470 -20.828  1.00  0.00     0.035 C 
BRANCH  10  11
ATOM     11  C   UNL     1      11.994 -18.634 -21.115  1.00  0.00     0.079 C 
BRANCH  11  12
ATOM     12  C   UNL     1      10.556 -18.255 -20.862  1.00  0.00     0.130 C 
ATOM     13  O   UNL     1      10.120 -18.276 -19.721  1.00  0.00    -0.300 OA
ATOM     14  C   UNL     1       9.648 -17.845 -21.983  1.00  0.00     0.087 C 
ENDBRANCH  11  12
ENDBRANCH  10  11
ENDBRANCH   2  10
TORSDOF 6
ENDMDL
MODEL 9
REMARK VINA RESULT:    -4.435      3.652      5.669
REMARK INTER + INTRA:          -7.375
REMARK INTER:                  -6.504
REMARK INTRA:                  -0.871
REMARK UNBOUND:                -1.384
REMARK SMILES CC(=O)CCC=C(C)CCC=C(C)C
REMARK SMILES IDX 7 1 6 2 8 3 9 4 10 5 11 6 13 7 12 8 14 9 5 10 4 11 2 12 3 13
REMARK SMILES IDX 1 14
REMARK H PARENT
REMARK Flexibility Score: inf
ROOT
ATOM      1  C   UNL     1      14.243 -20.579 -21.440  1.00  0.00    -0.077 C 
ATOM      2  C   UNL     1      15.035 -21.671 -21.542  1.00  0.00    -0.028 C 
ATOM      3  C   UNL     1      13.159 -20.588 -20.391  1.00  0.00     0.039 C 
ENDROOT
BRANCH   1   4
ATOM      4  C   UNL     1      14.385 -19.356 -22.328  1.00  0.00     0.034 C 
BRANCH   4   5
ATOM      5  C   UNL     1      14.395 -18.066 -21.499  1.00  0.00     0.032 C 
BRANCH   5   6
ATOM      6  C   UNL     1      15.714 -17.900 -20.788  1.00  0.00    -0.028 C 
ATOM      7  C   UNL     1      14.647 -17.589 -18.543  1.00  0.00     0.039 C 
ATOM      8  C   UNL     1      15.843 -17.660 -19.464  1.00  0.00    -0.080 C 
ATOM      9  C   UNL     1      17.228 -17.475 -18.899  1.00  0.00     0.039 C 
ENDBRANCH   5   6
ENDBRANCH   4   5
ENDBRANCH   1   4
BRANCH   2  10
ATOM     10  C   UNL     1      16.190 -21.842 -22.505  1.00  0.00     0.035 C 
BRANCH  10  11
ATOM     11  C   UNL     1      16.066 -23.155 -23.288  1.00  0.00     0.079 C 
BRANCH  11  12
ATOM     12  C   UNL     1      17.249 -24.061 -23.055  1.00  0.00     0.130 C 
ATOM     13  O   UNL     1      18.290 -23.860 -23.663  1.00  0.00    -0.300 OA
ATOM     14  C   UNL     1      17.180 -25.202 -22.084  1.00  0.00     0.087 C 
ENDBRANCH  11  12
ENDBRANCH  10  11
ENDBRANCH   2  10
TORSDOF 6
ENDMDL
