MODEL 1
REMARK VINA RESULT:    -5.849      0.000      0.000
REMARK INTER + INTRA:          -8.695
REMARK INTER:                  -7.900
REMARK INTRA:                  -0.794
REMARK UNBOUND:                -0.794
REMARK SMILES CC(=O)CCC=C(C)CCC=C(C)C
REMARK SMILES IDX 7 1 6 2 8 3 9 4 10 5 11 6 13 7 12 8 14 9 5 10 4 11 2 12 3 13
REMARK SMILES IDX 1 14
REMARK H PARENT
REMARK Flexibility Score: inf
ROOT
ATOM      1  C   UNL     1       2.665  13.285  28.097  1.00  0.00    -0.077 C 
ATOM      2  C   UNL     1       1.659  14.020  28.619  1.00  0.00    -0.028 C 
ATOM      3  C   UNL     1       2.666  11.777  28.184  1.00  0.00     0.039 C 
ENDROOT
BRANCH   1   4
ATOM      4  C   UNL     1       3.819  13.989  27.411  1.00  0.00     0.034 C 
BRANCH   4   5
ATOM      5  C   UNL     1       5.154  13.736  28.128  1.00  0.00     0.032 C 
BRANCH   5   6
ATOM      6  C   UNL     1       6.023  14.971  28.146  1.00  0.00    -0.028 C 
ATOM      7  C   UNL     1       7.274  16.847  29.163  1.00  0.00     0.039 C 
ATOM      8  C   UNL     1       6.374  15.643  29.266  1.00  0.00    -0.080 C 
ATOM      9  C   UNL     1       5.845  15.266  30.628  1.00  0.00     0.039 C 
ENDBRANCH   5   6
ENDBRANCH   4   5
ENDBRANCH   1   4
BRANCH   2  10
ATOM     10  C   UNL     1       0.461  13.408  29.308  1.00  0.00     0.035 C 
BRANCH  10  11
ATOM     11  C   UNL     1       0.414  13.763  30.799  1.00  0.00     0.079 C 
BRANCH  11  12
ATOM     12  C   UNL     1       1.363  12.912  31.604  1.00  0.00     0.130 C 
ATOM     13  O   UNL     1       0.957  11.881  32.120  1.00  0.00    -0.300 OA
ATOM     14  C   UNL     1       2.801  13.300  31.782  1.00  0.00     0.087 C 
ENDBRANCH  11  12
ENDBRANCH  10  11
ENDBRANCH   2  10
TORSDOF 6
ENDMDL
MODEL 2
REMARK VINA RESULT:    -5.760      1.332      2.067
REMARK INTER + INTRA:          -8.574
REMARK INTER:                  -7.862
REMARK INTRA:                  -0.712
REMARK UNBOUND:                -0.794
REMARK SMILES CC(=O)CCC=C(C)CCC=C(C)C
REMARK SMILES IDX 7 1 6 2 8 3 9 4 10 5 11 6 13 7 12 8 14 9 5 10 4 11 2 12 3 13
REMARK SMILES IDX 1 14
REMARK H PARENT
REMARK Flexibility Score: inf
ROOT
ATOM      1  C   UNL     1       3.497  11.452  28.720  1.00  0.00    -0.077 C 
ATOM      2  C   UNL     1       2.313  11.640  29.342  1.00  0.00    -0.028 C 
ATOM      3  C   UNL     1       4.579  10.593  29.328  1.00  0.00     0.039 C 
ENDROOT
BRANCH   1   4
ATOM      4  C   UNL     1       3.744  12.118  27.381  1.00  0.00     0.034 C 
BRANCH   4   5
ATOM      5  C   UNL     1       3.541  13.639  27.451  1.00  0.00     0.032 C 
BRANCH   5   6
ATOM      6  C   UNL     1       4.858  14.378  27.514  1.00  0.00    -0.028 C 
ATOM      7  C   UNL     1       6.839  15.391  28.594  1.00  0.00     0.039 C 
ATOM      8  C   UNL     1       5.514  14.675  28.658  1.00  0.00    -0.080 C 
ATOM      9  C   UNL     1       4.938  14.368  30.018  1.00  0.00     0.039 C 
ENDBRANCH   5   6
ENDBRANCH   4   5
ENDBRANCH   1   4
BRANCH   2  10
ATOM     10  C   UNL     1       1.969  11.007  30.671  1.00  0.00     0.035 C 
BRANCH  10  11
ATOM     11  C   UNL     1       1.705  12.057  31.756  1.00  0.00     0.079 C 
BRANCH  11  12
ATOM     12  C   UNL     1       0.433  12.822  31.493  1.00  0.00     0.130 C 
ATOM     13  O   UNL     1      -0.579  12.539  32.116  1.00  0.00    -0.300 OA
ATOM     14  C   UNL     1       0.384  13.932  30.485  1.00  0.00     0.087 C 
ENDBRANCH  11  12
ENDBRANCH  10  11
ENDBRANCH   2  10
TORSDOF 6
ENDMDL
MODEL 3
REMARK VINA RESULT:    -5.724      2.185      5.277
REMARK INTER + INTRA:          -8.527
REMARK INTER:                  -7.775
REMARK INTRA:                  -0.752
REMARK UNBOUND:                -0.794
REMARK SMILES CC(=O)CCC=C(C)CCC=C(C)C
REMARK SMILES IDX 7 1 6 2 8 3 9 4 10 5 11 6 13 7 12 8 14 9 5 10 4 11 2 12 3 13
REMARK SMILES IDX 1 14
REMARK H PARENT
REMARK Flexibility Score: inf
ROOT
ATOM      1  C   UNL     1       3.858  11.790  28.405  1.00  0.00    -0.077 C 
ATOM      2  C   UNL     1       4.614  12.822  28.838  1.00  0.00    -0.028 C 
ATOM      3  C   UNL     1       3.011  11.902  27.159  1.00  0.00     0.039 C 
ENDROOT
BRANCH   1   4
ATOM      4  C   UNL     1       3.859  10.491  29.186  1.00  0.00     0.034 C 
BRANCH   4   5
ATOM      5  C   UNL     1       3.655  10.726  30.690  1.00  0.00     0.032 C 
BRANCH   5   6
ATOM      6  C   UNL     1       2.221  11.077  31.013  1.00  0.00    -0.028 C 
ATOM      7  C   UNL     1       0.349  12.525  31.734  1.00  0.00     0.039 C 
ATOM      8  C   UNL     1       1.814  12.281  31.475  1.00  0.00    -0.080 C 
ATOM      9  C   UNL     1       2.786  13.386  31.805  1.00  0.00     0.039 C 
ENDBRANCH   5   6
ENDBRANCH   4   5
ENDBRANCH   1   4
BRANCH   2  10
ATOM     10  C   UNL     1       4.688  14.149  28.119  1.00  0.00     0.035 C 
BRANCH  10  11
ATOM     11  C   UNL     1       6.120  14.696  28.070  1.00  0.00     0.079 C 
BRANCH  11  12
ATOM     12  C   UNL     1       6.405  15.617  29.230  1.00  0.00     0.130 C 
ATOM     13  O   UNL     1       5.995  15.325  30.344  1.00  0.00    -0.300 OA
ATOM     14  C   UNL     1       7.187  16.884  29.048  1.00  0.00     0.087 C 
ENDBRANCH  11  12
ENDBRANCH  10  11
ENDBRANCH   2  10
TORSDOF 6
ENDMDL
MODEL 4
REMARK VINA RESULT:    -5.612      2.135      4.572
REMARK INTER + INTRA:          -8.374
REMARK INTER:                  -7.172
REMARK INTRA:                  -1.202
REMARK UNBOUND:                -0.794
REMARK SMILES CC(=O)CCC=C(C)CCC=C(C)C
REMARK SMILES IDX 7 1 6 2 8 3 9 4 10 5 11 6 13 7 12 8 14 9 5 10 4 11 2 12 3 13
REMARK SMILES IDX 1 14
REMARK H PARENT
REMARK Flexibility Score: inf
ROOT
ATOM      1  C   UNL     1       1.240  13.150  29.330  1.00  0.00    -0.077 C 
ATOM      2  C   UNL     1       2.108  12.189  28.946  1.00  0.00    -0.028 C 
ATOM      3  C   UNL     1       1.158  14.473  28.605  1.00  0.00     0.039 C 
ENDROOT
BRANCH   1   4
ATOM      4  C   UNL     1       0.328  12.896  30.514  1.00  0.00     0.034 C 
BRANCH   4   5
ATOM      5  C   UNL     1       1.123  12.622  31.800  1.00  0.00     0.032 C 
BRANCH   5   6
ATOM      6  C   UNL     1       2.257  13.604  31.979  1.00  0.00    -0.028 C 
ATOM      7  C   UNL     1       4.610  14.332  32.211  1.00  0.00     0.039 C 
ATOM      8  C   UNL     1       3.561  13.259  32.064  1.00  0.00    -0.080 C 
ATOM      9  C   UNL     1       4.012  11.819  32.078  1.00  0.00     0.039 C 
ENDBRANCH   5   6
ENDBRANCH   4   5
ENDBRANCH   1   4
BRANCH   2  10
ATOM     10  C   UNL     1       3.045  12.345  27.770  1.00  0.00     0.035 C 
BRANCH  10  11
ATOM     11  C   UNL     1       4.477  12.663  28.215  1.00  0.00     0.079 C 
BRANCH  11  12
ATOM     12  C   UNL     1       4.864  14.080  27.876  1.00  0.00     0.130 C 
ATOM     13  O   UNL     1       4.346  14.632  26.916  1.00  0.00    -0.300 OA
ATOM     14  C   UNL     1       5.868  14.834  28.696  1.00  0.00     0.087 C 
ENDBRANCH  11  12
ENDBRANCH  10  11
ENDBRANCH   2  10
TORSDOF 6
ENDMDL
MODEL 5
REMARK VINA RESULT:    -5.585      1.313      1.837
REMARK INTER + INTRA:          -8.339
REMARK INTER:                  -7.796
REMARK INTRA:                  -0.543
REMARK UNBOUND:                -0.794
REMARK SMILES CC(=O)CCC=C(C)CCC=C(C)C
REMARK SMILES IDX 7 1 6 2 8 3 9 4 10 5 11 6 13 7 12 8 14 9 5 10 4 11 2 12 3 13
REMARK SMILES IDX 1 14
REMARK H PARENT
REMARK Flexibility Score: inf
ROOT
ATOM      1  C   UNL     1       1.726  13.878  28.948  1.00  0.00    -0.077 C 
ATOM      2  C   UNL     1       2.047  13.423  30.179  1.00  0.00    -0.028 C 
ATOM      3  C   UNL     1       0.321  14.323  28.614  1.00  0.00     0.039 C 
ENDROOT
BRANCH   1   4
ATOM      4  C   UNL     1       2.799  13.945  27.880  1.00  0.00     0.034 C 
BRANCH   4   5
ATOM      5  C   UNL     1       4.119  13.318  28.353  1.00  0.00     0.032 C 
BRANCH   5   6
ATOM      6  C   UNL     1       5.284  14.264  28.175  1.00  0.00    -0.028 C 
ATOM      7  C   UNL     1       7.062  15.830  28.886  1.00  0.00     0.039 C 
ATOM      8  C   UNL     1       5.885  14.936  29.182  1.00  0.00    -0.080 C 
ATOM      9  C   UNL     1       5.382  14.873  30.603  1.00  0.00     0.039 C 
ENDBRANCH   5   6
ENDBRANCH   4   5
ENDBRANCH   1   4
BRANCH   2  10
ATOM     10  C   UNL     1       1.050  13.334  31.312  1.00  0.00     0.035 C 
BRANCH  10  11
ATOM     11  C   UNL     1       1.182  12.020  32.090  1.00  0.00     0.079 C 
BRANCH  11  12
ATOM     12  C   UNL     1       2.275  11.146  31.527  1.00  0.00     0.130 C 
ATOM     13  O   UNL     1       2.006  10.334  30.655  1.00  0.00    -0.300 OA
ATOM     14  C   UNL     1       3.690  11.257  32.011  1.00  0.00     0.087 C 
ENDBRANCH  11  12
ENDBRANCH  10  11
ENDBRANCH   2  10
TORSDOF 6
ENDMDL
MODEL 6
REMARK VINA RESULT:    -5.585      1.623      2.964
REMARK INTER + INTRA:          -8.338
REMARK INTER:                  -7.592
REMARK INTRA:                  -0.746
REMARK UNBOUND:                -0.794
REMARK SMILES CC(=O)CCC=C(C)CCC=C(C)C
REMARK SMILES IDX 7 1 6 2 8 3 9 4 10 5 11 6 13 7 12 8 14 9 5 10 4 11 2 12 3 13
REMARK SMILES IDX 1 14
REMARK H PARENT
REMARK Flexibility Score: inf
ROOT
ATOM      1  C   UNL     1       3.173  11.619  30.717  1.00  0.00    -0.077 C 
ATOM      2  C   UNL     1       1.856  11.671  30.424  1.00  0.00    -0.028 C 
ATOM      3  C   UNL     1       3.707  12.114  32.041  1.00  0.00     0.039 C 
ENDROOT
BRANCH   1   4
ATOM      4  C   UNL     1       4.138  11.051  29.695  1.00  0.00     0.034 C 
BRANCH   4   5
ATOM      5  C   UNL     1       4.297  11.978  28.480  1.00  0.00     0.032 C 
BRANCH   5   6
ATOM      6  C   UNL     1       5.198  13.152  28.785  1.00  0.00    -0.028 C 
ATOM      7  C   UNL     1       6.180  15.399  28.462  1.00  0.00     0.039 C 
ATOM      8  C   UNL     1       5.264  14.279  28.041  1.00  0.00    -0.080 C 
ATOM      9  C   UNL     1       4.491  14.439  26.755  1.00  0.00     0.039 C 
ENDBRANCH   5   6
ENDBRANCH   4   5
ENDBRANCH   1   4
BRANCH   2  10
ATOM     10  C   UNL     1       0.818  12.207  31.384  1.00  0.00     0.035 C 
BRANCH  10  11
ATOM     11  C   UNL     1       0.369  13.625  31.011  1.00  0.00     0.079 C 
BRANCH  11  12
ATOM     12  C   UNL     1       0.313  13.816  29.517  1.00  0.00     0.130 C 
ATOM     13  O   UNL     1      -0.702  13.510  28.909  1.00  0.00    -0.300 OA
ATOM     14  C   UNL     1       1.476  14.382  28.758  1.00  0.00     0.087 C 
ENDBRANCH  11  12
ENDBRANCH  10  11
ENDBRANCH   2  10
TORSDOF 6
ENDMDL
MODEL 7
REMARK VINA RESULT:    -5.569      1.653      3.251
REMARK INTER + INTRA:          -8.317
REMARK INTER:                  -7.529
REMARK INTRA:                  -0.788
REMARK UNBOUND:                -0.794
REMARK SMILES CC(=O)CCC=C(C)CCC=C(C)C
REMARK SMILES IDX 7 1 6 2 8 3 9 4 10 5 11 6 13 7 12 8 14 9 5 10 4 11 2 12 3 13
REMARK SMILES IDX 1 14
REMARK H PARENT
REMARK Flexibility Score: inf
ROOT
ATOM      1  C   UNL     1       3.387  12.881  31.874  1.00  0.00    -0.077 C 
ATOM      2  C   UNL     1       2.144  13.400  31.762  1.00  0.00    -0.028 C 
ATOM      3  C   UNL     1       3.707  11.490  31.381  1.00  0.00     0.039 C 
ENDROOT
BRANCH   1   4
ATOM      4  C   UNL     1       4.483  13.714  32.509  1.00  0.00     0.034 C 
BRANCH   4   5
ATOM      5  C   UNL     1       5.057  14.748  31.529  1.00  0.00     0.032 C 
BRANCH   5   6
ATOM      6  C   UNL     1       4.818  14.352  30.091  1.00  0.00    -0.028 C 
ATOM      7  C   UNL     1       5.246  14.292  27.655  1.00  0.00     0.039 C 
ATOM      8  C   UNL     1       5.561  14.780  29.046  1.00  0.00    -0.080 C 
ATOM      9  C   UNL     1       6.670  15.790  29.209  1.00  0.00     0.039 C 
ENDBRANCH   5   6
ENDBRANCH   4   5
ENDBRANCH   1   4
BRANCH   2  10
ATOM     10  C   UNL     1       0.992  12.652  31.131  1.00  0.00     0.035 C 
BRANCH  10  11
ATOM     11  C   UNL     1       0.429  13.389  29.909  1.00  0.00     0.079 C 
BRANCH  11  12
ATOM     12  C   UNL     1       1.462  13.530  28.820  1.00  0.00     0.130 C 
ATOM     13  O   UNL     1       1.717  14.638  28.373  1.00  0.00    -0.300 OA
ATOM     14  C   UNL     1       2.191  12.338  28.275  1.00  0.00     0.087 C 
ENDBRANCH  11  12
ENDBRANCH  10  11
ENDBRANCH   2  10
TORSDOF 6
ENDMDL
MODEL 8
REMARK VINA RESULT:    -5.518      2.449      4.226
REMARK INTER + INTRA:          -8.248
REMARK INTER:                  -7.279
REMARK INTRA:                  -0.970
REMARK UNBOUND:                -0.794
REMARK SMILES CC(=O)CCC=C(C)CCC=C(C)C
REMARK SMILES IDX 7 1 6 2 8 3 9 4 10 5 11 6 13 7 12 8 14 9 5 10 4 11 2 12 3 13
REMARK SMILES IDX 1 14
REMARK H PARENT
REMARK Flexibility Score: inf
ROOT
ATOM      1  C   UNL     1       3.220  12.103  31.747  1.00  0.00    -0.077 C 
ATOM      2  C   UNL     1       1.899  12.223  31.491  1.00  0.00    -0.028 C 
ATOM      3  C   UNL     1       4.080  13.312  32.033  1.00  0.00     0.039 C 
ENDROOT
BRANCH   1   4
ATOM      4  C   UNL     1       3.853  10.726  31.747  1.00  0.00     0.034 C 
BRANCH   4   5
ATOM      5  C   UNL     1       4.700  10.484  30.489  1.00  0.00     0.032 C 
BRANCH   5   6
ATOM      6  C   UNL     1       3.868  10.556  29.230  1.00  0.00    -0.028 C 
ATOM      7  C   UNL     1       3.090  11.495  27.078  1.00  0.00     0.039 C 
ATOM      8  C   UNL     1       3.951  11.546  28.313  1.00  0.00    -0.080 C 
ATOM      9  C   UNL     1       4.840  12.750  28.509  1.00  0.00     0.039 C 
ENDBRANCH   5   6
ENDBRANCH   4   5
ENDBRANCH   1   4
BRANCH   2  10
ATOM     10  C   UNL     1       1.177  13.551  31.483  1.00  0.00     0.035 C 
BRANCH  10  11
ATOM     11  C   UNL     1      -0.047  13.534  30.559  1.00  0.00     0.079 C 
BRANCH  11  12
ATOM     12  C   UNL     1       0.287  14.056  29.184  1.00  0.00     0.130 C 
ATOM     13  O   UNL     1      -0.610  14.227  28.371  1.00  0.00    -0.300 OA
ATOM     14  C   UNL     1       1.698  14.378  28.792  1.00  0.00     0.087 C 
ENDBRANCH  11  12
ENDBRANCH  10  11
ENDBRANCH   2  10
TORSDOF 6
ENDMDL
MODEL 9
REMARK VINA RESULT:    -5.495      1.590      5.042
REMARK INTER + INTRA:          -8.217
REMARK INTER:                  -7.771
REMARK INTRA:                  -0.446
REMARK UNBOUND:                -0.794
REMARK SMILES CC(=O)CCC=C(C)CCC=C(C)C
REMARK SMILES IDX 7 1 6 2 8 3 9 4 10 5 11 6 13 7 12 8 14 9 5 10 4 11 2 12 3 13
REMARK SMILES IDX 1 14
REMARK H PARENT
REMARK Flexibility Score: inf
ROOT
ATOM      1  C   UNL     1       5.286  14.742  30.286  1.00  0.00    -0.077 C 
ATOM      2  C   UNL     1       4.591  14.028  29.373  1.00  0.00    -0.028 C 
ATOM      3  C   UNL     1       6.434  15.635  29.881  1.00  0.00     0.039 C 
ENDROOT
BRANCH   1   4
ATOM      4  C   UNL     1       4.904  14.643  31.750  1.00  0.00     0.034 C 
BRANCH   4   5
ATOM      5  C   UNL     1       4.061  13.392  32.040  1.00  0.00     0.032 C 
BRANCH   5   6
ATOM      6  C   UNL     1       2.585  13.655  31.850  1.00  0.00    -0.028 C 
ATOM      7  C   UNL     1       0.199  13.072  31.557  1.00  0.00     0.039 C 
ATOM      8  C   UNL     1       1.648  12.690  31.710  1.00  0.00    -0.080 C 
ATOM      9  C   UNL     1       2.007  11.226  31.638  1.00  0.00     0.039 C 
ENDBRANCH   5   6
ENDBRANCH   4   5
ENDBRANCH   1   4
BRANCH   2  10
ATOM     10  C   UNL     1       4.888  14.073  27.892  1.00  0.00     0.035 C 
BRANCH  10  11
ATOM     11  C   UNL     1       3.745  13.479  27.060  1.00  0.00     0.079 C 
BRANCH  11  12
ATOM     12  C   UNL     1       2.878  12.558  27.881  1.00  0.00     0.130 C 
ATOM     13  O   UNL     1       1.788  12.948  28.272  1.00  0.00    -0.300 OA
ATOM     14  C   UNL     1       3.322  11.168  28.225  1.00  0.00     0.087 C 
ENDBRANCH  11  12
ENDBRANCH  10  11
ENDBRANCH   2  10
TORSDOF 6
ENDMDL
