MODEL 1
REMARK VINA RESULT:    -4.861      0.000      0.000
REMARK INTER + INTRA:          -5.003
REMARK INTER:                  -5.003
REMARK INTRA:                   0.000
REMARK UNBOUND:                 0.000
REMARK SMILES Nc1ncnc2nc[nH]c12
REMARK SMILES IDX 8 1 7 2 6 3 5 4 4 5 3 6 2 7 10 8 9 9 1 11
REMARK H PARENT 9 10 1 12 1 13
REMARK Flexibility Score: inf
ROOT
ATOM      1  C   UNL     1      21.437 -25.796  21.397  1.00  0.00     0.199 A 
ATOM      2  N   UNL     1      22.611 -25.202  21.049  1.00  0.00    -0.217 NA
ATOM      3  C   UNL     1      22.256 -24.473  19.979  1.00  0.00     0.182 A 
ATOM      4  N   UNL     1      23.064 -23.677  19.238  1.00  0.00    -0.215 NA
ATOM      5  C   UNL     1      22.516 -23.010  18.177  1.00  0.00     0.226 A 
ATOM      6  N   UNL     1      21.184 -23.149  17.879  1.00  0.00    -0.217 NA
ATOM      7  C   UNL     1      20.368 -23.951  18.626  1.00  0.00     0.152 A 
ATOM      8  C   UNL     1      20.940 -24.624  19.701  1.00  0.00     0.127 A 
ATOM      9  N   UNL     1      20.397 -25.462  20.593  1.00  0.00    -0.340 N 
ATOM     10  H   UNL     1      19.408 -25.790  20.663  1.00  0.00     0.168 HD
ENDROOT
BRANCH   7  11
ATOM     11  N   UNL     1      18.984 -24.080  18.297  1.00  0.00    -0.382 N 
ATOM     12  H   UNL     1      18.669 -24.207  17.309  1.00  0.00     0.158 HD
ATOM     13  H   UNL     1      18.262 -24.050  19.050  1.00  0.00     0.158 HD
ENDBRANCH   7  11
TORSDOF 1
ENDMDL
MODEL 2
REMARK VINA RESULT:    -4.434     14.028     14.273
REMARK INTER + INTRA:          -4.563
REMARK INTER:                  -4.563
REMARK INTRA:                   0.000
REMARK UNBOUND:                 0.000
REMARK SMILES Nc1ncnc2nc[nH]c12
REMARK SMILES IDX 8 1 7 2 6 3 5 4 4 5 3 6 2 7 10 8 9 9 1 11
REMARK H PARENT 9 10 1 12 1 13
REMARK Flexibility Score: inf
ROOT
ATOM      1  C   UNL     1      10.646 -15.329  22.475  1.00  0.00     0.199 A 
ATOM      2  N   UNL     1      10.547 -16.037  23.633  1.00  0.00    -0.217 NA
ATOM      3  C   UNL     1       9.900 -17.144  23.236  1.00  0.00     0.182 A 
ATOM      4  N   UNL     1       9.542 -18.195  24.014  1.00  0.00    -0.215 NA
ATOM      5  C   UNL     1       8.884 -19.239  23.425  1.00  0.00     0.226 A 
ATOM      6  N   UNL     1       8.598 -19.215  22.083  1.00  0.00    -0.217 NA
ATOM      7  C   UNL     1       8.958 -18.156  21.298  1.00  0.00     0.152 A 
ATOM      8  C   UNL     1       9.626 -17.101  21.911  1.00  0.00     0.127 A 
ATOM      9  N   UNL     1      10.094 -15.953  21.404  1.00  0.00    -0.340 N 
ATOM     10  H   UNL     1      10.049 -15.608  20.420  1.00  0.00     0.168 HD
ENDROOT
BRANCH   7  11
ATOM     11  N   UNL     1       8.649 -18.153  19.903  1.00  0.00    -0.382 N 
ATOM     12  H   UNL     1       8.967 -17.380  19.278  1.00  0.00     0.158 HD
ATOM     13  H   UNL     1       8.095 -18.935  19.488  1.00  0.00     0.158 HD
ENDBRANCH   7  11
TORSDOF 1
ENDMDL
MODEL 3
REMARK VINA RESULT:    -4.378      1.131      3.003
REMARK INTER + INTRA:          -4.506
REMARK INTER:                  -4.506
REMARK INTRA:                   0.000
REMARK UNBOUND:                 0.000
REMARK SMILES Nc1ncnc2nc[nH]c12
REMARK SMILES IDX 8 1 7 2 6 3 5 4 4 5 3 6 2 7 10 8 9 9 1 11
REMARK H PARENT 9 10 1 12 1 13
REMARK Flexibility Score: inf
ROOT
ATOM      1  C   UNL     1      20.026 -24.244  17.961  1.00  0.00     0.199 A 
ATOM      2  N   UNL     1      21.024 -23.358  17.695  1.00  0.00    -0.217 NA
ATOM      3  C   UNL     1      21.932 -23.661  18.636  1.00  0.00     0.182 A 
ATOM      4  N   UNL     1      23.136 -23.066  18.820  1.00  0.00    -0.215 NA
ATOM      5  C   UNL     1      23.929 -23.516  19.839  1.00  0.00     0.226 A 
ATOM      6  N   UNL     1      23.510 -24.542  20.647  1.00  0.00    -0.217 NA
ATOM      7  C   UNL     1      22.297 -25.144  20.462  1.00  0.00     0.152 A 
ATOM      8  C   UNL     1      21.501 -24.674  19.422  1.00  0.00     0.127 A 
ATOM      9  N   UNL     1      20.288 -25.063  19.010  1.00  0.00    -0.340 N 
ATOM     10  H   UNL     1      19.677 -25.816  19.397  1.00  0.00     0.168 HD
ENDROOT
BRANCH   7  11
ATOM     11  N   UNL     1      21.882 -26.211  21.317  1.00  0.00    -0.382 N 
ATOM     12  H   UNL     1      22.566 -26.901  21.696  1.00  0.00     0.158 HD
ATOM     13  H   UNL     1      20.875 -26.312  21.575  1.00  0.00     0.158 HD
ENDBRANCH   7  11
TORSDOF 1
ENDMDL
MODEL 4
REMARK VINA RESULT:    -4.355      1.164      3.080
REMARK INTER + INTRA:          -4.482
REMARK INTER:                  -4.482
REMARK INTRA:                   0.000
REMARK UNBOUND:                 0.000
REMARK SMILES Nc1ncnc2nc[nH]c12
REMARK SMILES IDX 8 1 7 2 6 3 5 4 4 5 3 6 2 7 10 8 9 9 1 11
REMARK H PARENT 9 10 1 12 1 13
REMARK Flexibility Score: inf
ROOT
ATOM      1  C   UNL     1      24.125 -22.762  19.466  1.00  0.00     0.199 A 
ATOM      2  N   UNL     1      23.368 -22.453  18.378  1.00  0.00    -0.217 NA
ATOM      3  C   UNL     1      22.328 -23.292  18.507  1.00  0.00     0.182 A 
ATOM      4  N   UNL     1      21.265 -23.397  17.672  1.00  0.00    -0.215 NA
ATOM      5  C   UNL     1      20.298 -24.317  17.971  1.00  0.00     0.226 A 
ATOM      6  N   UNL     1      20.409 -25.107  19.087  1.00  0.00    -0.217 NA
ATOM      7  C   UNL     1      21.480 -25.002  19.929  1.00  0.00     0.152 A 
ATOM      8  C   UNL     1      22.456 -24.062  19.612  1.00  0.00     0.127 A 
ATOM      9  N   UNL     1      23.594 -23.742  20.240  1.00  0.00    -0.340 N 
ATOM     10  H   UNL     1      23.991 -24.144  21.117  1.00  0.00     0.168 HD
ENDROOT
BRANCH   7  11
ATOM     11  N   UNL     1      21.575 -25.836  21.085  1.00  0.00    -0.382 N 
ATOM     12  H   UNL     1      21.443 -25.451  22.046  1.00  0.00     0.158 HD
ATOM     13  H   UNL     1      21.779 -26.855  20.980  1.00  0.00     0.158 HD
ENDBRANCH   7  11
TORSDOF 1
ENDMDL
MODEL 5
REMARK VINA RESULT:    -4.261     13.881     15.304
REMARK INTER + INTRA:          -4.386
REMARK INTER:                  -4.386
REMARK INTRA:                   0.000
REMARK UNBOUND:                 0.000
REMARK SMILES Nc1ncnc2nc[nH]c12
REMARK SMILES IDX 8 1 7 2 6 3 5 4 4 5 3 6 2 7 10 8 9 9 1 11
REMARK H PARENT 9 10 1 12 1 13
REMARK Flexibility Score: inf
ROOT
ATOM      1  C   UNL     1       8.253 -17.495  21.185  1.00  0.00     0.199 A 
ATOM      2  N   UNL     1       7.516 -16.425  21.589  1.00  0.00    -0.217 NA
ATOM      3  C   UNL     1       8.430 -15.670  22.220  1.00  0.00     0.182 A 
ATOM      4  N   UNL     1       8.217 -14.474  22.819  1.00  0.00    -0.215 NA
ATOM      5  C   UNL     1       9.280 -13.852  23.413  1.00  0.00     0.226 A 
ATOM      6  N   UNL     1      10.524 -14.430  23.398  1.00  0.00    -0.217 NA
ATOM      7  C   UNL     1      10.740 -15.637  22.793  1.00  0.00     0.152 A 
ATOM      8  C   UNL     1       9.649 -16.258  22.194  1.00  0.00     0.127 A 
ATOM      9  N   UNL     1       9.561 -17.422  21.539  1.00  0.00    -0.340 N 
ATOM     10  H   UNL     1      10.312 -18.119  21.341  1.00  0.00     0.168 HD
ENDROOT
BRANCH   7  11
ATOM     11  N   UNL     1      12.044 -16.220  22.790  1.00  0.00    -0.382 N 
ATOM     12  H   UNL     1      12.902 -15.633  22.692  1.00  0.00     0.158 HD
ATOM     13  H   UNL     1      12.155 -17.253  22.888  1.00  0.00     0.158 HD
ENDBRANCH   7  11
TORSDOF 1
ENDMDL
MODEL 6
REMARK VINA RESULT:    -4.217      1.497      3.180
REMARK INTER + INTRA:          -4.340
REMARK INTER:                  -4.340
REMARK INTRA:                   0.000
REMARK UNBOUND:                 0.000
REMARK SMILES Nc1ncnc2nc[nH]c12
REMARK SMILES IDX 8 1 7 2 6 3 5 4 4 5 3 6 2 7 10 8 9 9 1 11
REMARK H PARENT 9 10 1 12 1 13
REMARK Flexibility Score: inf
ROOT
ATOM      1  C   UNL     1      23.271 -21.402  18.394  1.00  0.00     0.199 A 
ATOM      2  N   UNL     1      23.872 -21.975  19.472  1.00  0.00    -0.217 NA
ATOM      3  C   UNL     1      23.244 -23.159  19.552  1.00  0.00     0.182 A 
ATOM      4  N   UNL     1      23.468 -24.133  20.468  1.00  0.00    -0.215 NA
ATOM      5  C   UNL     1      22.724 -25.278  20.387  1.00  0.00     0.226 A 
ATOM      6  N   UNL     1      21.779 -25.427  19.404  1.00  0.00    -0.217 NA
ATOM      7  C   UNL     1      21.553 -24.446  18.480  1.00  0.00     0.152 A 
ATOM      8  C   UNL     1      22.317 -23.287  18.575  1.00  0.00     0.127 A 
ATOM      9  N   UNL     1      22.316 -22.179  17.824  1.00  0.00    -0.340 N 
ATOM     10  H   UNL     1      21.726 -21.954  16.993  1.00  0.00     0.168 HD
ENDROOT
BRANCH   7  11
ATOM     11  N   UNL     1      20.563 -24.624  17.465  1.00  0.00    -0.382 N 
ATOM     12  H   UNL     1      20.820 -24.950  16.507  1.00  0.00     0.158 HD
ATOM     13  H   UNL     1      19.560 -24.427  17.673  1.00  0.00     0.158 HD
ENDBRANCH   7  11
TORSDOF 1
ENDMDL
MODEL 7
REMARK VINA RESULT:    -4.191     13.698     15.299
REMARK INTER + INTRA:          -4.313
REMARK INTER:                  -4.313
REMARK INTRA:                   0.000
REMARK UNBOUND:                 0.000
REMARK SMILES Nc1ncnc2nc[nH]c12
REMARK SMILES IDX 8 1 7 2 6 3 5 4 4 5 3 6 2 7 10 8 9 9 1 11
REMARK H PARENT 9 10 1 12 1 13
REMARK Flexibility Score: inf
ROOT
ATOM      1  C   UNL     1       4.845 -26.600  19.050  1.00  0.00     0.199 A 
ATOM      2  N   UNL     1       6.099 -27.040  18.755  1.00  0.00    -0.217 NA
ATOM      3  C   UNL     1       6.624 -25.989  18.104  1.00  0.00     0.182 A 
ATOM      4  N   UNL     1       7.873 -25.901  17.585  1.00  0.00    -0.215 NA
ATOM      5  C   UNL     1       8.228 -24.741  16.953  1.00  0.00     0.226 A 
ATOM      6  N   UNL     1       7.338 -23.702  16.851  1.00  0.00    -0.217 NA
ATOM      7  C   UNL     1       6.079 -23.790  17.375  1.00  0.00     0.152 A 
ATOM      8  C   UNL     1       5.731 -24.976  18.014  1.00  0.00     0.127 A 
ATOM      9  N   UNL     1       4.590 -25.342  18.611  1.00  0.00    -0.340 N 
ATOM     10  H   UNL     1       3.706 -24.798  18.719  1.00  0.00     0.168 HD
ENDROOT
BRANCH   7  11
ATOM     11  N   UNL     1       5.169 -22.694  17.256  1.00  0.00    -0.382 N 
ATOM     12  H   UNL     1       5.273 -21.836  17.841  1.00  0.00     0.158 HD
ATOM     13  H   UNL     1       4.380 -22.741  16.574  1.00  0.00     0.158 HD
ENDBRANCH   7  11
TORSDOF 1
ENDMDL
MODEL 8
REMARK VINA RESULT:    -4.178      1.611      3.124
REMARK INTER + INTRA:          -4.300
REMARK INTER:                  -4.300
REMARK INTRA:                   0.000
REMARK UNBOUND:                 0.000
REMARK SMILES Nc1ncnc2nc[nH]c12
REMARK SMILES IDX 8 1 7 2 6 3 5 4 4 5 3 6 2 7 10 8 9 9 1 11
REMARK H PARENT 9 10 1 12 1 13
REMARK Flexibility Score: inf
ROOT
ATOM      1  C   UNL     1      20.580 -24.412  17.917  1.00  0.00     0.199 A 
ATOM      2  N   UNL     1      21.348 -25.052  18.841  1.00  0.00    -0.217 NA
ATOM      3  C   UNL     1      22.266 -24.120  19.143  1.00  0.00     0.182 A 
ATOM      4  N   UNL     1      23.286 -24.247  20.027  1.00  0.00    -0.215 NA
ATOM      5  C   UNL     1      24.125 -23.181  20.201  1.00  0.00     0.226 A 
ATOM      6  N   UNL     1      23.931 -22.020  19.496  1.00  0.00    -0.217 NA
ATOM      7  C   UNL     1      22.903 -21.891  18.605  1.00  0.00     0.152 A 
ATOM      8  C   UNL     1      22.059 -22.984  18.438  1.00  0.00     0.127 A 
ATOM      9  N   UNL     1      20.989 -23.146  17.650  1.00  0.00    -0.340 N 
ATOM     10  H   UNL     1      20.561 -22.467  16.983  1.00  0.00     0.168 HD
ENDROOT
BRANCH   7  11
ATOM     11  N   UNL     1      22.723 -20.672  17.882  1.00  0.00    -0.382 N 
ATOM     12  H   UNL     1      22.748 -19.746  18.362  1.00  0.00     0.158 HD
ATOM     13  H   UNL     1      22.561 -20.695  16.851  1.00  0.00     0.158 HD
ENDBRANCH   7  11
TORSDOF 1
ENDMDL
MODEL 9
REMARK VINA RESULT:    -4.106     14.446     15.752
REMARK INTER + INTRA:          -4.226
REMARK INTER:                  -4.226
REMARK INTRA:                   0.000
REMARK UNBOUND:                 0.000
REMARK SMILES Nc1ncnc2nc[nH]c12
REMARK SMILES IDX 8 1 7 2 6 3 5 4 4 5 3 6 2 7 10 8 9 9 1 11
REMARK H PARENT 9 10 1 12 1 13
REMARK Flexibility Score: inf
ROOT
ATOM      1  C   UNL     1      10.028 -15.145  22.092  1.00  0.00     0.199 A 
ATOM      2  N   UNL     1       8.841 -14.754  22.630  1.00  0.00    -0.217 NA
ATOM      3  C   UNL     1       8.031 -15.775  22.309  1.00  0.00     0.182 A 
ATOM      4  N   UNL     1       6.715 -15.891  22.612  1.00  0.00    -0.215 NA
ATOM      5  C   UNL     1       6.053 -17.013  22.196  1.00  0.00     0.226 A 
ATOM      6  N   UNL     1       6.711 -17.989  21.492  1.00  0.00    -0.217 NA
ATOM      7  C   UNL     1       8.038 -17.875  21.187  1.00  0.00     0.152 A 
ATOM      8  C   UNL     1       8.698 -16.727  21.616  1.00  0.00     0.127 A 
ATOM      9  N   UNL     1       9.973 -16.348  21.466  1.00  0.00    -0.340 N 
ATOM     10  H   UNL     1      10.751 -16.849  20.983  1.00  0.00     0.168 HD
ENDROOT
BRANCH   7  11
ATOM     11  N   UNL     1       8.702 -18.904  20.452  1.00  0.00    -0.382 N 
ATOM     12  H   UNL     1       9.254 -18.689  19.593  1.00  0.00     0.158 HD
ATOM     13  H   UNL     1       8.642 -19.896  20.771  1.00  0.00     0.158 HD
ENDBRANCH   7  11
TORSDOF 1
ENDMDL
