MODEL 1
REMARK VINA RESULT:    66.371      0.000      0.000
REMARK INTER + INTRA:          96.690
REMARK INTER:                  97.411
REMARK INTRA:                  -0.721
REMARK UNBOUND:                -0.721
REMARK SMILES Cc1cc2c(C(C)C)c(O)c(O)c(C=O)c2c(O)c1-c1c(C)cc2c(C(C)C)c(O)c(O)c(C=O)c2c1O
REMARK SMILES IDX 1 1 2 2 3 3 4 4 16 5 13 6 11 7 9 8 5 9 17 10 19 11 20 12
REMARK SMILES IDX 37 13 21 14 36 15 23 16 22 17 24 18 33 19 25 20 31 21 29 22
REMARK SMILES IDX 38 23 34 25 35 26 26 27 27 28 28 29 32 30 30 32 18 34 6 36
REMARK SMILES IDX 7 37 8 38 14 39 15 40 10 41 12 43
REMARK H PARENT 38 24 32 31 30 33 18 35 10 42 12 44
REMARK Flexibility Score: inf
ROOT
ATOM      1  C   UNL     1       1.140   4.855  16.311  1.00  0.00     0.045 C 
ATOM      2  C   UNL     1       2.171   5.869  16.747  1.00  0.00    -0.039 A 
ATOM      3  C   UNL     1       1.747   7.103  17.245  1.00  0.00     0.013 A 
ATOM      4  C   UNL     1       2.665   8.103  17.638  1.00  0.00    -0.006 A 
ATOM      5  C   UNL     1       4.060   7.807  17.590  1.00  0.00     0.039 A 
ATOM      6  C   UNL     1       4.989   8.813  17.979  1.00  0.00     0.072 A 
ATOM      7  C   UNL     1       4.536   9.982  18.607  1.00  0.00     0.169 A 
ATOM      8  C   UNL     1       3.159  10.222  18.750  1.00  0.00     0.162 A 
ATOM      9  C   UNL     1       2.218   9.373  18.123  1.00  0.00     0.008 A 
ATOM     10  C   UNL     1       4.480   6.501  17.205  1.00  0.00     0.132 A 
ATOM     11  C   UNL     1       3.540   5.559  16.735  1.00  0.00     0.031 A 
ENDROOT
BRANCH  11  12
ATOM     12  C   UNL     1       3.992   4.217  16.280  1.00  0.00     0.031 A 
ATOM     13  C   UNL     1       4.207   3.184  17.217  1.00  0.00     0.132 A 
ATOM     14  C   UNL     1       4.242   3.996  14.917  1.00  0.00    -0.039 A 
ATOM     15  C   UNL     1       4.620   1.885  16.783  1.00  0.00     0.039 A 
ATOM     16  C   UNL     1       4.684   2.743  14.493  1.00  0.00     0.013 A 
ATOM     17  C   UNL     1       4.078   5.105  13.906  1.00  0.00     0.045 C 
ATOM     18  C   UNL     1       4.834   1.659  15.389  1.00  0.00    -0.006 A 
ATOM     19  C   UNL     1       4.864   0.819  17.701  1.00  0.00     0.072 A 
ATOM     20  C   UNL     1       5.233   0.368  14.922  1.00  0.00     0.008 A 
ATOM     21  C   UNL     1       5.402  -0.398  17.234  1.00  0.00     0.169 A 
ATOM     22  C   UNL     1       5.630  -0.598  15.870  1.00  0.00     0.162 A 
BRANCH  13  23
ATOM     23  O   UNL     1       4.039   3.456  18.580  1.00  0.00    -0.507 OA
ATOM     24  H   UNL     1       4.033   4.388  18.974  1.00  0.00     0.293 HD
ENDBRANCH  13  23
BRANCH  19  25
ATOM     25  C   UNL     1       4.560   0.943  19.141  1.00  0.00     0.264 C 
ATOM     26  O   UNL     1       4.471  -0.083  19.866  1.00  0.00    -0.298 OA
ENDBRANCH  19  25
BRANCH  20  27
ATOM     27  C   UNL     1       5.267   0.022  13.422  1.00  0.00     0.017 C 
ATOM     28  C   UNL     1       6.696   0.106  12.876  1.00  0.00     0.012 C 
ATOM     29  C   UNL     1       4.616  -1.332  13.077  1.00  0.00     0.012 C 
ENDBRANCH  20  27
BRANCH  21  30
ATOM     30  O   UNL     1       5.691  -1.454  18.105  1.00  0.00    -0.504 OA
ATOM     31  H   UNL     1       5.201  -2.340  18.109  1.00  0.00     0.293 HD
ENDBRANCH  21  30
BRANCH  22  32
ATOM     32  O   UNL     1       6.255  -1.774  15.449  1.00  0.00    -0.504 OA
ATOM     33  H   UNL     1       7.195  -1.797  15.072  1.00  0.00     0.293 HD
ENDBRANCH  22  32
ENDBRANCH  11  12
BRANCH  10  34
ATOM     34  O   UNL     1       5.820   6.123  17.340  1.00  0.00    -0.507 OA
ATOM     35  H   UNL     1       6.214   5.285  16.933  1.00  0.00     0.293 HD
ENDBRANCH  10  34
BRANCH   9  36
ATOM     36  C   UNL     1       0.744   9.804  18.032  1.00  0.00     0.017 C 
ATOM     37  C   UNL     1       0.062   9.711  19.402  1.00  0.00     0.012 C 
ATOM     38  C   UNL     1       0.538  11.193  17.399  1.00  0.00     0.012 C 
ENDBRANCH   9  36
BRANCH   6  39
ATOM     39  C   UNL     1       6.437   8.735  17.677  1.00  0.00     0.264 C 
ATOM     40  O   UNL     1       7.064   9.746  17.262  1.00  0.00    -0.298 OA
ENDBRANCH   6  39
BRANCH   8  41
ATOM     41  O   UNL     1       2.702  11.297  19.519  1.00  0.00    -0.504 OA
ATOM     42  H   UNL     1       2.406  11.217  20.484  1.00  0.00     0.293 HD
ENDBRANCH   8  41
BRANCH   7  43
ATOM     43  O   UNL     1       5.483  10.920  19.039  1.00  0.00    -0.504 OA
ATOM     44  H   UNL     1       6.163  10.740  19.763  1.00  0.00     0.293 HD
ENDBRANCH   7  43
TORSDOF 11
ENDMDL
MODEL 2
REMARK VINA RESULT:    67.605      0.351      9.201
REMARK INTER + INTRA:          98.501
REMARK INTER:                  98.594
REMARK INTRA:                  -0.092
REMARK UNBOUND:                -0.721
REMARK SMILES Cc1cc2c(C(C)C)c(O)c(O)c(C=O)c2c(O)c1-c1c(C)cc2c(C(C)C)c(O)c(O)c(C=O)c2c1O
REMARK SMILES IDX 1 1 2 2 3 3 4 4 16 5 13 6 11 7 9 8 5 9 17 10 19 11 20 12
REMARK SMILES IDX 37 13 21 14 36 15 23 16 22 17 24 18 33 19 25 20 31 21 29 22
REMARK SMILES IDX 38 23 34 25 35 26 26 27 27 28 28 29 32 30 30 32 18 34 6 36
REMARK SMILES IDX 7 37 8 38 14 39 15 40 10 41 12 43
REMARK H PARENT 38 24 32 31 30 33 18 35 10 42 12 44
REMARK Flexibility Score: inf
ROOT
ATOM      1  C   UNL     1       3.526   4.947  13.820  1.00  0.00     0.045 C 
ATOM      2  C   UNL     1       3.889   3.881  14.825  1.00  0.00    -0.039 A 
ATOM      3  C   UNL     1       4.379   2.654  14.373  1.00  0.00     0.013 A 
ATOM      4  C   UNL     1       4.705   1.606  15.264  1.00  0.00    -0.006 A 
ATOM      5  C   UNL     1       4.597   1.845  16.667  1.00  0.00     0.039 A 
ATOM      6  C   UNL     1       4.918   0.791  17.569  1.00  0.00     0.072 A 
ATOM      7  C   UNL     1       5.541  -0.373  17.096  1.00  0.00     0.169 A 
ATOM      8  C   UNL     1       5.743  -0.559  15.718  1.00  0.00     0.162 A 
ATOM      9  C   UNL     1       5.181   0.345  14.787  1.00  0.00     0.008 A 
ATOM     10  C   UNL     1       4.222   3.141  17.124  1.00  0.00     0.132 A 
ATOM     11  C   UNL     1       3.819   4.133  16.205  1.00  0.00     0.031 A 
ENDROOT
BRANCH  11  12
ATOM     12  C   UNL     1       3.374   5.465  16.692  1.00  0.00     0.031 A 
ATOM     13  C   UNL     1       4.323   6.432  17.088  1.00  0.00     0.132 A 
ATOM     14  C   UNL     1       2.001   5.743  16.795  1.00  0.00    -0.039 A 
ATOM     15  C   UNL     1       3.901   7.722  17.536  1.00  0.00     0.039 A 
ATOM     16  C   UNL     1       1.584   6.986  17.269  1.00  0.00     0.013 A 
ATOM     17  C   UNL     1       0.969   4.702  16.435  1.00  0.00     0.045 C 
ATOM     18  C   UNL     1       2.503   8.008  17.599  1.00  0.00    -0.006 A 
ATOM     19  C   UNL     1       4.830   8.721  17.961  1.00  0.00     0.072 A 
ATOM     20  C   UNL     1       2.050   9.294  18.030  1.00  0.00     0.008 A 
ATOM     21  C   UNL     1       4.357   9.924  18.524  1.00  0.00     0.169 A 
ATOM     22  C   UNL     1       2.985  10.181  18.602  1.00  0.00     0.162 A 
BRANCH  13  23
ATOM     23  O   UNL     1       5.683   6.098  17.064  1.00  0.00    -0.507 OA
ATOM     24  H   UNL     1       6.396   6.591  17.586  1.00  0.00     0.293 HD
ENDBRANCH  13  23
BRANCH  19  25
ATOM     25  C   UNL     1       6.289   8.540  17.821  1.00  0.00     0.264 C 
ATOM     26  O   UNL     1       7.080   9.472  18.121  1.00  0.00    -0.298 OA
ENDBRANCH  19  25
BRANCH  20  27
ATOM     27  C   UNL     1       0.574   9.717  17.910  1.00  0.00     0.017 C 
ATOM     28  C   UNL     1      -0.097   9.747  19.287  1.00  0.00     0.012 C 
ATOM     29  C   UNL     1       0.362  11.044  17.156  1.00  0.00     0.012 C 
ENDBRANCH  20  27
BRANCH  21  30
ATOM     30  O   UNL     1       5.233  10.912  18.986  1.00  0.00    -0.504 OA
ATOM     31  H   UNL     1       5.442  11.767  18.487  1.00  0.00     0.293 HD
ENDBRANCH  21  30
BRANCH  22  32
ATOM     32  O   UNL     1       2.545  11.336  19.253  1.00  0.00    -0.504 OA
ATOM     33  H   UNL     1       2.678  12.267  18.879  1.00  0.00     0.293 HD
ENDBRANCH  22  32
ENDBRANCH  11  12
BRANCH  10  34
ATOM     34  O   UNL     1       4.302   3.459  18.484  1.00  0.00    -0.507 OA
ATOM     35  H   UNL     1       4.482   4.390  18.836  1.00  0.00     0.293 HD
ENDBRANCH  10  34
BRANCH   9  36
ATOM     36  C   UNL     1       5.151  -0.022  13.292  1.00  0.00     0.017 C 
ATOM     37  C   UNL     1       6.449  -0.722  12.875  1.00  0.00     0.012 C 
ATOM     38  C   UNL     1       3.916  -0.843  12.876  1.00  0.00     0.012 C 
ENDBRANCH   9  36
BRANCH   6  39
ATOM     39  C   UNL     1       4.550   0.816  19.004  1.00  0.00     0.264 C 
ATOM     40  O   UNL     1       4.204  -0.239  19.598  1.00  0.00    -0.298 OA
ENDBRANCH   6  39
BRANCH   8  41
ATOM     41  O   UNL     1       6.509  -1.631  15.252  1.00  0.00    -0.504 OA
ATOM     42  H   UNL     1       6.139  -2.393  14.698  1.00  0.00     0.293 HD
ENDBRANCH   8  41
BRANCH   7  43
ATOM     43  O   UNL     1       5.906  -1.360  18.021  1.00  0.00    -0.504 OA
ATOM     44  H   UNL     1       5.649  -2.333  17.936  1.00  0.00     0.293 HD
ENDBRANCH   7  43
TORSDOF 11
ENDMDL
