MODEL 1
REMARK VINA RESULT:    -4.140      0.000      0.000
REMARK INTER + INTRA:          -4.999
REMARK INTER:                  -4.866
REMARK INTRA:                  -0.133
REMARK UNBOUND:                -0.133
REMARK SMILES O=C([O-])C=Cc1ccc(O)c(O)c1
REMARK SMILES IDX 6 1 13 2 7 3 11 4 8 5 9 6 5 7 4 8 2 9 1 10 3 11 12 12 10 14
REMARK H PARENT 12 13 10 15
REMARK Flexibility Score: inf
ROOT
ATOM      1  C   UNL     1      15.717  -5.272   6.423  1.00  0.00    -0.022 A 
ATOM      2  C   UNL     1      16.476  -6.246   7.105  1.00  0.00     0.058 A 
ATOM      3  C   UNL     1      16.380  -4.173   5.855  1.00  0.00     0.012 A 
ATOM      4  C   UNL     1      17.872  -6.129   7.192  1.00  0.00     0.157 A 
ATOM      5  C   UNL     1      17.769  -4.057   5.940  1.00  0.00     0.051 A 
ATOM      6  C   UNL     1      18.520  -5.032   6.604  1.00  0.00     0.157 A 
ENDROOT
BRANCH   1   7
ATOM      7  C   UNL     1      14.239  -5.345   6.314  1.00  0.00     0.010 C 
ATOM      8  C   UNL     1      13.404  -4.504   6.940  1.00  0.00     0.025 C 
BRANCH   8   9
ATOM      9  C   UNL     1      11.943  -4.622   6.812  1.00  0.00     0.064 C 
ATOM     10  O   UNL     1      11.197  -3.951   7.573  1.00  0.00    -0.545 OA
ATOM     11  O   UNL     1      11.371  -5.462   5.865  1.00  0.00    -0.545 OA
ENDBRANCH   8   9
ENDBRANCH   1   7
BRANCH   4  12
ATOM     12  O   UNL     1      18.614  -7.098   7.866  1.00  0.00    -0.504 OA
ATOM     13  H   UNL     1      18.180  -7.930   8.248  1.00  0.00     0.293 HD
ENDBRANCH   4  12
BRANCH   6  14
ATOM     14  O   UNL     1      19.906  -4.890   6.671  1.00  0.00    -0.504 OA
ATOM     15  H   UNL     1      20.446  -5.249   7.450  1.00  0.00     0.293 HD
ENDBRANCH   6  14
TORSDOF 4
ENDMDL
MODEL 2
REMARK VINA RESULT:    -4.081      2.964      3.884
REMARK INTER + INTRA:          -4.930
REMARK INTER:                  -4.802
REMARK INTRA:                  -0.128
REMARK UNBOUND:                -0.133
REMARK SMILES O=C([O-])C=Cc1ccc(O)c(O)c1
REMARK SMILES IDX 6 1 13 2 7 3 11 4 8 5 9 6 5 7 4 8 2 9 1 10 3 11 12 12 10 14
REMARK H PARENT 12 13 10 15
REMARK Flexibility Score: inf
ROOT
ATOM      1  C   UNL     1      16.621  -6.143   7.320  1.00  0.00    -0.022 A 
ATOM      2  C   UNL     1      18.022  -5.980   7.312  1.00  0.00     0.058 A 
ATOM      3  C   UNL     1      15.836  -5.293   6.525  1.00  0.00     0.012 A 
ATOM      4  C   UNL     1      18.621  -5.003   6.503  1.00  0.00     0.157 A 
ATOM      5  C   UNL     1      16.432  -4.321   5.719  1.00  0.00     0.051 A 
ATOM      6  C   UNL     1      17.822  -4.172   5.701  1.00  0.00     0.157 A 
ENDROOT
BRANCH   1   7
ATOM      7  C   UNL     1      15.940  -7.153   8.167  1.00  0.00     0.010 C 
ATOM      8  C   UNL     1      15.975  -7.148   9.506  1.00  0.00     0.025 C 
BRANCH   8   9
ATOM      9  C   UNL     1      15.294  -8.179  10.305  1.00  0.00     0.064 C 
ATOM     10  O   UNL     1      14.578  -9.039   9.728  1.00  0.00    -0.545 OA
ATOM     11  O   UNL     1      15.427  -8.220  11.688  1.00  0.00    -0.545 OA
ENDBRANCH   8   9
ENDBRANCH   1   7
BRANCH   4  12
ATOM     12  O   UNL     1      20.007  -4.852   6.499  1.00  0.00    -0.504 OA
ATOM     13  H   UNL     1      20.451  -4.025   6.116  1.00  0.00     0.293 HD
ENDBRANCH   4  12
BRANCH   6  14
ATOM     14  O   UNL     1      18.389  -3.194   4.885  1.00  0.00    -0.504 OA
ATOM     15  H   UNL     1      17.949  -2.292   4.741  1.00  0.00     0.293 HD
ENDBRANCH   6  14
TORSDOF 4
ENDMDL
MODEL 3
REMARK VINA RESULT:    -4.041      6.723      7.800
REMARK INTER + INTRA:          -4.882
REMARK INTER:                  -4.759
REMARK INTRA:                  -0.123
REMARK UNBOUND:                -0.133
REMARK SMILES O=C([O-])C=Cc1ccc(O)c(O)c1
REMARK SMILES IDX 6 1 13 2 7 3 11 4 8 5 9 6 5 7 4 8 2 9 1 10 3 11 12 12 10 14
REMARK H PARENT 12 13 10 15
REMARK Flexibility Score: inf
ROOT
ATOM      1  C   UNL     1      15.327  -6.016  12.814  1.00  0.00    -0.022 A 
ATOM      2  C   UNL     1      15.713  -7.125  13.595  1.00  0.00     0.058 A 
ATOM      3  C   UNL     1      14.822  -6.240  11.523  1.00  0.00     0.012 A 
ATOM      4  C   UNL     1      15.572  -8.429  13.099  1.00  0.00     0.157 A 
ATOM      5  C   UNL     1      14.680  -7.538  11.030  1.00  0.00     0.051 A 
ATOM      6  C   UNL     1      15.050  -8.636  11.812  1.00  0.00     0.157 A 
ENDROOT
BRANCH   1   7
ATOM      7  C   UNL     1      15.468  -4.617  13.289  1.00  0.00     0.010 C 
ATOM      8  C   UNL     1      16.501  -4.180  14.022  1.00  0.00     0.025 C 
BRANCH   8   9
ATOM      9  C   UNL     1      16.593  -2.785  14.482  1.00  0.00     0.064 C 
ATOM     10  O   UNL     1      16.862  -1.875  13.654  1.00  0.00    -0.545 OA
ATOM     11  O   UNL     1      16.388  -2.454  15.816  1.00  0.00    -0.545 OA
ENDBRANCH   8   9
ENDBRANCH   1   7
BRANCH   4  12
ATOM     12  O   UNL     1      15.954  -9.520  13.879  1.00  0.00    -0.504 OA
ATOM     13  H   UNL     1      16.853  -9.971  13.760  1.00  0.00     0.293 HD
ENDBRANCH   4  12
BRANCH   6  14
ATOM     14  O   UNL     1      14.895  -9.921  11.293  1.00  0.00    -0.504 OA
ATOM     15  H   UNL     1      14.566 -10.084  10.348  1.00  0.00     0.293 HD
ENDBRANCH   6  14
TORSDOF 4
ENDMDL
MODEL 4
REMARK VINA RESULT:    -3.957     18.932     19.505
REMARK INTER + INTRA:          -4.784
REMARK INTER:                  -4.661
REMARK INTRA:                  -0.123
REMARK UNBOUND:                -0.133
REMARK SMILES O=C([O-])C=Cc1ccc(O)c(O)c1
REMARK SMILES IDX 6 1 13 2 7 3 11 4 8 5 9 6 5 7 4 8 2 9 1 10 3 11 12 12 10 14
REMARK H PARENT 12 13 10 15
REMARK Flexibility Score: inf
ROOT
ATOM      1  C   UNL     1      13.507 -17.866  21.469  1.00  0.00    -0.022 A 
ATOM      2  C   UNL     1      14.231 -18.297  20.338  1.00  0.00     0.058 A 
ATOM      3  C   UNL     1      14.215 -17.456  22.610  1.00  0.00     0.012 A 
ATOM      4  C   UNL     1      15.634 -18.291  20.345  1.00  0.00     0.157 A 
ATOM      5  C   UNL     1      15.611 -17.449  22.617  1.00  0.00     0.051 A 
ATOM      6  C   UNL     1      16.326 -17.862  21.489  1.00  0.00     0.157 A 
ENDROOT
BRANCH   1   7
ATOM      7  C   UNL     1      12.024 -17.865  21.514  1.00  0.00     0.010 C 
ATOM      8  C   UNL     1      11.248 -18.331  20.525  1.00  0.00     0.025 C 
BRANCH   8   9
ATOM      9  C   UNL     1       9.780 -18.298  20.608  1.00  0.00     0.064 C 
ATOM     10  O   UNL     1       9.132 -19.378  20.581  1.00  0.00    -0.545 OA
ATOM     11  O   UNL     1       9.094 -17.094  20.716  1.00  0.00    -0.545 OA
ENDBRANCH   8   9
ENDBRANCH   1   7
BRANCH   4  12
ATOM     12  O   UNL     1      16.342 -18.716  19.221  1.00  0.00    -0.504 OA
ATOM     13  H   UNL     1      16.550 -18.087  18.455  1.00  0.00     0.293 HD
ENDBRANCH   4  12
BRANCH   6  14
ATOM     14  O   UNL     1      17.720 -17.842  21.525  1.00  0.00    -0.504 OA
ATOM     15  H   UNL     1      18.232 -17.575  22.357  1.00  0.00     0.293 HD
ENDBRANCH   6  14
TORSDOF 4
ENDMDL
MODEL 5
REMARK VINA RESULT:    -3.922     18.040     19.686
REMARK INTER + INTRA:          -4.743
REMARK INTER:                  -4.616
REMARK INTRA:                  -0.127
REMARK UNBOUND:                -0.133
REMARK SMILES O=C([O-])C=Cc1ccc(O)c(O)c1
REMARK SMILES IDX 6 1 13 2 7 3 11 4 8 5 9 6 5 7 4 8 2 9 1 10 3 11 12 12 10 14
REMARK H PARENT 12 13 10 15
REMARK Flexibility Score: inf
ROOT
ATOM      1  C   UNL     1      12.412 -17.967  20.020  1.00  0.00    -0.022 A 
ATOM      2  C   UNL     1      12.350 -17.957  18.611  1.00  0.00     0.058 A 
ATOM      3  C   UNL     1      11.273 -18.351  20.745  1.00  0.00     0.012 A 
ATOM      4  C   UNL     1      11.178 -18.348  17.946  1.00  0.00     0.157 A 
ATOM      5  C   UNL     1      10.107 -18.742  20.084  1.00  0.00     0.051 A 
ATOM      6  C   UNL     1      10.053 -18.746  18.687  1.00  0.00     0.157 A 
ENDROOT
BRANCH   1   7
ATOM      7  C   UNL     1      13.623 -17.551  20.768  1.00  0.00     0.010 C 
ATOM      8  C   UNL     1      14.605 -18.392  21.124  1.00  0.00     0.025 C 
BRANCH   8   9
ATOM      9  C   UNL     1      15.783 -17.936  21.877  1.00  0.00     0.064 C 
ATOM     10  O   UNL     1      15.636 -17.468  23.037  1.00  0.00    -0.545 OA
ATOM     11  O   UNL     1      17.059 -18.014  21.331  1.00  0.00    -0.545 OA
ENDBRANCH   8   9
ENDBRANCH   1   7
BRANCH   4  12
ATOM     12  O   UNL     1      11.127 -18.338  16.553  1.00  0.00    -0.504 OA
ATOM     13  H   UNL     1      11.444 -17.540  16.015  1.00  0.00     0.293 HD
ENDBRANCH   4  12
BRANCH   6  14
ATOM     14  O   UNL     1       8.875 -19.144  18.054  1.00  0.00    -0.504 OA
ATOM     15  H   UNL     1       8.742 -19.044  17.055  1.00  0.00     0.293 HD
ENDBRANCH   6  14
TORSDOF 4
ENDMDL
MODEL 6
REMARK VINA RESULT:    -3.854     15.189     17.694
REMARK INTER + INTRA:          -4.663
REMARK INTER:                  -4.539
REMARK INTRA:                  -0.125
REMARK UNBOUND:                -0.133
REMARK SMILES O=C([O-])C=Cc1ccc(O)c(O)c1
REMARK SMILES IDX 6 1 13 2 7 3 11 4 8 5 9 6 5 7 4 8 2 9 1 10 3 11 12 12 10 14
REMARK H PARENT 12 13 10 15
REMARK Flexibility Score: inf
ROOT
ATOM      1  C   UNL     1      25.210 -14.649  17.685  1.00  0.00    -0.022 A 
ATOM      2  C   UNL     1      23.929 -14.485  18.253  1.00  0.00     0.058 A 
ATOM      3  C   UNL     1      25.815 -15.915  17.735  1.00  0.00     0.012 A 
ATOM      4  C   UNL     1      23.263 -15.574  18.836  1.00  0.00     0.157 A 
ATOM      5  C   UNL     1      25.151 -16.999  18.313  1.00  0.00     0.051 A 
ATOM      6  C   UNL     1      23.876 -16.836  18.862  1.00  0.00     0.157 A 
ENDROOT
BRANCH   1   7
ATOM      7  C   UNL     1      25.959 -13.527  17.068  1.00  0.00     0.010 C 
ATOM      8  C   UNL     1      25.377 -12.515  16.411  1.00  0.00     0.025 C 
BRANCH   8   9
ATOM      9  C   UNL     1      26.162 -11.428  15.805  1.00  0.00     0.064 C 
ATOM     10  O   UNL     1      27.379 -11.299  16.104  1.00  0.00    -0.545 OA
ATOM     11  O   UNL     1      25.584 -10.540  14.906  1.00  0.00    -0.545 OA
ENDBRANCH   8   9
ENDBRANCH   1   7
BRANCH   4  12
ATOM     12  O   UNL     1      21.997 -15.402  19.392  1.00  0.00    -0.504 OA
ATOM     13  H   UNL     1      21.679 -15.962  20.175  1.00  0.00     0.293 HD
ENDBRANCH   4  12
BRANCH   6  14
ATOM     14  O   UNL     1      23.237 -17.938  19.431  1.00  0.00    -0.504 OA
ATOM     15  H   UNL     1      22.783 -18.647  18.867  1.00  0.00     0.293 HD
ENDBRANCH   6  14
TORSDOF 4
ENDMDL
MODEL 7
REMARK VINA RESULT:    -3.848     18.676     19.341
REMARK INTER + INTRA:          -4.656
REMARK INTER:                  -4.535
REMARK INTRA:                  -0.121
REMARK UNBOUND:                -0.133
REMARK SMILES O=C([O-])C=Cc1ccc(O)c(O)c1
REMARK SMILES IDX 6 1 13 2 7 3 11 4 8 5 9 6 5 7 4 8 2 9 1 10 3 11 12 12 10 14
REMARK H PARENT 12 13 10 15
REMARK Flexibility Score: inf
ROOT
ATOM      1  C   UNL     1      13.901 -17.919  20.560  1.00  0.00    -0.022 A 
ATOM      2  C   UNL     1      14.261 -17.516  21.862  1.00  0.00     0.058 A 
ATOM      3  C   UNL     1      14.914 -18.300  19.665  1.00  0.00     0.012 A 
ATOM      4  C   UNL     1      15.606 -17.519  22.263  1.00  0.00     0.157 A 
ATOM      5  C   UNL     1      16.252 -18.304  20.064  1.00  0.00     0.051 A 
ATOM      6  C   UNL     1      16.604 -17.919  21.361  1.00  0.00     0.157 A 
ENDROOT
BRANCH   1   7
ATOM      7  C   UNL     1      12.495 -17.922  20.085  1.00  0.00     0.010 C 
ATOM      8  C   UNL     1      11.456 -18.307  20.838  1.00  0.00     0.025 C 
BRANCH   8   9
ATOM      9  C   UNL     1      10.078 -18.305  20.320  1.00  0.00     0.064 C 
ATOM     10  O   UNL     1       9.349 -19.317  20.492  1.00  0.00    -0.545 OA
ATOM     11  O   UNL     1       9.567 -17.203  19.644  1.00  0.00    -0.545 OA
ENDBRANCH   8   9
ENDBRANCH   1   7
BRANCH   4  12
ATOM     12  O   UNL     1      15.952 -17.121  23.554  1.00  0.00    -0.504 OA
ATOM     13  H   UNL     1      15.659 -16.228  23.932  1.00  0.00     0.293 HD
ENDBRANCH   4  12
BRANCH   6  14
ATOM     14  O   UNL     1      17.948 -17.935  21.731  1.00  0.00    -0.504 OA
ATOM     15  H   UNL     1      18.298 -17.393  22.512  1.00  0.00     0.293 HD
ENDBRANCH   6  14
TORSDOF 4
ENDMDL
MODEL 8
REMARK VINA RESULT:    -3.788     18.278     19.885
REMARK INTER + INTRA:          -4.586
REMARK INTER:                  -4.458
REMARK INTRA:                  -0.128
REMARK UNBOUND:                -0.133
REMARK SMILES O=C([O-])C=Cc1ccc(O)c(O)c1
REMARK SMILES IDX 6 1 13 2 7 3 11 4 8 5 9 6 5 7 4 8 2 9 1 10 3 11 12 12 10 14
REMARK H PARENT 12 13 10 15
REMARK Flexibility Score: inf
ROOT
ATOM      1  C   UNL     1      12.306 -17.931  20.039  1.00  0.00    -0.022 A 
ATOM      2  C   UNL     1      11.150 -18.397  20.699  1.00  0.00     0.058 A 
ATOM      3  C   UNL     1      12.309 -17.878  18.636  1.00  0.00     0.012 A 
ATOM      4  C   UNL     1      10.015 -18.777  19.967  1.00  0.00     0.157 A 
ATOM      5  C   UNL     1      11.179 -18.256  17.907  1.00  0.00     0.051 A 
ATOM      6  C   UNL     1      10.030 -18.702  18.565  1.00  0.00     0.157 A 
ENDROOT
BRANCH   1   7
ATOM      7  C   UNL     1      13.534 -17.529  20.768  1.00  0.00     0.010 C 
ATOM      8  C   UNL     1      14.583 -18.339  20.963  1.00  0.00     0.025 C 
BRANCH   8   9
ATOM      9  C   UNL     1      15.777 -17.901  21.704  1.00  0.00     0.064 C 
ATOM     10  O   UNL     1      16.918 -18.071  21.199  1.00  0.00    -0.545 OA
ATOM     11  O   UNL     1      15.666 -17.301  22.952  1.00  0.00    -0.545 OA
ENDBRANCH   8   9
ENDBRANCH   1   7
BRANCH   4  12
ATOM     12  O   UNL     1       8.876 -19.233  20.629  1.00  0.00    -0.504 OA
ATOM     13  H   UNL     1       8.922 -19.977  21.316  1.00  0.00     0.293 HD
ENDBRANCH   4  12
BRANCH   6  14
ATOM     14  O   UNL     1       8.916 -19.070  17.810  1.00  0.00    -0.504 OA
ATOM     15  H   UNL     1       8.026 -18.594  17.898  1.00  0.00     0.293 HD
ENDBRANCH   6  14
TORSDOF 4
ENDMDL
