MODEL 1
REMARK VINA RESULT:    -3.009      0.000      0.000
REMARK INTER + INTRA:          -5.998
REMARK INTER:                  -5.121
REMARK INTRA:                  -0.878
REMARK UNBOUND:                -0.878
REMARK SMILES CCCCCCCCCCCCCC(=O)[O-]
REMARK SMILES IDX 8 1 9 2 10 3 11 4 12 5 13 6 14 7 15 8 16 9 7 10 6 11 5 12
REMARK SMILES IDX 4 13 3 14 2 15 1 16
REMARK H PARENT
REMARK Flexibility Score: inf
ROOT
ATOM      1  C   UNL     1       6.722   9.628 -12.722  1.00  0.00     0.000 C 
ENDROOT
BRANCH   1   2
ATOM      2  C   UNL     1       5.659   8.957 -11.837  1.00  0.00     0.000 C 
BRANCH   2   3
ATOM      3  C   UNL     1       4.864   7.875 -12.584  1.00  0.00     0.000 C 
BRANCH   3   4
ATOM      4  C   UNL     1       3.357   8.149 -12.507  1.00  0.00     0.000 C 
BRANCH   4   5
ATOM      5  C   UNL     1       3.059   9.331 -11.574  1.00  0.00     0.006 C 
BRANCH   5   6
ATOM      6  C   UNL     1       1.982   8.994 -10.535  1.00  0.00     0.053 C 
BRANCH   6   7
ATOM      7  C   UNL     1       2.558   8.880  -9.157  1.00  0.00     0.041 C 
ATOM      8  O   UNL     1       1.954   9.382  -8.172  1.00  0.00    -0.550 OA
ATOM      9  O   UNL     1       3.745   8.188  -8.955  1.00  0.00    -0.550 OA
ENDBRANCH   6   7
ENDBRANCH   5   6
ENDBRANCH   4   5
ENDBRANCH   3   4
ENDBRANCH   2   3
ENDBRANCH   1   2
BRANCH   1  10
ATOM     10  C   UNL     1       6.115  10.618 -13.727  1.00  0.00     0.000 C 
BRANCH  10  11
ATOM     11  C   UNL     1       5.619   9.888 -14.983  1.00  0.00    -0.000 C 
BRANCH  11  12
ATOM     12  C   UNL     1       4.792  10.795 -15.910  1.00  0.00    -0.000 C 
BRANCH  12  13
ATOM     13  C   UNL     1       3.574  11.442 -15.213  1.00  0.00    -0.000 C 
BRANCH  13  14
ATOM     14  C   UNL     1       3.750  12.952 -14.963  1.00  0.00    -0.000 C 
BRANCH  14  15
ATOM     15  C   UNL     1       2.437  13.751 -15.058  1.00  0.00    -0.003 C 
ATOM     16  C   UNL     1       2.645  15.164 -15.602  1.00  0.00     0.004 C 
ENDBRANCH  14  15
ENDBRANCH  13  14
ENDBRANCH  12  13
ENDBRANCH  11  12
ENDBRANCH  10  11
ENDBRANCH   1  10
TORSDOF 12
ENDMDL
MODEL 2
REMARK VINA RESULT:    -2.222      3.041      6.005
REMARK INTER + INTRA:          -4.659
REMARK INTER:                  -3.438
REMARK INTRA:                  -1.221
REMARK UNBOUND:                -0.878
REMARK SMILES CCCCCCCCCCCCCC(=O)[O-]
REMARK SMILES IDX 8 1 9 2 10 3 11 4 12 5 13 6 14 7 15 8 16 9 7 10 6 11 5 12
REMARK SMILES IDX 4 13 3 14 2 15 1 16
REMARK H PARENT
REMARK Flexibility Score: inf
ROOT
ATOM      1  C   UNL     1       5.894   9.818 -11.884  1.00  0.00     0.000 C 
ENDROOT
BRANCH   1   2
ATOM      2  C   UNL     1       6.620   9.856 -13.239  1.00  0.00     0.000 C 
BRANCH   2   3
ATOM      3  C   UNL     1       5.882  10.709 -14.282  1.00  0.00     0.000 C 
BRANCH   3   4
ATOM      4  C   UNL     1       4.952   9.844 -15.141  1.00  0.00     0.000 C 
BRANCH   4   5
ATOM      5  C   UNL     1       3.785  10.672 -15.696  1.00  0.00     0.006 C 
BRANCH   5   6
ATOM      6  C   UNL     1       4.222  12.081 -16.120  1.00  0.00     0.053 C 
BRANCH   6   7
ATOM      7  C   UNL     1       3.391  13.140 -15.464  1.00  0.00     0.041 C 
ATOM      8  O   UNL     1       3.429  14.327 -15.882  1.00  0.00    -0.550 OA
ATOM      9  O   UNL     1       2.547  12.809 -14.411  1.00  0.00    -0.550 OA
ENDBRANCH   6   7
ENDBRANCH   5   6
ENDBRANCH   4   5
ENDBRANCH   3   4
ENDBRANCH   2   3
ENDBRANCH   1   2
BRANCH   1  10
ATOM     10  C   UNL     1       5.577   8.386 -11.424  1.00  0.00     0.000 C 
BRANCH  10  11
ATOM     11  C   UNL     1       4.229   7.915 -11.987  1.00  0.00    -0.000 C 
BRANCH  11  12
ATOM     12  C   UNL     1       3.145   9.004 -11.922  1.00  0.00    -0.000 C 
BRANCH  12  13
ATOM     13  C   UNL     1       1.914   8.598 -11.080  1.00  0.00    -0.000 C 
BRANCH  13  14
ATOM     14  C   UNL     1       2.287   7.877  -9.770  1.00  0.00    -0.000 C 
BRANCH  14  15
ATOM     15  C   UNL     1       2.919   8.804  -8.714  1.00  0.00    -0.003 C 
ATOM     16  C   UNL     1       1.875   9.602  -7.931  1.00  0.00     0.004 C 
ENDBRANCH  14  15
ENDBRANCH  13  14
ENDBRANCH  12  13
ENDBRANCH  11  12
ENDBRANCH  10  11
ENDBRANCH   1  10
TORSDOF 12
ENDMDL
MODEL 3
REMARK VINA RESULT:    -2.178      1.711      2.249
REMARK INTER + INTRA:          -4.584
REMARK INTER:                  -4.443
REMARK INTRA:                  -0.141
REMARK UNBOUND:                -0.878
REMARK SMILES CCCCCCCCCCCCCC(=O)[O-]
REMARK SMILES IDX 8 1 9 2 10 3 11 4 12 5 13 6 14 7 15 8 16 9 7 10 6 11 5 12
REMARK SMILES IDX 4 13 3 14 2 15 1 16
REMARK H PARENT
REMARK Flexibility Score: inf
ROOT
ATOM      1  C   UNL     1       6.401  10.315 -13.180  1.00  0.00     0.000 C 
ENDROOT
BRANCH   1   2
ATOM      2  C   UNL     1       6.837   8.909 -12.737  1.00  0.00     0.000 C 
BRANCH   2   3
ATOM      3  C   UNL     1       5.673   7.905 -12.723  1.00  0.00     0.000 C 
BRANCH   3   4
ATOM      4  C   UNL     1       4.978   7.889 -11.357  1.00  0.00     0.000 C 
BRANCH   4   5
ATOM      5  C   UNL     1       3.939   9.014 -11.253  1.00  0.00     0.006 C 
BRANCH   5   6
ATOM      6  C   UNL     1       2.674   8.571 -10.506  1.00  0.00     0.053 C 
BRANCH   6   7
ATOM      7  C   UNL     1       2.843   8.673  -9.022  1.00  0.00     0.041 C 
ATOM      8  O   UNL     1       3.876   8.213  -8.467  1.00  0.00    -0.550 OA
ATOM      9  O   UNL     1       1.875   9.307  -8.253  1.00  0.00    -0.550 OA
ENDBRANCH   6   7
ENDBRANCH   5   6
ENDBRANCH   4   5
ENDBRANCH   3   4
ENDBRANCH   2   3
ENDBRANCH   1   2
BRANCH   1  10
ATOM     10  C   UNL     1       5.714  10.315 -14.554  1.00  0.00     0.000 C 
BRANCH  10  11
ATOM     11  C   UNL     1       5.823   8.936 -15.220  1.00  0.00    -0.000 C 
BRANCH  11  12
ATOM     12  C   UNL     1       4.588   8.586 -16.068  1.00  0.00    -0.000 C 
BRANCH  12  13
ATOM     13  C   UNL     1       3.278   8.521 -15.251  1.00  0.00    -0.000 C 
BRANCH  13  14
ATOM     14  C   UNL     1       2.187   9.475 -15.777  1.00  0.00    -0.000 C 
BRANCH  14  15
ATOM     15  C   UNL     1       2.267  10.892 -15.181  1.00  0.00    -0.003 C 
ATOM     16  C   UNL     1       1.976  10.917 -13.680  1.00  0.00     0.004 C 
ENDBRANCH  14  15
ENDBRANCH  13  14
ENDBRANCH  12  13
ENDBRANCH  11  12
ENDBRANCH  10  11
ENDBRANCH   1  10
TORSDOF 12
ENDMDL
MODEL 4
REMARK VINA RESULT:    -2.066      1.291      2.133
REMARK INTER + INTRA:          -4.394
REMARK INTER:                  -3.715
REMARK INTRA:                  -0.679
REMARK UNBOUND:                -0.878
REMARK SMILES CCCCCCCCCCCCCC(=O)[O-]
REMARK SMILES IDX 8 1 9 2 10 3 11 4 12 5 13 6 14 7 15 8 16 9 7 10 6 11 5 12
REMARK SMILES IDX 4 13 3 14 2 15 1 16
REMARK H PARENT
REMARK Flexibility Score: inf
ROOT
ATOM      1  C   UNL     1       5.404  10.137 -14.419  1.00  0.00     0.000 C 
ENDROOT
BRANCH   1   2
ATOM      2  C   UNL     1       4.814   8.784 -13.988  1.00  0.00     0.000 C 
BRANCH   2   3
ATOM      3  C   UNL     1       3.277   8.780 -13.990  1.00  0.00     0.000 C 
BRANCH   3   4
ATOM      4  C   UNL     1       2.730   7.875 -12.880  1.00  0.00     0.000 C 
BRANCH   4   5
ATOM      5  C   UNL     1       2.516   8.664 -11.580  1.00  0.00     0.006 C 
BRANCH   5   6
ATOM      6  C   UNL     1       3.840   9.014 -10.889  1.00  0.00     0.053 C 
BRANCH   6   7
ATOM      7  C   UNL     1       3.832   8.621  -9.444  1.00  0.00     0.041 C 
ATOM      8  O   UNL     1       4.818   8.017  -8.944  1.00  0.00    -0.550 OA
ATOM      9  O   UNL     1       2.749   8.952  -8.639  1.00  0.00    -0.550 OA
ENDBRANCH   6   7
ENDBRANCH   5   6
ENDBRANCH   4   5
ENDBRANCH   3   4
ENDBRANCH   2   3
ENDBRANCH   1   2
BRANCH   1  10
ATOM     10  C   UNL     1       4.780  11.320 -13.663  1.00  0.00     0.000 C 
BRANCH  10  11
ATOM     11  C   UNL     1       4.129  12.311 -14.637  1.00  0.00    -0.000 C 
BRANCH  11  12
ATOM     12  C   UNL     1       2.595  12.200 -14.661  1.00  0.00    -0.000 C 
BRANCH  12  13
ATOM     13  C   UNL     1       1.875  13.527 -14.329  1.00  0.00    -0.000 C 
BRANCH  13  14
ATOM     14  C   UNL     1       2.700  14.773 -14.704  1.00  0.00    -0.000 C 
BRANCH  14  15
ATOM     15  C   UNL     1       2.384  15.323 -16.108  1.00  0.00    -0.003 C 
ATOM     16  C   UNL     1       2.191  16.839 -16.117  1.00  0.00     0.004 C 
ENDBRANCH  14  15
ENDBRANCH  13  14
ENDBRANCH  12  13
ENDBRANCH  11  12
ENDBRANCH  10  11
ENDBRANCH   1  10
TORSDOF 12
ENDMDL
MODEL 5
REMARK VINA RESULT:    -1.483     12.937     15.126
REMARK INTER + INTRA:          -3.401
REMARK INTER:                  -3.629
REMARK INTRA:                   0.228
REMARK UNBOUND:                -0.878
REMARK SMILES CCCCCCCCCCCCCC(=O)[O-]
REMARK SMILES IDX 8 1 9 2 10 3 11 4 12 5 13 6 14 7 15 8 16 9 7 10 6 11 5 12
REMARK SMILES IDX 4 13 3 14 2 15 1 16
REMARK H PARENT
REMARK Flexibility Score: inf
ROOT
ATOM      1  C   UNL     1      18.128  11.415 -13.445  1.00  0.00     0.000 C 
ENDROOT
BRANCH   1   2
ATOM      2  C   UNL     1      18.413   9.908 -13.342  1.00  0.00     0.000 C 
BRANCH   2   3
ATOM      3  C   UNL     1      19.085   9.344 -14.604  1.00  0.00     0.000 C 
BRANCH   3   4
ATOM      4  C   UNL     1      18.151   8.375 -15.338  1.00  0.00     0.000 C 
BRANCH   4   5
ATOM      5  C   UNL     1      16.930   8.025 -14.474  1.00  0.00     0.006 C 
BRANCH   5   6
ATOM      6  C   UNL     1      15.652   7.875 -15.309  1.00  0.00     0.053 C 
BRANCH   6   7
ATOM      7  C   UNL     1      14.474   8.510 -14.636  1.00  0.00     0.041 C 
ATOM      8  O   UNL     1      13.309   8.083 -14.859  1.00  0.00    -0.550 OA
ATOM      9  O   UNL     1      14.664   9.552 -13.737  1.00  0.00    -0.550 OA
ENDBRANCH   6   7
ENDBRANCH   5   6
ENDBRANCH   4   5
ENDBRANCH   3   4
ENDBRANCH   2   3
ENDBRANCH   1   2
BRANCH   1  10
ATOM     10  C   UNL     1      19.144  12.148 -14.334  1.00  0.00     0.000 C 
BRANCH  10  11
ATOM     11  C   UNL     1      20.541  11.526 -14.197  1.00  0.00    -0.000 C 
BRANCH  11  12
ATOM     12  C   UNL     1      21.667  12.510 -14.559  1.00  0.00    -0.000 C 
BRANCH  12  13
ATOM     13  C   UNL     1      21.488  13.910 -13.930  1.00  0.00    -0.000 C 
BRANCH  13  14
ATOM     14  C   UNL     1      22.119  15.037 -14.771  1.00  0.00    -0.000 C 
BRANCH  14  15
ATOM     15  C   UNL     1      21.420  15.262 -16.124  1.00  0.00    -0.003 C 
ATOM     16  C   UNL     1      19.912  15.020 -16.056  1.00  0.00     0.004 C 
ENDBRANCH  14  15
ENDBRANCH  13  14
ENDBRANCH  12  13
ENDBRANCH  11  12
ENDBRANCH  10  11
ENDBRANCH   1  10
TORSDOF 12
ENDMDL
MODEL 6
REMARK VINA RESULT:    -0.884      1.697      2.611
REMARK INTER + INTRA:          -2.382
REMARK INTER:                  -1.164
REMARK INTRA:                  -1.218
REMARK UNBOUND:                -0.878
REMARK SMILES CCCCCCCCCCCCCC(=O)[O-]
REMARK SMILES IDX 8 1 9 2 10 3 11 4 12 5 13 6 14 7 15 8 16 9 7 10 6 11 5 12
REMARK SMILES IDX 4 13 3 14 2 15 1 16
REMARK H PARENT
REMARK Flexibility Score: inf
ROOT
ATOM      1  C   UNL     1       5.830  10.183 -15.184  1.00  0.00     0.000 C 
ENDROOT
BRANCH   1   2
ATOM      2  C   UNL     1       5.245   8.840 -15.650  1.00  0.00     0.000 C 
BRANCH   2   3
ATOM      3  C   UNL     1       3.786   8.959 -16.116  1.00  0.00     0.000 C 
BRANCH   3   4
ATOM      4  C   UNL     1       2.902   7.913 -15.426  1.00  0.00     0.000 C 
BRANCH   4   5
ATOM      5  C   UNL     1       3.170   7.875 -13.915  1.00  0.00     0.006 C 
BRANCH   5   6
ATOM      6  C   UNL     1       1.927   8.245 -13.095  1.00  0.00     0.053 C 
BRANCH   6   7
ATOM      7  C   UNL     1       2.290   8.723 -11.723  1.00  0.00     0.041 C 
ATOM      8  O   UNL     1       2.868   7.950 -10.913  1.00  0.00    -0.550 OA
ATOM      9  O   UNL     1       2.022  10.034 -11.349  1.00  0.00    -0.550 OA
ENDBRANCH   6   7
ENDBRANCH   5   6
ENDBRANCH   4   5
ENDBRANCH   3   4
ENDBRANCH   2   3
ENDBRANCH   1   2
BRANCH   1  10
ATOM     10  C   UNL     1       5.910  10.293 -13.654  1.00  0.00     0.000 C 
BRANCH  10  11
ATOM     11  C   UNL     1       5.186  11.552 -13.156  1.00  0.00    -0.000 C 
BRANCH  11  12
ATOM     12  C   UNL     1       4.241  12.150 -14.212  1.00  0.00    -0.000 C 
BRANCH  12  13
ATOM     13  C   UNL     1       2.807  11.577 -14.150  1.00  0.00    -0.000 C 
BRANCH  13  14
ATOM     14  C   UNL     1       1.949  11.958 -15.372  1.00  0.00    -0.000 C 
BRANCH  14  15
ATOM     15  C   UNL     1       2.440  13.222 -16.101  1.00  0.00    -0.003 C 
ATOM     16  C   UNL     1       2.222  14.496 -15.284  1.00  0.00     0.004 C 
ENDBRANCH  14  15
ENDBRANCH  13  14
ENDBRANCH  12  13
ENDBRANCH  11  12
ENDBRANCH  10  11
ENDBRANCH   1  10
TORSDOF 12
ENDMDL
