MODEL 1
REMARK VINA RESULT:    -4.321      0.000      0.000
REMARK INTER + INTRA:          -5.876
REMARK INTER:                  -5.836
REMARK INTRA:                  -0.040
REMARK UNBOUND:                -0.040
REMARK SMILES [NH3+]CCCC[C@H]([NH3+])C(=O)[O-]
REMARK SMILES IDX 4 1 3 2 2 3 1 4 5 8 6 9 7 10 8 14 9 15 10 16
REMARK H PARENT 1 5 1 6 1 7 7 11 7 12 7 13
REMARK Flexibility Score: inf
ROOT
ATOM      1  C   UNL     1      62.583   2.501  -3.341  1.00  0.00     0.012 C 
ENDROOT
BRANCH   1   2
ATOM      2  C   UNL     1      61.061   2.315  -3.259  1.00  0.00     0.061 C 
BRANCH   2   3
ATOM      3  C   UNL     1      60.641   1.380  -2.112  1.00  0.00     0.258 C 
BRANCH   3   4
ATOM      4  N   UNL     1      59.965   0.175  -2.600  1.00  0.00    -0.358 N 
ATOM      5  H   UNL     1      59.756   0.291  -3.617  1.00  0.00     0.344 HD
ATOM      6  H   UNL     1      60.583  -0.659  -2.484  1.00  0.00     0.344 HD
ATOM      7  H   UNL     1      59.066   0.028  -2.087  1.00  0.00     0.344 HD
ENDBRANCH   3   4
ENDBRANCH   2   3
ENDBRANCH   1   2
BRANCH   1   8
ATOM      8  C   UNL     1      63.287   1.762  -2.189  1.00  0.00     0.072 C 
BRANCH   8   9
ATOM      9  C   UNL     1      64.829   1.883  -2.206  1.00  0.00     0.227 C 
BRANCH   9  10
ATOM     10  N   UNL     1      65.414   1.668  -0.875  1.00  0.00    -0.350 N 
ATOM     11  H   UNL     1      66.147   2.382  -0.660  1.00  0.00     0.345 HD
ATOM     12  H   UNL     1      64.665   1.714  -0.146  1.00  0.00     0.345 HD
ATOM     13  H   UNL     1      65.850   0.718  -0.836  1.00  0.00     0.345 HD
ENDBRANCH   9  10
BRANCH   9  14
ATOM     14  C   UNL     1      65.276   3.197  -2.797  1.00  0.00     0.099 C 
ATOM     15  O   UNL     1      65.918   3.210  -3.880  1.00  0.00    -0.544 OA
ATOM     16  O   UNL     1      64.945   4.401  -2.186  1.00  0.00    -0.544 OA
ENDBRANCH   9  14
ENDBRANCH   8   9
ENDBRANCH   1   8
TORSDOF 7
ENDMDL
MODEL 2
REMARK VINA RESULT:    -4.293      0.106      1.026
REMARK INTER + INTRA:          -5.838
REMARK INTER:                  -5.784
REMARK INTRA:                  -0.054
REMARK UNBOUND:                -0.040
REMARK SMILES [NH3+]CCCC[C@H]([NH3+])C(=O)[O-]
REMARK SMILES IDX 4 1 3 2 2 3 1 4 5 8 6 9 7 10 8 14 9 15 10 16
REMARK H PARENT 1 5 1 6 1 7 7 11 7 12 7 13
REMARK Flexibility Score: inf
ROOT
ATOM      1  C   UNL     1      62.496   2.499  -3.363  1.00  0.00     0.012 C 
ENDROOT
BRANCH   1   2
ATOM      2  C   UNL     1      60.975   2.323  -3.244  1.00  0.00     0.061 C 
BRANCH   2   3
ATOM      3  C   UNL     1      60.577   1.375  -2.100  1.00  0.00     0.258 C 
BRANCH   3   4
ATOM      4  N   UNL     1      59.938   0.152  -2.592  1.00  0.00    -0.358 N 
ATOM      5  H   UNL     1      60.540  -0.270  -3.335  1.00  0.00     0.344 HD
ATOM      6  H   UNL     1      59.838  -0.542  -1.817  1.00  0.00     0.344 HD
ATOM      7  H   UNL     1      59.001   0.369  -3.002  1.00  0.00     0.344 HD
ENDBRANCH   3   4
ENDBRANCH   2   3
ENDBRANCH   1   2
BRANCH   1   8
ATOM      8  C   UNL     1      63.223   1.750  -2.233  1.00  0.00     0.072 C 
BRANCH   8   9
ATOM      9  C   UNL     1      64.760   1.921  -2.244  1.00  0.00     0.227 C 
BRANCH   9  10
ATOM     10  N   UNL     1      65.347   1.729  -0.911  1.00  0.00    -0.350 N 
ATOM     11  H   UNL     1      66.372   1.536  -0.968  1.00  0.00     0.345 HD
ATOM     12  H   UNL     1      65.190   2.583  -0.328  1.00  0.00     0.345 HD
ATOM     13  H   UNL     1      64.880   0.920  -0.439  1.00  0.00     0.345 HD
ENDBRANCH   9  10
BRANCH   9  14
ATOM     14  C   UNL     1      65.166   3.246  -2.839  1.00  0.00     0.099 C 
ATOM     15  O   UNL     1      64.924   4.313  -2.214  1.00  0.00    -0.544 OA
ATOM     16  O   UNL     1      65.850   3.304  -4.048  1.00  0.00    -0.544 OA
ENDBRANCH   9  14
ENDBRANCH   8   9
ENDBRANCH   1   8
TORSDOF 7
ENDMDL
MODEL 3
REMARK VINA RESULT:    -4.233      3.497      5.400
REMARK INTER + INTRA:          -5.757
REMARK INTER:                  -5.643
REMARK INTRA:                  -0.114
REMARK UNBOUND:                -0.040
REMARK SMILES [NH3+]CCCC[C@H]([NH3+])C(=O)[O-]
REMARK SMILES IDX 4 1 3 2 2 3 1 4 5 8 6 9 7 10 8 14 9 15 10 16
REMARK H PARENT 1 5 1 6 1 7 7 11 7 12 7 13
REMARK Flexibility Score: inf
ROOT
ATOM      1  C   UNL     1      62.245   2.464  -3.243  1.00  0.00     0.012 C 
ENDROOT
BRANCH   1   2
ATOM      2  C   UNL     1      63.730   2.567  -2.865  1.00  0.00     0.061 C 
BRANCH   2   3
ATOM      3  C   UNL     1      64.174   1.455  -1.901  1.00  0.00     0.258 C 
BRANCH   3   4
ATOM      4  N   UNL     1      65.263   1.886  -1.022  1.00  0.00    -0.358 N 
ATOM      5  H   UNL     1      65.991   1.137  -0.991  1.00  0.00     0.344 HD
ATOM      6  H   UNL     1      65.705   2.758  -1.391  1.00  0.00     0.344 HD
ATOM      7  H   UNL     1      64.907   2.048  -0.052  1.00  0.00     0.344 HD
ENDBRANCH   3   4
ENDBRANCH   2   3
ENDBRANCH   1   2
BRANCH   1   8
ATOM      8  C   UNL     1      61.448   1.749  -2.137  1.00  0.00     0.072 C 
BRANCH   8   9
ATOM      9  C   UNL     1      60.275   0.886  -2.656  1.00  0.00     0.227 C 
BRANCH   9  10
ATOM     10  N   UNL     1      59.330   1.668  -3.465  1.00  0.00    -0.350 N 
ATOM     11  H   UNL     1      59.562   2.686  -3.445  1.00  0.00     0.345 HD
ATOM     12  H   UNL     1      59.344   1.330  -4.454  1.00  0.00     0.345 HD
ATOM     13  H   UNL     1      58.361   1.538  -3.089  1.00  0.00     0.345 HD
ENDBRANCH   9  10
BRANCH   9  14
ATOM     14  C   UNL     1      59.573   0.169  -1.529  1.00  0.00     0.099 C 
ATOM     15  O   UNL     1      59.260   0.799  -0.485  1.00  0.00    -0.544 OA
ATOM     16  O   UNL     1      59.222  -1.171  -1.648  1.00  0.00    -0.544 OA
ENDBRANCH   9  14
ENDBRANCH   8   9
ENDBRANCH   1   8
TORSDOF 7
ENDMDL
MODEL 4
REMARK VINA RESULT:    -4.101      2.854      4.749
REMARK INTER + INTRA:          -5.580
REMARK INTER:                  -5.501
REMARK INTRA:                  -0.078
REMARK UNBOUND:                -0.040
REMARK SMILES [NH3+]CCCC[C@H]([NH3+])C(=O)[O-]
REMARK SMILES IDX 4 1 3 2 2 3 1 4 5 8 6 9 7 10 8 14 9 15 10 16
REMARK H PARENT 1 5 1 6 1 7 7 11 7 12 7 13
REMARK Flexibility Score: inf
ROOT
ATOM      1  C   UNL     1      62.562   2.551  -3.106  1.00  0.00     0.012 C 
ENDROOT
BRANCH   1   2
ATOM      2  C   UNL     1      64.047   2.607  -2.718  1.00  0.00     0.061 C 
BRANCH   2   3
ATOM      3  C   UNL     1      64.498   1.371  -1.922  1.00  0.00     0.258 C 
BRANCH   3   4
ATOM      4  N   UNL     1      65.402   1.720  -0.825  1.00  0.00    -0.358 N 
ATOM      5  H   UNL     1      66.341   1.300  -1.012  1.00  0.00     0.344 HD
ATOM      6  H   UNL     1      65.513   2.756  -0.760  1.00  0.00     0.344 HD
ATOM      7  H   UNL     1      65.041   1.342   0.081  1.00  0.00     0.344 HD
ENDBRANCH   3   4
ENDBRANCH   2   3
ENDBRANCH   1   2
BRANCH   1   8
ATOM      8  C   UNL     1      61.832   1.449  -2.316  1.00  0.00     0.072 C 
BRANCH   8   9
ATOM      9  C   UNL     1      60.300   1.640  -2.229  1.00  0.00     0.227 C 
BRANCH   9  10
ATOM     10  N   UNL     1      59.597   0.367  -2.014  1.00  0.00    -0.350 N 
ATOM     11  H   UNL     1      59.545  -0.194  -2.894  1.00  0.00     0.345 HD
ATOM     12  H   UNL     1      60.089  -0.191  -1.279  1.00  0.00     0.345 HD
ATOM     13  H   UNL     1      58.624   0.560  -1.681  1.00  0.00     0.345 HD
ENDBRANCH   9  10
BRANCH   9  14
ATOM     14  C   UNL     1      59.762   2.367  -3.436  1.00  0.00     0.099 C 
ATOM     15  O   UNL     1      59.672   1.768  -4.540  1.00  0.00    -0.544 OA
ATOM     16  O   UNL     1      59.317   3.680  -3.335  1.00  0.00    -0.544 OA
ENDBRANCH   9  14
ENDBRANCH   8   9
ENDBRANCH   1   8
TORSDOF 7
ENDMDL
MODEL 5
REMARK VINA RESULT:    -3.846      1.616      2.201
REMARK INTER + INTRA:          -5.235
REMARK INTER:                  -5.062
REMARK INTRA:                  -0.173
REMARK UNBOUND:                -0.040
REMARK SMILES [NH3+]CCCC[C@H]([NH3+])C(=O)[O-]
REMARK SMILES IDX 4 1 3 2 2 3 1 4 5 8 6 9 7 10 8 14 9 15 10 16
REMARK H PARENT 1 5 1 6 1 7 7 11 7 12 7 13
REMARK Flexibility Score: inf
ROOT
ATOM      1  C   UNL     1      63.711   1.847  -2.242  1.00  0.00     0.012 C 
ENDROOT
BRANCH   1   2
ATOM      2  C   UNL     1      62.828   2.456  -3.341  1.00  0.00     0.061 C 
BRANCH   2   3
ATOM      3  C   UNL     1      61.329   2.381  -3.005  1.00  0.00     0.258 C 
BRANCH   3   4
ATOM      4  N   UNL     1      60.946   1.072  -2.471  1.00  0.00    -0.358 N 
ATOM      5  H   UNL     1      60.664   0.451  -3.263  1.00  0.00     0.344 HD
ATOM      6  H   UNL     1      61.755   0.630  -1.979  1.00  0.00     0.344 HD
ATOM      7  H   UNL     1      60.137   1.168  -1.814  1.00  0.00     0.344 HD
ENDBRANCH   3   4
ENDBRANCH   2   3
ENDBRANCH   1   2
BRANCH   1   8
ATOM      8  C   UNL     1      65.072   2.562  -2.176  1.00  0.00     0.072 C 
BRANCH   8   9
ATOM      9  C   UNL     1      65.464   3.301  -3.477  1.00  0.00     0.227 C 
BRANCH   9  10
ATOM     10  N   UNL     1      66.667   2.728  -4.097  1.00  0.00    -0.350 N 
ATOM     11  H   UNL     1      66.441   1.866  -4.643  1.00  0.00     0.345 HD
ATOM     12  H   UNL     1      67.110   3.430  -4.732  1.00  0.00     0.345 HD
ATOM     13  H   UNL     1      67.357   2.479  -3.351  1.00  0.00     0.345 HD
ENDBRANCH   9  10
BRANCH   9  14
ATOM     14  C   UNL     1      65.619   4.784  -3.247  1.00  0.00     0.099 C 
ATOM     15  O   UNL     1      64.751   5.408  -2.581  1.00  0.00    -0.544 OA
ATOM     16  O   UNL     1      66.735   5.465  -3.721  1.00  0.00    -0.544 OA
ENDBRANCH   9  14
ENDBRANCH   8   9
ENDBRANCH   1   8
TORSDOF 7
ENDMDL
MODEL 6
REMARK VINA RESULT:    -3.761      4.730      6.400
REMARK INTER + INTRA:          -5.120
REMARK INTER:                  -5.055
REMARK INTRA:                  -0.064
REMARK UNBOUND:                -0.040
REMARK SMILES [NH3+]CCCC[C@H]([NH3+])C(=O)[O-]
REMARK SMILES IDX 4 1 3 2 2 3 1 4 5 8 6 9 7 10 8 14 9 15 10 16
REMARK H PARENT 1 5 1 6 1 7 7 11 7 12 7 13
REMARK Flexibility Score: inf
ROOT
ATOM      1  C   UNL     1      60.057   0.634  -2.232  1.00  0.00     0.012 C 
ENDROOT
BRANCH   1   2
ATOM      2  C   UNL     1      60.689   1.982  -2.607  1.00  0.00     0.061 C 
BRANCH   2   3
ATOM      3  C   UNL     1      62.227   1.939  -2.590  1.00  0.00     0.258 C 
BRANCH   3   4
ATOM      4  N   UNL     1      62.814   2.705  -3.692  1.00  0.00    -0.358 N 
ATOM      5  H   UNL     1      63.174   3.613  -3.321  1.00  0.00     0.344 HD
ATOM      6  H   UNL     1      63.614   2.181  -4.112  1.00  0.00     0.344 HD
ATOM      7  H   UNL     1      62.093   2.904  -4.424  1.00  0.00     0.344 HD
ENDBRANCH   3   4
ENDBRANCH   2   3
ENDBRANCH   1   2
BRANCH   1   8
ATOM      8  C   UNL     1      59.627   0.624  -0.754  1.00  0.00     0.072 C 
BRANCH   8   9
ATOM      9  C   UNL     1      58.838  -0.637  -0.331  1.00  0.00     0.227 C 
BRANCH   9  10
ATOM     10  N   UNL     1      57.426  -0.564  -0.731  1.00  0.00    -0.350 N 
ATOM     11  H   UNL     1      56.794  -0.880   0.040  1.00  0.00     0.345 HD
ATOM     12  H   UNL     1      57.181   0.418  -0.995  1.00  0.00     0.345 HD
ATOM     13  H   UNL     1      57.269  -1.176  -1.565  1.00  0.00     0.345 HD
ENDBRANCH   9  10
BRANCH   9  14
ATOM     14  C   UNL     1      58.977  -0.908   1.147  1.00  0.00     0.099 C 
ATOM     15  O   UNL     1      59.714  -1.849   1.543  1.00  0.00    -0.544 OA
ATOM     16  O   UNL     1      58.340  -0.101   2.081  1.00  0.00    -0.544 OA
ENDBRANCH   9  14
ENDBRANCH   8   9
ENDBRANCH   1   8
TORSDOF 7
ENDMDL
MODEL 7
REMARK VINA RESULT:    -3.729      4.941      5.835
REMARK INTER + INTRA:          -5.077
REMARK INTER:                  -4.962
REMARK INTRA:                  -0.115
REMARK UNBOUND:                -0.040
REMARK SMILES [NH3+]CCCC[C@H]([NH3+])C(=O)[O-]
REMARK SMILES IDX 4 1 3 2 2 3 1 4 5 8 6 9 7 10 8 14 9 15 10 16
REMARK H PARENT 1 5 1 6 1 7 7 11 7 12 7 13
REMARK Flexibility Score: inf
ROOT
ATOM      1  C   UNL     1      60.992   1.439  -1.634  1.00  0.00     0.012 C 
ENDROOT
BRANCH   1   2
ATOM      2  C   UNL     1      60.945   2.197  -2.969  1.00  0.00     0.061 C 
BRANCH   2   3
ATOM      3  C   UNL     1      59.510   2.529  -3.411  1.00  0.00     0.258 C 
BRANCH   3   4
ATOM      4  N   UNL     1      59.166   1.905  -4.690  1.00  0.00    -0.358 N 
ATOM      5  H   UNL     1      60.036   1.527  -5.128  1.00  0.00     0.344 HD
ATOM      6  H   UNL     1      58.502   1.112  -4.541  1.00  0.00     0.344 HD
ATOM      7  H   UNL     1      58.743   2.609  -5.338  1.00  0.00     0.344 HD
ENDBRANCH   3   4
ENDBRANCH   2   3
ENDBRANCH   1   2
BRANCH   1   8
ATOM      8  C   UNL     1      59.624   0.813  -1.313  1.00  0.00     0.072 C 
BRANCH   8   9
ATOM      9  C   UNL     1      59.382   0.554   0.193  1.00  0.00     0.227 C 
BRANCH   9  10
ATOM     10  N   UNL     1      60.502   1.022   1.020  1.00  0.00    -0.350 N 
ATOM     11  H   UNL     1      60.953   1.871   0.608  1.00  0.00     0.345 HD
ATOM     12  H   UNL     1      60.164   1.246   1.984  1.00  0.00     0.345 HD
ATOM     13  H   UNL     1      61.221   0.264   1.094  1.00  0.00     0.345 HD
ENDBRANCH   9  10
BRANCH   9  14
ATOM     14  C   UNL     1      59.069  -0.897   0.462  1.00  0.00     0.099 C 
ATOM     15  O   UNL     1      59.690  -1.514   1.367  1.00  0.00    -0.544 OA
ATOM     16  O   UNL     1      58.067  -1.552  -0.245  1.00  0.00    -0.544 OA
ENDBRANCH   9  14
ENDBRANCH   8   9
ENDBRANCH   1   8
TORSDOF 7
ENDMDL
MODEL 8
REMARK VINA RESULT:    -3.720      5.583      6.899
REMARK INTER + INTRA:          -5.065
REMARK INTER:                  -4.562
REMARK INTRA:                  -0.503
REMARK UNBOUND:                -0.040
REMARK SMILES [NH3+]CCCC[C@H]([NH3+])C(=O)[O-]
REMARK SMILES IDX 4 1 3 2 2 3 1 4 5 8 6 9 7 10 8 14 9 15 10 16
REMARK H PARENT 1 5 1 6 1 7 7 11 7 12 7 13
REMARK Flexibility Score: inf
ROOT
ATOM      1  C   UNL     1      60.187   0.705  -0.021  1.00  0.00     0.012 C 
ENDROOT
BRANCH   1   2
ATOM      2  C   UNL     1      59.618   1.232  -1.347  1.00  0.00     0.061 C 
BRANCH   2   3
ATOM      3  C   UNL     1      60.281   0.584  -2.574  1.00  0.00     0.258 C 
BRANCH   3   4
ATOM      4  N   UNL     1      59.656  -0.692  -2.931  1.00  0.00    -0.358 N 
ATOM      5  H   UNL     1      59.222  -1.108  -2.077  1.00  0.00     0.344 HD
ATOM      6  H   UNL     1      58.905  -0.542  -3.642  1.00  0.00     0.344 HD
ATOM      7  H   UNL     1      60.372  -1.358  -3.302  1.00  0.00     0.344 HD
ENDBRANCH   3   4
ENDBRANCH   2   3
ENDBRANCH   1   2
BRANCH   1   8
ATOM      8  C   UNL     1      59.056   0.401   0.977  1.00  0.00     0.072 C 
BRANCH   8   9
ATOM      9  C   UNL     1      58.041  -0.657   0.482  1.00  0.00     0.227 C 
BRANCH   9  10
ATOM     10  N   UNL     1      56.882  -0.771   1.379  1.00  0.00    -0.350 N 
ATOM     11  H   UNL     1      56.656   0.145   1.829  1.00  0.00     0.345 HD
ATOM     12  H   UNL     1      56.049  -1.105   0.843  1.00  0.00     0.345 HD
ATOM     13  H   UNL     1      57.091  -1.470   2.129  1.00  0.00     0.345 HD
ENDBRANCH   9  10
BRANCH   9  14
ATOM     14  C   UNL     1      58.699  -1.996   0.261  1.00  0.00     0.099 C 
ATOM     15  O   UNL     1      59.353  -2.534   1.192  1.00  0.00    -0.544 OA
ATOM     16  O   UNL     1      58.551  -2.670  -0.946  1.00  0.00    -0.544 OA
ENDBRANCH   9  14
ENDBRANCH   8   9
ENDBRANCH   1   8
TORSDOF 7
ENDMDL
MODEL 9
REMARK VINA RESULT:    -3.699      1.851      1.968
REMARK INTER + INTRA:          -5.036
REMARK INTER:                  -4.925
REMARK INTRA:                  -0.112
REMARK UNBOUND:                -0.040
REMARK SMILES [NH3+]CCCC[C@H]([NH3+])C(=O)[O-]
REMARK SMILES IDX 4 1 3 2 2 3 1 4 5 8 6 9 7 10 8 14 9 15 10 16
REMARK H PARENT 1 5 1 6 1 7 7 11 7 12 7 13
REMARK Flexibility Score: inf
ROOT
ATOM      1  C   UNL     1      61.241   2.610  -3.512  1.00  0.00     0.012 C 
ENDROOT
BRANCH   1   2
ATOM      2  C   UNL     1      59.957   1.830  -3.190  1.00  0.00     0.061 C 
BRANCH   2   3
ATOM      3  C   UNL     1      60.131   0.866  -2.005  1.00  0.00     0.258 C 
BRANCH   3   4
ATOM      4  N   UNL     1      59.667  -0.487  -2.320  1.00  0.00    -0.358 N 
ATOM      5  H   UNL     1      60.280  -1.179  -1.832  1.00  0.00     0.344 HD
ATOM      6  H   UNL     1      58.687  -0.622  -1.984  1.00  0.00     0.344 HD
ATOM      7  H   UNL     1      59.719  -0.661  -3.350  1.00  0.00     0.344 HD
ENDBRANCH   3   4
ENDBRANCH   2   3
ENDBRANCH   1   2
BRANCH   1   8
ATOM      8  C   UNL     1      62.447   2.003  -2.772  1.00  0.00     0.072 C 
BRANCH   8   9
ATOM      9  C   UNL     1      63.740   2.847  -2.869  1.00  0.00     0.227 C 
BRANCH   9  10
ATOM     10  N   UNL     1      63.920   3.430  -4.206  1.00  0.00    -0.350 N 
ATOM     11  H   UNL     1      63.766   4.464  -4.195  1.00  0.00     0.345 HD
ATOM     12  H   UNL     1      64.885   3.230  -4.555  1.00  0.00     0.345 HD
ATOM     13  H   UNL     1      63.236   2.997  -4.868  1.00  0.00     0.345 HD
ENDBRANCH   9  10
BRANCH   9  14
ATOM     14  C   UNL     1      64.953   2.053  -2.448  1.00  0.00     0.099 C 
ATOM     15  O   UNL     1      66.041   2.200  -3.063  1.00  0.00    -0.544 OA
ATOM     16  O   UNL     1      64.897   1.195  -1.356  1.00  0.00    -0.544 OA
ENDBRANCH   9  14
ENDBRANCH   8   9
ENDBRANCH   1   8
TORSDOF 7
ENDMDL
