MODEL 1
REMARK VINA RESULT:    -4.799      0.000      0.000
REMARK INTER + INTRA:          -7.227
REMARK INTER:                  -7.323
REMARK INTRA:                   0.097
REMARK UNBOUND:                 0.097
REMARK SMILES CC1=CCC[C@H](C)C(=O)C[C@H](C(C)C)C(=O)C1
REMARK SMILES IDX 8 1 9 2 6 3 7 4 5 5 4 6 3 7 2 8 1 9 10 11 11 12 15 13 16 14
REMARK SMILES IDX 17 15 12 17 13 18 14 19
REMARK H PARENT
REMARK Flexibility Score: 70.00
ROOT
ATOM      1  C   UNL     1      -4.185 -13.203  31.294  1.00  0.00     0.136 C 
ATOM      2  O   UNL     1      -4.292 -12.896  32.473  1.00  0.00    -0.299 OA
ENDROOT
BRANCH   1   3
ATOM      3  C   UNL     1      -4.886 -14.444  30.777  1.00  0.00     0.053 C 
ATOM      4  C   UNL     1      -5.615 -15.133  31.934  1.00  0.00     0.016 C 
BRANCH   3   5
ATOM      5  C   UNL     1      -5.882 -14.122  29.636  1.00  0.00     0.015 C 
BRANCH   5   6
ATOM      6  C   UNL     1      -5.445 -14.643  28.258  1.00  0.00     0.028 C 
BRANCH   6   7
ATOM      7  C   UNL     1      -4.805 -13.555  27.431  1.00  0.00    -0.028 C 
ATOM      8  C   UNL     1      -3.475 -13.323  27.346  1.00  0.00    -0.070 CG0
ATOM      9  C   UNL     1      -3.007 -12.177  26.485  1.00  0.00     0.039 C 
ATOM     10  G   UNL     1      -2.443 -14.161  28.083  1.00  0.00     0.000 G0
ENDBRANCH   6   7
ENDBRANCH   5   6
ENDBRANCH   3   5
ENDBRANCH   1   3
BRANCH   1  11
ATOM     11  C   UNL     1      -3.314 -12.358  30.393  1.00  0.00     0.087 C 
BRANCH  11  12
ATOM     12  C   UNL     1      -1.844 -12.843  30.327  1.00  0.00     0.066 C 
BRANCH  12  13
ATOM     13  C   UNL     1      -1.484 -13.362  28.939  1.00  0.00     0.140 C 
ATOM     14  O   UNL     1      -0.356 -13.171  28.508  1.00  0.00    -0.299 OA
BRANCH  13  15
ATOM     15  C   UNL     1      -2.448 -14.150  28.076  1.00  0.00     0.106 CG0
ATOM     16  G   UNL     1      -3.478 -13.300  27.352  1.00  0.00     0.000 G0
ENDBRANCH  13  15
ENDBRANCH  12  13
BRANCH  12  17
ATOM     17  C   UNL     1      -0.856 -11.743  30.831  1.00  0.00    -0.006 C 
ATOM     18  C   UNL     1      -1.609 -10.523  31.381  1.00  0.00     0.008 C 
ATOM     19  C   UNL     1       0.162 -12.239  31.874  1.00  0.00     0.008 C 
ENDBRANCH  12  17
ENDBRANCH  11  12
ENDBRANCH   1  11
TORSDOF 1
ENDMDL
MODEL 2
REMARK VINA RESULT:    -4.733      1.919      4.780
REMARK INTER + INTRA:          -7.127
REMARK INTER:                  -7.597
REMARK INTRA:                   0.470
REMARK UNBOUND:                 0.097
REMARK SMILES CC1=CCC[C@H](C)C(=O)C[C@H](C(C)C)C(=O)C1
REMARK SMILES IDX 8 1 9 2 6 3 7 4 5 5 4 6 3 7 2 8 1 9 10 11 11 12 15 13 16 14
REMARK SMILES IDX 17 15 12 17 13 18 14 19
REMARK H PARENT
REMARK Flexibility Score: 70.00
ROOT
ATOM      1  C   UNL     1      -3.879 -12.956  27.991  1.00  0.00     0.136 C 
ATOM      2  O   UNL     1      -3.787 -14.004  27.367  1.00  0.00    -0.299 OA
ENDROOT
BRANCH   1   3
ATOM      3  C   UNL     1      -2.991 -11.784  27.620  1.00  0.00     0.053 C 
ATOM      4  C   UNL     1      -3.253 -11.391  26.163  1.00  0.00     0.016 C 
BRANCH   3   5
ATOM      5  C   UNL     1      -3.212 -10.565  28.549  1.00  0.00     0.015 C 
BRANCH   5   6
ATOM      6  C   UNL     1      -2.163 -10.431  29.665  1.00  0.00     0.028 C 
BRANCH   6   7
ATOM      7  C   UNL     1      -1.207 -11.600  29.671  1.00  0.00    -0.028 C 
ATOM      8  C   UNL     1      -1.192 -12.587  30.595  1.00  0.00    -0.070 CG0
ATOM      9  C   UNL     1      -0.152 -13.671  30.459  1.00  0.00     0.039 C 
ATOM     10  G   UNL     1      -2.168 -12.644  31.757  1.00  0.00     0.000 G0
ENDBRANCH   6   7
ENDBRANCH   5   6
ENDBRANCH   3   5
ENDBRANCH   1   3
BRANCH   1  11
ATOM     11  C   UNL     1      -4.845 -12.874  29.150  1.00  0.00     0.087 C 
BRANCH  11  12
ATOM     12  C   UNL     1      -4.315 -13.548  30.441  1.00  0.00     0.066 C 
BRANCH  12  13
ATOM     13  C   UNL     1      -3.622 -12.544  31.356  1.00  0.00     0.140 C 
ATOM     14  O   UNL     1      -4.273 -11.620  31.824  1.00  0.00    -0.299 OA
BRANCH  13  15
ATOM     15  C   UNL     1      -2.165 -12.658  31.756  1.00  0.00     0.106 CG0
ATOM     16  G   UNL     1      -1.192 -12.608  30.590  1.00  0.00     0.000 G0
ENDBRANCH  13  15
ENDBRANCH  12  13
BRANCH  12  17
ATOM     17  C   UNL     1      -5.440 -14.349  31.171  1.00  0.00    -0.006 C 
ATOM     18  C   UNL     1      -6.178 -15.286  30.205  1.00  0.00     0.008 C 
ATOM     19  C   UNL     1      -4.955 -15.143  32.397  1.00  0.00     0.008 C 
ENDBRANCH  12  17
ENDBRANCH  11  12
ENDBRANCH   1  11
TORSDOF 1
ENDMDL
MODEL 3
REMARK VINA RESULT:    -4.650      1.453      4.200
REMARK INTER + INTRA:          -7.000
REMARK INTER:                  -7.533
REMARK INTRA:                   0.533
REMARK UNBOUND:                 0.097
REMARK SMILES CC1=CCC[C@H](C)C(=O)C[C@H](C(C)C)C(=O)C1
REMARK SMILES IDX 8 1 9 2 6 3 7 4 5 5 4 6 3 7 2 8 1 9 10 11 11 12 15 13 16 14
REMARK SMILES IDX 17 15 12 17 13 18 14 19
REMARK H PARENT
REMARK Flexibility Score: 70.00
ROOT
ATOM      1  C   UNL     1      -3.893 -12.437  31.461  1.00  0.00     0.136 C 
ATOM      2  O   UNL     1      -4.300 -12.518  32.611  1.00  0.00    -0.299 OA
ENDROOT
BRANCH   1   3
ATOM      3  C   UNL     1      -2.989 -11.286  31.066  1.00  0.00     0.053 C 
ATOM      4  C   UNL     1      -3.591  -9.972  31.574  1.00  0.00     0.016 C 
BRANCH   3   5
ATOM      5  C   UNL     1      -1.550 -11.458  31.610  1.00  0.00     0.015 C 
BRANCH   5   6
ATOM      6  C   UNL     1      -1.038 -12.907  31.579  1.00  0.00     0.028 C 
BRANCH   6   7
ATOM      7  C   UNL     1      -0.099 -13.138  30.419  1.00  0.00    -0.028 C 
ATOM      8  C   UNL     1      -0.445 -13.696  29.237  1.00  0.00    -0.070 CG0
ATOM      9  C   UNL     1       0.627 -13.870  28.192  1.00  0.00     0.039 C 
ATOM     10  G   UNL     1      -1.860 -14.156  28.925  1.00  0.00     0.000 G0
ENDBRANCH   6   7
ENDBRANCH   5   6
ENDBRANCH   3   5
ENDBRANCH   1   3
BRANCH   1  11
ATOM     11  C   UNL     1      -4.345 -13.465  30.449  1.00  0.00     0.087 C 
BRANCH  11  12
ATOM     12  C   UNL     1      -4.240 -12.973  28.983  1.00  0.00     0.066 C 
BRANCH  12  13
ATOM     13  C   UNL     1      -2.817 -13.097  28.449  1.00  0.00     0.140 C 
ATOM     14  O   UNL     1      -2.408 -12.265  27.651  1.00  0.00    -0.299 OA
BRANCH  13  15
ATOM     15  C   UNL     1      -1.858 -14.182  28.895  1.00  0.00     0.106 CG0
ATOM     16  G   UNL     1      -0.459 -13.685  29.218  1.00  0.00     0.000 G0
ENDBRANCH  13  15
ENDBRANCH  12  13
BRANCH  12  17
ATOM     17  C   UNL     1      -5.289 -13.679  28.067  1.00  0.00    -0.006 C 
ATOM     18  C   UNL     1      -4.619 -14.333  26.850  1.00  0.00     0.008 C 
ATOM     19  C   UNL     1      -6.168 -14.712  28.793  1.00  0.00     0.008 C 
ENDBRANCH  12  17
ENDBRANCH  11  12
ENDBRANCH   1  11
TORSDOF 1
ENDMDL
MODEL 4
REMARK VINA RESULT:    -4.562      1.791      4.063
REMARK INTER + INTRA:          -6.865
REMARK INTER:                  -7.913
REMARK INTRA:                   1.048
REMARK UNBOUND:                 0.097
REMARK SMILES CC1=CCC[C@H](C)C(=O)C[C@H](C(C)C)C(=O)C1
REMARK SMILES IDX 8 1 9 2 6 3 7 4 5 5 4 6 3 7 2 8 1 9 10 11 11 12 15 13 16 14
REMARK SMILES IDX 17 15 12 17 13 18 14 19
REMARK H PARENT
REMARK Flexibility Score: 70.00
ROOT
ATOM      1  C   UNL     1      -1.248 -13.003  29.633  1.00  0.00     0.136 C 
ATOM      2  O   UNL     1      -0.342 -12.371  29.108  1.00  0.00    -0.299 OA
ENDROOT
BRANCH   1   3
ATOM      3  C   UNL     1      -1.506 -12.849  31.118  1.00  0.00     0.053 C 
ATOM      4  C   UNL     1      -1.888 -11.396  31.418  1.00  0.00     0.016 C 
BRANCH   3   5
ATOM      5  C   UNL     1      -2.615 -13.805  31.623  1.00  0.00     0.015 C 
BRANCH   5   6
ATOM      6  C   UNL     1      -4.041 -13.259  31.445  1.00  0.00     0.028 C 
BRANCH   6   7
ATOM      7  C   UNL     1      -4.993 -14.336  30.983  1.00  0.00    -0.028 C 
ATOM      8  C   UNL     1      -5.584 -14.382  29.768  1.00  0.00    -0.070 CG0
ATOM      9  C   UNL     1      -6.527 -15.523  29.479  1.00  0.00     0.039 C 
ATOM     10  G   UNL     1      -5.343 -13.336  28.693  1.00  0.00     0.000 G0
ENDBRANCH   6   7
ENDBRANCH   5   6
ENDBRANCH   3   5
ENDBRANCH   1   3
BRANCH   1  11
ATOM     11  C   UNL     1      -2.057 -13.962  28.789  1.00  0.00     0.087 C 
BRANCH  11  12
ATOM     12  C   UNL     1      -2.865 -13.263  27.667  1.00  0.00     0.066 C 
BRANCH  12  13
ATOM     13  C   UNL     1      -4.312 -13.747  27.632  1.00  0.00     0.140 C 
ATOM     14  O   UNL     1      -4.656 -14.525  26.753  1.00  0.00    -0.299 OA
BRANCH  13  15
ATOM     15  C   UNL     1      -5.343 -13.346  28.667  1.00  0.00     0.106 CG0
ATOM     16  G   UNL     1      -5.569 -14.380  29.757  1.00  0.00     0.000 G0
ENDBRANCH  13  15
ENDBRANCH  12  13
BRANCH  12  17
ATOM     17  C   UNL     1      -2.754 -11.709  27.764  1.00  0.00    -0.006 C 
ATOM     18  C   UNL     1      -2.643 -11.068  26.374  1.00  0.00     0.008 C 
ATOM     19  C   UNL     1      -3.895 -11.043  28.554  1.00  0.00     0.008 C 
ENDBRANCH  12  17
ENDBRANCH  11  12
ENDBRANCH   1  11
TORSDOF 1
ENDMDL
MODEL 5
REMARK VINA RESULT:    -4.509      1.917      3.885
REMARK INTER + INTRA:          -6.785
REMARK INTER:                  -7.039
REMARK INTRA:                   0.255
REMARK UNBOUND:                 0.097
REMARK SMILES CC1=CCC[C@H](C)C(=O)C[C@H](C(C)C)C(=O)C1
REMARK SMILES IDX 8 1 9 2 6 3 7 4 5 5 4 6 3 7 2 8 1 9 10 11 11 12 15 13 16 14
REMARK SMILES IDX 17 15 12 17 13 18 14 19
REMARK H PARENT
REMARK Flexibility Score: 70.00
ROOT
ATOM      1  C   UNL     1      -3.197 -12.154  31.270  1.00  0.00     0.136 C 
ATOM      2  O   UNL     1      -2.152 -11.921  31.861  1.00  0.00    -0.299 OA
ENDROOT
BRANCH   1   3
ATOM      3  C   UNL     1      -4.259 -11.077  31.175  1.00  0.00     0.053 C 
ATOM      4  C   UNL     1      -4.510 -10.487  32.566  1.00  0.00     0.016 C 
BRANCH   3   5
ATOM      5  C   UNL     1      -3.867  -9.953  30.184  1.00  0.00     0.015 C 
BRANCH   5   6
ATOM      6  C   UNL     1      -2.546 -10.208  29.441  1.00  0.00     0.028 C 
BRANCH   6   7
ATOM      7  C   UNL     1      -2.759 -10.305  27.949  1.00  0.00    -0.028 C 
ATOM      8  C   UNL     1      -2.741 -11.453  27.234  1.00  0.00    -0.070 CG0
ATOM      9  C   UNL     1      -2.954 -11.365  25.744  1.00  0.00     0.039 C 
ATOM     10  G   UNL     1      -2.512 -12.815  27.867  1.00  0.00     0.000 G0
ENDBRANCH   6   7
ENDBRANCH   5   6
ENDBRANCH   3   5
ENDBRANCH   1   3
BRANCH   1  11
ATOM     11  C   UNL     1      -3.421 -13.532  30.692  1.00  0.00     0.087 C 
BRANCH  11  12
ATOM     12  C   UNL     1      -4.457 -13.556  29.540  1.00  0.00     0.066 C 
BRANCH  12  13
ATOM     13  C   UNL     1      -3.778 -13.582  28.174  1.00  0.00     0.140 C 
ATOM     14  O   UNL     1      -4.300 -14.211  27.264  1.00  0.00    -0.299 OA
BRANCH  13  15
ATOM     15  C   UNL     1      -2.501 -12.825  27.870  1.00  0.00     0.106 CG0
ATOM     16  G   UNL     1      -2.720 -11.461  27.238  1.00  0.00     0.000 G0
ENDBRANCH  13  15
ENDBRANCH  12  13
BRANCH  12  17
ATOM     17  C   UNL     1      -5.487 -14.714  29.720  1.00  0.00    -0.006 C 
ATOM     18  C   UNL     1      -5.773 -14.984  31.205  1.00  0.00     0.008 C 
ATOM     19  C   UNL     1      -6.813 -14.504  28.966  1.00  0.00     0.008 C 
ENDBRANCH  12  17
ENDBRANCH  11  12
ENDBRANCH   1  11
TORSDOF 1
ENDMDL
MODEL 6
REMARK VINA RESULT:    -4.437      1.557      4.078
REMARK INTER + INTRA:          -6.674
REMARK INTER:                  -7.185
REMARK INTRA:                   0.511
REMARK UNBOUND:                 0.097
REMARK SMILES CC1=CCC[C@H](C)C(=O)C[C@H](C(C)C)C(=O)C1
REMARK SMILES IDX 8 1 9 2 6 3 7 4 5 5 4 6 3 7 2 8 1 9 10 11 11 12 15 13 16 14
REMARK SMILES IDX 17 15 12 17 13 18 14 19
REMARK H PARENT
REMARK Flexibility Score: 70.00
ROOT
ATOM      1  C   UNL     1      -2.455 -12.395  31.227  1.00  0.00     0.136 C 
ATOM      2  O   UNL     1      -2.981 -11.430  31.764  1.00  0.00    -0.299 OA
ENDROOT
BRANCH   1   3
ATOM      3  C   UNL     1      -1.042 -12.275  30.691  1.00  0.00     0.053 C 
ATOM      4  C   UNL     1      -0.126 -11.735  31.793  1.00  0.00     0.016 C 
BRANCH   3   5
ATOM      5  C   UNL     1      -0.499 -13.625  30.162  1.00  0.00     0.015 C 
BRANCH   5   6
ATOM      6  C   UNL     1      -1.120 -14.070  28.828  1.00  0.00     0.028 C 
BRANCH   6   7
ATOM      7  C   UNL     1      -1.399 -12.892  27.926  1.00  0.00    -0.028 C 
ATOM      8  C   UNL     1      -2.624 -12.515  27.496  1.00  0.00    -0.070 CG0
ATOM      9  C   UNL     1      -2.720 -11.321  26.580  1.00  0.00     0.039 C 
ATOM     10  G   UNL     1      -3.898 -13.244  27.891  1.00  0.00     0.000 G0
ENDBRANCH   6   7
ENDBRANCH   5   6
ENDBRANCH   3   5
ENDBRANCH   1   3
BRANCH   1  11
ATOM     11  C   UNL     1      -3.250 -13.671  31.068  1.00  0.00     0.087 C 
BRANCH  11  12
ATOM     12  C   UNL     1      -4.655 -13.449  30.454  1.00  0.00     0.066 C 
BRANCH  12  13
ATOM     13  C   UNL     1      -4.577 -12.683  29.136  1.00  0.00     0.140 C 
ATOM     14  O   UNL     1      -5.040 -11.552  29.079  1.00  0.00    -0.299 OA
BRANCH  13  15
ATOM     15  C   UNL     1      -3.909 -13.238  27.896  1.00  0.00     0.106 CG0
ATOM     16  G   UNL     1      -2.633 -12.515  27.497  1.00  0.00     0.000 G0
ENDBRANCH  13  15
ENDBRANCH  12  13
BRANCH  12  17
ATOM     17  C   UNL     1      -5.441 -14.791  30.322  1.00  0.00    -0.006 C 
ATOM     18  C   UNL     1      -5.975 -15.264  31.682  1.00  0.00     0.008 C 
ATOM     19  C   UNL     1      -6.589 -14.753  29.298  1.00  0.00     0.008 C 
ENDBRANCH  12  17
ENDBRANCH  11  12
ENDBRANCH   1  11
TORSDOF 1
ENDMDL
MODEL 7
REMARK VINA RESULT:    -4.403      2.435      4.895
REMARK INTER + INTRA:          -6.624
REMARK INTER:                  -7.392
REMARK INTRA:                   0.768
REMARK UNBOUND:                 0.097
REMARK SMILES CC1=CCC[C@H](C)C(=O)C[C@H](C(C)C)C(=O)C1
REMARK SMILES IDX 8 1 9 2 6 3 7 4 5 5 4 6 3 7 2 8 1 9 10 11 11 12 15 13 16 14
REMARK SMILES IDX 17 15 12 17 13 18 14 19
REMARK H PARENT
REMARK Flexibility Score: 70.00
ROOT
ATOM      1  C   UNL     1      -1.054 -13.278  29.320  1.00  0.00     0.136 C 
ATOM      2  O   UNL     1      -1.010 -14.336  28.707  1.00  0.00    -0.299 OA
ENDROOT
BRANCH   1   3
ATOM      3  C   UNL     1      -0.599 -13.231  30.765  1.00  0.00     0.053 C 
ATOM      4  C   UNL     1      -0.063 -11.832  31.082  1.00  0.00     0.016 C 
BRANCH   3   5
ATOM      5  C   UNL     1      -1.736 -13.601  31.749  1.00  0.00     0.015 C 
BRANCH   5   6
ATOM      6  C   UNL     1      -3.147 -13.297  31.219  1.00  0.00     0.028 C 
BRANCH   6   7
ATOM      7  C   UNL     1      -3.851 -12.270  32.073  1.00  0.00    -0.028 C 
ATOM      8  C   UNL     1      -3.890 -10.942  31.821  1.00  0.00    -0.070 CG0
ATOM      9  C   UNL     1      -4.625 -10.055  32.793  1.00  0.00     0.039 C 
ATOM     10  G   UNL     1      -3.224 -10.314  30.608  1.00  0.00     0.000 G0
ENDBRANCH   6   7
ENDBRANCH   5   6
ENDBRANCH   3   5
ENDBRANCH   1   3
BRANCH   1  11
ATOM     11  C   UNL     1      -1.609 -12.054  28.630  1.00  0.00     0.087 C 
BRANCH  11  12
ATOM     12  C   UNL     1      -3.157 -12.039  28.553  1.00  0.00     0.066 C 
BRANCH  12  13
ATOM     13  C   UNL     1      -3.744 -10.827  29.269  1.00  0.00     0.140 C 
ATOM     14  O   UNL     1      -4.708 -10.257  28.778  1.00  0.00    -0.299 OA
BRANCH  13  15
ATOM     15  C   UNL     1      -3.218 -10.315  30.594  1.00  0.00     0.106 CG0
ATOM     16  G   UNL     1      -3.897 -10.921  31.811  1.00  0.00     0.000 G0
ENDBRANCH  13  15
ENDBRANCH  12  13
BRANCH  12  17
ATOM     17  C   UNL     1      -3.657 -12.166  27.079  1.00  0.00    -0.006 C 
ATOM     18  C   UNL     1      -2.743 -11.404  26.109  1.00  0.00     0.008 C 
ATOM     19  C   UNL     1      -3.835 -13.616  26.595  1.00  0.00     0.008 C 
ENDBRANCH  12  17
ENDBRANCH  11  12
ENDBRANCH   1  11
TORSDOF 1
ENDMDL
MODEL 8
REMARK VINA RESULT:    -4.230      1.694      3.916
REMARK INTER + INTRA:          -6.358
REMARK INTER:                  -6.254
REMARK INTRA:                  -0.105
REMARK UNBOUND:                 0.097
REMARK SMILES CC1=CCC[C@H](C)C(=O)C[C@H](C(C)C)C(=O)C1
REMARK SMILES IDX 8 1 9 2 6 3 7 4 5 5 4 6 3 7 2 8 1 9 10 11 11 12 15 13 16 14
REMARK SMILES IDX 17 15 12 17 13 18 14 19
REMARK H PARENT
REMARK Flexibility Score: 70.00
ROOT
ATOM      1  C   UNL     1      -2.105 -13.544  28.374  1.00  0.00     0.136 C 
ATOM      2  O   UNL     1      -1.535 -14.315  27.615  1.00  0.00    -0.299 OA
ENDROOT
BRANCH   1   3
ATOM      3  C   UNL     1      -3.421 -12.918  27.957  1.00  0.00     0.053 C 
ATOM      4  C   UNL     1      -3.237 -12.194  26.620  1.00  0.00     0.016 C 
BRANCH   3   5
ATOM      5  C   UNL     1      -4.557 -13.964  27.843  1.00  0.00     0.015 C 
BRANCH   5   6
ATOM      6  C   UNL     1      -5.761 -13.682  28.756  1.00  0.00     0.028 C 
BRANCH   6   7
ATOM      7  C   UNL     1      -5.903 -14.736  29.827  1.00  0.00    -0.028 C 
ATOM      8  C   UNL     1      -5.450 -14.622  31.096  1.00  0.00    -0.070 CG0
ATOM      9  C   UNL     1      -5.661 -15.784  32.033  1.00  0.00     0.039 C 
ATOM     10  G   UNL     1      -4.738 -13.382  31.609  1.00  0.00     0.000 G0
ENDBRANCH   6   7
ENDBRANCH   5   6
ENDBRANCH   3   5
ENDBRANCH   1   3
BRANCH   1  11
ATOM     11  C   UNL     1      -1.452 -13.196  29.692  1.00  0.00     0.087 C 
BRANCH  11  12
ATOM     12  C   UNL     1      -2.397 -12.455  30.671  1.00  0.00     0.066 C 
BRANCH  12  13
ATOM     13  C   UNL     1      -3.217 -13.431  31.508  1.00  0.00     0.140 C 
ATOM     14  O   UNL     1      -2.635 -14.279  32.170  1.00  0.00    -0.299 OA
BRANCH  13  15
ATOM     15  C   UNL     1      -4.728 -13.376  31.598  1.00  0.00     0.106 CG0
ATOM     16  G   UNL     1      -5.430 -14.623  31.088  1.00  0.00     0.000 G0
ENDBRANCH  13  15
ENDBRANCH  12  13
BRANCH  12  17
ATOM     17  C   UNL     1      -1.619 -11.421  31.545  1.00  0.00    -0.006 C 
ATOM     18  C   UNL     1      -0.144 -11.818  31.703  1.00  0.00     0.008 C 
ATOM     19  C   UNL     1      -1.715  -9.970  31.043  1.00  0.00     0.008 C 
ENDBRANCH  12  17
ENDBRANCH  11  12
ENDBRANCH   1  11
TORSDOF 1
ENDMDL
MODEL 9
REMARK VINA RESULT:    -4.030      2.059      5.201
REMARK INTER + INTRA:          -6.054
REMARK INTER:                  -6.304
REMARK INTRA:                   0.249
REMARK UNBOUND:                 0.097
REMARK SMILES CC1=CCC[C@H](C)C(=O)C[C@H](C(C)C)C(=O)C1
REMARK SMILES IDX 8 1 9 2 6 3 7 4 5 5 4 6 3 7 2 8 1 9 10 11 11 12 15 13 16 14
REMARK SMILES IDX 17 15 12 17 13 18 14 19
REMARK H PARENT
REMARK Flexibility Score: 70.00
ROOT
ATOM      1  C   UNL     1      -1.570 -13.669  28.407  1.00  0.00     0.136 C 
ATOM      2  O   UNL     1      -1.387 -14.751  27.865  1.00  0.00    -0.299 OA
ENDROOT
BRANCH   1   3
ATOM      3  C   UNL     1      -0.663 -13.237  29.541  1.00  0.00     0.053 C 
ATOM      4  C   UNL     1       0.793 -13.524  29.164  1.00  0.00     0.016 C 
BRANCH   3   5
ATOM      5  C   UNL     1      -0.837 -11.738  29.891  1.00  0.00     0.015 C 
BRANCH   5   6
ATOM      6  C   UNL     1      -1.237 -11.479  31.353  1.00  0.00     0.028 C 
BRANCH   6   7
ATOM      7  C   UNL     1      -2.127 -12.576  31.886  1.00  0.00    -0.028 C 
ATOM      8  C   UNL     1      -3.474 -12.611  31.771  1.00  0.00    -0.070 CG0
ATOM      9  C   UNL     1      -4.209 -13.776  32.382  1.00  0.00     0.039 C 
ATOM     10  G   UNL     1      -4.268 -11.529  31.060  1.00  0.00     0.000 G0
ENDBRANCH   6   7
ENDBRANCH   5   6
ENDBRANCH   3   5
ENDBRANCH   1   3
BRANCH   1  11
ATOM     11  C   UNL     1      -2.732 -12.813  27.959  1.00  0.00     0.087 C 
BRANCH  11  12
ATOM     12  C   UNL     1      -3.999 -12.987  28.834  1.00  0.00     0.066 C 
BRANCH  12  13
ATOM     13  C   UNL     1      -4.366 -11.694  29.555  1.00  0.00     0.140 C 
ATOM     14  O   UNL     1      -4.802 -10.755  28.903  1.00  0.00    -0.299 OA
BRANCH  13  15
ATOM     15  C   UNL     1      -4.262 -11.526  31.057  1.00  0.00     0.106 CG0
ATOM     16  G   UNL     1      -3.477 -12.624  31.755  1.00  0.00     0.000 G0
ENDBRANCH  13  15
ENDBRANCH  12  13
BRANCH  12  17
ATOM     17  C   UNL     1      -5.188 -13.573  28.010  1.00  0.00    -0.006 C 
ATOM     18  C   UNL     1      -4.690 -14.359  26.788  1.00  0.00     0.008 C 
ATOM     19  C   UNL     1      -6.155 -14.446  28.830  1.00  0.00     0.008 C 
ENDBRANCH  12  17
ENDBRANCH  11  12
ENDBRANCH   1  11
TORSDOF 1
ENDMDL
