MODEL 1
REMARK VINA RESULT:    -4.659      0.000      0.000
REMARK INTER + INTRA:         -12.267
REMARK INTER:                  -9.018
REMARK INTRA:                  -3.250
REMARK UNBOUND:                -3.250
REMARK SMILES CCCCCCCCCCCCCCCCCC(=O)[O-]
REMARK SMILES IDX 10 1 11 2 12 3 13 4 14 5 15 6 16 7 17 8 18 9 19 10 20 11
REMARK SMILES IDX 9 12 8 13 7 14 6 15 5 16 4 17 3 18 2 19 1 20
REMARK H PARENT
REMARK Flexibility Score: inf
ROOT
ATOM      1  C   UNL     1       0.289  54.788  20.442  1.00  0.00     0.000 C 
ENDROOT
BRANCH   1   2
ATOM      2  C   UNL     1       1.785  54.862  20.799  1.00  0.00     0.000 C 
BRANCH   2   3
ATOM      3  C   UNL     1       2.622  53.795  20.079  1.00  0.00     0.000 C 
BRANCH   3   4
ATOM      4  C   UNL     1       1.717  52.738  19.427  1.00  0.00     0.000 C 
BRANCH   4   5
ATOM      5  C   UNL     1       2.033  52.527  17.936  1.00  0.00     0.000 C 
BRANCH   5   6
ATOM      6  C   UNL     1       1.254  53.493  17.028  1.00  0.00     0.000 C 
BRANCH   6   7
ATOM      7  C   UNL     1       2.161  54.538  16.358  1.00  0.00     0.006 C 
BRANCH   7   8
ATOM      8  C   UNL     1       1.916  55.959  16.882  1.00  0.00     0.053 C 
BRANCH   8   9
ATOM      9  C   UNL     1       3.124  56.462  17.607  1.00  0.00     0.041 C 
ATOM     10  O   UNL     1       4.270  56.047  17.292  1.00  0.00    -0.550 OA
ATOM     11  O   UNL     1       2.981  57.352  18.664  1.00  0.00    -0.550 OA
ENDBRANCH   8   9
ENDBRANCH   7   8
ENDBRANCH   6   7
ENDBRANCH   5   6
ENDBRANCH   4   5
ENDBRANCH   3   4
ENDBRANCH   2   3
ENDBRANCH   1   2
BRANCH   1  12
ATOM     12  C   UNL     1      -0.274  56.031  19.724  1.00  0.00     0.000 C 
BRANCH  12  13
ATOM     13  C   UNL     1      -1.380  55.749  18.690  1.00  0.00    -0.000 C 
BRANCH  13  14
ATOM     14  C   UNL     1      -1.926  54.314  18.780  1.00  0.00    -0.000 C 
BRANCH  14  15
ATOM     15  C   UNL     1      -2.406  53.776  17.422  1.00  0.00    -0.000 C 
BRANCH  15  16
ATOM     16  C   UNL     1      -2.371  52.243  17.341  1.00  0.00    -0.000 C 
BRANCH  16  17
ATOM     17  C   UNL     1      -1.886  51.636  18.668  1.00  0.00    -0.000 C 
BRANCH  17  18
ATOM     18  C   UNL     1      -1.010  50.386  18.470  1.00  0.00    -0.000 C 
BRANCH  18  19
ATOM     19  C   UNL     1      -0.483  49.752  19.771  1.00  0.00    -0.003 C 
ATOM     20  C   UNL     1       0.905  49.132  19.615  1.00  0.00     0.004 C 
ENDBRANCH  18  19
ENDBRANCH  17  18
ENDBRANCH  16  17
ENDBRANCH  15  16
ENDBRANCH  14  15
ENDBRANCH  13  14
ENDBRANCH  12  13
ENDBRANCH   1  12
TORSDOF 16
ENDMDL
MODEL 2
REMARK VINA RESULT:    -4.648      3.423      6.210
REMARK INTER + INTRA:         -12.246
REMARK INTER:                  -9.283
REMARK INTRA:                  -2.963
REMARK UNBOUND:                -3.250
REMARK SMILES CCCCCCCCCCCCCCCCCC(=O)[O-]
REMARK SMILES IDX 10 1 11 2 12 3 13 4 14 5 15 6 16 7 17 8 18 9 19 10 20 11
REMARK SMILES IDX 9 12 8 13 7 14 6 15 5 16 4 17 3 18 2 19 1 20
REMARK H PARENT
REMARK Flexibility Score: inf
ROOT
ATOM      1  C   UNL     1       0.132  54.615  20.497  1.00  0.00     0.000 C 
ENDROOT
BRANCH   1   2
ATOM      2  C   UNL     1      -0.687  55.783  19.919  1.00  0.00     0.000 C 
BRANCH   2   3
ATOM      3  C   UNL     1      -2.035  55.334  19.335  1.00  0.00     0.000 C 
BRANCH   3   4
ATOM      4  C   UNL     1      -1.828  54.494  18.066  1.00  0.00     0.000 C 
BRANCH   4   5
ATOM      5  C   UNL     1      -2.305  53.041  18.233  1.00  0.00     0.000 C 
BRANCH   5   6
ATOM      6  C   UNL     1      -1.357  52.030  17.566  1.00  0.00     0.000 C 
BRANCH   6   7
ATOM      7  C   UNL     1      -0.818  50.983  18.554  1.00  0.00     0.006 C 
BRANCH   7   8
ATOM      8  C   UNL     1      -1.294  49.561  18.231  1.00  0.00     0.053 C 
BRANCH   8   9
ATOM      9  C   UNL     1      -2.680  49.344  18.751  1.00  0.00     0.041 C 
ATOM     10  O   UNL     1      -2.857  48.977  19.943  1.00  0.00    -0.550 OA
ATOM     11  O   UNL     1      -3.773  49.499  17.908  1.00  0.00    -0.550 OA
ENDBRANCH   8   9
ENDBRANCH   7   8
ENDBRANCH   6   7
ENDBRANCH   5   6
ENDBRANCH   4   5
ENDBRANCH   3   4
ENDBRANCH   2   3
ENDBRANCH   1   2
BRANCH   1  12
ATOM     12  C   UNL     1       1.603  54.946  20.824  1.00  0.00     0.000 C 
BRANCH  12  13
ATOM     13  C   UNL     1       2.644  54.005  20.193  1.00  0.00    -0.000 C 
BRANCH  13  14
ATOM     14  C   UNL     1       2.054  53.130  19.073  1.00  0.00    -0.000 C 
BRANCH  14  15
ATOM     15  C   UNL     1       2.625  53.474  17.688  1.00  0.00    -0.000 C 
BRANCH  15  16
ATOM     16  C   UNL     1       1.587  54.125  16.761  1.00  0.00    -0.000 C 
BRANCH  16  17
ATOM     17  C   UNL     1       2.003  55.559  16.397  1.00  0.00    -0.000 C 
BRANCH  17  18
ATOM     18  C   UNL     1       1.058  56.624  16.983  1.00  0.00    -0.000 C 
BRANCH  18  19
ATOM     19  C   UNL     1       1.713  57.588  17.989  1.00  0.00    -0.003 C 
ATOM     20  C   UNL     1       3.158  57.216  18.320  1.00  0.00     0.004 C 
ENDBRANCH  18  19
ENDBRANCH  17  18
ENDBRANCH  16  17
ENDBRANCH  15  16
ENDBRANCH  14  15
ENDBRANCH  13  14
ENDBRANCH  12  13
ENDBRANCH   1  12
TORSDOF 16
ENDMDL
MODEL 3
REMARK VINA RESULT:    -4.647      1.710      3.109
REMARK INTER + INTRA:         -12.243
REMARK INTER:                  -9.054
REMARK INTRA:                  -3.189
REMARK UNBOUND:                -3.250
REMARK SMILES CCCCCCCCCCCCCCCCCC(=O)[O-]
REMARK SMILES IDX 10 1 11 2 12 3 13 4 14 5 15 6 16 7 17 8 18 9 19 10 20 11
REMARK SMILES IDX 9 12 8 13 7 14 6 15 5 16 4 17 3 18 2 19 1 20
REMARK H PARENT
REMARK Flexibility Score: inf
ROOT
ATOM      1  C   UNL     1       0.969  53.382  19.982  1.00  0.00     0.000 C 
ENDROOT
BRANCH   1   2
ATOM      2  C   UNL     1       2.286  54.128  20.262  1.00  0.00     0.000 C 
BRANCH   2   3
ATOM      3  C   UNL     1       2.180  55.640  20.009  1.00  0.00     0.000 C 
BRANCH   3   4
ATOM      4  C   UNL     1       0.724  56.047  19.734  1.00  0.00     0.000 C 
BRANCH   4   5
ATOM      5  C   UNL     1       0.500  56.496  18.280  1.00  0.00     0.000 C 
BRANCH   5   6
ATOM      6  C   UNL     1       1.816  56.615  17.492  1.00  0.00     0.000 C 
BRANCH   6   7
ATOM      7  C   UNL     1       1.856  55.692  16.264  1.00  0.00     0.006 C 
BRANCH   7   8
ATOM      8  C   UNL     1       2.552  54.355  16.548  1.00  0.00     0.053 C 
BRANCH   8   9
ATOM      9  C   UNL     1       4.035  54.543  16.615  1.00  0.00     0.041 C 
ATOM     10  O   UNL     1       4.648  55.081  15.656  1.00  0.00    -0.550 OA
ATOM     11  O   UNL     1       4.747  54.081  17.715  1.00  0.00    -0.550 OA
ENDBRANCH   8   9
ENDBRANCH   7   8
ENDBRANCH   6   7
ENDBRANCH   5   6
ENDBRANCH   4   5
ENDBRANCH   3   4
ENDBRANCH   2   3
ENDBRANCH   1   2
BRANCH   1  12
ATOM     12  C   UNL     1       1.102  52.137  19.082  1.00  0.00     0.000 C 
BRANCH  12  13
ATOM     13  C   UNL     1      -0.152  51.782  18.261  1.00  0.00    -0.000 C 
BRANCH  13  14
ATOM     14  C   UNL     1      -0.710  52.983  17.478  1.00  0.00    -0.000 C 
BRANCH  14  15
ATOM     15  C   UNL     1      -2.223  53.170  17.676  1.00  0.00    -0.000 C 
BRANCH  15  16
ATOM     16  C   UNL     1      -2.609  54.624  17.986  1.00  0.00    -0.000 C 
BRANCH  16  17
ATOM     17  C   UNL     1      -2.524  54.903  19.494  1.00  0.00    -0.000 C 
BRANCH  17  18
ATOM     18  C   UNL     1      -3.278  53.860  20.340  1.00  0.00    -0.000 C 
BRANCH  18  19
ATOM     19  C   UNL     1      -2.457  53.238  21.484  1.00  0.00    -0.003 C 
ATOM     20  C   UNL     1      -2.173  51.750  21.277  1.00  0.00     0.004 C 
ENDBRANCH  18  19
ENDBRANCH  17  18
ENDBRANCH  16  17
ENDBRANCH  15  16
ENDBRANCH  14  15
ENDBRANCH  13  14
ENDBRANCH  12  13
ENDBRANCH   1  12
TORSDOF 16
ENDMDL
MODEL 4
REMARK VINA RESULT:    -4.640      2.794      4.574
REMARK INTER + INTRA:         -12.230
REMARK INTER:                  -9.905
REMARK INTRA:                  -2.325
REMARK UNBOUND:                -3.250
REMARK SMILES CCCCCCCCCCCCCCCCCC(=O)[O-]
REMARK SMILES IDX 10 1 11 2 12 3 13 4 14 5 15 6 16 7 17 8 18 9 19 10 20 11
REMARK SMILES IDX 9 12 8 13 7 14 6 15 5 16 4 17 3 18 2 19 1 20
REMARK H PARENT
REMARK Flexibility Score: inf
ROOT
ATOM      1  C   UNL     1       1.112  56.085  16.507  1.00  0.00     0.000 C 
ENDROOT
BRANCH   1   2
ATOM      2  C   UNL     1       2.233  55.275  15.830  1.00  0.00     0.000 C 
BRANCH   2   3
ATOM      3  C   UNL     1       2.632  54.026  16.631  1.00  0.00     0.000 C 
BRANCH   3   4
ATOM      4  C   UNL     1       4.102  54.105  17.071  1.00  0.00     0.000 C 
BRANCH   4   5
ATOM      5  C   UNL     1       4.813  55.359  16.536  1.00  0.00     0.000 C 
BRANCH   5   6
ATOM      6  C   UNL     1       5.486  56.175  17.653  1.00  0.00     0.000 C 
BRANCH   6   7
ATOM      7  C   UNL     1       6.637  57.052  17.135  1.00  0.00     0.006 C 
BRANCH   7   8
ATOM      8  C   UNL     1       7.854  57.046  18.069  1.00  0.00     0.053 C 
BRANCH   8   9
ATOM      9  C   UNL     1       8.295  58.445  18.360  1.00  0.00     0.041 C 
ATOM     10  O   UNL     1       9.350  58.897  17.842  1.00  0.00    -0.550 OA
ATOM     11  O   UNL     1       7.567  59.236  19.241  1.00  0.00    -0.550 OA
ENDBRANCH   8   9
ENDBRANCH   7   8
ENDBRANCH   6   7
ENDBRANCH   5   6
ENDBRANCH   4   5
ENDBRANCH   3   4
ENDBRANCH   2   3
ENDBRANCH   1   2
BRANCH   1  12
ATOM     12  C   UNL     1       1.565  56.972  17.685  1.00  0.00     0.000 C 
BRANCH  12  13
ATOM     13  C   UNL     1       1.118  56.493  19.078  1.00  0.00    -0.000 C 
BRANCH  13  14
ATOM     14  C   UNL     1       2.233  55.756  19.840  1.00  0.00    -0.000 C 
BRANCH  14  15
ATOM     15  C   UNL     1       1.709  54.550  20.637  1.00  0.00    -0.000 C 
BRANCH  15  16
ATOM     16  C   UNL     1       0.735  53.679  19.830  1.00  0.00    -0.000 C 
BRANCH  16  17
ATOM     17  C   UNL     1      -0.649  53.642  20.497  1.00  0.00    -0.000 C 
BRANCH  17  18
ATOM     18  C   UNL     1      -1.794  53.967  19.521  1.00  0.00    -0.000 C 
BRANCH  18  19
ATOM     19  C   UNL     1      -1.416  53.890  18.031  1.00  0.00    -0.003 C 
ATOM     20  C   UNL     1      -1.985  52.656  17.331  1.00  0.00     0.004 C 
ENDBRANCH  18  19
ENDBRANCH  17  18
ENDBRANCH  16  17
ENDBRANCH  15  16
ENDBRANCH  14  15
ENDBRANCH  13  14
ENDBRANCH  12  13
ENDBRANCH   1  12
TORSDOF 16
ENDMDL
MODEL 5
REMARK VINA RESULT:    -4.630      2.645      4.161
REMARK INTER + INTRA:         -12.211
REMARK INTER:                  -9.823
REMARK INTRA:                  -2.388
REMARK UNBOUND:                -3.250
REMARK SMILES CCCCCCCCCCCCCCCCCC(=O)[O-]
REMARK SMILES IDX 10 1 11 2 12 3 13 4 14 5 15 6 16 7 17 8 18 9 19 10 20 11
REMARK SMILES IDX 9 12 8 13 7 14 6 15 5 16 4 17 3 18 2 19 1 20
REMARK H PARENT
REMARK Flexibility Score: inf
ROOT
ATOM      1  C   UNL     1       0.406  56.790  18.166  1.00  0.00     0.000 C 
ENDROOT
BRANCH   1   2
ATOM      2  C   UNL     1       1.768  56.623  17.467  1.00  0.00     0.000 C 
BRANCH   2   3
ATOM      3  C   UNL     1       1.807  55.415  16.520  1.00  0.00     0.000 C 
BRANCH   3   4
ATOM      4  C   UNL     1       3.223  55.201  15.965  1.00  0.00     0.000 C 
BRANCH   4   5
ATOM      5  C   UNL     1       4.311  55.371  17.038  1.00  0.00     0.000 C 
BRANCH   5   6
ATOM      6  C   UNL     1       5.361  56.426  16.648  1.00  0.00     0.000 C 
BRANCH   6   7
ATOM      7  C   UNL     1       6.128  56.976  17.862  1.00  0.00     0.006 C 
BRANCH   7   8
ATOM      8  C   UNL     1       7.634  57.108  17.603  1.00  0.00     0.053 C 
BRANCH   8   9
ATOM      9  C   UNL     1       8.134  58.427  18.101  1.00  0.00     0.041 C 
ATOM     10  O   UNL     1       9.136  58.968  17.564  1.00  0.00    -0.550 OA
ATOM     11  O   UNL     1       7.525  59.036  19.191  1.00  0.00    -0.550 OA
ENDBRANCH   8   9
ENDBRANCH   7   8
ENDBRANCH   6   7
ENDBRANCH   5   6
ENDBRANCH   4   5
ENDBRANCH   3   4
ENDBRANCH   2   3
ENDBRANCH   1   2
BRANCH   1  12
ATOM     12  C   UNL     1      -0.786  56.134  17.440  1.00  0.00     0.000 C 
BRANCH  12  13
ATOM     13  C   UNL     1      -1.949  55.697  18.350  1.00  0.00    -0.000 C 
BRANCH  13  14
ATOM     14  C   UNL     1      -1.917  54.194  18.677  1.00  0.00    -0.000 C 
BRANCH  14  15
ATOM     15  C   UNL     1      -1.264  53.358  17.564  1.00  0.00    -0.000 C 
BRANCH  15  16
ATOM     16  C   UNL     1      -0.100  52.494  18.071  1.00  0.00    -0.000 C 
BRANCH  16  17
ATOM     17  C   UNL     1       0.641  53.196  19.220  1.00  0.00    -0.000 C 
BRANCH  17  18
ATOM     18  C   UNL     1       2.145  52.864  19.254  1.00  0.00    -0.000 C 
BRANCH  18  19
ATOM     19  C   UNL     1       2.976  53.728  20.220  1.00  0.00    -0.003 C 
ATOM     20  C   UNL     1       2.177  54.876  20.835  1.00  0.00     0.004 C 
ENDBRANCH  18  19
ENDBRANCH  17  18
ENDBRANCH  16  17
ENDBRANCH  15  16
ENDBRANCH  14  15
ENDBRANCH  13  14
ENDBRANCH  12  13
ENDBRANCH   1  12
TORSDOF 16
ENDMDL
MODEL 6
REMARK VINA RESULT:    -4.613      1.705      3.955
REMARK INTER + INTRA:         -12.178
REMARK INTER:                  -9.458
REMARK INTRA:                  -2.720
REMARK UNBOUND:                -3.250
REMARK SMILES CCCCCCCCCCCCCCCCCC(=O)[O-]
REMARK SMILES IDX 10 1 11 2 12 3 13 4 14 5 15 6 16 7 17 8 18 9 19 10 20 11
REMARK SMILES IDX 9 12 8 13 7 14 6 15 5 16 4 17 3 18 2 19 1 20
REMARK H PARENT
REMARK Flexibility Score: inf
ROOT
ATOM      1  C   UNL     1       3.366  53.656  19.231  1.00  0.00     0.000 C 
ENDROOT
BRANCH   1   2
ATOM      2  C   UNL     1       2.653  53.697  20.595  1.00  0.00     0.000 C 
BRANCH   2   3
ATOM      3  C   UNL     1       1.962  55.041  20.865  1.00  0.00     0.000 C 
BRANCH   3   4
ATOM      4  C   UNL     1       0.533  55.045  20.301  1.00  0.00     0.000 C 
BRANCH   4   5
ATOM      5  C   UNL     1       0.209  56.330  19.520  1.00  0.00     0.000 C 
BRANCH   5   6
ATOM      6  C   UNL     1       0.568  56.217  18.028  1.00  0.00     0.000 C 
BRANCH   6   7
ATOM      7  C   UNL     1       1.526  57.326  17.564  1.00  0.00     0.006 C 
BRANCH   7   8
ATOM      8  C   UNL     1       2.914  57.220  18.208  1.00  0.00     0.053 C 
BRANCH   8   9
ATOM      9  C   UNL     1       3.883  56.595  17.255  1.00  0.00     0.041 C 
ATOM     10  O   UNL     1       3.471  55.833  16.342  1.00  0.00    -0.550 OA
ATOM     11  O   UNL     1       5.247  56.815  17.405  1.00  0.00    -0.550 OA
ENDBRANCH   8   9
ENDBRANCH   7   8
ENDBRANCH   6   7
ENDBRANCH   5   6
ENDBRANCH   4   5
ENDBRANCH   3   4
ENDBRANCH   2   3
ENDBRANCH   1   2
BRANCH   1  12
ATOM     12  C   UNL     1       2.847  52.583  18.253  1.00  0.00     0.000 C 
BRANCH  12  13
ATOM     13  C   UNL     1       1.574  52.964  17.474  1.00  0.00    -0.000 C 
BRANCH  13  14
ATOM     14  C   UNL     1       0.307  52.304  18.046  1.00  0.00    -0.000 C 
BRANCH  14  15
ATOM     15  C   UNL     1      -0.953  52.636  17.230  1.00  0.00    -0.000 C 
BRANCH  15  16
ATOM     16  C   UNL     1      -2.157  52.997  18.114  1.00  0.00    -0.000 C 
BRANCH  16  17
ATOM     17  C   UNL     1      -2.612  54.441  17.854  1.00  0.00    -0.000 C 
BRANCH  17  18
ATOM     18  C   UNL     1      -3.150  55.137  19.118  1.00  0.00    -0.000 C 
BRANCH  18  19
ATOM     19  C   UNL     1      -3.669  56.570  18.897  1.00  0.00    -0.003 C 
ATOM     20  C   UNL     1      -3.246  57.160  17.552  1.00  0.00     0.004 C 
ENDBRANCH  18  19
ENDBRANCH  17  18
ENDBRANCH  16  17
ENDBRANCH  15  16
ENDBRANCH  14  15
ENDBRANCH  13  14
ENDBRANCH  12  13
ENDBRANCH   1  12
TORSDOF 16
ENDMDL
MODEL 7
REMARK VINA RESULT:    -4.608      1.445      2.156
REMARK INTER + INTRA:         -12.169
REMARK INTER:                  -9.504
REMARK INTRA:                  -2.665
REMARK UNBOUND:                -3.250
REMARK SMILES CCCCCCCCCCCCCCCCCC(=O)[O-]
REMARK SMILES IDX 10 1 11 2 12 3 13 4 14 5 15 6 16 7 17 8 18 9 19 10 20 11
REMARK SMILES IDX 9 12 8 13 7 14 6 15 5 16 4 17 3 18 2 19 1 20
REMARK H PARENT
REMARK Flexibility Score: inf
ROOT
ATOM      1  C   UNL     1       0.488  53.585  19.991  1.00  0.00     0.000 C 
ENDROOT
BRANCH   1   2
ATOM      2  C   UNL     1       1.947  54.067  20.092  1.00  0.00     0.000 C 
BRANCH   2   3
ATOM      3  C   UNL     1       2.059  55.580  20.327  1.00  0.00     0.000 C 
BRANCH   3   4
ATOM      4  C   UNL     1       2.441  56.309  19.029  1.00  0.00     0.000 C 
BRANCH   4   5
ATOM      5  C   UNL     1       1.231  56.963  18.340  1.00  0.00     0.000 C 
BRANCH   5   6
ATOM      6  C   UNL     1       0.967  56.382  16.940  1.00  0.00     0.000 C 
BRANCH   6   7
ATOM      7  C   UNL     1       1.647  55.019  16.726  1.00  0.00     0.006 C 
BRANCH   7   8
ATOM      8  C   UNL     1       2.736  55.062  15.647  1.00  0.00     0.053 C 
BRANCH   8   9
ATOM      9  C   UNL     1       4.093  55.053  16.277  1.00  0.00     0.041 C 
ATOM     10  O   UNL     1       4.527  54.007  16.829  1.00  0.00    -0.550 OA
ATOM     11  O   UNL     1       4.859  56.212  16.299  1.00  0.00    -0.550 OA
ENDBRANCH   8   9
ENDBRANCH   7   8
ENDBRANCH   6   7
ENDBRANCH   5   6
ENDBRANCH   4   5
ENDBRANCH   3   4
ENDBRANCH   2   3
ENDBRANCH   1   2
BRANCH   1  12
ATOM     12  C   UNL     1      -0.545  54.471  20.718  1.00  0.00     0.000 C 
BRANCH  12  13
ATOM     13  C   UNL     1      -1.572  55.166  19.806  1.00  0.00    -0.000 C 
BRANCH  13  14
ATOM     14  C   UNL     1      -2.589  54.183  19.198  1.00  0.00    -0.000 C 
BRANCH  14  15
ATOM     15  C   UNL     1      -2.461  54.068  17.670  1.00  0.00    -0.000 C 
BRANCH  15  16
ATOM     16  C   UNL     1      -1.779  52.766  17.226  1.00  0.00    -0.000 C 
BRANCH  16  17
ATOM     17  C   UNL     1      -2.312  51.568  18.027  1.00  0.00    -0.000 C 
BRANCH  17  18
ATOM     18  C   UNL     1      -1.224  50.526  18.343  1.00  0.00    -0.000 C 
BRANCH  18  19
ATOM     19  C   UNL     1      -1.073  50.180  19.836  1.00  0.00    -0.003 C 
ATOM     20  C   UNL     1      -2.075  50.915  20.725  1.00  0.00     0.004 C 
ENDBRANCH  18  19
ENDBRANCH  17  18
ENDBRANCH  16  17
ENDBRANCH  15  16
ENDBRANCH  14  15
ENDBRANCH  13  14
ENDBRANCH  12  13
ENDBRANCH   1  12
TORSDOF 16
ENDMDL
MODEL 8
REMARK VINA RESULT:    -4.578      3.447      6.094
REMARK INTER + INTRA:         -12.110
REMARK INTER:                  -9.572
REMARK INTRA:                  -2.538
REMARK UNBOUND:                -3.250
REMARK SMILES CCCCCCCCCCCCCCCCCC(=O)[O-]
REMARK SMILES IDX 10 1 11 2 12 3 13 4 14 5 15 6 16 7 17 8 18 9 19 10 20 11
REMARK SMILES IDX 9 12 8 13 7 14 6 15 5 16 4 17 3 18 2 19 1 20
REMARK H PARENT
REMARK Flexibility Score: inf
ROOT
ATOM      1  C   UNL     1       0.714  54.913  20.141  1.00  0.00     0.000 C 
ENDROOT
BRANCH   1   2
ATOM      2  C   UNL     1      -0.302  54.121  20.983  1.00  0.00     0.000 C 
BRANCH   2   3
ATOM      3  C   UNL     1      -0.978  52.991  20.192  1.00  0.00     0.000 C 
BRANCH   3   4
ATOM      4  C   UNL     1      -0.855  53.233  18.680  1.00  0.00     0.000 C 
BRANCH   4   5
ATOM      5  C   UNL     1      -2.206  53.555  18.020  1.00  0.00     0.000 C 
BRANCH   5   6
ATOM      6  C   UNL     1      -2.350  55.047  17.674  1.00  0.00     0.000 C 
BRANCH   6   7
ATOM      7  C   UNL     1      -3.005  55.856  18.805  1.00  0.00     0.006 C 
BRANCH   7   8
ATOM      8  C   UNL     1      -3.844  57.031  18.286  1.00  0.00     0.053 C 
BRANCH   8   9
ATOM      9  C   UNL     1      -5.143  57.109  19.023  1.00  0.00     0.041 C 
ATOM     10  O   UNL     1      -5.420  56.258  19.909  1.00  0.00    -0.550 OA
ATOM     11  O   UNL     1      -6.070  58.092  18.698  1.00  0.00    -0.550 OA
ENDBRANCH   8   9
ENDBRANCH   7   8
ENDBRANCH   6   7
ENDBRANCH   5   6
ENDBRANCH   4   5
ENDBRANCH   3   4
ENDBRANCH   2   3
ENDBRANCH   1   2
BRANCH   1  12
ATOM     12  C   UNL     1       2.124  55.028  20.755  1.00  0.00     0.000 C 
BRANCH  12  13
ATOM     13  C   UNL     1       3.004  53.771  20.622  1.00  0.00    -0.000 C 
BRANCH  13  14
ATOM     14  C   UNL     1       2.898  53.115  19.234  1.00  0.00    -0.000 C 
BRANCH  14  15
ATOM     15  C   UNL     1       4.045  53.524  18.296  1.00  0.00    -0.000 C 
BRANCH  15  16
ATOM     16  C   UNL     1       3.548  54.093  16.959  1.00  0.00    -0.000 C 
BRANCH  16  17
ATOM     17  C   UNL     1       2.945  55.494  17.151  1.00  0.00    -0.000 C 
BRANCH  17  18
ATOM     18  C   UNL     1       1.547  55.636  16.522  1.00  0.00    -0.000 C 
BRANCH  18  19
ATOM     19  C   UNL     1       0.747  56.864  16.993  1.00  0.00    -0.003 C 
ATOM     20  C   UNL     1       1.545  57.777  17.924  1.00  0.00     0.004 C 
ENDBRANCH  18  19
ENDBRANCH  17  18
ENDBRANCH  16  17
ENDBRANCH  15  16
ENDBRANCH  14  15
ENDBRANCH  13  14
ENDBRANCH  12  13
ENDBRANCH   1  12
TORSDOF 16
ENDMDL
MODEL 9
REMARK VINA RESULT:    -4.568      2.806      5.841
REMARK INTER + INTRA:         -12.090
REMARK INTER:                  -9.074
REMARK INTRA:                  -3.016
REMARK UNBOUND:                -3.250
REMARK SMILES CCCCCCCCCCCCCCCCCC(=O)[O-]
REMARK SMILES IDX 10 1 11 2 12 3 13 4 14 5 15 6 16 7 17 8 18 9 19 10 20 11
REMARK SMILES IDX 9 12 8 13 7 14 6 15 5 16 4 17 3 18 2 19 1 20
REMARK H PARENT
REMARK Flexibility Score: inf
ROOT
ATOM      1  C   UNL     1       1.596  54.864  20.858  1.00  0.00     0.000 C 
ENDROOT
BRANCH   1   2
ATOM      2  C   UNL     1       0.105  54.733  20.496  1.00  0.00     0.000 C 
BRANCH   2   3
ATOM      3  C   UNL     1      -0.312  55.662  19.346  1.00  0.00     0.000 C 
BRANCH   3   4
ATOM      4  C   UNL     1      -1.817  55.964  19.405  1.00  0.00     0.000 C 
BRANCH   4   5
ATOM      5  C   UNL     1      -2.681  54.724  19.121  1.00  0.00     0.000 C 
BRANCH   5   6
ATOM      6  C   UNL     1      -2.400  54.116  17.735  1.00  0.00     0.000 C 
BRANCH   6   7
ATOM      7  C   UNL     1      -2.163  52.599  17.791  1.00  0.00     0.006 C 
BRANCH   7   8
ATOM      8  C   UNL     1      -2.045  52.069  19.226  1.00  0.00     0.053 C 
BRANCH   8   9
ATOM      9  C   UNL     1      -1.490  50.679  19.224  1.00  0.00     0.041 C 
ATOM     10  O   UNL     1      -1.003  50.192  20.278  1.00  0.00    -0.550 OA
ATOM     11  O   UNL     1      -1.466  49.941  18.048  1.00  0.00    -0.550 OA
ENDBRANCH   8   9
ENDBRANCH   7   8
ENDBRANCH   6   7
ENDBRANCH   5   6
ENDBRANCH   4   5
ENDBRANCH   3   4
ENDBRANCH   2   3
ENDBRANCH   1   2
BRANCH   1  12
ATOM     12  C   UNL     1       2.536  53.887  20.123  1.00  0.00     0.000 C 
BRANCH  12  13
ATOM     13  C   UNL     1       1.837  52.722  19.398  1.00  0.00    -0.000 C 
BRANCH  13  14
ATOM     14  C   UNL     1       2.268  52.591  17.927  1.00  0.00    -0.000 C 
BRANCH  14  15
ATOM     15  C   UNL     1       1.297  53.288  16.960  1.00  0.00    -0.000 C 
BRANCH  15  16
ATOM     16  C   UNL     1       1.841  54.620  16.424  1.00  0.00    -0.000 C 
BRANCH  16  17
ATOM     17  C   UNL     1       3.372  54.674  16.546  1.00  0.00    -0.000 C 
BRANCH  17  18
ATOM     18  C   UNL     1       3.880  55.998  17.145  1.00  0.00    -0.000 C 
BRANCH  18  19
ATOM     19  C   UNL     1       2.817  56.815  17.904  1.00  0.00    -0.003 C 
ATOM     20  C   UNL     1       3.411  57.695  19.003  1.00  0.00     0.004 C 
ENDBRANCH  18  19
ENDBRANCH  17  18
ENDBRANCH  16  17
ENDBRANCH  15  16
ENDBRANCH  14  15
ENDBRANCH  13  14
ENDBRANCH  12  13
ENDBRANCH   1  12
TORSDOF 16
ENDMDL
