MODEL 1
REMARK VINA RESULT:    -2.074      0.000      0.000
REMARK INTER + INTRA:          -2.074
REMARK INTER:                  -2.074
REMARK INTRA:                   0.000
REMARK UNBOUND:                 0.000
REMARK SMILES C=C1CCC[C@]2(C)CC(=O)C(=C(C)C)C[C@H]12
REMARK SMILES IDX 13 1 12 2 11 3 15 4 16 5 2 6 1 7 3 8 4 9 5 10 6 11 8 12 9 13
REMARK SMILES IDX 10 14 7 15 14 16
REMARK H PARENT
REMARK Flexibility Score: inf
ROOT
ATOM      1  C   UNL     1     -10.384 -22.111  26.988  1.00  0.00     0.039 C 
ATOM      2  C   UNL     1     -10.490 -23.409  26.222  1.00  0.00    -0.070 C 
ATOM      3  C   UNL     1     -10.312 -23.463  24.869  1.00  0.00    -0.006 C 
ATOM      4  C   UNL     1     -10.355 -24.788  24.118  1.00  0.00     0.047 C 
ATOM      5  C   UNL     1      -9.453 -24.813  22.857  1.00  0.00     0.025 C 
ATOM      6  C   UNL     1      -7.959 -25.001  23.136  1.00  0.00    -0.073 C 
ATOM      7  C   UNL     1      -7.404 -24.982  24.364  1.00  0.00     0.008 C 
ATOM      8  C   UNL     1      -7.077 -25.125  21.922  1.00  0.00     0.031 C 
ATOM      9  C   UNL     1      -7.247 -23.887  21.041  1.00  0.00     0.005 C 
ATOM     10  C   UNL     1      -8.727 -23.636  20.700  1.00  0.00     0.008 C 
ATOM     11  C   UNL     1      -9.670 -23.563  21.943  1.00  0.00    -0.018 C 
ATOM     12  C   UNL     1      -9.392 -22.271  22.756  1.00  0.00     0.088 C 
ATOM     13  C   UNL     1     -10.177 -22.234  24.036  1.00  0.00     0.159 C 
ATOM     14  O   UNL     1     -10.725 -21.151  24.375  1.00  0.00    -0.295 OA
ATOM     15  C   UNL     1     -11.124 -23.525  21.406  1.00  0.00     0.012 C 
ATOM     16  C   UNL     1     -10.764 -24.660  27.027  1.00  0.00     0.039 C 
ENDROOT
TORSDOF 0
ENDMDL
MODEL 2
REMARK VINA RESULT:    -1.976      2.087      4.979
REMARK INTER + INTRA:          -1.976
REMARK INTER:                  -1.976
REMARK INTRA:                   0.000
REMARK UNBOUND:                 0.000
REMARK SMILES C=C1CCC[C@]2(C)CC(=O)C(=C(C)C)C[C@H]12
REMARK SMILES IDX 13 1 12 2 11 3 15 4 16 5 2 6 1 7 3 8 4 9 5 10 6 11 8 12 9 13
REMARK SMILES IDX 10 14 7 15 14 16
REMARK H PARENT
REMARK Flexibility Score: inf
ROOT
ATOM      1  C   UNL     1      -5.789 -24.920  20.949  1.00  0.00     0.039 C 
ATOM      2  C   UNL     1      -7.252 -24.875  20.573  1.00  0.00    -0.070 C 
ATOM      3  C   UNL     1      -8.222 -24.588  21.490  1.00  0.00    -0.006 C 
ATOM      4  C   UNL     1      -9.687 -24.481  21.084  1.00  0.00     0.047 C 
ATOM      5  C   UNL     1     -10.496 -23.483  21.952  1.00  0.00     0.025 C 
ATOM      6  C   UNL     1     -10.276 -22.006  21.613  1.00  0.00    -0.073 C 
ATOM      7  C   UNL     1      -9.342 -21.551  20.756  1.00  0.00     0.008 C 
ATOM      8  C   UNL     1     -11.125 -21.025  22.378  1.00  0.00     0.031 C 
ATOM      9  C   UNL     1     -10.891 -21.212  23.877  1.00  0.00     0.005 C 
ATOM     10  C   UNL     1     -11.110 -22.674  24.305  1.00  0.00     0.008 C 
ATOM     11  C   UNL     1     -10.283 -23.714  23.484  1.00  0.00    -0.018 C 
ATOM     12  C   UNL     1      -8.773 -23.591  23.821  1.00  0.00     0.088 C 
ATOM     13  C   UNL     1      -7.929 -24.475  22.948  1.00  0.00     0.159 C 
ATOM     14  O   UNL     1      -6.986 -25.122  23.477  1.00  0.00    -0.295 OA
ATOM     15  C   UNL     1     -10.785 -25.121  23.899  1.00  0.00     0.012 C 
ATOM     16  C   UNL     1      -7.594 -25.124  19.121  1.00  0.00     0.039 C 
ENDROOT
TORSDOF 0
ENDMDL
MODEL 3
REMARK VINA RESULT:    -1.588      1.835      3.475
REMARK INTER + INTRA:          -1.588
REMARK INTER:                  -1.588
REMARK INTRA:                   0.000
REMARK UNBOUND:                 0.000
REMARK SMILES C=C1CCC[C@]2(C)CC(=O)C(=C(C)C)C[C@H]12
REMARK SMILES IDX 13 1 12 2 11 3 15 4 16 5 2 6 1 7 3 8 4 9 5 10 6 11 8 12 9 13
REMARK SMILES IDX 10 14 7 15 14 16
REMARK H PARENT
REMARK Flexibility Score: inf
ROOT
ATOM      1  C   UNL     1      -9.663 -22.791  26.320  1.00  0.00     0.039 C 
ATOM      2  C   UNL     1      -8.943 -22.266  25.100  1.00  0.00    -0.070 C 
ATOM      3  C   UNL     1      -8.939 -22.950  23.918  1.00  0.00    -0.006 C 
ATOM      4  C   UNL     1      -8.265 -22.378  22.676  1.00  0.00     0.047 C 
ATOM      5  C   UNL     1      -8.937 -22.821  21.350  1.00  0.00     0.025 C 
ATOM      6  C   UNL     1     -10.234 -22.085  21.006  1.00  0.00    -0.073 C 
ATOM      7  C   UNL     1     -10.872 -21.235  21.835  1.00  0.00     0.008 C 
ATOM      8  C   UNL     1     -10.851 -22.431  19.676  1.00  0.00     0.031 C 
ATOM      9  C   UNL     1     -11.124 -23.935  19.619  1.00  0.00     0.005 C 
ATOM     10  C   UNL     1      -9.858 -24.751  19.938  1.00  0.00     0.008 C 
ATOM     11  C   UNL     1      -9.169 -24.366  21.286  1.00  0.00    -0.018 C 
ATOM     12  C   UNL     1     -10.047 -24.809  22.487  1.00  0.00     0.088 C 
ATOM     13  C   UNL     1      -9.488 -24.331  23.796  1.00  0.00     0.159 C 
ATOM     14  O   UNL     1      -9.483 -25.125  24.775  1.00  0.00    -0.295 OA
ATOM     15  C   UNL     1      -7.817 -25.124  21.335  1.00  0.00     0.012 C 
ATOM     16  C   UNL     1      -8.256 -20.926  25.233  1.00  0.00     0.039 C 
ENDROOT
TORSDOF 0
ENDMDL
MODEL 4
REMARK VINA RESULT:    -1.175      2.048      5.014
REMARK INTER + INTRA:          -1.175
REMARK INTER:                  -1.175
REMARK INTRA:                   0.000
REMARK UNBOUND:                 0.000
REMARK SMILES C=C1CCC[C@]2(C)CC(=O)C(=C(C)C)C[C@H]12
REMARK SMILES IDX 13 1 12 2 11 3 15 4 16 5 2 6 1 7 3 8 4 9 5 10 6 11 8 12 9 13
REMARK SMILES IDX 10 14 7 15 14 16
REMARK H PARENT
REMARK Flexibility Score: inf
ROOT
ATOM      1  C   UNL     1      -8.554 -24.882  19.377  1.00  0.00     0.039 C 
ATOM      2  C   UNL     1      -9.829 -24.832  20.186  1.00  0.00    -0.070 C 
ATOM      3  C   UNL     1      -9.822 -24.558  21.524  1.00  0.00    -0.006 C 
ATOM      4  C   UNL     1     -11.120 -24.444  22.314  1.00  0.00     0.047 C 
ATOM      5  C   UNL     1     -11.031 -23.459  23.509  1.00  0.00     0.025 C 
ATOM      6  C   UNL     1     -11.112 -21.978  23.130  1.00  0.00    -0.073 C 
ATOM      7  C   UNL     1     -11.092 -21.510  21.866  1.00  0.00     0.008 C 
ATOM      8  C   UNL     1     -11.125 -21.007  24.282  1.00  0.00     0.031 C 
ATOM      9  C   UNL     1      -9.874 -21.216  25.136  1.00  0.00     0.005 C 
ATOM     10  C   UNL     1      -9.728 -22.684  25.574  1.00  0.00     0.008 C 
ATOM     11  C   UNL     1      -9.771 -23.712  24.399  1.00  0.00    -0.018 C 
ATOM     12  C   UNL     1      -8.490 -23.594  23.531  1.00  0.00     0.088 C 
ATOM     13  C   UNL     1      -8.558 -24.466  22.310  1.00  0.00     0.159 C 
ATOM     14  O   UNL     1      -7.533 -25.120  21.978  1.00  0.00    -0.295 OA
ATOM     15  C   UNL     1      -9.827 -25.125  25.036  1.00  0.00     0.012 C 
ATOM     16  C   UNL     1     -11.124 -25.060  19.439  1.00  0.00     0.039 C 
ENDROOT
TORSDOF 0
ENDMDL
MODEL 5
REMARK VINA RESULT:     0.520     19.353     21.427
REMARK INTER + INTRA:           0.520
REMARK INTER:                   0.520
REMARK INTRA:                   0.000
REMARK UNBOUND:                 0.000
REMARK SMILES C=C1CCC[C@]2(C)CC(=O)C(=C(C)C)C[C@H]12
REMARK SMILES IDX 13 1 12 2 11 3 15 4 16 5 2 6 1 7 3 8 4 9 5 10 6 11 8 12 9 13
REMARK SMILES IDX 10 14 7 15 14 16
REMARK H PARENT
REMARK Flexibility Score: inf
ROOT
ATOM      1  C   UNL     1       9.115 -25.076  11.860  1.00  0.00     0.039 C 
ATOM      2  C   UNL     1       8.031 -24.039  11.681  1.00  0.00    -0.070 C 
ATOM      3  C   UNL     1       7.400 -23.856  10.485  1.00  0.00    -0.006 C 
ATOM      4  C   UNL     1       6.263 -22.852  10.335  1.00  0.00     0.047 C 
ATOM      5  C   UNL     1       5.218 -23.259   9.264  1.00  0.00     0.025 C 
ATOM      6  C   UNL     1       4.228 -24.340   9.706  1.00  0.00    -0.073 C 
ATOM      7  C   UNL     1       4.319 -25.033  10.857  1.00  0.00     0.008 C 
ATOM      8  C   UNL     1       3.145 -24.680   8.716  1.00  0.00     0.031 C 
ATOM      9  C   UNL     1       3.782 -25.123   7.399  1.00  0.00     0.005 C 
ATOM     10  C   UNL     1       4.783 -24.077   6.875  1.00  0.00     0.008 C 
ATOM     11  C   UNL     1       5.880 -23.666   7.908  1.00  0.00    -0.018 C 
ATOM     12  C   UNL     1       6.866 -24.841   8.145  1.00  0.00     0.088 C 
ATOM     13  C   UNL     1       7.851 -24.536   9.236  1.00  0.00     0.159 C 
ATOM     14  O   UNL     1       9.059 -24.854   9.065  1.00  0.00    -0.295 OA
ATOM     15  C   UNL     1       6.652 -22.469   7.295  1.00  0.00     0.012 C 
ATOM     16  C   UNL     1       7.646 -23.233  12.902  1.00  0.00     0.039 C 
ENDROOT
TORSDOF 0
ENDMDL
