MODEL 1
REMARK VINA RESULT:    -3.265      0.000      0.000
REMARK INTER + INTRA:          -9.281
REMARK INTER:                  -6.319
REMARK INTRA:                  -2.962
REMARK UNBOUND:                -2.962
REMARK SMILES CCCCCCCCCCCCCCCCCC(=O)[O-]
REMARK SMILES IDX 10 1 11 2 12 3 13 4 14 5 15 6 16 7 17 8 18 9 19 10 20 11
REMARK SMILES IDX 9 12 8 13 7 14 6 15 5 16 4 17 3 18 2 19 1 20
REMARK H PARENT
REMARK Flexibility Score: inf
ROOT
ATOM      1  C   UNL     1      11.040 -30.160  13.374  1.00  0.00     0.000 C 
ENDROOT
BRANCH   1   2
ATOM      2  C   UNL     1       9.980 -29.173  12.850  1.00  0.00     0.000 C 
BRANCH   2   3
ATOM      3  C   UNL     1       8.895 -29.863  12.008  1.00  0.00     0.000 C 
BRANCH   3   4
ATOM      4  C   UNL     1       7.471 -29.528  12.488  1.00  0.00     0.000 C 
BRANCH   4   5
ATOM      5  C   UNL     1       6.961 -30.514  13.551  1.00  0.00     0.000 C 
BRANCH   5   6
ATOM      6  C   UNL     1       7.009 -29.927  14.973  1.00  0.00     0.000 C 
BRANCH   6   7
ATOM      7  C   UNL     1       8.205 -30.447  15.792  1.00  0.00     0.006 C 
BRANCH   7   8
ATOM      8  C   UNL     1       8.911 -29.375  16.637  1.00  0.00     0.053 C 
BRANCH   8   9
ATOM      9  C   UNL     1       8.547 -29.470  18.086  1.00  0.00     0.041 C 
ATOM     10  O   UNL     1       9.310 -28.987  18.964  1.00  0.00    -0.550 OA
ATOM     11  O   UNL     1       7.348 -30.060  18.466  1.00  0.00    -0.550 OA
ENDBRANCH   8   9
ENDBRANCH   7   8
ENDBRANCH   6   7
ENDBRANCH   5   6
ENDBRANCH   4   5
ENDBRANCH   3   4
ENDBRANCH   2   3
ENDBRANCH   1   2
BRANCH   1  12
ATOM     12  C   UNL     1      11.106 -31.449  12.540  1.00  0.00     0.000 C 
BRANCH  12  13
ATOM     13  C   UNL     1      11.041 -32.718  13.409  1.00  0.00    -0.000 C 
BRANCH  13  14
ATOM     14  C   UNL     1       9.598 -33.145  13.738  1.00  0.00    -0.000 C 
BRANCH  14  15
ATOM     15  C   UNL     1       8.745 -33.546  12.521  1.00  0.00    -0.000 C 
BRANCH  15  16
ATOM     16  C   UNL     1       7.361 -34.095  12.914  1.00  0.00    -0.000 C 
BRANCH  16  17
ATOM     17  C   UNL     1       7.404 -34.928  14.204  1.00  0.00    -0.000 C 
BRANCH  17  18
ATOM     18  C   UNL     1       6.124 -34.773  15.047  1.00  0.00    -0.000 C 
BRANCH  18  19
ATOM     19  C   UNL     1       6.120 -33.483  15.878  1.00  0.00    -0.003 C 
ATOM     20  C   UNL     1       6.936 -33.606  17.164  1.00  0.00     0.004 C 
ENDBRANCH  18  19
ENDBRANCH  17  18
ENDBRANCH  16  17
ENDBRANCH  15  16
ENDBRANCH  14  15
ENDBRANCH  13  14
ENDBRANCH  12  13
ENDBRANCH   1  12
TORSDOF 16
ENDMDL
MODEL 2
REMARK VINA RESULT:    -3.195      2.969      5.295
REMARK INTER + INTRA:          -9.146
REMARK INTER:                  -6.985
REMARK INTRA:                  -2.161
REMARK UNBOUND:                -2.962
REMARK SMILES CCCCCCCCCCCCCCCCCC(=O)[O-]
REMARK SMILES IDX 10 1 11 2 12 3 13 4 14 5 15 6 16 7 17 8 18 9 19 10 20 11
REMARK SMILES IDX 9 12 8 13 7 14 6 15 5 16 4 17 3 18 2 19 1 20
REMARK H PARENT
REMARK Flexibility Score: inf
ROOT
ATOM      1  C   UNL     1      10.116 -28.059  17.526  1.00  0.00     0.000 C 
ENDROOT
BRANCH   1   2
ATOM      2  C   UNL     1      10.064 -28.746  16.149  1.00  0.00     0.000 C 
BRANCH   2   3
ATOM      3  C   UNL     1      11.273 -28.393  15.266  1.00  0.00     0.000 C 
BRANCH   3   4
ATOM      4  C   UNL     1      11.162 -28.982  13.848  1.00  0.00     0.000 C 
BRANCH   4   5
ATOM      5  C   UNL     1      10.225 -30.199  13.788  1.00  0.00     0.000 C 
BRANCH   5   6
ATOM      6  C   UNL     1       9.835 -30.574  12.347  1.00  0.00     0.000 C 
BRANCH   6   7
ATOM      7  C   UNL     1      10.152 -32.043  12.009  1.00  0.00     0.006 C 
BRANCH   7   8
ATOM      8  C   UNL     1      11.651 -32.381  11.987  1.00  0.00     0.053 C 
BRANCH   8   9
ATOM      9  C   UNL     1      11.966 -33.601  12.797  1.00  0.00     0.041 C 
ATOM     10  O   UNL     1      11.682 -33.637  14.023  1.00  0.00    -0.550 OA
ATOM     11  O   UNL     1      12.540 -34.710  12.190  1.00  0.00    -0.550 OA
ENDBRANCH   8   9
ENDBRANCH   7   8
ENDBRANCH   6   7
ENDBRANCH   5   6
ENDBRANCH   4   5
ENDBRANCH   3   4
ENDBRANCH   2   3
ENDBRANCH   1   2
BRANCH   1  12
ATOM     12  C   UNL     1       9.208 -28.744  18.560  1.00  0.00     0.000 C 
BRANCH  12  13
ATOM     13  C   UNL     1       8.340 -29.853  17.940  1.00  0.00    -0.000 C 
BRANCH  13  14
ATOM     14  C   UNL     1       6.830 -29.588  18.092  1.00  0.00    -0.000 C 
BRANCH  14  15
ATOM     15  C   UNL     1       6.004 -29.779  16.807  1.00  0.00    -0.000 C 
BRANCH  15  16
ATOM     16  C   UNL     1       6.878 -29.891  15.545  1.00  0.00    -0.000 C 
BRANCH  16  17
ATOM     17  C   UNL     1       6.449 -31.051  14.633  1.00  0.00    -0.000 C 
BRANCH  17  18
ATOM     18  C   UNL     1       7.331 -32.300  14.816  1.00  0.00    -0.000 C 
BRANCH  18  19
ATOM     19  C   UNL     1       6.681 -33.349  15.729  1.00  0.00    -0.003 C 
ATOM     20  C   UNL     1       7.205 -33.288  17.164  1.00  0.00     0.004 C 
ENDBRANCH  18  19
ENDBRANCH  17  18
ENDBRANCH  16  17
ENDBRANCH  15  16
ENDBRANCH  14  15
ENDBRANCH  13  14
ENDBRANCH  12  13
ENDBRANCH   1  12
TORSDOF 16
ENDMDL
MODEL 3
REMARK VINA RESULT:    -3.192      2.808      5.038
REMARK INTER + INTRA:          -9.140
REMARK INTER:                  -6.781
REMARK INTRA:                  -2.360
REMARK UNBOUND:                -2.962
REMARK SMILES CCCCCCCCCCCCCCCCCC(=O)[O-]
REMARK SMILES IDX 10 1 11 2 12 3 13 4 14 5 15 6 16 7 17 8 18 9 19 10 20 11
REMARK SMILES IDX 9 12 8 13 7 14 6 15 5 16 4 17 3 18 2 19 1 20
REMARK H PARENT
REMARK Flexibility Score: inf
ROOT
ATOM      1  C   UNL     1       8.538 -29.900  17.635  1.00  0.00     0.000 C 
ENDROOT
BRANCH   1   2
ATOM      2  C   UNL     1       9.585 -28.786  17.816  1.00  0.00     0.000 C 
BRANCH   2   3
ATOM      3  C   UNL     1      10.255 -28.383  16.492  1.00  0.00     0.000 C 
BRANCH   3   4
ATOM      4  C   UNL     1       9.723 -29.187  15.291  1.00  0.00     0.000 C 
BRANCH   4   5
ATOM      5  C   UNL     1      10.697 -29.182  14.102  1.00  0.00     0.000 C 
BRANCH   5   6
ATOM      6  C   UNL     1       9.981 -29.358  12.751  1.00  0.00     0.000 C 
BRANCH   6   7
ATOM      7  C   UNL     1      10.452 -30.610  11.987  1.00  0.00     0.006 C 
BRANCH   7   8
ATOM      8  C   UNL     1      10.349 -31.918  12.786  1.00  0.00     0.053 C 
BRANCH   8   9
ATOM      9  C   UNL     1      11.639 -32.677  12.795  1.00  0.00     0.041 C 
ATOM     10  O   UNL     1      12.482 -32.504  11.876  1.00  0.00    -0.550 OA
ATOM     11  O   UNL     1      11.928 -33.548  13.838  1.00  0.00    -0.550 OA
ENDBRANCH   8   9
ENDBRANCH   7   8
ENDBRANCH   6   7
ENDBRANCH   5   6
ENDBRANCH   4   5
ENDBRANCH   3   4
ENDBRANCH   2   3
ENDBRANCH   1   2
BRANCH   1  12
ATOM     12  C   UNL     1       7.245 -29.627  18.421  1.00  0.00     0.000 C 
BRANCH  12  13
ATOM     13  C   UNL     1       5.994 -29.652  17.526  1.00  0.00    -0.000 C 
BRANCH  13  14
ATOM     14  C   UNL     1       6.332 -29.667  16.023  1.00  0.00    -0.000 C 
BRANCH  14  15
ATOM     15  C   UNL     1       5.875 -30.927  15.266  1.00  0.00    -0.000 C 
BRANCH  15  16
ATOM     16  C   UNL     1       7.016 -31.598  14.479  1.00  0.00    -0.000 C 
BRANCH  16  17
ATOM     17  C   UNL     1       7.492 -32.905  15.133  1.00  0.00    -0.000 C 
BRANCH  17  18
ATOM     18  C   UNL     1       6.323 -33.810  15.560  1.00  0.00    -0.000 C 
BRANCH  18  19
ATOM     19  C   UNL     1       6.329 -34.108  17.066  1.00  0.00    -0.003 C 
ATOM     20  C   UNL     1       7.441 -33.369  17.809  1.00  0.00     0.004 C 
ENDBRANCH  18  19
ENDBRANCH  17  18
ENDBRANCH  16  17
ENDBRANCH  15  16
ENDBRANCH  14  15
ENDBRANCH  13  14
ENDBRANCH  12  13
ENDBRANCH   1  12
TORSDOF 16
ENDMDL
MODEL 4
REMARK VINA RESULT:    -3.059      1.410      4.065
REMARK INTER + INTRA:          -8.882
REMARK INTER:                  -6.803
REMARK INTRA:                  -2.079
REMARK UNBOUND:                -2.962
REMARK SMILES CCCCCCCCCCCCCCCCCC(=O)[O-]
REMARK SMILES IDX 10 1 11 2 12 3 13 4 14 5 15 6 16 7 17 8 18 9 19 10 20 11
REMARK SMILES IDX 9 12 8 13 7 14 6 15 5 16 4 17 3 18 2 19 1 20
REMARK H PARENT
REMARK Flexibility Score: inf
ROOT
ATOM      1  C   UNL     1       8.403 -33.292  14.451  1.00  0.00     0.000 C 
ENDROOT
BRANCH   1   2
ATOM      2  C   UNL     1       7.223 -33.266  15.440  1.00  0.00     0.000 C 
BRANCH   2   3
ATOM      3  C   UNL     1       6.081 -32.347  14.975  1.00  0.00     0.000 C 
BRANCH   3   4
ATOM      4  C   UNL     1       6.592 -31.076  14.273  1.00  0.00     0.000 C 
BRANCH   4   5
ATOM      5  C   UNL     1       6.968 -29.965  15.266  1.00  0.00     0.000 C 
BRANCH   5   6
ATOM      6  C   UNL     1       6.104 -29.994  16.540  1.00  0.00     0.000 C 
BRANCH   6   7
ATOM      7  C   UNL     1       6.937 -29.862  17.828  1.00  0.00     0.006 C 
BRANCH   7   8
ATOM      8  C   UNL     1       8.443 -30.101  17.637  1.00  0.00     0.053 C 
BRANCH   8   9
ATOM      9  C   UNL     1       9.263 -28.943  18.115  1.00  0.00     0.041 C 
ATOM     10  O   UNL     1      10.020 -28.330  17.316  1.00  0.00    -0.550 OA
ATOM     11  O   UNL     1       9.166 -28.517  19.433  1.00  0.00    -0.550 OA
ENDBRANCH   8   9
ENDBRANCH   7   8
ENDBRANCH   6   7
ENDBRANCH   5   6
ENDBRANCH   4   5
ENDBRANCH   3   4
ENDBRANCH   2   3
ENDBRANCH   1   2
BRANCH   1  12
ATOM     12  C   UNL     1       8.175 -34.274  13.290  1.00  0.00     0.000 C 
BRANCH  12  13
ATOM     13  C   UNL     1       9.493 -34.808  12.702  1.00  0.00    -0.000 C 
BRANCH  13  14
ATOM     14  C   UNL     1      10.738 -34.269  13.433  1.00  0.00    -0.000 C 
BRANCH  14  15
ATOM     15  C   UNL     1      11.970 -34.041  12.538  1.00  0.00    -0.000 C 
BRANCH  15  16
ATOM     16  C   UNL     1      12.102 -32.582  12.064  1.00  0.00    -0.000 C 
BRANCH  16  17
ATOM     17  C   UNL     1      11.411 -31.590  13.011  1.00  0.00    -0.000 C 
BRANCH  17  18
ATOM     18  C   UNL     1      10.506 -30.595  12.264  1.00  0.00    -0.000 C 
BRANCH  18  19
ATOM     19  C   UNL     1      10.090 -29.404  13.140  1.00  0.00    -0.003 C 
ATOM     20  C   UNL     1      11.235 -28.882  14.008  1.00  0.00     0.004 C 
ENDBRANCH  18  19
ENDBRANCH  17  18
ENDBRANCH  16  17
ENDBRANCH  15  16
ENDBRANCH  14  15
ENDBRANCH  13  14
ENDBRANCH  12  13
ENDBRANCH   1  12
TORSDOF 16
ENDMDL
MODEL 5
REMARK VINA RESULT:    -2.975      2.007      4.957
REMARK INTER + INTRA:          -8.719
REMARK INTER:                  -6.358
REMARK INTRA:                  -2.362
REMARK UNBOUND:                -2.962
REMARK SMILES CCCCCCCCCCCCCCCCCC(=O)[O-]
REMARK SMILES IDX 10 1 11 2 12 3 13 4 14 5 15 6 16 7 17 8 18 9 19 10 20 11
REMARK SMILES IDX 9 12 8 13 7 14 6 15 5 16 4 17 3 18 2 19 1 20
REMARK H PARENT
REMARK Flexibility Score: inf
ROOT
ATOM      1  C   UNL     1      10.372 -29.698  13.453  1.00  0.00     0.000 C 
ENDROOT
BRANCH   1   2
ATOM      2  C   UNL     1      10.102 -30.271  12.049  1.00  0.00     0.000 C 
BRANCH   2   3
ATOM      3  C   UNL     1      10.656 -31.695  11.875  1.00  0.00     0.000 C 
BRANCH   3   4
ATOM      4  C   UNL     1      11.686 -32.066  12.957  1.00  0.00     0.000 C 
BRANCH   4   5
ATOM      5  C   UNL     1      11.494 -33.495  13.488  1.00  0.00     0.000 C 
BRANCH   5   6
ATOM      6  C   UNL     1      10.549 -34.331  12.606  1.00  0.00     0.000 C 
BRANCH   6   7
ATOM      7  C   UNL     1       9.351 -34.899  13.389  1.00  0.00     0.006 C 
BRANCH   7   8
ATOM      8  C   UNL     1       8.138 -33.958  13.466  1.00  0.00     0.053 C 
BRANCH   8   9
ATOM      9  C   UNL     1       7.875 -33.490  14.864  1.00  0.00     0.041 C 
ATOM     10  O   UNL     1       8.725 -32.782  15.465  1.00  0.00    -0.550 OA
ATOM     11  O   UNL     1       6.676 -33.807  15.490  1.00  0.00    -0.550 OA
ENDBRANCH   8   9
ENDBRANCH   7   8
ENDBRANCH   6   7
ENDBRANCH   5   6
ENDBRANCH   4   5
ENDBRANCH   3   4
ENDBRANCH   2   3
ENDBRANCH   1   2
BRANCH   1  12
ATOM     12  C   UNL     1       9.082 -29.511  14.269  1.00  0.00     0.000 C 
BRANCH  12  13
ATOM     13  C   UNL     1       7.818 -29.858  13.463  1.00  0.00    -0.000 C 
BRANCH  13  14
ATOM     14  C   UNL     1       6.627 -30.253  14.357  1.00  0.00    -0.000 C 
BRANCH  14  15
ATOM     15  C   UNL     1       6.630 -29.620  15.760  1.00  0.00    -0.000 C 
BRANCH  15  16
ATOM     16  C   UNL     1       6.298 -30.631  16.873  1.00  0.00    -0.000 C 
BRANCH  16  17
ATOM     17  C   UNL     1       7.147 -30.417  18.135  1.00  0.00    -0.000 C 
BRANCH  17  18
ATOM     18  C   UNL     1       8.626 -30.139  17.809  1.00  0.00    -0.000 C 
BRANCH  18  19
ATOM     19  C   UNL     1       9.123 -28.819  18.415  1.00  0.00    -0.003 C 
ATOM     20  C   UNL     1      10.141 -28.107  17.524  1.00  0.00     0.004 C 
ENDBRANCH  18  19
ENDBRANCH  17  18
ENDBRANCH  16  17
ENDBRANCH  15  16
ENDBRANCH  14  15
ENDBRANCH  13  14
ENDBRANCH  12  13
ENDBRANCH   1  12
TORSDOF 16
ENDMDL
MODEL 6
REMARK VINA RESULT:    -2.965      1.347      4.194
REMARK INTER + INTRA:          -8.701
REMARK INTER:                  -5.980
REMARK INTRA:                  -2.721
REMARK UNBOUND:                -2.962
REMARK SMILES CCCCCCCCCCCCCCCCCC(=O)[O-]
REMARK SMILES IDX 10 1 11 2 12 3 13 4 14 5 15 6 16 7 17 8 18 9 19 10 20 11
REMARK SMILES IDX 9 12 8 13 7 14 6 15 5 16 4 17 3 18 2 19 1 20
REMARK H PARENT
REMARK Flexibility Score: inf
ROOT
ATOM      1  C   UNL     1       6.100 -31.077  13.107  1.00  0.00     0.000 C 
ENDROOT
BRANCH   1   2
ATOM      2  C   UNL     1       6.631 -32.232  12.238  1.00  0.00     0.000 C 
BRANCH   2   3
ATOM      3  C   UNL     1       6.745 -33.553  13.016  1.00  0.00     0.000 C 
BRANCH   3   4
ATOM      4  C   UNL     1       7.580 -33.413  14.302  1.00  0.00     0.000 C 
BRANCH   4   5
ATOM      5  C   UNL     1       6.772 -33.746  15.567  1.00  0.00     0.000 C 
BRANCH   5   6
ATOM      6  C   UNL     1       6.577 -32.524  16.483  1.00  0.00     0.000 C 
BRANCH   6   7
ATOM      7  C   UNL     1       7.887 -32.067  17.151  1.00  0.00     0.006 C 
BRANCH   7   8
ATOM      8  C   UNL     1       7.691 -31.228  18.425  1.00  0.00     0.053 C 
BRANCH   8   9
ATOM      9  C   UNL     1       7.676 -29.759  18.136  1.00  0.00     0.041 C 
ATOM     10  O   UNL     1       6.598 -29.113  18.199  1.00  0.00    -0.550 OA
ATOM     11  O   UNL     1       8.859 -29.097  17.831  1.00  0.00    -0.550 OA
ENDBRANCH   8   9
ENDBRANCH   7   8
ENDBRANCH   6   7
ENDBRANCH   5   6
ENDBRANCH   4   5
ENDBRANCH   3   4
ENDBRANCH   2   3
ENDBRANCH   1   2
BRANCH   1  12
ATOM     12  C   UNL     1       7.035 -29.856  13.098  1.00  0.00     0.000 C 
BRANCH  12  13
ATOM     13  C   UNL     1       7.841 -29.721  14.401  1.00  0.00    -0.000 C 
BRANCH  13  14
ATOM     14  C   UNL     1       9.336 -30.044  14.217  1.00  0.00    -0.000 C 
BRANCH  14  15
ATOM     15  C   UNL     1      10.009 -29.349  13.020  1.00  0.00    -0.000 C 
BRANCH  15  16
ATOM     16  C   UNL     1      10.372 -30.325  11.887  1.00  0.00    -0.000 C 
BRANCH  16  17
ATOM     17  C   UNL     1      11.037 -31.609  12.406  1.00  0.00    -0.000 C 
BRANCH  17  18
ATOM     18  C   UNL     1      10.325 -32.882  11.913  1.00  0.00    -0.000 C 
BRANCH  18  19
ATOM     19  C   UNL     1      10.766 -34.137  12.680  1.00  0.00    -0.003 C 
ATOM     20  C   UNL     1      11.776 -33.829  13.785  1.00  0.00     0.004 C 
ENDBRANCH  18  19
ENDBRANCH  17  18
ENDBRANCH  16  17
ENDBRANCH  15  16
ENDBRANCH  14  15
ENDBRANCH  13  14
ENDBRANCH  12  13
ENDBRANCH   1  12
TORSDOF 16
ENDMDL
MODEL 7
REMARK VINA RESULT:    -2.953      1.470      2.712
REMARK INTER + INTRA:          -8.677
REMARK INTER:                  -6.532
REMARK INTRA:                  -2.146
REMARK UNBOUND:                -2.962
REMARK SMILES CCCCCCCCCCCCCCCCCC(=O)[O-]
REMARK SMILES IDX 10 1 11 2 12 3 13 4 14 5 15 6 16 7 17 8 18 9 19 10 20 11
REMARK SMILES IDX 9 12 8 13 7 14 6 15 5 16 4 17 3 18 2 19 1 20
REMARK H PARENT
REMARK Flexibility Score: inf
ROOT
ATOM      1  C   UNL     1       9.397 -29.528  14.185  1.00  0.00     0.000 C 
ENDROOT
BRANCH   1   2
ATOM      2  C   UNL     1       8.334 -30.510  13.660  1.00  0.00     0.000 C 
BRANCH   2   3
ATOM      3  C   UNL     1       6.924 -29.896  13.630  1.00  0.00     0.000 C 
BRANCH   3   4
ATOM      4  C   UNL     1       5.885 -30.763  14.364  1.00  0.00     0.000 C 
BRANCH   4   5
ATOM      5  C   UNL     1       5.932 -30.573  15.889  1.00  0.00     0.000 C 
BRANCH   5   6
ATOM      6  C   UNL     1       6.653 -31.728  16.606  1.00  0.00     0.000 C 
BRANCH   6   7
ATOM      7  C   UNL     1       7.812 -31.244  17.497  1.00  0.00     0.006 C 
BRANCH   7   8
ATOM      8  C   UNL     1       7.617 -29.836  18.083  1.00  0.00     0.053 C 
BRANCH   8   9
ATOM      9  C   UNL     1       8.920 -29.177  18.414  1.00  0.00     0.041 C 
ATOM     10  O   UNL     1       9.634 -28.689  17.499  1.00  0.00    -0.550 OA
ATOM     11  O   UNL     1       9.331 -29.072  19.737  1.00  0.00    -0.550 OA
ENDBRANCH   8   9
ENDBRANCH   7   8
ENDBRANCH   6   7
ENDBRANCH   5   6
ENDBRANCH   4   5
ENDBRANCH   3   4
ENDBRANCH   2   3
ENDBRANCH   1   2
BRANCH   1  12
ATOM     12  C   UNL     1      10.720 -29.622  13.407  1.00  0.00     0.000 C 
BRANCH  12  13
ATOM     13  C   UNL     1      10.731 -30.786  12.401  1.00  0.00    -0.000 C 
BRANCH  13  14
ATOM     14  C   UNL     1      11.862 -31.798  12.668  1.00  0.00    -0.000 C 
BRANCH  14  15
ATOM     15  C   UNL     1      11.608 -33.216  12.125  1.00  0.00    -0.000 C 
BRANCH  15  16
ATOM     16  C   UNL     1      11.555 -34.281  13.235  1.00  0.00    -0.000 C 
BRANCH  16  17
ATOM     17  C   UNL     1      10.202 -35.007  13.291  1.00  0.00    -0.000 C 
BRANCH  17  18
ATOM     18  C   UNL     1       9.039 -34.059  13.636  1.00  0.00    -0.000 C 
BRANCH  18  19
ATOM     19  C   UNL     1       7.962 -34.028  12.543  1.00  0.00    -0.003 C 
ATOM     20  C   UNL     1       6.544 -34.103  13.109  1.00  0.00     0.004 C 
ENDBRANCH  18  19
ENDBRANCH  17  18
ENDBRANCH  16  17
ENDBRANCH  15  16
ENDBRANCH  14  15
ENDBRANCH  13  14
ENDBRANCH  12  13
ENDBRANCH   1  12
TORSDOF 16
ENDMDL
MODEL 8
REMARK VINA RESULT:    -2.919      2.109      4.753
REMARK INTER + INTRA:          -8.611
REMARK INTER:                  -6.308
REMARK INTRA:                  -2.303
REMARK UNBOUND:                -2.962
REMARK SMILES CCCCCCCCCCCCCCCCCC(=O)[O-]
REMARK SMILES IDX 10 1 11 2 12 3 13 4 14 5 15 6 16 7 17 8 18 9 19 10 20 11
REMARK SMILES IDX 9 12 8 13 7 14 6 15 5 16 4 17 3 18 2 19 1 20
REMARK H PARENT
REMARK Flexibility Score: inf
ROOT
ATOM      1  C   UNL     1      10.020 -28.333  17.502  1.00  0.00     0.000 C 
ENDROOT
BRANCH   1   2
ATOM      2  C   UNL     1       9.187 -29.228  18.438  1.00  0.00     0.000 C 
BRANCH   2   3
ATOM      3  C   UNL     1       7.747 -28.718  18.618  1.00  0.00     0.000 C 
BRANCH   3   4
ATOM      4  C   UNL     1       6.693 -29.784  18.268  1.00  0.00     0.000 C 
BRANCH   4   5
ATOM      5  C   UNL     1       6.008 -29.513  16.919  1.00  0.00     0.000 C 
BRANCH   5   6
ATOM      6  C   UNL     1       5.948 -30.765  16.025  1.00  0.00     0.000 C 
BRANCH   6   7
ATOM      7  C   UNL     1       7.271 -31.029  15.282  1.00  0.00     0.006 C 
BRANCH   7   8
ATOM      8  C   UNL     1       8.113 -32.172  15.872  1.00  0.00     0.053 C 
BRANCH   8   9
ATOM      9  C   UNL     1       7.319 -33.431  16.034  1.00  0.00     0.041 C 
ATOM     10  O   UNL     1       7.082 -34.163  15.038  1.00  0.00    -0.550 OA
ATOM     11  O   UNL     1       6.872 -33.815  17.292  1.00  0.00    -0.550 OA
ENDBRANCH   8   9
ENDBRANCH   7   8
ENDBRANCH   6   7
ENDBRANCH   5   6
ENDBRANCH   4   5
ENDBRANCH   3   4
ENDBRANCH   2   3
ENDBRANCH   1   2
BRANCH   1  12
ATOM     12  C   UNL     1       9.911 -28.759  16.029  1.00  0.00     0.000 C 
BRANCH  12  13
ATOM     13  C   UNL     1      11.169 -28.404  15.217  1.00  0.00    -0.000 C 
BRANCH  13  14
ATOM     14  C   UNL     1      11.209 -29.093  13.840  1.00  0.00    -0.000 C 
BRANCH  14  15
ATOM     15  C   UNL     1       9.833 -29.479  13.267  1.00  0.00    -0.000 C 
BRANCH  15  16
ATOM     16  C   UNL     1       9.926 -30.130  11.875  1.00  0.00    -0.000 C 
BRANCH  16  17
ATOM     17  C   UNL     1      10.479 -31.562  11.931  1.00  0.00    -0.000 C 
BRANCH  17  18
ATOM     18  C   UNL     1       9.436 -32.577  12.433  1.00  0.00    -0.000 C 
BRANCH  18  19
ATOM     19  C   UNL     1      10.080 -33.799  13.104  1.00  0.00    -0.003 C 
ATOM     20  C   UNL     1      11.421 -33.474  13.760  1.00  0.00     0.004 C 
ENDBRANCH  18  19
ENDBRANCH  17  18
ENDBRANCH  16  17
ENDBRANCH  15  16
ENDBRANCH  14  15
ENDBRANCH  13  14
ENDBRANCH  12  13
ENDBRANCH   1  12
TORSDOF 16
ENDMDL
MODEL 9
REMARK VINA RESULT:    -2.815      2.890      5.359
REMARK INTER + INTRA:          -8.409
REMARK INTER:                  -6.437
REMARK INTRA:                  -1.972
REMARK UNBOUND:                -2.962
REMARK SMILES CCCCCCCCCCCCCCCCCC(=O)[O-]
REMARK SMILES IDX 10 1 11 2 12 3 13 4 14 5 15 6 16 7 17 8 18 9 19 10 20 11
REMARK SMILES IDX 9 12 8 13 7 14 6 15 5 16 4 17 3 18 2 19 1 20
REMARK H PARENT
REMARK Flexibility Score: inf
ROOT
ATOM      1  C   UNL     1       9.442 -28.661  18.042  1.00  0.00     0.000 C 
ENDROOT
BRANCH   1   2
ATOM      2  C   UNL     1      10.118 -28.378  16.688  1.00  0.00     0.000 C 
BRANCH   2   3
ATOM      3  C   UNL     1       9.453 -29.134  15.526  1.00  0.00     0.000 C 
BRANCH   3   4
ATOM      4  C   UNL     1      10.442 -29.470  14.394  1.00  0.00     0.000 C 
BRANCH   4   5
ATOM      5  C   UNL     1       9.882 -29.133  13.004  1.00  0.00     0.000 C 
BRANCH   5   6
ATOM      6  C   UNL     1      10.343 -30.128  11.924  1.00  0.00     0.000 C 
BRANCH   6   7
ATOM      7  C   UNL     1      10.354 -31.585  12.423  1.00  0.00     0.006 C 
BRANCH   7   8
ATOM      8  C   UNL     1      11.706 -32.299  12.269  1.00  0.00     0.053 C 
BRANCH   8   9
ATOM      9  C   UNL     1      11.671 -33.697  12.806  1.00  0.00     0.041 C 
ATOM     10  O   UNL     1      11.296 -34.648  12.071  1.00  0.00    -0.550 OA
ATOM     11  O   UNL     1      12.085 -33.954  14.106  1.00  0.00    -0.550 OA
ENDBRANCH   8   9
ENDBRANCH   7   8
ENDBRANCH   6   7
ENDBRANCH   5   6
ENDBRANCH   4   5
ENDBRANCH   3   4
ENDBRANCH   2   3
ENDBRANCH   1   2
BRANCH   1  12
ATOM     12  C   UNL     1       8.497 -29.872  17.987  1.00  0.00     0.000 C 
BRANCH  12  13
ATOM     13  C   UNL     1       7.015 -29.470  18.094  1.00  0.00    -0.000 C 
BRANCH  13  14
ATOM     14  C   UNL     1       6.108 -30.263  17.134  1.00  0.00    -0.000 C 
BRANCH  14  15
ATOM     15  C   UNL     1       6.621 -31.667  16.765  1.00  0.00    -0.000 C 
BRANCH  15  16
ATOM     16  C   UNL     1       5.893 -32.270  15.551  1.00  0.00    -0.000 C 
BRANCH  16  17
ATOM     17  C   UNL     1       6.855 -32.946  14.562  1.00  0.00    -0.000 C 
BRANCH  17  18
ATOM     18  C   UNL     1       6.945 -32.195  13.221  1.00  0.00    -0.000 C 
BRANCH  18  19
ATOM     19  C   UNL     1       6.540 -30.719  13.345  1.00  0.00    -0.003 C 
ATOM     20  C   UNL     1       6.602 -29.976  12.011  1.00  0.00     0.004 C 
ENDBRANCH  18  19
ENDBRANCH  17  18
ENDBRANCH  16  17
ENDBRANCH  15  16
ENDBRANCH  14  15
ENDBRANCH  13  14
ENDBRANCH  12  13
ENDBRANCH   1  12
TORSDOF 16
ENDMDL
