MODEL 1
REMARK VINA RESULT:    -3.901      0.000      0.000
REMARK INTER + INTRA:          -4.376
REMARK INTER:                  -4.357
REMARK INTRA:                  -0.019
REMARK UNBOUND:                -0.019
REMARK SMILES CCCC(=O)[O-]
REMARK SMILES IDX 3 1 4 2 5 3 6 4 2 5 1 6
REMARK H PARENT
REMARK Flexibility Score: inf
ROOT
ATOM      1  C   UNL     1      -3.225  19.130  26.847  1.00  0.00     0.052 C 
ENDROOT
BRANCH   1   2
ATOM      2  C   UNL     1      -2.676  18.246  27.924  1.00  0.00     0.041 C 
ATOM      3  O   UNL     1      -2.049  18.745  28.895  1.00  0.00    -0.550 OA
ATOM      4  O   UNL     1      -2.883  16.873  27.872  1.00  0.00    -0.550 OA
ENDBRANCH   1   2
BRANCH   1   5
ATOM      5  C   UNL     1      -2.696  20.564  26.965  1.00  0.00     0.003 C 
ATOM      6  C   UNL     1      -1.405  20.776  26.174  1.00  0.00     0.004 C 
ENDBRANCH   1   5
TORSDOF 2
ENDMDL
MODEL 2
REMARK VINA RESULT:    -3.823      0.513      1.411
REMARK INTER + INTRA:          -4.290
REMARK INTER:                  -4.305
REMARK INTRA:                   0.016
REMARK UNBOUND:                -0.019
REMARK SMILES CCCC(=O)[O-]
REMARK SMILES IDX 3 1 4 2 5 3 6 4 2 5 1 6
REMARK H PARENT
REMARK Flexibility Score: inf
ROOT
ATOM      1  C   UNL     1      -3.113  19.180  27.050  1.00  0.00     0.052 C 
ENDROOT
BRANCH   1   2
ATOM      2  C   UNL     1      -2.386  18.563  28.205  1.00  0.00     0.041 C 
ATOM      3  O   UNL     1      -2.345  17.311  28.331  1.00  0.00    -0.550 OA
ATOM      4  O   UNL     1      -1.727  19.369  29.124  1.00  0.00    -0.550 OA
ENDBRANCH   1   2
BRANCH   1   5
ATOM      5  C   UNL     1      -2.736  20.654  26.863  1.00  0.00     0.003 C 
ATOM      6  C   UNL     1      -1.409  20.828  26.125  1.00  0.00     0.004 C 
ENDBRANCH   1   5
TORSDOF 2
ENDMDL
MODEL 3
REMARK VINA RESULT:    -3.607      1.865      2.443
REMARK INTER + INTRA:          -4.048
REMARK INTER:                  -3.977
REMARK INTRA:                  -0.071
REMARK UNBOUND:                -0.019
REMARK SMILES CCCC(=O)[O-]
REMARK SMILES IDX 3 1 4 2 5 3 6 4 2 5 1 6
REMARK H PARENT
REMARK Flexibility Score: inf
ROOT
ATOM      1  C   UNL     1      -1.993  20.182  27.965  1.00  0.00     0.052 C 
ENDROOT
BRANCH   1   2
ATOM      2  C   UNL     1      -3.424  19.956  27.584  1.00  0.00     0.041 C 
ATOM      3  O   UNL     1      -3.756  18.911  26.964  1.00  0.00    -0.550 OA
ATOM      4  O   UNL     1      -4.395  20.882  27.941  1.00  0.00    -0.550 OA
ENDBRANCH   1   2
BRANCH   1   5
ATOM      5  C   UNL     1      -1.080  20.242  26.735  1.00  0.00     0.003 C 
ATOM      6  C   UNL     1      -1.414  21.420  25.818  1.00  0.00     0.004 C 
ENDBRANCH   1   5
TORSDOF 2
ENDMDL
MODEL 4
REMARK VINA RESULT:    -3.419      2.305      3.285
REMARK INTER + INTRA:          -3.838
REMARK INTER:                  -3.833
REMARK INTRA:                  -0.006
REMARK UNBOUND:                -0.019
REMARK SMILES CCCC(=O)[O-]
REMARK SMILES IDX 3 1 4 2 5 3 6 4 2 5 1 6
REMARK H PARENT
REMARK Flexibility Score: inf
ROOT
ATOM      1  C   UNL     1      -3.218  18.919  26.918  1.00  0.00     0.052 C 
ENDROOT
BRANCH   1   2
ATOM      2  C   UNL     1      -2.822  20.360  26.820  1.00  0.00     0.041 C 
ATOM      3  O   UNL     1      -3.628  21.263  27.166  1.00  0.00    -0.550 OA
ATOM      4  O   UNL     1      -1.551  20.704  26.377  1.00  0.00    -0.550 OA
ENDBRANCH   1   2
BRANCH   1   5
ATOM      5  C   UNL     1      -2.499  18.209  28.071  1.00  0.00     0.003 C 
ATOM      6  C   UNL     1      -2.665  16.690  28.015  1.00  0.00     0.004 C 
ENDBRANCH   1   5
TORSDOF 2
ENDMDL
MODEL 5
REMARK VINA RESULT:    -3.369     11.645     12.165
REMARK INTER + INTRA:          -3.782
REMARK INTER:                  -3.767
REMARK INTRA:                  -0.015
REMARK UNBOUND:                -0.019
REMARK SMILES CCCC(=O)[O-]
REMARK SMILES IDX 3 1 4 2 5 3 6 4 2 5 1 6
REMARK H PARENT
REMARK Flexibility Score: inf
ROOT
ATOM      1  C   UNL     1      -2.836  10.587  19.374  1.00  0.00     0.052 C 
ENDROOT
BRANCH   1   2
ATOM      2  C   UNL     1      -1.487  10.863  18.785  1.00  0.00     0.041 C 
ATOM      3  O   UNL     1      -0.892  11.942  19.043  1.00  0.00    -0.550 OA
ATOM      4  O   UNL     1      -0.873   9.915  17.977  1.00  0.00    -0.550 OA
ENDBRANCH   1   2
BRANCH   1   5
ATOM      5  C   UNL     1      -2.815   9.362  20.296  1.00  0.00     0.003 C 
ATOM      6  C   UNL     1      -1.618   9.369  21.247  1.00  0.00     0.004 C 
ENDBRANCH   1   5
TORSDOF 2
ENDMDL
MODEL 6
REMARK VINA RESULT:    -3.352      2.034      2.814
REMARK INTER + INTRA:          -3.764
REMARK INTER:                  -3.702
REMARK INTRA:                  -0.062
REMARK UNBOUND:                -0.019
REMARK SMILES CCCC(=O)[O-]
REMARK SMILES IDX 3 1 4 2 5 3 6 4 2 5 1 6
REMARK H PARENT
REMARK Flexibility Score: inf
ROOT
ATOM      1  C   UNL     1      -3.401  19.840  27.584  1.00  0.00     0.052 C 
ENDROOT
BRANCH   1   2
ATOM      2  C   UNL     1      -1.986  20.272  27.818  1.00  0.00     0.041 C 
ATOM      3  O   UNL     1      -1.562  20.443  28.991  1.00  0.00    -0.550 OA
ATOM      4  O   UNL     1      -1.126  20.454  26.742  1.00  0.00    -0.550 OA
ENDBRANCH   1   2
BRANCH   1   5
ATOM      5  C   UNL     1      -3.473  18.437  26.970  1.00  0.00     0.003 C 
ATOM      6  C   UNL     1      -2.824  17.377  27.860  1.00  0.00     0.004 C 
ENDBRANCH   1   5
TORSDOF 2
ENDMDL
MODEL 7
REMARK VINA RESULT:    -3.281      1.277      2.261
REMARK INTER + INTRA:          -3.684
REMARK INTER:                  -3.626
REMARK INTRA:                  -0.058
REMARK UNBOUND:                -0.019
REMARK SMILES CCCC(=O)[O-]
REMARK SMILES IDX 3 1 4 2 5 3 6 4 2 5 1 6
REMARK H PARENT
REMARK Flexibility Score: inf
ROOT
ATOM      1  C   UNL     1      -1.546  19.961  27.328  1.00  0.00     0.052 C 
ENDROOT
BRANCH   1   2
ATOM      2  C   UNL     1      -1.658  19.218  28.624  1.00  0.00     0.041 C 
ATOM      3  O   UNL     1      -2.022  18.012  28.632  1.00  0.00    -0.550 OA
ATOM      4  O   UNL     1      -1.331  19.846  29.818  1.00  0.00    -0.550 OA
ENDBRANCH   1   2
BRANCH   1   5
ATOM      5  C   UNL     1      -2.917  20.182  26.679  1.00  0.00     0.003 C 
ATOM      6  C   UNL     1      -3.929  20.795  27.648  1.00  0.00     0.004 C 
ENDBRANCH   1   5
TORSDOF 2
ENDMDL
MODEL 8
REMARK VINA RESULT:    -3.210      6.359      6.885
REMARK INTER + INTRA:          -3.604
REMARK INTER:                  -3.590
REMARK INTRA:                  -0.014
REMARK UNBOUND:                -0.019
REMARK SMILES CCCC(=O)[O-]
REMARK SMILES IDX 3 1 4 2 5 3 6 4 2 5 1 6
REMARK H PARENT
REMARK Flexibility Score: inf
ROOT
ATOM      1  C   UNL     1       0.356  21.872  33.395  1.00  0.00     0.052 C 
ENDROOT
BRANCH   1   2
ATOM      2  C   UNL     1       0.322  20.901  32.255  1.00  0.00     0.041 C 
ATOM      3  O   UNL     1      -0.663  20.879  31.472  1.00  0.00    -0.550 OA
ATOM      4  O   UNL     1       1.393  20.043  32.038  1.00  0.00    -0.550 OA
ENDBRANCH   1   2
BRANCH   1   5
ATOM      5  C   UNL     1      -0.666  23.000  33.211  1.00  0.00     0.003 C 
ATOM      6  C   UNL     1      -0.998  23.706  34.526  1.00  0.00     0.004 C 
ENDBRANCH   1   5
TORSDOF 2
ENDMDL
MODEL 9
REMARK VINA RESULT:    -3.119     12.723     13.217
REMARK INTER + INTRA:          -3.503
REMARK INTER:                  -3.478
REMARK INTRA:                  -0.025
REMARK UNBOUND:                -0.019
REMARK SMILES CCCC(=O)[O-]
REMARK SMILES IDX 3 1 4 2 5 3 6 4 2 5 1 6
REMARK H PARENT
REMARK Flexibility Score: inf
ROOT
ATOM      1  C   UNL     1       9.364  15.262  23.546  1.00  0.00     0.052 C 
ENDROOT
BRANCH   1   2
ATOM      2  C   UNL     1       8.436  14.605  24.520  1.00  0.00     0.041 C 
ATOM      3  O   UNL     1       8.858  14.239  25.649  1.00  0.00    -0.550 OA
ATOM      4  O   UNL     1       7.097  14.427  24.196  1.00  0.00    -0.550 OA
ENDBRANCH   1   2
BRANCH   1   5
ATOM      5  C   UNL     1      10.439  14.290  23.042  1.00  0.00     0.003 C 
ATOM      6  C   UNL     1      11.775  14.475  23.761  1.00  0.00     0.004 C 
ENDBRANCH   1   5
TORSDOF 2
ENDMDL
