MODEL 1
REMARK VINA RESULT:    -3.112      0.000      0.000
REMARK INTER + INTRA:          -4.178
REMARK INTER:                  -4.204
REMARK INTRA:                   0.026
REMARK UNBOUND:                 0.026
REMARK SMILES C=C1CCC=C(C)CC[C@H]2[C@@H]1CC2(C)C
REMARK SMILES IDX 11 1 12 2 13 3 10 4 14 5 15 6 9 7 8 8 6 9 7 10 5 11 2 13
REMARK SMILES IDX 1 14 3 15 4 16
REMARK H PARENT
REMARK Flexibility Score: 70.00
ROOT
ATOM      1  C   UNL     1      22.242  63.043  14.855  1.00  0.00     0.018 C 
ATOM      2  C   UNL     1      23.765  62.946  15.025  1.00  0.00     0.015 C 
ATOM      3  C   UNL     1      23.602  62.997  16.555  1.00  0.00    -0.031 C 
ATOM      4  C   UNL     1      22.061  63.096  16.386  1.00  0.00     0.002 C 
ATOM      5  C   UNL     1      24.315  64.207  17.192  1.00  0.00     0.011 C 
ATOM      6  C   UNL     1      24.035  61.685  17.234  1.00  0.00     0.011 C 
ENDROOT
BRANCH   4   7
ATOM      7  C   UNL     1      21.358  64.326  17.015  1.00  0.00     0.009 C 
BRANCH   7   8
ATOM      8  C   UNL     1      19.871  64.065  17.340  1.00  0.00     0.030 C 
BRANCH   8   9
ATOM      9  C   UNL     1      18.929  64.865  16.458  1.00  0.00    -0.077 C 
ATOM     10  C   UNL     1      18.246  66.069  17.052  1.00  0.00     0.039 C 
ATOM     11  C   UNL     1      18.675  64.567  15.162  1.00  0.00    -0.028 CG0
ATOM     12  G   UNL     1      19.351  63.482  14.359  1.00  0.00     0.000 G0
ENDBRANCH   8   9
ENDBRANCH   7   8
ENDBRANCH   4   7
BRANCH   1  13
ATOM     13  C   UNL     1      21.726  64.207  14.012  1.00  0.00    -0.074 C 
ATOM     14  C   UNL     1      22.415  65.349  13.830  1.00  0.00     0.008 C 
BRANCH  13  15
ATOM     15  C   UNL     1      20.362  64.062  13.373  1.00  0.00     0.035 C 
BRANCH  15  16
ATOM     16  C   UNL     1      19.344  63.473  14.354  1.00  0.00     0.032 CG0
ATOM     17  G   UNL     1      18.680  64.562  15.163  1.00  0.00     0.000 G0
ENDBRANCH  15  16
ENDBRANCH  13  15
ENDBRANCH   1  13
TORSDOF 0
ENDMDL
MODEL 2
REMARK VINA RESULT:    -3.062      2.402      4.933
REMARK INTER + INTRA:          -4.109
REMARK INTER:                  -4.159
REMARK INTRA:                   0.050
REMARK UNBOUND:                 0.026
REMARK SMILES C=C1CCC=C(C)CC[C@H]2[C@@H]1CC2(C)C
REMARK SMILES IDX 11 1 12 2 13 3 10 4 14 5 15 6 9 7 8 8 6 9 7 10 5 11 2 13
REMARK SMILES IDX 1 14 3 15 4 16
REMARK H PARENT
REMARK Flexibility Score: 70.00
ROOT
ATOM      1  C   UNL     1      19.885  63.843  16.938  1.00  0.00     0.018 C 
ATOM      2  C   UNL     1      19.067  64.404  15.767  1.00  0.00     0.015 C 
ATOM      3  C   UNL     1      20.022  63.725  14.768  1.00  0.00    -0.031 C 
ATOM      4  C   UNL     1      20.853  63.158  15.951  1.00  0.00     0.002 C 
ATOM      5  C   UNL     1      20.728  64.733  13.838  1.00  0.00     0.011 C 
ATOM      6  C   UNL     1      19.328  62.618  13.952  1.00  0.00     0.011 C 
ENDROOT
BRANCH   4   7
ATOM      7  C   UNL     1      22.358  63.526  16.000  1.00  0.00     0.009 C 
BRANCH   7   8
ATOM      8  C   UNL     1      23.173  62.594  16.922  1.00  0.00     0.030 C 
BRANCH   8   9
ATOM      9  C   UNL     1      23.689  63.302  18.162  1.00  0.00    -0.077 C 
ATOM     10  C   UNL     1      25.101  63.830  18.147  1.00  0.00     0.039 C 
ATOM     11  C   UNL     1      22.952  63.500  19.280  1.00  0.00    -0.028 CG0
ATOM     12  G   UNL     1      21.490  63.158  19.442  1.00  0.00     0.000 G0
ENDBRANCH   8   9
ENDBRANCH   7   8
ENDBRANCH   4   7
BRANCH   1  13
ATOM     13  C   UNL     1      20.444  64.865  17.926  1.00  0.00    -0.074 C 
ATOM     14  C   UNL     1      20.796  66.116  17.575  1.00  0.00     0.008 C 
BRANCH  13  15
ATOM     15  C   UNL     1      20.622  64.427  19.363  1.00  0.00     0.035 C 
BRANCH  15  16
ATOM     16  C   UNL     1      21.488  63.167  19.461  1.00  0.00     0.032 CG0
ATOM     17  G   UNL     1      22.950  63.501  19.292  1.00  0.00     0.000 G0
ENDBRANCH  15  16
ENDBRANCH  13  15
ENDBRANCH   1  13
TORSDOF 0
ENDMDL
MODEL 3
REMARK VINA RESULT:    -3.008      2.163      3.455
REMARK INTER + INTRA:          -4.036
REMARK INTER:                  -4.079
REMARK INTRA:                   0.043
REMARK UNBOUND:                 0.026
REMARK SMILES C=C1CCC=C(C)CC[C@H]2[C@@H]1CC2(C)C
REMARK SMILES IDX 11 1 12 2 13 3 10 4 14 5 15 6 9 7 8 8 6 9 7 10 5 11 2 13
REMARK SMILES IDX 1 14 3 15 4 16
REMARK H PARENT
REMARK Flexibility Score: 70.00
ROOT
ATOM      1  C   UNL     1      21.484  63.159  15.326  1.00  0.00     0.018 C 
ATOM      2  C   UNL     1      22.065  63.296  13.912  1.00  0.00     0.015 C 
ATOM      3  C   UNL     1      23.469  62.965  14.452  1.00  0.00    -0.031 C 
ATOM      4  C   UNL     1      22.884  62.827  15.884  1.00  0.00     0.002 C 
ATOM      5  C   UNL     1      24.483  64.103  14.217  1.00  0.00     0.011 C 
ATOM      6  C   UNL     1      24.007  61.629  13.906  1.00  0.00     0.011 C 
ENDROOT
BRANCH   4   7
ATOM      7  C   UNL     1      23.487  63.737  16.985  1.00  0.00     0.009 C 
BRANCH   7   8
ATOM      8  C   UNL     1      23.392  63.115  18.395  1.00  0.00     0.030 C 
BRANCH   8   9
ATOM      9  C   UNL     1      22.419  63.853  19.297  1.00  0.00    -0.077 C 
ATOM     10  C   UNL     1      22.980  64.696  20.413  1.00  0.00     0.039 C 
ATOM     11  C   UNL     1      21.074  63.809  19.151  1.00  0.00    -0.028 CG0
ATOM     12  G   UNL     1      20.332  63.125  18.028  1.00  0.00     0.000 G0
ENDBRANCH   8   9
ENDBRANCH   7   8
ENDBRANCH   4   7
BRANCH   1  13
ATOM     13  C   UNL     1      20.743  64.376  15.876  1.00  0.00    -0.074 C 
ATOM     14  C   UNL     1      20.922  65.625  15.405  1.00  0.00     0.008 C 
BRANCH  13  15
ATOM     15  C   UNL     1      19.777  64.153  17.018  1.00  0.00     0.035 C 
BRANCH  15  16
ATOM     16  C   UNL     1      20.322  63.133  18.022  1.00  0.00     0.032 CG0
ATOM     17  G   UNL     1      21.078  63.819  19.134  1.00  0.00     0.000 G0
ENDBRANCH  15  16
ENDBRANCH  13  15
ENDBRANCH   1  13
TORSDOF 0
ENDMDL
MODEL 4
REMARK VINA RESULT:    -2.939      2.540      5.304
REMARK INTER + INTRA:          -3.943
REMARK INTER:                  -4.517
REMARK INTRA:                   0.574
REMARK UNBOUND:                 0.026
REMARK SMILES C=C1CCC=C(C)CC[C@H]2[C@@H]1CC2(C)C
REMARK SMILES IDX 11 1 12 2 13 3 10 4 14 5 15 6 9 7 8 8 6 9 7 10 5 11 2 13
REMARK SMILES IDX 1 14 3 15 4 16
REMARK H PARENT
REMARK Flexibility Score: 70.00
ROOT
ATOM      1  C   UNL     1      21.616  63.146  16.296  1.00  0.00     0.018 C 
ATOM      2  C   UNL     1      20.197  63.707  16.125  1.00  0.00     0.015 C 
ATOM      3  C   UNL     1      20.378  63.714  14.596  1.00  0.00    -0.031 C 
ATOM      4  C   UNL     1      21.814  63.148  14.766  1.00  0.00     0.002 C 
ATOM      5  C   UNL     1      20.250  65.125  13.987  1.00  0.00     0.011 C 
ATOM      6  C   UNL     1      19.435  62.723  13.889  1.00  0.00     0.011 C 
ENDROOT
BRANCH   4   7
ATOM      7  C   UNL     1      22.977  63.977  14.162  1.00  0.00     0.009 C 
BRANCH   7   8
ATOM      8  C   UNL     1      24.055  63.097  13.491  1.00  0.00     0.030 C 
BRANCH   8   9
ATOM      9  C   UNL     1      24.467  61.917  14.352  1.00  0.00    -0.077 C 
ATOM     10  C   UNL     1      24.537  60.555  13.709  1.00  0.00     0.039 C 
ATOM     11  C   UNL     1      24.788  62.014  15.663  1.00  0.00    -0.028 CG0
ATOM     12  G   UNL     1      24.896  63.299  16.449  1.00  0.00     0.000 G0
ENDBRANCH   8   9
ENDBRANCH   7   8
ENDBRANCH   4   7
BRANCH   1  13
ATOM     13  C   UNL     1      22.570  63.965  17.162  1.00  0.00    -0.074 C 
ATOM     14  C   UNL     1      22.324  65.234  17.535  1.00  0.00     0.008 C 
BRANCH  13  15
ATOM     15  C   UNL     1      23.861  63.308  17.599  1.00  0.00     0.035 C 
BRANCH  15  16
ATOM     16  C   UNL     1      24.892  63.290  16.467  1.00  0.00     0.032 CG0
ATOM     17  G   UNL     1      24.783  62.021  15.656  1.00  0.00     0.000 G0
ENDBRANCH  15  16
ENDBRANCH  13  15
ENDBRANCH   1  13
TORSDOF 0
ENDMDL
MODEL 5
REMARK VINA RESULT:    -2.895      1.898      4.374
REMARK INTER + INTRA:          -3.884
REMARK INTER:                  -3.905
REMARK INTRA:                   0.021
REMARK UNBOUND:                 0.026
REMARK SMILES C=C1CCC=C(C)CC[C@H]2[C@@H]1CC2(C)C
REMARK SMILES IDX 11 1 12 2 13 3 10 4 14 5 15 6 9 7 8 8 6 9 7 10 5 11 2 13
REMARK SMILES IDX 1 14 3 15 4 16
REMARK H PARENT
REMARK Flexibility Score: 70.00
ROOT
ATOM      1  C   UNL     1      20.984  64.954  15.664  1.00  0.00     0.018 C 
ATOM      2  C   UNL     1      19.823  65.025  16.666  1.00  0.00     0.015 C 
ATOM      3  C   UNL     1      20.742  64.483  17.776  1.00  0.00    -0.031 C 
ATOM      4  C   UNL     1      21.918  64.410  16.765  1.00  0.00     0.002 C 
ATOM      5  C   UNL     1      20.243  63.149  18.367  1.00  0.00     0.011 C 
ATOM      6  C   UNL     1      20.988  65.519  18.890  1.00  0.00     0.011 C 
ENDROOT
BRANCH   4   7
ATOM      7  C   UNL     1      22.590  63.028  16.561  1.00  0.00     0.009 C 
BRANCH   7   8
ATOM      8  C   UNL     1      24.023  63.135  15.997  1.00  0.00     0.030 C 
BRANCH   8   9
ATOM      9  C   UNL     1      24.135  62.610  14.578  1.00  0.00    -0.077 C 
ATOM     10  C   UNL     1      24.713  61.233  14.370  1.00  0.00     0.039 C 
ATOM     11  C   UNL     1      23.735  63.300  13.484  1.00  0.00    -0.028 CG0
ATOM     12  G   UNL     1      23.024  64.631  13.495  1.00  0.00     0.000 G0
ENDBRANCH   8   9
ENDBRANCH   7   8
ENDBRANCH   4   7
BRANCH   1  13
ATOM     13  C   UNL     1      20.751  64.109  14.413  1.00  0.00    -0.074 C 
ATOM     14  C   UNL     1      19.899  63.067  14.374  1.00  0.00     0.008 C 
BRANCH  13  15
ATOM     15  C   UNL     1      21.537  64.462  13.170  1.00  0.00     0.035 C 
BRANCH  15  16
ATOM     16  C   UNL     1      23.028  64.628  13.480  1.00  0.00     0.032 CG0
ATOM     17  G   UNL     1      23.734  63.294  13.472  1.00  0.00     0.000 G0
ENDBRANCH  15  16
ENDBRANCH  13  15
ENDBRANCH   1  13
TORSDOF 0
ENDMDL
MODEL 6
REMARK VINA RESULT:    -2.722      2.499      4.394
REMARK INTER + INTRA:          -3.651
REMARK INTER:                  -3.801
REMARK INTRA:                   0.150
REMARK UNBOUND:                 0.026
REMARK SMILES C=C1CCC=C(C)CC[C@H]2[C@@H]1CC2(C)C
REMARK SMILES IDX 11 1 12 2 13 3 10 4 14 5 15 6 9 7 8 8 6 9 7 10 5 11 2 13
REMARK SMILES IDX 1 14 3 15 4 16
REMARK H PARENT
REMARK Flexibility Score: 70.00
ROOT
ATOM      1  C   UNL     1      23.240  63.975  15.261  1.00  0.00     0.018 C 
ATOM      2  C   UNL     1      22.826  63.319  13.937  1.00  0.00     0.015 C 
ATOM      3  C   UNL     1      21.376  63.788  14.151  1.00  0.00    -0.031 C 
ATOM      4  C   UNL     1      21.791  64.453  15.492  1.00  0.00     0.002 C 
ATOM      5  C   UNL     1      20.374  62.618  14.231  1.00  0.00     0.011 C 
ATOM      6  C   UNL     1      20.931  64.820  13.097  1.00  0.00     0.011 C 
ENDROOT
BRANCH   4   7
ATOM      7  C   UNL     1      21.046  63.992  16.771  1.00  0.00     0.009 C 
BRANCH   7   8
ATOM      8  C   UNL     1      20.889  65.120  17.813  1.00  0.00     0.030 C 
BRANCH   8   9
ATOM      9  C   UNL     1      21.744  64.900  19.048  1.00  0.00    -0.077 C 
ATOM     10  C   UNL     1      21.049  64.629  20.358  1.00  0.00     0.039 C 
ATOM     11  C   UNL     1      23.097  64.920  19.042  1.00  0.00    -0.028 CG0
ATOM     12  G   UNL     1      23.970  65.051  17.817  1.00  0.00     0.000 G0
ENDBRANCH   8   9
ENDBRANCH   7   8
ENDBRANCH   4   7
BRANCH   1  13
ATOM     13  C   UNL     1      23.888  63.061  16.299  1.00  0.00    -0.074 C 
ATOM     14  C   UNL     1      23.826  61.718  16.241  1.00  0.00     0.008 C 
BRANCH  13  15
ATOM     15  C   UNL     1      24.615  63.714  17.454  1.00  0.00     0.035 C 
BRANCH  15  16
ATOM     16  C   UNL     1      23.982  65.058  17.826  1.00  0.00     0.032 CG0
ATOM     17  G   UNL     1      23.100  64.922  19.044  1.00  0.00     0.000 G0
ENDBRANCH  15  16
ENDBRANCH  13  15
ENDBRANCH   1  13
TORSDOF 0
ENDMDL
MODEL 7
REMARK VINA RESULT:    -2.672      1.935      3.666
REMARK INTER + INTRA:          -3.583
REMARK INTER:                  -4.162
REMARK INTRA:                   0.579
REMARK UNBOUND:                 0.026
REMARK SMILES C=C1CCC=C(C)CC[C@H]2[C@@H]1CC2(C)C
REMARK SMILES IDX 11 1 12 2 13 3 10 4 14 5 15 6 9 7 8 8 6 9 7 10 5 11 2 13
REMARK SMILES IDX 1 14 3 15 4 16
REMARK H PARENT
REMARK Flexibility Score: 70.00
ROOT
ATOM      1  C   UNL     1      20.129  63.520  15.516  1.00  0.00     0.018 C 
ATOM      2  C   UNL     1      20.388  63.162  14.046  1.00  0.00     0.015 C 
ATOM      3  C   UNL     1      21.870  63.547  14.208  1.00  0.00    -0.031 C 
ATOM      4  C   UNL     1      21.611  63.911  15.695  1.00  0.00     0.002 C 
ATOM      5  C   UNL     1      22.295  64.695  13.270  1.00  0.00     0.011 C 
ATOM      6  C   UNL     1      22.811  62.337  14.054  1.00  0.00     0.011 C 
ENDROOT
BRANCH   4   7
ATOM      7  C   UNL     1      21.956  65.356  16.140  1.00  0.00     0.009 C 
BRANCH   7   8
ATOM      8  C   UNL     1      22.611  65.412  17.537  1.00  0.00     0.030 C 
BRANCH   8   9
ATOM      9  C   UNL     1      21.884  64.558  18.560  1.00  0.00    -0.077 C 
ATOM     10  C   UNL     1      22.701  63.645  19.438  1.00  0.00     0.039 C 
ATOM     11  C   UNL     1      20.542  64.576  18.741  1.00  0.00    -0.028 CG0
ATOM     12  G   UNL     1      19.573  65.506  18.052  1.00  0.00     0.000 G0
ENDBRANCH   8   9
ENDBRANCH   7   8
ENDBRANCH   4   7
BRANCH   1  13
ATOM     13  C   UNL     1      19.054  64.571  15.779  1.00  0.00    -0.074 C 
ATOM     14  C   UNL     1      18.548  65.367  14.818  1.00  0.00     0.008 C 
BRANCH  13  15
ATOM     15  C   UNL     1      18.557  64.728  17.199  1.00  0.00     0.035 C 
BRANCH  15  16
ATOM     16  C   UNL     1      19.558  65.503  18.061  1.00  0.00     0.032 CG0
ATOM     17  G   UNL     1      20.539  64.568  18.726  1.00  0.00     0.000 G0
ENDBRANCH  15  16
ENDBRANCH  13  15
ENDBRANCH   1  13
TORSDOF 0
ENDMDL
MODEL 8
REMARK VINA RESULT:    -2.600      1.453      2.276
REMARK INTER + INTRA:          -3.486
REMARK INTER:                  -4.245
REMARK INTRA:                   0.759
REMARK UNBOUND:                 0.026
REMARK SMILES C=C1CCC=C(C)CC[C@H]2[C@@H]1CC2(C)C
REMARK SMILES IDX 11 1 12 2 13 3 10 4 14 5 15 6 9 7 8 8 6 9 7 10 5 11 2 13
REMARK SMILES IDX 1 14 3 15 4 16
REMARK H PARENT
REMARK Flexibility Score: 70.00
ROOT
ATOM      1  C   UNL     1      20.637  63.256  16.519  1.00  0.00     0.018 C 
ATOM      2  C   UNL     1      22.056  63.221  17.103  1.00  0.00     0.015 C 
ATOM      3  C   UNL     1      21.674  64.322  18.109  1.00  0.00    -0.031 C 
ATOM      4  C   UNL     1      20.238  64.360  17.520  1.00  0.00     0.002 C 
ATOM      5  C   UNL     1      22.529  65.596  17.954  1.00  0.00     0.011 C 
ATOM      6  C   UNL     1      21.699  63.819  19.565  1.00  0.00     0.011 C 
ENDROOT
BRANCH   4   7
ATOM      7  C   UNL     1      19.735  65.721  16.973  1.00  0.00     0.009 C 
BRANCH   7   8
ATOM      8  C   UNL     1      18.341  66.107  17.516  1.00  0.00     0.030 C 
BRANCH   8   9
ATOM      9  C   UNL     1      17.217  65.342  16.842  1.00  0.00    -0.077 C 
ATOM     10  C   UNL     1      15.912  65.192  17.581  1.00  0.00     0.039 C 
ATOM     11  C   UNL     1      17.312  64.795  15.607  1.00  0.00    -0.028 CG0
ATOM     12  G   UNL     1      18.483  64.943  14.666  1.00  0.00     0.000 G0
ENDBRANCH   8   9
ENDBRANCH   7   8
ENDBRANCH   4   7
BRANCH   1  13
ATOM     13  C   UNL     1      20.525  63.544  15.023  1.00  0.00    -0.074 C 
ATOM     14  C   UNL     1      21.590  63.789  14.237  1.00  0.00     0.008 C 
BRANCH  13  15
ATOM     15  C   UNL     1      19.141  63.570  14.414  1.00  0.00     0.035 C 
BRANCH  15  16
ATOM     16  C   UNL     1      18.459  64.924  14.633  1.00  0.00     0.032 CG0
ATOM     17  G   UNL     1      17.316  64.802  15.611  1.00  0.00     0.000 G0
ENDBRANCH  15  16
ENDBRANCH  13  15
ENDBRANCH   1  13
TORSDOF 0
ENDMDL
MODEL 9
REMARK VINA RESULT:    -2.598      1.526      3.259
REMARK INTER + INTRA:          -3.483
REMARK INTER:                  -4.060
REMARK INTRA:                   0.578
REMARK UNBOUND:                 0.026
REMARK SMILES C=C1CCC=C(C)CC[C@H]2[C@@H]1CC2(C)C
REMARK SMILES IDX 11 1 12 2 13 3 10 4 14 5 15 6 9 7 8 8 6 9 7 10 5 11 2 13
REMARK SMILES IDX 1 14 3 15 4 16
REMARK H PARENT
REMARK Flexibility Score: 70.00
ROOT
ATOM      1  C   UNL     1      23.463  63.927  15.731  1.00  0.00     0.018 C 
ATOM      2  C   UNL     1      24.765  63.309  15.205  1.00  0.00     0.015 C 
ATOM      3  C   UNL     1      24.099  63.055  13.840  1.00  0.00    -0.031 C 
ATOM      4  C   UNL     1      22.779  63.678  14.371  1.00  0.00     0.002 C 
ATOM      5  C   UNL     1      24.064  61.560  13.462  1.00  0.00     0.011 C 
ATOM      6  C   UNL     1      24.733  63.891  12.713  1.00  0.00     0.011 C 
ENDROOT
BRANCH   4   7
ATOM      7  C   UNL     1      21.508  62.792  14.322  1.00  0.00     0.009 C 
BRANCH   7   8
ATOM      8  C   UNL     1      20.254  63.567  13.864  1.00  0.00     0.030 C 
BRANCH   8   9
ATOM      9  C   UNL     1      20.054  64.863  14.630  1.00  0.00    -0.077 C 
ATOM     10  C   UNL     1      19.689  66.102  13.853  1.00  0.00     0.039 C 
ATOM     11  C   UNL     1      20.174  64.971  15.974  1.00  0.00    -0.028 CG0
ATOM     12  G   UNL     1      20.410  63.827  16.931  1.00  0.00     0.000 G0
ENDBRANCH   8   9
ENDBRANCH   7   8
ENDBRANCH   4   7
BRANCH   1  13
ATOM     13  C   UNL     1      22.865  63.287  16.983  1.00  0.00    -0.074 C 
ATOM     14  C   UNL     1      23.275  62.103  17.474  1.00  0.00     0.008 C 
BRANCH  13  15
ATOM     15  C   UNL     1      21.744  64.024  17.682  1.00  0.00     0.035 C 
BRANCH  15  16
ATOM     16  C   UNL     1      20.411  63.840  16.951  1.00  0.00     0.032 CG0
ATOM     17  G   UNL     1      20.172  64.962  15.970  1.00  0.00     0.000 G0
ENDBRANCH  15  16
ENDBRANCH  13  15
ENDBRANCH   1  13
TORSDOF 0
ENDMDL
