MODEL 1
REMARK VINA RESULT:    -2.404      0.000      0.000
REMARK INTER + INTRA:          -2.404
REMARK INTER:                  -2.404
REMARK INTRA:                   0.000
REMARK UNBOUND:                 0.000
REMARK SMILES CC(=O)[O-]
REMARK SMILES IDX 1 1 2 2 3 3 4 4
REMARK H PARENT
REMARK Flexibility Score: inf
ROOT
ATOM      1  C   UNL     1       6.307   8.605   5.222  1.00  0.00     0.063 C 
ATOM      2  C   UNL     1       7.791   8.631   5.363  1.00  0.00     0.038 C 
ATOM      3  O   UNL     1       8.381   7.715   5.994  1.00  0.00    -0.550 OA
ATOM      4  O   UNL     1       8.522   9.691   4.844  1.00  0.00    -0.550 OA
ENDROOT
TORSDOF 0
ENDMDL
MODEL 2
REMARK VINA RESULT:    -2.398     10.681     11.266
REMARK INTER + INTRA:          -2.398
REMARK INTER:                  -2.398
REMARK INTRA:                   0.000
REMARK UNBOUND:                 0.000
REMARK SMILES CC(=O)[O-]
REMARK SMILES IDX 1 1 2 2 3 3 4 4
REMARK H PARENT
REMARK Flexibility Score: inf
ROOT
ATOM      1  C   UNL     1      -0.464   5.790  11.676  1.00  0.00     0.063 C 
ATOM      2  C   UNL     1      -1.117   4.692  10.907  1.00  0.00     0.038 C 
ATOM      3  O   UNL     1      -1.860   3.864  11.495  1.00  0.00    -0.550 OA
ATOM      4  O   UNL     1      -0.865   4.548   9.549  1.00  0.00    -0.550 OA
ENDROOT
TORSDOF 0
ENDMDL
MODEL 3
REMARK VINA RESULT:    -2.391      1.411      1.976
REMARK INTER + INTRA:          -2.391
REMARK INTER:                  -2.391
REMARK INTRA:                   0.000
REMARK UNBOUND:                 0.000
REMARK SMILES CC(=O)[O-]
REMARK SMILES IDX 1 1 2 2 3 3 4 4
REMARK H PARENT
REMARK Flexibility Score: inf
ROOT
ATOM      1  C   UNL     1       8.021   7.645   6.290  1.00  0.00     0.063 C 
ATOM      2  C   UNL     1       7.576   8.728   5.367  1.00  0.00     0.038 C 
ATOM      3  O   UNL     1       8.403   9.578   4.945  1.00  0.00    -0.550 OA
ATOM      4  O   UNL     1       6.238   8.832   5.010  1.00  0.00    -0.550 OA
ENDROOT
TORSDOF 0
ENDMDL
MODEL 4
REMARK VINA RESULT:    -2.379     10.707     11.273
REMARK INTER + INTRA:          -2.379
REMARK INTER:                  -2.379
REMARK INTRA:                   0.000
REMARK UNBOUND:                 0.000
REMARK SMILES CC(=O)[O-]
REMARK SMILES IDX 1 1 2 2 3 3 4 4
REMARK H PARENT
REMARK Flexibility Score: inf
ROOT
ATOM      1  C   UNL     1      -0.704   4.864   9.626  1.00  0.00     0.063 C 
ATOM      2  C   UNL     1      -1.101   4.811  11.063  1.00  0.00     0.038 C 
ATOM      3  O   UNL     1      -1.850   3.888  11.477  1.00  0.00    -0.550 OA
ATOM      4  O   UNL     1      -0.690   5.809  11.936  1.00  0.00    -0.550 OA
ENDROOT
TORSDOF 0
ENDMDL
MODEL 5
REMARK VINA RESULT:    -2.349      9.890     10.462
REMARK INTER + INTRA:          -2.349
REMARK INTER:                  -2.349
REMARK INTRA:                   0.000
REMARK UNBOUND:                 0.000
REMARK SMILES CC(=O)[O-]
REMARK SMILES IDX 1 1 2 2 3 3 4 4
REMARK H PARENT
REMARK Flexibility Score: inf
ROOT
ATOM      1  C   UNL     1      -1.053   5.437  11.428  1.00  0.00     0.063 C 
ATOM      2  C   UNL     1       0.147   6.194  11.887  1.00  0.00     0.038 C 
ATOM      3  O   UNL     1       1.161   6.279  11.147  1.00  0.00    -0.550 OA
ATOM      4  O   UNL     1       0.169   6.763  13.154  1.00  0.00    -0.550 OA
ENDROOT
TORSDOF 0
ENDMDL
MODEL 6
REMARK VINA RESULT:    -2.344      2.279      2.523
REMARK INTER + INTRA:          -2.344
REMARK INTER:                  -2.344
REMARK INTRA:                   0.000
REMARK UNBOUND:                 0.000
REMARK SMILES CC(=O)[O-]
REMARK SMILES IDX 1 1 2 2 3 3 4 4
REMARK H PARENT
REMARK Flexibility Score: inf
ROOT
ATOM      1  C   UNL     1       8.083   8.111   5.389  1.00  0.00     0.063 C 
ATOM      2  C   UNL     1       7.932   7.419   6.702  1.00  0.00     0.038 C 
ATOM      3  O   UNL     1       6.820   7.417   7.290  1.00  0.00    -0.550 OA
ATOM      4  O   UNL     1       9.031   6.821   7.304  1.00  0.00    -0.550 OA
ENDROOT
TORSDOF 0
ENDMDL
MODEL 7
REMARK VINA RESULT:    -2.337      2.176      2.940
REMARK INTER + INTRA:          -2.337
REMARK INTER:                  -2.337
REMARK INTRA:                   0.000
REMARK UNBOUND:                 0.000
REMARK SMILES CC(=O)[O-]
REMARK SMILES IDX 1 1 2 2 3 3 4 4
REMARK H PARENT
REMARK Flexibility Score: inf
ROOT
ATOM      1  C   UNL     1       8.958   6.673   7.662  1.00  0.00     0.063 C 
ATOM      2  C   UNL     1       7.950   7.357   6.801  1.00  0.00     0.038 C 
ATOM      3  O   UNL     1       8.289   7.830   5.685  1.00  0.00    -0.550 OA
ATOM      4  O   UNL     1       6.646   7.520   7.250  1.00  0.00    -0.550 OA
ENDROOT
TORSDOF 0
ENDMDL
MODEL 8
REMARK VINA RESULT:    -2.322      3.250      3.717
REMARK INTER + INTRA:          -2.322
REMARK INTER:                  -2.322
REMARK INTRA:                   0.000
REMARK UNBOUND:                 0.000
REMARK SMILES CC(=O)[O-]
REMARK SMILES IDX 1 1 2 2 3 3 4 4
REMARK H PARENT
REMARK Flexibility Score: inf
ROOT
ATOM      1  C   UNL     1       8.287   5.263   8.219  1.00  0.00     0.063 C 
ATOM      2  C   UNL     1       8.917   6.580   7.916  1.00  0.00     0.038 C 
ATOM      3  O   UNL     1       9.786   7.058   8.691  1.00  0.00    -0.550 OA
ATOM      4  O   UNL     1       8.511   7.308   6.805  1.00  0.00    -0.550 OA
ENDROOT
TORSDOF 0
ENDMDL
MODEL 9
REMARK VINA RESULT:    -2.264     10.226     10.570
REMARK INTER + INTRA:          -2.264
REMARK INTER:                  -2.264
REMARK INTRA:                   0.000
REMARK UNBOUND:                 0.000
REMARK SMILES CC(=O)[O-]
REMARK SMILES IDX 1 1 2 2 3 3 4 4
REMARK H PARENT
REMARK Flexibility Score: inf
ROOT
ATOM      1  C   UNL     1       1.239   8.264  12.411  1.00  0.00     0.063 C 
ATOM      2  C   UNL     1       0.666   6.966  12.871  1.00  0.00     0.038 C 
ATOM      3  O   UNL     1       0.911   6.543  14.031  1.00  0.00    -0.550 OA
ATOM      4  O   UNL     1      -0.098   6.196  12.004  1.00  0.00    -0.550 OA
ENDROOT
TORSDOF 0
ENDMDL
