MODEL 1
REMARK VINA RESULT:    -7.519      0.000      0.000
REMARK INTER + INTRA:         -11.891
REMARK INTER:                 -10.816
REMARK INTRA:                  -1.075
REMARK UNBOUND:                -1.075
REMARK SMILES CC(C)=CCCC(C)=CCCC(C)=CCO
REMARK SMILES IDX 10 1 9 2 7 3 8 4 6 5 5 6 4 7 1 8 2 9 3 10 11 11 12 12 14 13
REMARK SMILES IDX 13 14 15 15 16 16
REMARK H PARENT 16 17
REMARK Flexibility Score: inf
ROOT
ATOM      1  C   UNL     1      10.011 -19.634  36.425  1.00  0.00     0.032 C 
ENDROOT
BRANCH   1   2
ATOM      2  C   UNL     1      10.707 -18.921  37.557  1.00  0.00    -0.028 C 
ATOM      3  C   UNL     1      11.581 -19.508  38.407  1.00  0.00    -0.077 C 
ATOM      4  C   UNL     1      11.891 -20.984  38.338  1.00  0.00     0.039 C 
BRANCH   3   5
ATOM      5  C   UNL     1      12.248 -18.662  39.470  1.00  0.00     0.034 C 
BRANCH   5   6
ATOM      6  C   UNL     1      12.691 -17.313  38.893  1.00  0.00     0.032 C 
BRANCH   6   7
ATOM      7  C   UNL     1      11.879 -16.186  39.481  1.00  0.00    -0.028 C 
ATOM      8  C   UNL     1      10.371 -14.246  39.481  1.00  0.00     0.039 C 
ATOM      9  C   UNL     1      11.168 -15.298  38.752  1.00  0.00    -0.080 C 
ATOM     10  C   UNL     1      11.166 -15.319  37.242  1.00  0.00     0.039 C 
ENDBRANCH   6   7
ENDBRANCH   5   6
ENDBRANCH   3   5
ENDBRANCH   1   2
BRANCH   1  11
ATOM     11  C   UNL     1      10.816 -19.503  35.128  1.00  0.00     0.034 C 
BRANCH  11  12
ATOM     12  C   UNL     1      11.169 -20.866  34.574  1.00  0.00    -0.075 C 
ATOM     13  C   UNL     1      10.237 -21.565  33.892  1.00  0.00    -0.000 C 
ATOM     14  C   UNL     1      12.559 -21.415  34.794  1.00  0.00     0.039 C 
BRANCH  13  15
ATOM     15  C   UNL     1      10.493 -22.928  33.304  1.00  0.00     0.183 C 
BRANCH  15  16
ATOM     16  O   UNL     1       9.574 -23.858  33.813  1.00  0.00    -0.392 OA
ATOM     17  H   UNL     1       9.546 -23.721  34.796  1.00  0.00     0.210 HD
ENDBRANCH  15  16
ENDBRANCH  13  15
ENDBRANCH  11  12
ENDBRANCH   1  11
TORSDOF 8
ENDMDL
MODEL 2
REMARK VINA RESULT:    -7.336      3.256      8.215
REMARK INTER + INTRA:         -11.627
REMARK INTER:                 -11.136
REMARK INTRA:                  -0.492
REMARK UNBOUND:                -1.075
REMARK SMILES CC(C)=CCCC(C)=CCCC(C)=CCO
REMARK SMILES IDX 10 1 9 2 7 3 8 4 6 5 5 6 4 7 1 8 2 9 3 10 11 11 12 12 14 13
REMARK SMILES IDX 13 14 15 15 16 16
REMARK H PARENT 16 17
REMARK Flexibility Score: inf
ROOT
ATOM      1  C   UNL     1      10.694 -18.752  35.750  1.00  0.00     0.032 C 
ENDROOT
BRANCH   1   2
ATOM      2  C   UNL     1      11.157 -20.158  35.460  1.00  0.00    -0.028 C 
ATOM      3  C   UNL     1      10.634 -20.951  34.497  1.00  0.00    -0.077 C 
ATOM      4  C   UNL     1       9.463 -20.511  33.650  1.00  0.00     0.039 C 
BRANCH   3   5
ATOM      5  C   UNL     1      11.227 -22.326  34.279  1.00  0.00     0.034 C 
BRANCH   5   6
ATOM      6  C   UNL     1      10.145 -23.324  33.849  1.00  0.00     0.032 C 
BRANCH   6   7
ATOM      7  C   UNL     1      10.725 -24.392  32.956  1.00  0.00    -0.028 C 
ATOM      8  C   UNL     1      11.110 -26.665  32.106  1.00  0.00     0.039 C 
ATOM      9  C   UNL     1      10.489 -25.715  33.099  1.00  0.00    -0.080 C 
ATOM     10  C   UNL     1       9.645 -26.262  34.226  1.00  0.00     0.039 C 
ENDBRANCH   6   7
ENDBRANCH   5   6
ENDBRANCH   3   5
ENDBRANCH   1   2
BRANCH   1  11
ATOM     11  C   UNL     1      10.448 -18.564  37.250  1.00  0.00     0.034 C 
BRANCH  11  12
ATOM     12  C   UNL     1      10.812 -17.161  37.683  1.00  0.00    -0.075 C 
ATOM     13  C   UNL     1      10.809 -16.851  38.997  1.00  0.00    -0.000 C 
ATOM     14  C   UNL     1      11.176 -16.135  36.635  1.00  0.00     0.039 C 
BRANCH  13  15
ATOM     15  C   UNL     1      11.156 -15.483  39.525  1.00  0.00     0.183 C 
BRANCH  15  16
ATOM     16  O   UNL     1       9.997 -14.705  39.660  1.00  0.00    -0.392 OA
ATOM     17  H   UNL     1       9.306 -15.293  40.064  1.00  0.00     0.210 HD
ENDBRANCH  15  16
ENDBRANCH  13  15
ENDBRANCH  11  12
ENDBRANCH   1  11
TORSDOF 8
ENDMDL
MODEL 3
REMARK VINA RESULT:    -7.297      1.981      3.266
REMARK INTER + INTRA:         -11.571
REMARK INTER:                 -10.875
REMARK INTRA:                  -0.696
REMARK UNBOUND:                -1.075
REMARK SMILES CC(C)=CCCC(C)=CCCC(C)=CCO
REMARK SMILES IDX 10 1 9 2 7 3 8 4 6 5 5 6 4 7 1 8 2 9 3 10 11 11 12 12 14 13
REMARK SMILES IDX 13 14 15 15 16 16
REMARK H PARENT 16 17
REMARK Flexibility Score: inf
ROOT
ATOM      1  C   UNL     1      11.326 -22.095  34.193  1.00  0.00     0.032 C 
ENDROOT
BRANCH   1   2
ATOM      2  C   UNL     1      10.601 -20.891  34.740  1.00  0.00    -0.028 C 
ATOM      3  C   UNL     1      10.379 -20.666  36.056  1.00  0.00    -0.077 C 
ATOM      4  C   UNL     1      10.786 -21.662  37.115  1.00  0.00     0.039 C 
BRANCH   3   5
ATOM      5  C   UNL     1       9.682 -19.389  36.472  1.00  0.00     0.034 C 
BRANCH   5   6
ATOM      6  C   UNL     1      10.696 -18.258  36.681  1.00  0.00     0.032 C 
BRANCH   6   7
ATOM      7  C   UNL     1      10.316 -17.410  37.868  1.00  0.00    -0.028 C 
ATOM      8  C   UNL     1      10.125 -15.365  39.218  1.00  0.00     0.039 C 
ATOM      9  C   UNL     1      10.603 -16.094  37.988  1.00  0.00    -0.080 C 
ATOM     10  C   UNL     1      11.398 -15.349  36.943  1.00  0.00     0.039 C 
ENDBRANCH   6   7
ENDBRANCH   5   6
ENDBRANCH   3   5
ENDBRANCH   1   2
BRANCH   1  11
ATOM     11  C   UNL     1      10.344 -23.048  33.503  1.00  0.00     0.034 C 
BRANCH  11  12
ATOM     12  C   UNL     1      10.696 -24.489  33.798  1.00  0.00    -0.075 C 
ATOM     13  C   UNL     1      10.943 -24.863  35.072  1.00  0.00    -0.000 C 
ATOM     14  C   UNL     1      10.761 -25.482  32.661  1.00  0.00     0.039 C 
BRANCH  13  15
ATOM     15  C   UNL     1      11.302 -26.272  35.465  1.00  0.00     0.183 C 
BRANCH  15  16
ATOM     16  O   UNL     1      10.464 -26.719  36.497  1.00  0.00    -0.392 OA
ATOM     17  H   UNL     1       9.563 -26.845  36.096  1.00  0.00     0.210 HD
ENDBRANCH  15  16
ENDBRANCH  13  15
ENDBRANCH  11  12
ENDBRANCH   1  11
TORSDOF 8
ENDMDL
MODEL 4
REMARK VINA RESULT:    -7.169      1.625      2.579
REMARK INTER + INTRA:         -11.388
REMARK INTER:                 -10.606
REMARK INTRA:                  -0.782
REMARK UNBOUND:                -1.075
REMARK SMILES CC(C)=CCCC(C)=CCCC(C)=CCO
REMARK SMILES IDX 10 1 9 2 7 3 8 4 6 5 5 6 4 7 1 8 2 9 3 10 11 11 12 12 14 13
REMARK SMILES IDX 13 14 15 15 16 16
REMARK H PARENT 16 17
REMARK Flexibility Score: inf
ROOT
ATOM      1  C   UNL     1      10.457 -22.902  36.713  1.00  0.00     0.032 C 
ENDROOT
BRANCH   1   2
ATOM      2  C   UNL     1      11.011 -21.635  37.315  1.00  0.00    -0.028 C 
ATOM      3  C   UNL     1      10.655 -20.387  36.932  1.00  0.00    -0.077 C 
ATOM      4  C   UNL     1       9.697 -20.147  35.789  1.00  0.00     0.039 C 
BRANCH   3   5
ATOM      5  C   UNL     1      11.252 -19.201  37.656  1.00  0.00     0.034 C 
BRANCH   5   6
ATOM      6  C   UNL     1      10.679 -17.887  37.113  1.00  0.00     0.032 C 
BRANCH   6   7
ATOM      7  C   UNL     1      10.423 -16.911  38.234  1.00  0.00    -0.028 C 
ATOM      8  C   UNL     1      10.383 -14.732  39.370  1.00  0.00     0.039 C 
ATOM      9  C   UNL     1      10.733 -15.596  38.185  1.00  0.00    -0.080 C 
ATOM     10  C   UNL     1      11.430 -14.980  36.995  1.00  0.00     0.039 C 
ENDBRANCH   6   7
ENDBRANCH   5   6
ENDBRANCH   3   5
ENDBRANCH   1   2
BRANCH   1  11
ATOM     11  C   UNL     1      11.442 -23.494  35.700  1.00  0.00     0.034 C 
BRANCH  11  12
ATOM     12  C   UNL     1      10.852 -23.486  34.307  1.00  0.00    -0.075 C 
ATOM     13  C   UNL     1      11.098 -22.440  33.489  1.00  0.00    -0.000 C 
ATOM     14  C   UNL     1      10.001 -24.651  33.859  1.00  0.00     0.039 C 
BRANCH  13  15
ATOM     15  C   UNL     1      10.555 -22.341  32.088  1.00  0.00     0.183 C 
BRANCH  15  16
ATOM     16  O   UNL     1       9.585 -21.331  32.012  1.00  0.00    -0.392 OA
ATOM     17  H   UNL     1       9.100 -21.337  32.880  1.00  0.00     0.210 HD
ENDBRANCH  15  16
ENDBRANCH  13  15
ENDBRANCH  11  12
ENDBRANCH   1  11
TORSDOF 8
ENDMDL
MODEL 5
REMARK VINA RESULT:    -7.090      3.216      3.767
REMARK INTER + INTRA:         -11.273
REMARK INTER:                 -10.829
REMARK INTRA:                  -0.445
REMARK UNBOUND:                -1.075
REMARK SMILES CC(C)=CCCC(C)=CCCC(C)=CCO
REMARK SMILES IDX 10 1 9 2 7 3 8 4 6 5 5 6 4 7 1 8 2 9 3 10 11 11 12 12 14 13
REMARK SMILES IDX 13 14 15 15 16 16
REMARK H PARENT 16 17
REMARK Flexibility Score: inf
ROOT
ATOM      1  C   UNL     1      10.722 -22.856  36.529  1.00  0.00     0.032 C 
ENDROOT
BRANCH   1   2
ATOM      2  C   UNL     1      10.943 -21.651  37.409  1.00  0.00    -0.028 C 
ATOM      3  C   UNL     1      11.124 -20.392  36.949  1.00  0.00    -0.077 C 
ATOM      4  C   UNL     1      11.191 -20.085  35.471  1.00  0.00     0.039 C 
BRANCH   3   5
ATOM      5  C   UNL     1      11.285 -19.264  37.945  1.00  0.00     0.034 C 
BRANCH   5   6
ATOM      6  C   UNL     1      10.841 -17.930  37.334  1.00  0.00     0.032 C 
BRANCH   6   7
ATOM      7  C   UNL     1      10.593 -16.904  38.411  1.00  0.00    -0.028 C 
ATOM      8  C   UNL     1      10.382 -14.660  39.391  1.00  0.00     0.039 C 
ATOM      9  C   UNL     1      10.696 -15.568  38.229  1.00  0.00    -0.080 C 
ATOM     10  C   UNL     1      11.133 -14.970  36.913  1.00  0.00     0.039 C 
ENDBRANCH   6   7
ENDBRANCH   5   6
ENDBRANCH   3   5
ENDBRANCH   1   2
BRANCH   1  11
ATOM     11  C   UNL     1      11.445 -24.080  37.099  1.00  0.00     0.034 C 
BRANCH  11  12
ATOM     12  C   UNL     1      10.657 -25.343  36.832  1.00  0.00    -0.075 C 
ATOM     13  C   UNL     1       9.609 -25.651  37.626  1.00  0.00    -0.000 C 
ATOM     14  C   UNL     1      11.057 -26.233  35.678  1.00  0.00     0.039 C 
BRANCH  13  15
ATOM     15  C   UNL     1       8.766 -26.885  37.440  1.00  0.00     0.183 C 
BRANCH  15  16
ATOM     16  O   UNL     1       8.767 -27.657  38.611  1.00  0.00    -0.392 OA
ATOM     17  H   UNL     1       8.232 -28.471  38.416  1.00  0.00     0.210 HD
ENDBRANCH  15  16
ENDBRANCH  13  15
ENDBRANCH  11  12
ENDBRANCH   1  11
TORSDOF 8
ENDMDL
MODEL 6
REMARK VINA RESULT:    -7.081      1.640      2.851
REMARK INTER + INTRA:         -11.260
REMARK INTER:                 -10.430
REMARK INTRA:                  -0.831
REMARK UNBOUND:                -1.075
REMARK SMILES CC(C)=CCCC(C)=CCCC(C)=CCO
REMARK SMILES IDX 10 1 9 2 7 3 8 4 6 5 5 6 4 7 1 8 2 9 3 10 11 11 12 12 14 13
REMARK SMILES IDX 13 14 15 15 16 16
REMARK H PARENT 16 17
REMARK Flexibility Score: inf
ROOT
ATOM      1  C   UNL     1      11.953 -21.522  34.986  1.00  0.00     0.032 C 
ENDROOT
BRANCH   1   2
ATOM      2  C   UNL     1      11.450 -20.488  35.961  1.00  0.00    -0.028 C 
ATOM      3  C   UNL     1      10.353 -19.721  35.763  1.00  0.00    -0.077 C 
ATOM      4  C   UNL     1       9.555 -19.786  34.483  1.00  0.00     0.039 C 
BRANCH   3   5
ATOM      5  C   UNL     1       9.929 -18.756  36.849  1.00  0.00     0.034 C 
BRANCH   5   6
ATOM      6  C   UNL     1      11.147 -18.241  37.625  1.00  0.00     0.032 C 
BRANCH   6   7
ATOM      7  C   UNL     1      10.763 -17.092  38.524  1.00  0.00    -0.028 C 
ATOM      8  C   UNL     1      10.470 -14.746  39.194  1.00  0.00     0.039 C 
ATOM      9  C   UNL     1      10.938 -15.789  38.211  1.00  0.00    -0.080 C 
ATOM     10  C   UNL     1      11.601 -15.355  36.925  1.00  0.00     0.039 C 
ENDBRANCH   6   7
ENDBRANCH   5   6
ENDBRANCH   3   5
ENDBRANCH   1   2
BRANCH   1  11
ATOM     11  C   UNL     1      11.617 -22.934  35.475  1.00  0.00     0.034 C 
BRANCH  11  12
ATOM     12  C   UNL     1      10.972 -23.746  34.373  1.00  0.00    -0.075 C 
ATOM     13  C   UNL     1      10.756 -25.065  34.562  1.00  0.00    -0.000 C 
ATOM     14  C   UNL     1      10.581 -23.062  33.084  1.00  0.00     0.039 C 
BRANCH  13  15
ATOM     15  C   UNL     1      10.122 -25.956  33.525  1.00  0.00     0.183 C 
BRANCH  15  16
ATOM     16  O   UNL     1      11.107 -26.533  32.711  1.00  0.00    -0.392 OA
ATOM     17  H   UNL     1      10.716 -26.606  31.801  1.00  0.00     0.210 HD
ENDBRANCH  15  16
ENDBRANCH  13  15
ENDBRANCH  11  12
ENDBRANCH   1  11
TORSDOF 8
ENDMDL
MODEL 7
REMARK VINA RESULT:    -7.051      3.417      7.285
REMARK INTER + INTRA:         -11.217
REMARK INTER:                  -9.914
REMARK INTRA:                  -1.303
REMARK UNBOUND:                -1.075
REMARK SMILES CC(C)=CCCC(C)=CCCC(C)=CCO
REMARK SMILES IDX 10 1 9 2 7 3 8 4 6 5 5 6 4 7 1 8 2 9 3 10 11 11 12 12 14 13
REMARK SMILES IDX 13 14 15 15 16 16
REMARK H PARENT 16 17
REMARK Flexibility Score: inf
ROOT
ATOM      1  C   UNL     1      10.620 -23.002  32.852  1.00  0.00     0.032 C 
ENDROOT
BRANCH   1   2
ATOM      2  C   UNL     1      10.029 -24.176  33.591  1.00  0.00    -0.028 C 
ATOM      3  C   UNL     1      10.307 -25.471  33.316  1.00  0.00    -0.077 C 
ATOM      4  C   UNL     1      11.206 -25.867  32.169  1.00  0.00     0.039 C 
BRANCH   3   5
ATOM      5  C   UNL     1       9.681 -26.552  34.171  1.00  0.00     0.034 C 
BRANCH   5   6
ATOM      6  C   UNL     1       9.747 -26.178  35.656  1.00  0.00     0.032 C 
BRANCH   6   7
ATOM      7  C   UNL     1      11.159 -25.829  36.058  1.00  0.00    -0.028 C 
ATOM      8  C   UNL     1      12.945 -24.561  37.171  1.00  0.00     0.039 C 
ATOM      9  C   UNL     1      11.493 -24.763  36.818  1.00  0.00    -0.080 C 
ATOM     10  C   UNL     1      10.464 -23.768  37.301  1.00  0.00     0.039 C 
ENDBRANCH   6   7
ENDBRANCH   5   6
ENDBRANCH   3   5
ENDBRANCH   1   2
BRANCH   1  11
ATOM     11  C   UNL     1      10.045 -21.685  33.382  1.00  0.00     0.034 C 
BRANCH  11  12
ATOM     12  C   UNL     1      10.810 -21.214  34.599  1.00  0.00    -0.075 C 
ATOM     13  C   UNL     1      10.181 -20.460  35.526  1.00  0.00    -0.000 C 
ATOM     14  C   UNL     1      12.263 -21.600  34.753  1.00  0.00     0.039 C 
BRANCH  13  15
ATOM     15  C   UNL     1      10.858 -19.943  36.769  1.00  0.00     0.183 C 
BRANCH  15  16
ATOM     16  O   UNL     1      11.192 -18.590  36.614  1.00  0.00    -0.392 OA
ATOM     17  H   UNL     1      11.922 -18.402  37.262  1.00  0.00     0.210 HD
ENDBRANCH  15  16
ENDBRANCH  13  15
ENDBRANCH  11  12
ENDBRANCH   1  11
TORSDOF 8
ENDMDL
MODEL 8
REMARK VINA RESULT:    -7.007      2.964      7.984
REMARK INTER + INTRA:         -11.155
REMARK INTER:                 -10.628
REMARK INTRA:                  -0.527
REMARK UNBOUND:                -1.075
REMARK SMILES CC(C)=CCCC(C)=CCCC(C)=CCO
REMARK SMILES IDX 10 1 9 2 7 3 8 4 6 5 5 6 4 7 1 8 2 9 3 10 11 11 12 12 14 13
REMARK SMILES IDX 13 14 15 15 16 16
REMARK H PARENT 16 17
REMARK Flexibility Score: inf
ROOT
ATOM      1  C   UNL     1      10.815 -19.917  36.659  1.00  0.00     0.032 C 
ENDROOT
BRANCH   1   2
ATOM      2  C   UNL     1      10.490 -20.576  35.343  1.00  0.00    -0.028 C 
ATOM      3  C   UNL     1      11.325 -21.407  34.678  1.00  0.00    -0.077 C 
ATOM      4  C   UNL     1      12.721 -21.700  35.175  1.00  0.00     0.039 C 
BRANCH   3   5
ATOM      5  C   UNL     1      10.853 -22.042  33.388  1.00  0.00     0.034 C 
BRANCH   5   6
ATOM      6  C   UNL     1      10.142 -23.372  33.665  1.00  0.00     0.032 C 
BRANCH   6   7
ATOM      7  C   UNL     1      10.726 -24.477  32.821  1.00  0.00    -0.028 C 
ATOM      8  C   UNL     1      11.140 -26.787  32.091  1.00  0.00     0.039 C 
ATOM      9  C   UNL     1      10.520 -25.795  33.042  1.00  0.00    -0.080 C 
ATOM     10  C   UNL     1       9.712 -26.293  34.217  1.00  0.00     0.039 C 
ENDBRANCH   6   7
ENDBRANCH   5   6
ENDBRANCH   3   5
ENDBRANCH   1   2
BRANCH   1  11
ATOM     11  C   UNL     1      10.112 -18.559  36.771  1.00  0.00     0.034 C 
BRANCH  11  12
ATOM     12  C   UNL     1      11.034 -17.525  37.379  1.00  0.00    -0.075 C 
ATOM     13  C   UNL     1      11.771 -17.851  38.462  1.00  0.00    -0.000 C 
ATOM     14  C   UNL     1      11.112 -16.150  36.759  1.00  0.00     0.039 C 
BRANCH  13  15
ATOM     15  C   UNL     1      12.715 -16.891  39.138  1.00  0.00     0.183 C 
BRANCH  15  16
ATOM     16  O   UNL     1      13.933 -17.525  39.423  1.00  0.00    -0.392 OA
ATOM     17  H   UNL     1      14.326 -17.048  40.201  1.00  0.00     0.210 HD
ENDBRANCH  15  16
ENDBRANCH  13  15
ENDBRANCH  11  12
ENDBRANCH   1  11
TORSDOF 8
ENDMDL
MODEL 9
REMARK VINA RESULT:    -6.820      2.981      6.854
REMARK INTER + INTRA:         -10.885
REMARK INTER:                  -9.929
REMARK INTRA:                  -0.955
REMARK UNBOUND:                -1.075
REMARK SMILES CC(C)=CCCC(C)=CCCC(C)=CCO
REMARK SMILES IDX 10 1 9 2 7 3 8 4 6 5 5 6 4 7 1 8 2 9 3 10 11 11 12 12 14 13
REMARK SMILES IDX 13 14 15 15 16 16
REMARK H PARENT 16 17
REMARK Flexibility Score: inf
ROOT
ATOM      1  C   UNL     1      10.108 -18.761  36.913  1.00  0.00     0.032 C 
ENDROOT
BRANCH   1   2
ATOM      2  C   UNL     1      10.565 -20.098  36.387  1.00  0.00    -0.028 C 
ATOM      3  C   UNL     1      11.364 -20.954  37.066  1.00  0.00    -0.077 C 
ATOM      4  C   UNL     1      11.940 -20.605  38.418  1.00  0.00     0.039 C 
BRANCH   3   5
ATOM      5  C   UNL     1      11.706 -22.288  36.440  1.00  0.00     0.034 C 
BRANCH   5   6
ATOM      6  C   UNL     1      10.531 -22.818  35.610  1.00  0.00     0.032 C 
BRANCH   6   7
ATOM      7  C   UNL     1      10.954 -23.074  34.185  1.00  0.00    -0.028 C 
ATOM      8  C   UNL     1      11.070 -22.703  31.759  1.00  0.00     0.039 C 
ATOM      9  C   UNL     1      10.531 -22.353  33.123  1.00  0.00    -0.080 C 
ATOM     10  C   UNL     1       9.530 -21.232  33.263  1.00  0.00     0.039 C 
ENDBRANCH   6   7
ENDBRANCH   5   6
ENDBRANCH   3   5
ENDBRANCH   1   2
BRANCH   1  11
ATOM     11  C   UNL     1      10.968 -17.631  36.337  1.00  0.00     0.034 C 
BRANCH  11  12
ATOM     12  C   UNL     1      11.056 -16.474  37.306  1.00  0.00    -0.075 C 
ATOM     13  C   UNL     1      10.890 -16.702  38.627  1.00  0.00    -0.000 C 
ATOM     14  C   UNL     1      11.331 -15.085  36.777  1.00  0.00     0.039 C 
BRANCH  13  15
ATOM     15  C   UNL     1      10.958 -15.616  39.669  1.00  0.00     0.183 C 
BRANCH  15  16
ATOM     16  O   UNL     1       9.685 -15.068  39.885  1.00  0.00    -0.392 OA
ATOM     17  H   UNL     1       9.208 -15.692  40.494  1.00  0.00     0.210 HD
ENDBRANCH  15  16
ENDBRANCH  13  15
ENDBRANCH  11  12
ENDBRANCH   1  11
TORSDOF 8
ENDMDL
