MODEL 1
REMARK VINA RESULT:    -4.733      0.000      0.000
REMARK INTER + INTRA:         -13.891
REMARK INTER:                 -10.820
REMARK INTRA:                  -3.071
REMARK UNBOUND:                -3.071
REMARK SMILES CCCCCCCCCCCCCCCCCCCCCCCC(=O)[O-]
REMARK SMILES IDX 13 1 14 2 15 3 16 4 17 5 18 6 19 7 20 8 21 9 22 10 23 11
REMARK SMILES IDX 24 12 25 13 26 14 12 15 11 16 10 17 9 18 8 19 7 20 6 21 5 22
REMARK SMILES IDX 4 23 3 24 2 25 1 26
REMARK H PARENT
REMARK Flexibility Score: inf
ROOT
ATOM      1  C   UNL     1      20.029 119.985 296.493  1.00  0.00     0.000 C 
ENDROOT
BRANCH   1   2
ATOM      2  C   UNL     1      20.511 118.718 295.765  1.00  0.00     0.000 C 
BRANCH   2   3
ATOM      3  C   UNL     1      20.085 117.425 296.478  1.00  0.00     0.000 C 
BRANCH   3   4
ATOM      4  C   UNL     1      21.228 116.799 297.294  1.00  0.00     0.000 C 
BRANCH   4   5
ATOM      5  C   UNL     1      22.538 117.599 297.176  1.00  0.00     0.000 C 
BRANCH   5   6
ATOM      6  C   UNL     1      23.236 117.789 298.533  1.00  0.00     0.000 C 
BRANCH   6   7
ATOM      7  C   UNL     1      22.375 118.573 299.534  1.00  0.00     0.000 C 
BRANCH   7   8
ATOM      8  C   UNL     1      22.354 120.069 299.187  1.00  0.00     0.000 C 
BRANCH   8   9
ATOM      9  C   UNL     1      21.305 120.850 299.995  1.00  0.00     0.000 C 
BRANCH   9  10
ATOM     10  C   UNL     1      21.890 122.091 300.685  1.00  0.00     0.006 C 
BRANCH  10  11
ATOM     11  C   UNL     1      23.245 121.773 301.325  1.00  0.00     0.053 C 
BRANCH  11  12
ATOM     12  C   UNL     1      23.060 120.978 302.578  1.00  0.00     0.041 C 
ATOM     13  O   UNL     1      22.214 121.341 303.439  1.00  0.00    -0.550 OA
ATOM     14  O   UNL     1      23.784 119.809 302.775  1.00  0.00    -0.550 OA
ENDBRANCH  11  12
ENDBRANCH  10  11
ENDBRANCH   9  10
ENDBRANCH   8   9
ENDBRANCH   7   8
ENDBRANCH   6   7
ENDBRANCH   5   6
ENDBRANCH   4   5
ENDBRANCH   3   4
ENDBRANCH   2   3
ENDBRANCH   1   2
BRANCH   1  15
ATOM     15  C   UNL     1      18.735 119.813 297.315  1.00  0.00     0.000 C 
BRANCH  15  16
ATOM     16  C   UNL     1      17.601 120.794 296.965  1.00  0.00     0.000 C 
BRANCH  16  17
ATOM     17  C   UNL     1      17.956 121.726 295.798  1.00  0.00     0.000 C 
BRANCH  17  18
ATOM     18  C   UNL     1      16.987 121.528 294.624  1.00  0.00    -0.000 C 
BRANCH  18  19
ATOM     19  C   UNL     1      17.230 120.211 293.871  1.00  0.00    -0.000 C 
BRANCH  19  20
ATOM     20  C   UNL     1      16.008 119.280 293.897  1.00  0.00    -0.000 C 
BRANCH  20  21
ATOM     21  C   UNL     1      16.372 117.912 294.489  1.00  0.00    -0.000 C 
BRANCH  21  22
ATOM     22  C   UNL     1      17.657 117.364 293.856  1.00  0.00    -0.000 C 
BRANCH  22  23
ATOM     23  C   UNL     1      17.340 116.316 292.782  1.00  0.00    -0.000 C 
BRANCH  23  24
ATOM     24  C   UNL     1      18.353 116.387 291.630  1.00  0.00    -0.000 C 
BRANCH  24  25
ATOM     25  C   UNL     1      17.846 115.695 290.355  1.00  0.00    -0.003 C 
ATOM     26  C   UNL     1      17.175 114.352 290.639  1.00  0.00     0.004 C 
ENDBRANCH  24  25
ENDBRANCH  23  24
ENDBRANCH  22  23
ENDBRANCH  21  22
ENDBRANCH  20  21
ENDBRANCH  19  20
ENDBRANCH  18  19
ENDBRANCH  17  18
ENDBRANCH  16  17
ENDBRANCH  15  16
ENDBRANCH   1  15
TORSDOF 22
ENDMDL
MODEL 2
REMARK VINA RESULT:    -4.649      2.525      4.514
REMARK INTER + INTRA:         -13.700
REMARK INTER:                 -10.831
REMARK INTRA:                  -2.869
REMARK UNBOUND:                -3.071
REMARK SMILES CCCCCCCCCCCCCCCCCCCCCCCC(=O)[O-]
REMARK SMILES IDX 13 1 14 2 15 3 16 4 17 5 18 6 19 7 20 8 21 9 22 10 23 11
REMARK SMILES IDX 24 12 25 13 26 14 12 15 11 16 10 17 9 18 8 19 7 20 6 21 5 22
REMARK SMILES IDX 4 23 3 24 2 25 1 26
REMARK H PARENT
REMARK Flexibility Score: inf
ROOT
ATOM      1  C   UNL     1      20.614 120.544 299.054  1.00  0.00     0.000 C 
ENDROOT
BRANCH   1   2
ATOM      2  C   UNL     1      19.790 121.554 299.872  1.00  0.00     0.000 C 
BRANCH   2   3
ATOM      3  C   UNL     1      20.591 122.177 301.027  1.00  0.00     0.000 C 
BRANCH   3   4
ATOM      4  C   UNL     1      20.382 121.432 302.356  1.00  0.00     0.000 C 
BRANCH   4   5
ATOM      5  C   UNL     1      21.713 121.062 303.036  1.00  0.00     0.000 C 
BRANCH   5   6
ATOM      6  C   UNL     1      22.149 119.619 302.733  1.00  0.00     0.000 C 
BRANCH   6   7
ATOM      7  C   UNL     1      23.464 119.555 301.942  1.00  0.00     0.000 C 
BRANCH   7   8
ATOM      8  C   UNL     1      24.024 120.963 301.692  1.00  0.00     0.000 C 
BRANCH   8   9
ATOM      9  C   UNL     1      24.089 121.317 300.197  1.00  0.00     0.000 C 
BRANCH   9  10
ATOM     10  C   UNL     1      24.617 120.161 299.336  1.00  0.00     0.006 C 
BRANCH  10  11
ATOM     11  C   UNL     1      25.824 120.605 298.505  1.00  0.00     0.053 C 
BRANCH  11  12
ATOM     12  C   UNL     1      26.332 119.472 297.670  1.00  0.00     0.041 C 
ATOM     13  O   UNL     1      25.883 119.291 296.508  1.00  0.00    -0.550 OA
ATOM     14  O   UNL     1      27.338 118.646 298.156  1.00  0.00    -0.550 OA
ENDBRANCH  11  12
ENDBRANCH  10  11
ENDBRANCH   9  10
ENDBRANCH   8   9
ENDBRANCH   7   8
ENDBRANCH   6   7
ENDBRANCH   5   6
ENDBRANCH   4   5
ENDBRANCH   3   4
ENDBRANCH   2   3
ENDBRANCH   1   2
BRANCH   1  15
ATOM     15  C   UNL     1      20.423 119.067 299.460  1.00  0.00     0.000 C 
BRANCH  15  16
ATOM     16  C   UNL     1      21.620 118.146 299.160  1.00  0.00     0.000 C 
BRANCH  16  17
ATOM     17  C   UNL     1      21.772 117.831 297.666  1.00  0.00     0.000 C 
BRANCH  17  18
ATOM     18  C   UNL     1      20.565 117.037 297.147  1.00  0.00    -0.000 C 
BRANCH  18  19
ATOM     19  C   UNL     1      19.987 117.618 295.847  1.00  0.00    -0.000 C 
BRANCH  19  20
ATOM     20  C   UNL     1      18.663 118.364 296.069  1.00  0.00    -0.000 C 
BRANCH  20  21
ATOM     21  C   UNL     1      17.829 118.398 294.783  1.00  0.00    -0.000 C 
BRANCH  21  22
ATOM     22  C   UNL     1      18.539 117.649 293.647  1.00  0.00    -0.000 C 
BRANCH  22  23
ATOM     23  C   UNL     1      17.547 116.804 292.839  1.00  0.00    -0.000 C 
BRANCH  23  24
ATOM     24  C   UNL     1      18.226 116.190 291.607  1.00  0.00    -0.000 C 
BRANCH  24  25
ATOM     25  C   UNL     1      17.219 115.780 290.521  1.00  0.00    -0.003 C 
ATOM     26  C   UNL     1      17.212 114.274 290.259  1.00  0.00     0.004 C 
ENDBRANCH  24  25
ENDBRANCH  23  24
ENDBRANCH  22  23
ENDBRANCH  21  22
ENDBRANCH  20  21
ENDBRANCH  19  20
ENDBRANCH  18  19
ENDBRANCH  17  18
ENDBRANCH  16  17
ENDBRANCH  15  16
ENDBRANCH   1  15
TORSDOF 22
ENDMDL
MODEL 3
REMARK VINA RESULT:    -4.645      1.511      2.269
REMARK INTER + INTRA:         -13.691
REMARK INTER:                 -10.766
REMARK INTRA:                  -2.925
REMARK UNBOUND:                -3.071
REMARK SMILES CCCCCCCCCCCCCCCCCCCCCCCC(=O)[O-]
REMARK SMILES IDX 13 1 14 2 15 3 16 4 17 5 18 6 19 7 20 8 21 9 22 10 23 11
REMARK SMILES IDX 24 12 25 13 26 14 12 15 11 16 10 17 9 18 8 19 7 20 6 21 5 22
REMARK SMILES IDX 4 23 3 24 2 25 1 26
REMARK H PARENT
REMARK Flexibility Score: inf
ROOT
ATOM      1  C   UNL     1      20.037 118.919 295.048  1.00  0.00     0.000 C 
ENDROOT
BRANCH   1   2
ATOM      2  C   UNL     1      19.735 117.979 296.228  1.00  0.00     0.000 C 
BRANCH   2   3
ATOM      3  C   UNL     1      21.005 117.524 296.966  1.00  0.00     0.000 C 
BRANCH   3   4
ATOM      4  C   UNL     1      20.871 117.641 298.492  1.00  0.00     0.000 C 
BRANCH   4   5
ATOM      5  C   UNL     1      21.934 118.572 299.104  1.00  0.00     0.000 C 
BRANCH   5   6
ATOM      6  C   UNL     1      21.832 120.012 298.573  1.00  0.00     0.000 C 
BRANCH   6   7
ATOM      7  C   UNL     1      20.900 120.888 299.423  1.00  0.00     0.000 C 
BRANCH   7   8
ATOM      8  C   UNL     1      21.511 121.159 300.806  1.00  0.00     0.000 C 
BRANCH   8   9
ATOM      9  C   UNL     1      22.800 121.992 300.731  1.00  0.00     0.000 C 
BRANCH   9  10
ATOM     10  C   UNL     1      23.942 121.395 301.566  1.00  0.00     0.006 C 
BRANCH  10  11
ATOM     11  C   UNL     1      24.868 120.540 300.696  1.00  0.00     0.053 C 
BRANCH  11  12
ATOM     12  C   UNL     1      26.263 120.560 301.235  1.00  0.00     0.041 C 
ATOM     13  O   UNL     1      27.207 120.061 300.567  1.00  0.00    -0.550 OA
ATOM     14  O   UNL     1      26.529 121.173 302.453  1.00  0.00    -0.550 OA
ENDBRANCH  11  12
ENDBRANCH  10  11
ENDBRANCH   9  10
ENDBRANCH   8   9
ENDBRANCH   7   8
ENDBRANCH   6   7
ENDBRANCH   5   6
ENDBRANCH   4   5
ENDBRANCH   3   4
ENDBRANCH   2   3
ENDBRANCH   1   2
BRANCH   1  15
ATOM     15  C   UNL     1      20.394 120.368 295.444  1.00  0.00     0.000 C 
BRANCH  15  16
ATOM     16  C   UNL     1      19.286 121.407 295.194  1.00  0.00     0.000 C 
BRANCH  16  17
ATOM     17  C   UNL     1      18.171 121.359 296.248  1.00  0.00     0.000 C 
BRANCH  17  18
ATOM     18  C   UNL     1      16.850 121.891 295.674  1.00  0.00    -0.000 C 
BRANCH  18  19
ATOM     19  C   UNL     1      16.638 121.490 294.206  1.00  0.00    -0.000 C 
BRANCH  19  20
ATOM     20  C   UNL     1      15.756 120.242 294.055  1.00  0.00    -0.000 C 
BRANCH  20  21
ATOM     21  C   UNL     1      16.585 119.034 293.601  1.00  0.00    -0.000 C 
BRANCH  21  22
ATOM     22  C   UNL     1      16.354 117.831 294.524  1.00  0.00    -0.000 C 
BRANCH  22  23
ATOM     23  C   UNL     1      17.186 116.623 294.075  1.00  0.00    -0.000 C 
BRANCH  23  24
ATOM     24  C   UNL     1      17.914 116.919 292.756  1.00  0.00    -0.000 C 
BRANCH  24  25
ATOM     25  C   UNL     1      17.506 115.958 291.628  1.00  0.00    -0.003 C 
ATOM     26  C   UNL     1      18.670 115.601 290.705  1.00  0.00     0.004 C 
ENDBRANCH  24  25
ENDBRANCH  23  24
ENDBRANCH  22  23
ENDBRANCH  21  22
ENDBRANCH  20  21
ENDBRANCH  19  20
ENDBRANCH  18  19
ENDBRANCH  17  18
ENDBRANCH  16  17
ENDBRANCH  15  16
ENDBRANCH   1  15
TORSDOF 22
ENDMDL
MODEL 4
REMARK VINA RESULT:    -4.626      4.120      8.466
REMARK INTER + INTRA:         -13.647
REMARK INTER:                 -10.298
REMARK INTRA:                  -3.349
REMARK UNBOUND:                -3.071
REMARK SMILES CCCCCCCCCCCCCCCCCCCCCCCC(=O)[O-]
REMARK SMILES IDX 13 1 14 2 15 3 16 4 17 5 18 6 19 7 20 8 21 9 22 10 23 11
REMARK SMILES IDX 24 12 25 13 26 14 12 15 11 16 10 17 9 18 8 19 7 20 6 21 5 22
REMARK SMILES IDX 4 23 3 24 2 25 1 26
REMARK H PARENT
REMARK Flexibility Score: inf
ROOT
ATOM      1  C   UNL     1      20.473 119.403 294.629  1.00  0.00     0.000 C 
ENDROOT
BRANCH   1   2
ATOM      2  C   UNL     1      21.419 119.176 295.821  1.00  0.00     0.000 C 
BRANCH   2   3
ATOM      3  C   UNL     1      22.032 117.766 295.833  1.00  0.00     0.000 C 
BRANCH   3   4
ATOM      4  C   UNL     1      21.814 117.042 297.172  1.00  0.00     0.000 C 
BRANCH   4   5
ATOM      5  C   UNL     1      20.365 117.168 297.678  1.00  0.00     0.000 C 
BRANCH   5   6
ATOM      6  C   UNL     1      19.373 116.355 296.831  1.00  0.00     0.000 C 
BRANCH   6   7
ATOM      7  C   UNL     1      18.067 117.118 296.558  1.00  0.00     0.000 C 
BRANCH   7   8
ATOM      8  C   UNL     1      17.356 116.562 295.315  1.00  0.00     0.000 C 
BRANCH   8   9
ATOM      9  C   UNL     1      16.809 117.669 294.401  1.00  0.00     0.000 C 
BRANCH   9  10
ATOM     10  C   UNL     1      17.225 117.488 292.934  1.00  0.00     0.006 C 
BRANCH  10  11
ATOM     11  C   UNL     1      17.531 116.020 292.629  1.00  0.00     0.053 C 
BRANCH  11  12
ATOM     12  C   UNL     1      17.936 115.853 291.199  1.00  0.00     0.041 C 
ATOM     13  O   UNL     1      19.154 115.748 290.894  1.00  0.00    -0.550 OA
ATOM     14  O   UNL     1      16.968 115.765 290.207  1.00  0.00    -0.550 OA
ENDBRANCH  11  12
ENDBRANCH  10  11
ENDBRANCH   9  10
ENDBRANCH   8   9
ENDBRANCH   7   8
ENDBRANCH   6   7
ENDBRANCH   5   6
ENDBRANCH   4   5
ENDBRANCH   3   4
ENDBRANCH   2   3
ENDBRANCH   1   2
BRANCH   1  15
ATOM     15  C   UNL     1      19.185 120.185 294.959  1.00  0.00     0.000 C 
BRANCH  15  16
ATOM     16  C   UNL     1      19.390 121.468 295.785  1.00  0.00     0.000 C 
BRANCH  16  17
ATOM     17  C   UNL     1      18.465 121.547 297.007  1.00  0.00     0.000 C 
BRANCH  17  18
ATOM     18  C   UNL     1      18.820 120.462 298.034  1.00  0.00    -0.000 C 
BRANCH  18  19
ATOM     19  C   UNL     1      20.046 120.829 298.885  1.00  0.00    -0.000 C 
BRANCH  19  20
ATOM     20  C   UNL     1      19.671 121.582 300.170  1.00  0.00    -0.000 C 
BRANCH  20  21
ATOM     21  C   UNL     1      20.794 122.536 300.595  1.00  0.00    -0.000 C 
BRANCH  21  22
ATOM     22  C   UNL     1      21.899 121.784 301.347  1.00  0.00    -0.000 C 
BRANCH  22  23
ATOM     23  C   UNL     1      23.242 121.901 300.616  1.00  0.00    -0.000 C 
BRANCH  23  24
ATOM     24  C   UNL     1      23.721 120.528 300.125  1.00  0.00    -0.000 C 
BRANCH  24  25
ATOM     25  C   UNL     1      23.388 119.399 301.113  1.00  0.00    -0.003 C 
ATOM     26  C   UNL     1      22.298 118.461 300.595  1.00  0.00     0.004 C 
ENDBRANCH  24  25
ENDBRANCH  23  24
ENDBRANCH  22  23
ENDBRANCH  21  22
ENDBRANCH  20  21
ENDBRANCH  19  20
ENDBRANCH  18  19
ENDBRANCH  17  18
ENDBRANCH  16  17
ENDBRANCH  15  16
ENDBRANCH   1  15
TORSDOF 22
ENDMDL
MODEL 5
REMARK VINA RESULT:    -4.624      4.650      8.105
REMARK INTER + INTRA:         -13.641
REMARK INTER:                  -9.734
REMARK INTRA:                  -3.908
REMARK UNBOUND:                -3.071
REMARK SMILES CCCCCCCCCCCCCCCCCCCCCCCC(=O)[O-]
REMARK SMILES IDX 13 1 14 2 15 3 16 4 17 5 18 6 19 7 20 8 21 9 22 10 23 11
REMARK SMILES IDX 24 12 25 13 26 14 12 15 11 16 10 17 9 18 8 19 7 20 6 21 5 22
REMARK SMILES IDX 4 23 3 24 2 25 1 26
REMARK H PARENT
REMARK Flexibility Score: inf
ROOT
ATOM      1  C   UNL     1      16.311 121.670 294.459  1.00  0.00     0.000 C 
ENDROOT
BRANCH   1   2
ATOM      2  C   UNL     1      15.580 120.512 293.759  1.00  0.00     0.000 C 
BRANCH   2   3
ATOM      3  C   UNL     1      14.947 119.522 294.750  1.00  0.00     0.000 C 
BRANCH   3   4
ATOM      4  C   UNL     1      15.364 119.798 296.204  1.00  0.00     0.000 C 
BRANCH   4   5
ATOM      5  C   UNL     1      16.109 118.608 296.836  1.00  0.00     0.000 C 
BRANCH   5   6
ATOM      6  C   UNL     1      16.546 117.566 295.794  1.00  0.00     0.000 C 
BRANCH   6   7
ATOM      7  C   UNL     1      18.072 117.396 295.733  1.00  0.00     0.000 C 
BRANCH   7   8
ATOM      8  C   UNL     1      18.614 117.802 294.354  1.00  0.00     0.000 C 
BRANCH   8   9
ATOM      9  C   UNL     1      17.592 117.580 293.227  1.00  0.00     0.000 C 
BRANCH   9  10
ATOM     10  C   UNL     1      17.581 116.133 292.712  1.00  0.00     0.006 C 
BRANCH  10  11
ATOM     11  C   UNL     1      18.185 116.049 291.307  1.00  0.00     0.053 C 
BRANCH  11  12
ATOM     12  C   UNL     1      17.452 115.041 290.481  1.00  0.00     0.041 C 
ATOM     13  O   UNL     1      17.409 115.161 289.227  1.00  0.00    -0.550 OA
ATOM     14  O   UNL     1      16.856 113.942 291.088  1.00  0.00    -0.550 OA
ENDBRANCH  11  12
ENDBRANCH  10  11
ENDBRANCH   9  10
ENDBRANCH   8   9
ENDBRANCH   7   8
ENDBRANCH   6   7
ENDBRANCH   5   6
ENDBRANCH   4   5
ENDBRANCH   3   4
ENDBRANCH   2   3
ENDBRANCH   1   2
BRANCH   1  15
ATOM     15  C   UNL     1      17.715 121.987 293.903  1.00  0.00     0.000 C 
BRANCH  15  16
ATOM     16  C   UNL     1      18.784 122.303 294.964  1.00  0.00     0.000 C 
BRANCH  16  17
ATOM     17  C   UNL     1      19.393 121.043 295.594  1.00  0.00     0.000 C 
BRANCH  17  18
ATOM     18  C   UNL     1      18.937 120.883 297.052  1.00  0.00    -0.000 C 
BRANCH  18  19
ATOM     19  C   UNL     1      20.060 120.380 297.972  1.00  0.00    -0.000 C 
BRANCH  19  20
ATOM     20  C   UNL     1      19.704 119.062 298.675  1.00  0.00    -0.000 C 
BRANCH  20  21
ATOM     21  C   UNL     1      20.928 118.143 298.772  1.00  0.00    -0.000 C 
BRANCH  21  22
ATOM     22  C   UNL     1      21.854 118.331 297.564  1.00  0.00    -0.000 C 
BRANCH  22  23
ATOM     23  C   UNL     1      21.995 117.027 296.769  1.00  0.00    -0.000 C 
BRANCH  23  24
ATOM     24  C   UNL     1      22.719 117.272 295.437  1.00  0.00    -0.000 C 
BRANCH  24  25
ATOM     25  C   UNL     1      22.126 118.453 294.652  1.00  0.00    -0.003 C 
ATOM     26  C   UNL     1      23.161 119.532 294.336  1.00  0.00     0.004 C 
ENDBRANCH  24  25
ENDBRANCH  23  24
ENDBRANCH  22  23
ENDBRANCH  21  22
ENDBRANCH  20  21
ENDBRANCH  19  20
ENDBRANCH  18  19
ENDBRANCH  17  18
ENDBRANCH  16  17
ENDBRANCH  15  16
ENDBRANCH   1  15
TORSDOF 22
ENDMDL
MODEL 6
REMARK VINA RESULT:    -4.573      2.698      4.211
REMARK INTER + INTRA:         -13.525
REMARK INTER:                 -10.996
REMARK INTRA:                  -2.529
REMARK UNBOUND:                -3.071
REMARK SMILES CCCCCCCCCCCCCCCCCCCCCCCC(=O)[O-]
REMARK SMILES IDX 13 1 14 2 15 3 16 4 17 5 18 6 19 7 20 8 21 9 22 10 23 11
REMARK SMILES IDX 24 12 25 13 26 14 12 15 11 16 10 17 9 18 8 19 7 20 6 21 5 22
REMARK SMILES IDX 4 23 3 24 2 25 1 26
REMARK H PARENT
REMARK Flexibility Score: inf
ROOT
ATOM      1  C   UNL     1      22.499 117.911 297.179  1.00  0.00     0.000 C 
ENDROOT
BRANCH   1   2
ATOM      2  C   UNL     1      22.907 118.081 298.652  1.00  0.00     0.000 C 
BRANCH   2   3
ATOM      3  C   UNL     1      21.730 118.494 299.551  1.00  0.00     0.000 C 
BRANCH   3   4
ATOM      4  C   UNL     1      22.117 118.548 301.038  1.00  0.00     0.000 C 
BRANCH   4   5
ATOM      5  C   UNL     1      22.815 119.868 301.414  1.00  0.00     0.000 C 
BRANCH   5   6
ATOM      6  C   UNL     1      24.311 119.679 301.713  1.00  0.00     0.000 C 
BRANCH   6   7
ATOM      7  C   UNL     1      25.127 120.957 301.467  1.00  0.00     0.000 C 
BRANCH   7   8
ATOM      8  C   UNL     1      26.246 120.705 300.445  1.00  0.00     0.000 C 
BRANCH   8   9
ATOM      9  C   UNL     1      25.707 120.444 299.029  1.00  0.00     0.000 C 
BRANCH   9  10
ATOM     10  C   UNL     1      26.427 119.286 298.324  1.00  0.00     0.006 C 
BRANCH  10  11
ATOM     11  C   UNL     1      26.873 118.223 299.332  1.00  0.00     0.053 C 
BRANCH  11  12
ATOM     12  C   UNL     1      28.332 117.934 299.178  1.00  0.00     0.041 C 
ATOM     13  O   UNL     1      29.017 118.565 298.330  1.00  0.00    -0.550 OA
ATOM     14  O   UNL     1      28.948 117.001 300.005  1.00  0.00    -0.550 OA
ENDBRANCH  11  12
ENDBRANCH  10  11
ENDBRANCH   9  10
ENDBRANCH   8   9
ENDBRANCH   7   8
ENDBRANCH   6   7
ENDBRANCH   5   6
ENDBRANCH   4   5
ENDBRANCH   3   4
ENDBRANCH   2   3
ENDBRANCH   1   2
BRANCH   1  15
ATOM     15  C   UNL     1      21.393 116.866 296.924  1.00  0.00     0.000 C 
BRANCH  15  16
ATOM     16  C   UNL     1      20.102 117.418 296.294  1.00  0.00     0.000 C 
BRANCH  16  17
ATOM     17  C   UNL     1      20.055 118.953 296.274  1.00  0.00     0.000 C 
BRANCH  17  18
ATOM     18  C   UNL     1      18.846 119.475 297.062  1.00  0.00    -0.000 C 
BRANCH  18  19
ATOM     19  C   UNL     1      17.506 119.082 296.421  1.00  0.00    -0.000 C 
BRANCH  19  20
ATOM     20  C   UNL     1      17.163 119.938 295.193  1.00  0.00    -0.000 C 
BRANCH  20  21
ATOM     21  C   UNL     1      16.610 119.072 294.055  1.00  0.00    -0.000 C 
BRANCH  21  22
ATOM     22  C   UNL     1      17.029 117.606 294.226  1.00  0.00    -0.000 C 
BRANCH  22  23
ATOM     23  C   UNL     1      18.029 117.188 293.140  1.00  0.00    -0.000 C 
BRANCH  23  24
ATOM     24  C   UNL     1      17.320 116.442 292.000  1.00  0.00    -0.000 C 
BRANCH  24  25
ATOM     25  C   UNL     1      18.302 115.695 291.084  1.00  0.00    -0.003 C 
ATOM     26  C   UNL     1      17.617 114.633 290.225  1.00  0.00     0.004 C 
ENDBRANCH  24  25
ENDBRANCH  23  24
ENDBRANCH  22  23
ENDBRANCH  21  22
ENDBRANCH  20  21
ENDBRANCH  19  20
ENDBRANCH  18  19
ENDBRANCH  17  18
ENDBRANCH  16  17
ENDBRANCH  15  16
ENDBRANCH   1  15
TORSDOF 22
ENDMDL
MODEL 7
REMARK VINA RESULT:    -4.553      4.882      9.665
REMARK INTER + INTRA:         -13.479
REMARK INTER:                  -9.538
REMARK INTRA:                  -3.940
REMARK UNBOUND:                -3.071
REMARK SMILES CCCCCCCCCCCCCCCCCCCCCCCC(=O)[O-]
REMARK SMILES IDX 13 1 14 2 15 3 16 4 17 5 18 6 19 7 20 8 21 9 22 10 23 11
REMARK SMILES IDX 24 12 25 13 26 14 12 15 11 16 10 17 9 18 8 19 7 20 6 21 5 22
REMARK SMILES IDX 4 23 3 24 2 25 1 26
REMARK H PARENT
REMARK Flexibility Score: inf
ROOT
ATOM      1  C   UNL     1      24.271 119.830 297.964  1.00  0.00     0.000 C 
ENDROOT
BRANCH   1   2
ATOM      2  C   UNL     1      24.331 118.729 299.038  1.00  0.00     0.000 C 
BRANCH   2   3
ATOM      3  C   UNL     1      22.946 118.379 299.607  1.00  0.00     0.000 C 
BRANCH   3   4
ATOM      4  C   UNL     1      21.802 118.792 298.667  1.00  0.00     0.000 C 
BRANCH   4   5
ATOM      5  C   UNL     1      21.033 117.580 298.111  1.00  0.00     0.000 C 
BRANCH   5   6
ATOM      6  C   UNL     1      21.068 117.513 296.576  1.00  0.00     0.000 C 
BRANCH   6   7
ATOM      7  C   UNL     1      22.478 117.240 296.030  1.00  0.00     0.000 C 
BRANCH   7   8
ATOM      8  C   UNL     1      22.801 118.174 294.853  1.00  0.00     0.000 C 
BRANCH   8   9
ATOM      9  C   UNL     1      24.312 118.336 294.624  1.00  0.00     0.000 C 
BRANCH   9  10
ATOM     10  C   UNL     1      24.759 117.850 293.238  1.00  0.00     0.006 C 
BRANCH  10  11
ATOM     11  C   UNL     1      25.290 119.013 292.395  1.00  0.00     0.053 C 
BRANCH  11  12
ATOM     12  C   UNL     1      26.440 119.677 293.083  1.00  0.00     0.041 C 
ATOM     13  O   UNL     1      27.494 119.030 293.323  1.00  0.00    -0.550 OA
ATOM     14  O   UNL     1      26.369 121.025 293.416  1.00  0.00    -0.550 OA
ENDBRANCH  11  12
ENDBRANCH  10  11
ENDBRANCH   9  10
ENDBRANCH   8   9
ENDBRANCH   7   8
ENDBRANCH   6   7
ENDBRANCH   5   6
ENDBRANCH   4   5
ENDBRANCH   3   4
ENDBRANCH   2   3
ENDBRANCH   1   2
BRANCH   1  15
ATOM     15  C   UNL     1      25.485 120.782 297.939  1.00  0.00     0.000 C 
BRANCH  15  16
ATOM     16  C   UNL     1      26.487 120.537 296.795  1.00  0.00     0.000 C 
BRANCH  16  17
ATOM     17  C   UNL     1      27.139 119.148 296.859  1.00  0.00     0.000 C 
BRANCH  17  18
ATOM     18  C   UNL     1      28.431 119.187 297.687  1.00  0.00    -0.000 C 
BRANCH  18  19
ATOM     19  C   UNL     1      28.228 118.686 299.125  1.00  0.00    -0.000 C 
BRANCH  19  20
ATOM     20  C   UNL     1      28.231 119.824 300.156  1.00  0.00    -0.000 C 
BRANCH  20  21
ATOM     21  C   UNL     1      27.082 119.662 301.158  1.00  0.00    -0.000 C 
BRANCH  21  22
ATOM     22  C   UNL     1      26.423 121.013 301.462  1.00  0.00    -0.000 C 
BRANCH  22  23
ATOM     23  C   UNL     1      25.590 120.944 302.749  1.00  0.00    -0.000 C 
BRANCH  23  24
ATOM     24  C   UNL     1      24.176 121.495 302.517  1.00  0.00    -0.000 C 
BRANCH  24  25
ATOM     25  C   UNL     1      23.913 121.844 301.044  1.00  0.00    -0.003 C 
ATOM     26  C   UNL     1      22.425 121.992 300.728  1.00  0.00     0.004 C 
ENDBRANCH  24  25
ENDBRANCH  23  24
ENDBRANCH  22  23
ENDBRANCH  21  22
ENDBRANCH  20  21
ENDBRANCH  19  20
ENDBRANCH  18  19
ENDBRANCH  17  18
ENDBRANCH  16  17
ENDBRANCH  15  16
ENDBRANCH   1  15
TORSDOF 22
ENDMDL
MODEL 8
REMARK VINA RESULT:    -4.548      5.170      6.867
REMARK INTER + INTRA:         -13.469
REMARK INTER:                 -11.029
REMARK INTRA:                  -2.440
REMARK UNBOUND:                -3.071
REMARK SMILES CCCCCCCCCCCCCCCCCCCCCCCC(=O)[O-]
REMARK SMILES IDX 13 1 14 2 15 3 16 4 17 5 18 6 19 7 20 8 21 9 22 10 23 11
REMARK SMILES IDX 24 12 25 13 26 14 12 15 11 16 10 17 9 18 8 19 7 20 6 21 5 22
REMARK SMILES IDX 4 23 3 24 2 25 1 26
REMARK H PARENT
REMARK Flexibility Score: inf
ROOT
ATOM      1  C   UNL     1      20.041 117.835 296.507  1.00  0.00     0.000 C 
ENDROOT
BRANCH   1   2
ATOM      2  C   UNL     1      21.243 117.814 297.466  1.00  0.00     0.000 C 
BRANCH   2   3
ATOM      3  C   UNL     1      22.563 118.190 296.773  1.00  0.00     0.000 C 
BRANCH   3   4
ATOM      4  C   UNL     1      22.890 117.265 295.590  1.00  0.00     0.000 C 
BRANCH   4   5
ATOM      5  C   UNL     1      23.050 118.037 294.268  1.00  0.00     0.000 C 
BRANCH   5   6
ATOM      6  C   UNL     1      23.810 119.362 294.449  1.00  0.00     0.000 C 
BRANCH   6   7
ATOM      7  C   UNL     1      24.965 119.520 293.448  1.00  0.00     0.000 C 
BRANCH   7   8
ATOM      8  C   UNL     1      25.598 118.159 293.121  1.00  0.00     0.000 C 
BRANCH   8   9
ATOM      9  C   UNL     1      25.869 117.977 291.619  1.00  0.00     0.000 C 
BRANCH   9  10
ATOM     10  C   UNL     1      24.773 118.596 290.739  1.00  0.00     0.006 C 
BRANCH  10  11
ATOM     11  C   UNL     1      24.362 117.635 289.620  1.00  0.00     0.053 C 
BRANCH  11  12
ATOM     12  C   UNL     1      23.644 118.371 288.533  1.00  0.00     0.041 C 
ATOM     13  O   UNL     1      22.463 118.056 288.228  1.00  0.00    -0.550 OA
ATOM     14  O   UNL     1      24.261 119.437 287.889  1.00  0.00    -0.550 OA
ENDBRANCH  11  12
ENDBRANCH  10  11
ENDBRANCH   9  10
ENDBRANCH   8   9
ENDBRANCH   7   8
ENDBRANCH   6   7
ENDBRANCH   5   6
ENDBRANCH   4   5
ENDBRANCH   3   4
ENDBRANCH   2   3
ENDBRANCH   1   2
BRANCH   1  15
ATOM     15  C   UNL     1      18.661 117.708 297.187  1.00  0.00     0.000 C 
BRANCH  15  16
ATOM     16  C   UNL     1      17.955 119.042 297.489  1.00  0.00     0.000 C 
BRANCH  16  17
ATOM     17  C   UNL     1      18.546 120.222 296.706  1.00  0.00     0.000 C 
BRANCH  17  18
ATOM     18  C   UNL     1      17.442 121.195 296.264  1.00  0.00    -0.000 C 
BRANCH  18  19
ATOM     19  C   UNL     1      16.230 120.476 295.651  1.00  0.00    -0.000 C 
BRANCH  19  20
ATOM     20  C   UNL     1      16.170 120.617 294.123  1.00  0.00    -0.000 C 
BRANCH  20  21
ATOM     21  C   UNL     1      16.388 119.263 293.437  1.00  0.00    -0.000 C 
BRANCH  21  22
ATOM     22  C   UNL     1      16.122 118.105 294.408  1.00  0.00    -0.000 C 
BRANCH  22  23
ATOM     23  C   UNL     1      17.164 116.993 294.239  1.00  0.00    -0.000 C 
BRANCH  23  24
ATOM     24  C   UNL     1      17.873 117.106 292.882  1.00  0.00    -0.000 C 
BRANCH  24  25
ATOM     25  C   UNL     1      17.459 115.994 291.905  1.00  0.00    -0.003 C 
ATOM     26  C   UNL     1      18.523 115.712 290.845  1.00  0.00     0.004 C 
ENDBRANCH  24  25
ENDBRANCH  23  24
ENDBRANCH  22  23
ENDBRANCH  21  22
ENDBRANCH  20  21
ENDBRANCH  19  20
ENDBRANCH  18  19
ENDBRANCH  17  18
ENDBRANCH  16  17
ENDBRANCH  15  16
ENDBRANCH   1  15
TORSDOF 22
ENDMDL
MODEL 9
REMARK VINA RESULT:    -4.548      2.296      3.943
REMARK INTER + INTRA:         -13.468
REMARK INTER:                 -10.590
REMARK INTRA:                  -2.877
REMARK UNBOUND:                -3.071
REMARK SMILES CCCCCCCCCCCCCCCCCCCCCCCC(=O)[O-]
REMARK SMILES IDX 13 1 14 2 15 3 16 4 17 5 18 6 19 7 20 8 21 9 22 10 23 11
REMARK SMILES IDX 24 12 25 13 26 14 12 15 11 16 10 17 9 18 8 19 7 20 6 21 5 22
REMARK SMILES IDX 4 23 3 24 2 25 1 26
REMARK H PARENT
REMARK Flexibility Score: inf
ROOT
ATOM      1  C   UNL     1      23.849 120.086 295.144  1.00  0.00     0.000 C 
ENDROOT
BRANCH   1   2
ATOM      2  C   UNL     1      25.111 119.274 294.805  1.00  0.00     0.000 C 
BRANCH   2   3
ATOM      3  C   UNL     1      26.283 119.574 295.754  1.00  0.00     0.000 C 
BRANCH   3   4
ATOM      4  C   UNL     1      26.075 120.869 296.555  1.00  0.00     0.000 C 
BRANCH   4   5
ATOM      5  C   UNL     1      25.922 120.607 298.064  1.00  0.00     0.000 C 
BRANCH   5   6
ATOM      6  C   UNL     1      26.007 119.112 298.414  1.00  0.00     0.000 C 
BRANCH   6   7
ATOM      7  C   UNL     1      24.681 118.558 298.956  1.00  0.00     0.000 C 
BRANCH   7   8
ATOM      8  C   UNL     1      23.729 119.697 299.348  1.00  0.00     0.000 C 
BRANCH   8   9
ATOM      9  C   UNL     1      22.793 119.316 300.506  1.00  0.00     0.000 C 
BRANCH   9  10
ATOM     10  C   UNL     1      23.413 119.587 301.884  1.00  0.00     0.006 C 
BRANCH  10  11
ATOM     11  C   UNL     1      24.523 120.637 301.788  1.00  0.00     0.053 C 
BRANCH  11  12
ATOM     12  C   UNL     1      24.705 121.330 303.101  1.00  0.00     0.041 C 
ATOM     13  O   UNL     1      23.704 121.748 303.740  1.00  0.00    -0.550 OA
ATOM     14  O   UNL     1      25.977 121.471 303.643  1.00  0.00    -0.550 OA
ENDBRANCH  11  12
ENDBRANCH  10  11
ENDBRANCH   9  10
ENDBRANCH   8   9
ENDBRANCH   7   8
ENDBRANCH   6   7
ENDBRANCH   5   6
ENDBRANCH   4   5
ENDBRANCH   3   4
ENDBRANCH   2   3
ENDBRANCH   1   2
BRANCH   1  15
ATOM     15  C   UNL     1      22.625 119.245 295.564  1.00  0.00     0.000 C 
BRANCH  15  16
ATOM     16  C   UNL     1      22.733 117.738 295.267  1.00  0.00     0.000 C 
BRANCH  16  17
ATOM     17  C   UNL     1      22.477 116.866 296.504  1.00  0.00     0.000 C 
BRANCH  17  18
ATOM     18  C   UNL     1      21.429 117.510 297.423  1.00  0.00    -0.000 C 
BRANCH  18  19
ATOM     19  C   UNL     1      20.011 116.976 297.170  1.00  0.00    -0.000 C 
BRANCH  19  20
ATOM     20  C   UNL     1      19.085 118.028 296.542  1.00  0.00    -0.000 C 
BRANCH  20  21
ATOM     21  C   UNL     1      18.583 117.569 295.168  1.00  0.00    -0.000 C 
BRANCH  21  22
ATOM     22  C   UNL     1      17.324 118.342 294.755  1.00  0.00    -0.000 C 
BRANCH  22  23
ATOM     23  C   UNL     1      16.832 117.898 293.372  1.00  0.00    -0.000 C 
BRANCH  23  24
ATOM     24  C   UNL     1      17.532 116.605 292.930  1.00  0.00    -0.000 C 
BRANCH  24  25
ATOM     25  C   UNL     1      17.471 116.392 291.409  1.00  0.00    -0.003 C 
ATOM     26  C   UNL     1      18.677 115.623 290.871  1.00  0.00     0.004 C 
ENDBRANCH  24  25
ENDBRANCH  23  24
ENDBRANCH  22  23
ENDBRANCH  21  22
ENDBRANCH  20  21
ENDBRANCH  19  20
ENDBRANCH  18  19
ENDBRANCH  17  18
ENDBRANCH  16  17
ENDBRANCH  15  16
ENDBRANCH   1  15
TORSDOF 22
ENDMDL
