MODEL 1
REMARK VINA RESULT:    11.339      0.000      0.000
REMARK INTER + INTRA:          14.854
REMARK INTER:                  15.648
REMARK INTRA:                  -0.795
REMARK UNBOUND:                -0.795
REMARK SMILES CCCCc1cccc(O)c1CCCC
REMARK SMILES IDX 5 1 11 2 9 3 8 4 7 5 6 6 4 7 3 8 2 9 1 10 12 11 13 12 14 13
REMARK SMILES IDX 15 14 10 15
REMARK H PARENT 10 16
REMARK Flexibility Score: inf
ROOT
ATOM      1  C   UNL     1      16.057  53.579  60.917  1.00  0.00    -0.041 A 
ATOM      2  C   UNL     1      15.870  52.310  60.292  1.00  0.00    -0.003 A 
ATOM      3  C   UNL     1      15.196  52.256  59.041  1.00  0.00     0.119 A 
ATOM      4  C   UNL     1      14.663  53.422  58.483  1.00  0.00     0.046 A 
ATOM      5  C   UNL     1      14.808  54.647  59.124  1.00  0.00     0.004 A 
ATOM      6  C   UNL     1      15.501  54.728  60.328  1.00  0.00     0.004 A 
ENDROOT
BRANCH   1   7
ATOM      7  C   UNL     1      16.793  53.751  62.230  1.00  0.00     0.036 C 
BRANCH   7   8
ATOM      8  C   UNL     1      16.472  55.112  62.862  1.00  0.00     0.004 C 
BRANCH   8   9
ATOM      9  C   UNL     1      15.492  54.958  64.029  1.00  0.00    -0.003 C 
ATOM     10  C   UNL     1      14.049  55.124  63.563  1.00  0.00     0.004 C 
ENDBRANCH   8   9
ENDBRANCH   7   8
ENDBRANCH   1   7
BRANCH   2  11
ATOM     11  C   UNL     1      16.413  51.040  60.922  1.00  0.00     0.040 C 
BRANCH  11  12
ATOM     12  C   UNL     1      15.299  50.275  61.654  1.00  0.00     0.005 C 
BRANCH  12  13
ATOM     13  C   UNL     1      13.979  51.058  61.701  1.00  0.00    -0.003 C 
ATOM     14  C   UNL     1      13.684  51.634  63.087  1.00  0.00     0.004 C 
ENDBRANCH  12  13
ENDBRANCH  11  12
ENDBRANCH   2  11
BRANCH   3  15
ATOM     15  O   UNL     1      15.039  51.070  58.318  1.00  0.00    -0.508 OA
ATOM     16  H   UNL     1      15.656  50.773  57.574  1.00  0.00     0.293 HD
ENDBRANCH   3  15
TORSDOF 7
ENDMDL
MODEL 2
REMARK VINA RESULT:    12.080      1.369      2.690
REMARK INTER + INTRA:          15.876
REMARK INTER:                  13.637
REMARK INTRA:                   2.239
REMARK UNBOUND:                -0.795
REMARK SMILES CCCCc1cccc(O)c1CCCC
REMARK SMILES IDX 5 1 11 2 9 3 8 4 7 5 6 6 4 7 3 8 2 9 1 10 12 11 13 12 14 13
REMARK SMILES IDX 15 14 10 15
REMARK H PARENT 10 16
REMARK Flexibility Score: inf
ROOT
ATOM      1  C   UNL     1      15.943  54.042  61.351  1.00  0.00    -0.041 A 
ATOM      2  C   UNL     1      16.331  52.922  60.557  1.00  0.00    -0.003 A 
ATOM      3  C   UNL     1      17.511  52.211  60.907  1.00  0.00     0.119 A 
ATOM      4  C   UNL     1      18.309  52.658  61.964  1.00  0.00     0.046 A 
ATOM      5  C   UNL     1      17.948  53.780  62.702  1.00  0.00     0.004 A 
ATOM      6  C   UNL     1      16.774  54.465  62.402  1.00  0.00     0.004 A 
ENDROOT
BRANCH   1   7
ATOM      7  C   UNL     1      14.685  54.844  61.087  1.00  0.00     0.036 C 
BRANCH   7   8
ATOM      8  C   UNL     1      13.932  55.125  62.394  1.00  0.00     0.004 C 
BRANCH   8   9
ATOM      9  C   UNL     1      14.465  54.251  63.533  1.00  0.00    -0.003 C 
ATOM     10  C   UNL     1      15.107  55.100  64.626  1.00  0.00     0.004 C 
ENDBRANCH   8   9
ENDBRANCH   7   8
ENDBRANCH   1   7
BRANCH   2  11
ATOM     11  C   UNL     1      15.484  52.465  59.383  1.00  0.00     0.040 C 
BRANCH  11  12
ATOM     12  C   UNL     1      14.889  51.073  59.648  1.00  0.00     0.005 C 
BRANCH  12  13
ATOM     13  C   UNL     1      15.137  50.590  61.085  1.00  0.00    -0.003 C 
ATOM     14  C   UNL     1      14.082  51.099  62.068  1.00  0.00     0.004 C 
ENDBRANCH  12  13
ENDBRANCH  11  12
ENDBRANCH   2  11
BRANCH   3  15
ATOM     15  O   UNL     1      17.925  51.055  60.238  1.00  0.00    -0.508 OA
ATOM     16  H   UNL     1      17.332  50.254  60.070  1.00  0.00     0.293 HD
ENDBRANCH   3  15
TORSDOF 7
ENDMDL
MODEL 3
REMARK VINA RESULT:    12.201      1.020      2.134
REMARK INTER + INTRA:          16.042
REMARK INTER:                  15.862
REMARK INTRA:                   0.180
REMARK UNBOUND:                -0.795
REMARK SMILES CCCCc1cccc(O)c1CCCC
REMARK SMILES IDX 5 1 11 2 9 3 8 4 7 5 6 6 4 7 3 8 2 9 1 10 12 11 13 12 14 13
REMARK SMILES IDX 15 14 10 15
REMARK H PARENT 10 16
REMARK Flexibility Score: inf
ROOT
ATOM      1  C   UNL     1      14.655  53.629  61.447  1.00  0.00    -0.041 A 
ATOM      2  C   UNL     1      14.806  52.413  60.716  1.00  0.00    -0.003 A 
ATOM      3  C   UNL     1      15.052  52.481  59.318  1.00  0.00     0.119 A 
ATOM      4  C   UNL     1      15.065  53.720  58.670  1.00  0.00     0.046 A 
ATOM      5  C   UNL     1      14.868  54.897  59.383  1.00  0.00     0.004 A 
ATOM      6  C   UNL     1      14.669  54.854  60.760  1.00  0.00     0.004 A 
ENDROOT
BRANCH   1   7
ATOM      7  C   UNL     1      14.428  53.668  62.944  1.00  0.00     0.036 C 
BRANCH   7   8
ATOM      8  C   UNL     1      14.763  55.054  63.512  1.00  0.00     0.004 C 
BRANCH   8   9
ATOM      9  C   UNL     1      16.216  55.112  63.995  1.00  0.00    -0.003 C 
ATOM     10  C   UNL     1      17.188  55.122  62.819  1.00  0.00     0.004 C 
ENDBRANCH   8   9
ENDBRANCH   7   8
ENDBRANCH   1   7
BRANCH   2  11
ATOM     11  C   UNL     1      14.748  51.067  61.416  1.00  0.00     0.040 C 
BRANCH  11  12
ATOM     12  C   UNL     1      16.136  50.409  61.450  1.00  0.00     0.005 C 
BRANCH  12  13
ATOM     13  C   UNL     1      17.277  51.438  61.451  1.00  0.00    -0.003 C 
ATOM     14  C   UNL     1      18.051  51.461  60.132  1.00  0.00     0.004 C 
ENDBRANCH  12  13
ENDBRANCH  11  12
ENDBRANCH   2  11
BRANCH   3  15
ATOM     15  O   UNL     1      15.293  51.348  58.536  1.00  0.00    -0.508 OA
ATOM     16  H   UNL     1      15.306  50.403  58.895  1.00  0.00     0.293 HD
ENDBRANCH   3  15
TORSDOF 7
ENDMDL
MODEL 4
REMARK VINA RESULT:    13.044      2.030      4.361
REMARK INTER + INTRA:          17.205
REMARK INTER:                  16.092
REMARK INTRA:                   1.113
REMARK UNBOUND:                -0.795
REMARK SMILES CCCCc1cccc(O)c1CCCC
REMARK SMILES IDX 5 1 11 2 9 3 8 4 7 5 6 6 4 7 3 8 2 9 1 10 12 11 13 12 14 13
REMARK SMILES IDX 15 14 10 15
REMARK H PARENT 10 16
REMARK Flexibility Score: inf
ROOT
ATOM      1  C   UNL     1      16.510  52.263  60.415  1.00  0.00    -0.041 A 
ATOM      2  C   UNL     1      16.367  53.506  61.101  1.00  0.00    -0.003 A 
ATOM      3  C   UNL     1      17.370  53.892  62.032  1.00  0.00     0.119 A 
ATOM      4  C   UNL     1      18.430  53.027  62.317  1.00  0.00     0.046 A 
ATOM      5  C   UNL     1      18.535  51.796  61.678  1.00  0.00     0.004 A 
ATOM      6  C   UNL     1      17.586  51.418  60.732  1.00  0.00     0.004 A 
ENDROOT
BRANCH   1   7
ATOM      7  C   UNL     1      15.519  51.776  59.377  1.00  0.00     0.036 C 
BRANCH   7   8
ATOM      8  C   UNL     1      14.489  50.830  60.008  1.00  0.00     0.004 C 
BRANCH   8   9
ATOM      9  C   UNL     1      14.848  50.518  61.464  1.00  0.00    -0.003 C 
ATOM     10  C   UNL     1      13.853  51.159  62.427  1.00  0.00     0.004 C 
ENDBRANCH   8   9
ENDBRANCH   7   8
ENDBRANCH   1   7
BRANCH   2  11
ATOM     11  C   UNL     1      15.191  54.424  60.821  1.00  0.00     0.040 C 
BRANCH  11  12
ATOM     12  C   UNL     1      14.728  55.125  62.107  1.00  0.00     0.005 C 
BRANCH  12  13
ATOM     13  C   UNL     1      14.492  54.140  63.263  1.00  0.00    -0.003 C 
ATOM     14  C   UNL     1      14.886  54.721  64.622  1.00  0.00     0.004 C 
ENDBRANCH  12  13
ENDBRANCH  11  12
ENDBRANCH   2  11
BRANCH   3  15
ATOM     15  O   UNL     1      17.356  55.125  62.691  1.00  0.00    -0.508 OA
ATOM     16  H   UNL     1      17.008  55.982  62.283  1.00  0.00     0.293 HD
ENDBRANCH   3  15
TORSDOF 7
ENDMDL
MODEL 5
REMARK VINA RESULT:    13.411      1.519      3.193
REMARK INTER + INTRA:          17.713
REMARK INTER:                  17.883
REMARK INTRA:                  -0.171
REMARK UNBOUND:                -0.795
REMARK SMILES CCCCc1cccc(O)c1CCCC
REMARK SMILES IDX 5 1 11 2 9 3 8 4 7 5 6 6 4 7 3 8 2 9 1 10 12 11 13 12 14 13
REMARK SMILES IDX 15 14 10 15
REMARK H PARENT 10 16
REMARK Flexibility Score: inf
ROOT
ATOM      1  C   UNL     1      14.823  52.976  61.491  1.00  0.00    -0.041 A 
ATOM      2  C   UNL     1      15.437  51.807  60.952  1.00  0.00    -0.003 A 
ATOM      3  C   UNL     1      14.978  50.532  61.384  1.00  0.00     0.119 A 
ATOM      4  C   UNL     1      13.996  50.441  62.374  1.00  0.00     0.046 A 
ATOM      5  C   UNL     1      13.438  51.587  62.929  1.00  0.00     0.004 A 
ATOM      6  C   UNL     1      13.843  52.844  62.490  1.00  0.00     0.004 A 
ENDROOT
BRANCH   1   7
ATOM      7  C   UNL     1      15.210  54.379  61.071  1.00  0.00     0.036 C 
BRANCH   7   8
ATOM      8  C   UNL     1      15.896  55.124  62.224  1.00  0.00     0.004 C 
BRANCH   8   9
ATOM      9  C   UNL     1      15.018  55.121  63.479  1.00  0.00    -0.003 C 
ATOM     10  C   UNL     1      15.860  54.945  64.740  1.00  0.00     0.004 C 
ENDBRANCH   8   9
ENDBRANCH   7   8
ENDBRANCH   1   7
BRANCH   2  11
ATOM     11  C   UNL     1      16.533  51.909  59.907  1.00  0.00     0.040 C 
BRANCH  11  12
ATOM     12  C   UNL     1      17.914  51.682  60.540  1.00  0.00     0.005 C 
BRANCH  12  13
ATOM     13  C   UNL     1      17.950  52.060  62.029  1.00  0.00    -0.003 C 
ATOM     14  C   UNL     1      19.079  53.037  62.362  1.00  0.00     0.004 C 
ENDBRANCH  12  13
ENDBRANCH  11  12
ENDBRANCH   2  11
BRANCH   3  15
ATOM     15  O   UNL     1      15.463  49.334  60.852  1.00  0.00    -0.508 OA
ATOM     16  H   UNL     1      15.805  48.563  61.410  1.00  0.00     0.293 HD
ENDBRANCH   3  15
TORSDOF 7
ENDMDL
MODEL 6
REMARK VINA RESULT:    13.628      1.877      4.228
REMARK INTER + INTRA:          18.012
REMARK INTER:                  17.196
REMARK INTRA:                   0.816
REMARK UNBOUND:                -0.795
REMARK SMILES CCCCc1cccc(O)c1CCCC
REMARK SMILES IDX 5 1 11 2 9 3 8 4 7 5 6 6 4 7 3 8 2 9 1 10 12 11 13 12 14 13
REMARK SMILES IDX 15 14 10 15
REMARK H PARENT 10 16
REMARK Flexibility Score: inf
ROOT
ATOM      1  C   UNL     1      15.983  51.802  60.664  1.00  0.00    -0.041 A 
ATOM      2  C   UNL     1      15.074  52.758  61.208  1.00  0.00    -0.003 A 
ATOM      3  C   UNL     1      14.104  52.319  62.150  1.00  0.00     0.119 A 
ATOM      4  C   UNL     1      14.003  50.962  62.470  1.00  0.00     0.046 A 
ATOM      5  C   UNL     1      14.862  50.031  61.896  1.00  0.00     0.004 A 
ATOM      6  C   UNL     1      15.846  50.446  61.004  1.00  0.00     0.004 A 
ENDROOT
BRANCH   1   7
ATOM      7  C   UNL     1      17.077  52.171  59.683  1.00  0.00     0.036 C 
BRANCH   7   8
ATOM      8  C   UNL     1      18.454  51.756  60.218  1.00  0.00     0.004 C 
BRANCH   8   9
ATOM      9  C   UNL     1      18.451  51.691  61.749  1.00  0.00    -0.003 C 
ATOM     10  C   UNL     1      18.463  53.089  62.360  1.00  0.00     0.004 C 
ENDBRANCH   8   9
ENDBRANCH   7   8
ENDBRANCH   1   7
BRANCH   2  11
ATOM     11  C   UNL     1      15.159  54.224  60.827  1.00  0.00     0.040 C 
BRANCH  11  12
ATOM     12  C   UNL     1      14.834  55.121  62.032  1.00  0.00     0.005 C 
BRANCH  12  13
ATOM     13  C   UNL     1      15.899  55.035  63.135  1.00  0.00    -0.003 C 
ATOM     14  C   UNL     1      15.293  55.018  64.539  1.00  0.00     0.004 C 
ENDBRANCH  12  13
ENDBRANCH  11  12
ENDBRANCH   2  11
BRANCH   3  15
ATOM     15  O   UNL     1      13.227  53.195  62.796  1.00  0.00    -0.508 OA
ATOM     16  H   UNL     1      12.767  53.974  62.345  1.00  0.00     0.293 HD
ENDBRANCH   3  15
TORSDOF 7
ENDMDL
