MODEL 1
REMARK VINA RESULT:    -3.472      0.000      0.000
REMARK INTER + INTRA:          -5.490
REMARK INTER:                  -5.299
REMARK INTRA:                  -0.191
REMARK UNBOUND:                -0.191
REMARK SMILES CC1=CCC[C@H](C)C(=O)C[C@@H](C(C)C)C(=O)C1
REMARK SMILES IDX 8 1 9 2 6 3 7 4 5 5 4 6 3 7 2 8 1 9 10 11 11 12 15 13 16 14
REMARK SMILES IDX 17 15 12 17 13 18 14 19
REMARK H PARENT
REMARK Flexibility Score: 70.00
ROOT
ATOM      1  C   UNL     1      87.471  36.218  24.093  1.00  0.00     0.136 C 
ATOM      2  O   UNL     1      88.598  35.752  24.057  1.00  0.00    -0.299 OA
ENDROOT
BRANCH   1   3
ATOM      3  C   UNL     1      86.378  35.536  23.283  1.00  0.00     0.053 C 
ATOM      4  C   UNL     1      86.538  34.010  23.312  1.00  0.00     0.016 C 
BRANCH   3   5
ATOM      5  C   UNL     1      84.972  35.958  23.755  1.00  0.00     0.015 C 
BRANCH   5   6
ATOM      6  C   UNL     1      84.374  34.920  24.721  1.00  0.00     0.028 C 
BRANCH   6   7
ATOM      7  C   UNL     1      83.780  35.515  25.973  1.00  0.00    -0.028 C 
ATOM      8  C   UNL     1      84.462  35.999  27.042  1.00  0.00    -0.070 CG0
ATOM      9  C   UNL     1      83.654  36.704  28.106  1.00  0.00     0.039 C 
ATOM     10  G   UNL     1      85.950  35.780  27.303  1.00  0.00     0.000 G0
ENDBRANCH   6   7
ENDBRANCH   5   6
ENDBRANCH   3   5
ENDBRANCH   1   3
BRANCH   1  11
ATOM     11  C   UNL     1      87.191  37.428  24.963  1.00  0.00     0.087 C 
BRANCH  11  12
ATOM     12  C   UNL     1      87.805  37.393  26.394  1.00  0.00     0.066 C 
BRANCH  12  13
ATOM     13  C   UNL     1      86.807  36.999  27.477  1.00  0.00     0.140 C 
ATOM     14  O   UNL     1      86.760  37.611  28.534  1.00  0.00    -0.299 OA
BRANCH  13  15
ATOM     15  C   UNL     1      85.965  35.762  27.286  1.00  0.00     0.106 CG0
ATOM     16  G   UNL     1      84.473  35.996  27.058  1.00  0.00     0.000 G0
ENDBRANCH  13  15
ENDBRANCH  12  13
BRANCH  12  17
ATOM     17  C   UNL     1      88.711  38.622  26.735  1.00  0.00    -0.006 C 
ATOM     18  C   UNL     1      88.690  39.672  25.611  1.00  0.00     0.008 C 
ATOM     19  C   UNL     1      90.157  38.270  27.114  1.00  0.00     0.008 C 
ENDBRANCH  12  17
ENDBRANCH  11  12
ENDBRANCH   1  11
TORSDOF 1
ENDMDL
MODEL 2
REMARK VINA RESULT:    -3.328      1.829      4.338
REMARK INTER + INTRA:          -5.270
REMARK INTER:                  -5.339
REMARK INTRA:                   0.069
REMARK UNBOUND:                -0.191
REMARK SMILES CC1=CCC[C@H](C)C(=O)C[C@@H](C(C)C)C(=O)C1
REMARK SMILES IDX 8 1 9 2 6 3 7 4 5 5 4 6 3 7 2 8 1 9 10 11 11 12 15 13 16 14
REMARK SMILES IDX 17 15 12 17 13 18 14 19
REMARK H PARENT
REMARK Flexibility Score: 70.00
ROOT
ATOM      1  C   UNL     1      86.088  37.411  29.109  1.00  0.00     0.136 C 
ATOM      2  O   UNL     1      86.804  38.393  29.227  1.00  0.00    -0.299 OA
ENDROOT
BRANCH   1   3
ATOM      3  C   UNL     1      84.906  37.259  30.055  1.00  0.00     0.053 C 
ATOM      4  C   UNL     1      84.359  38.627  30.482  1.00  0.00     0.016 C 
BRANCH   3   5
ATOM      5  C   UNL     1      83.796  36.381  29.442  1.00  0.00     0.015 C 
BRANCH   5   6
ATOM      6  C   UNL     1      82.811  37.226  28.616  1.00  0.00     0.028 C 
BRANCH   6   7
ATOM      7  C   UNL     1      82.123  36.464  27.511  1.00  0.00    -0.028 C 
ATOM      8  C   UNL     1      82.604  36.239  26.261  1.00  0.00    -0.070 CG0
ATOM      9  C   UNL     1      81.811  35.302  25.382  1.00  0.00     0.039 C 
ATOM     10  G   UNL     1      83.807  36.950  25.645  1.00  0.00     0.000 G0
ENDBRANCH   6   7
ENDBRANCH   5   6
ENDBRANCH   3   5
ENDBRANCH   1   3
BRANCH   1  11
ATOM     11  C   UNL     1      86.375  36.405  28.012  1.00  0.00     0.087 C 
BRANCH  11  12
ATOM     12  C   UNL     1      86.251  36.936  26.553  1.00  0.00     0.066 C 
BRANCH  12  13
ATOM     13  C   UNL     1      85.145  36.260  25.750  1.00  0.00     0.140 C 
ATOM     14  O   UNL     1      85.363  35.228  25.133  1.00  0.00    -0.299 OA
BRANCH  13  15
ATOM     15  C   UNL     1      83.809  36.948  25.616  1.00  0.00     0.106 CG0
ATOM     16  G   UNL     1      82.622  36.239  26.266  1.00  0.00     0.000 G0
ENDBRANCH  13  15
ENDBRANCH  12  13
BRANCH  12  17
ATOM     17  C   UNL     1      87.616  37.094  25.807  1.00  0.00    -0.006 C 
ATOM     18  C   UNL     1      88.322  38.406  26.189  1.00  0.00     0.008 C 
ATOM     19  C   UNL     1      87.536  36.953  24.279  1.00  0.00     0.008 C 
ENDBRANCH  12  17
ENDBRANCH  11  12
ENDBRANCH   1  11
TORSDOF 1
ENDMDL
MODEL 3
REMARK VINA RESULT:    -3.154      9.084     10.437
REMARK INTER + INTRA:          -5.004
REMARK INTER:                  -4.655
REMARK INTRA:                  -0.349
REMARK UNBOUND:                -0.191
REMARK SMILES CC1=CCC[C@H](C)C(=O)C[C@@H](C(C)C)C(=O)C1
REMARK SMILES IDX 8 1 9 2 6 3 7 4 5 5 4 6 3 7 2 8 1 9 10 11 11 12 15 13 16 14
REMARK SMILES IDX 17 15 12 17 13 18 14 19
REMARK H PARENT
REMARK Flexibility Score: 70.00
ROOT
ATOM      1  C   UNL     1      80.379  42.458  24.724  1.00  0.00     0.136 C 
ATOM      2  O   UNL     1      81.155  42.711  23.816  1.00  0.00    -0.299 OA
ENDROOT
BRANCH   1   3
ATOM      3  C   UNL     1      80.668  41.255  25.610  1.00  0.00     0.053 C 
ATOM      4  C   UNL     1      81.227  40.085  24.790  1.00  0.00     0.016 C 
BRANCH   3   5
ATOM      5  C   UNL     1      81.610  41.620  26.775  1.00  0.00     0.015 C 
BRANCH   5   6
ATOM      6  C   UNL     1      80.825  42.203  27.963  1.00  0.00     0.028 C 
BRANCH   6   7
ATOM      7  C   UNL     1      81.233  43.605  28.342  1.00  0.00    -0.028 C 
ATOM      8  C   UNL     1      80.461  44.719  28.276  1.00  0.00    -0.070 CG0
ATOM      9  C   UNL     1      81.032  45.983  28.873  1.00  0.00     0.039 C 
ATOM     10  G   UNL     1      79.125  44.816  27.542  1.00  0.00     0.000 G0
ENDBRANCH   6   7
ENDBRANCH   5   6
ENDBRANCH   3   5
ENDBRANCH   1   3
BRANCH   1  11
ATOM     11  C   UNL     1      79.185  43.362  24.959  1.00  0.00     0.087 C 
BRANCH  11  12
ATOM     12  C   UNL     1      79.474  44.892  24.930  1.00  0.00     0.066 C 
BRANCH  12  13
ATOM     13  C   UNL     1      79.128  45.604  26.234  1.00  0.00     0.140 C 
ATOM     14  O   UNL     1      78.965  46.814  26.260  1.00  0.00    -0.299 OA
BRANCH  13  15
ATOM     15  C   UNL     1      79.116  44.815  27.520  1.00  0.00     0.106 CG0
ATOM     16  G   UNL     1      80.446  44.730  28.266  1.00  0.00     0.000 G0
ENDBRANCH  13  15
ENDBRANCH  12  13
BRANCH  12  17
ATOM     17  C   UNL     1      78.994  45.613  23.628  1.00  0.00    -0.006 C 
ATOM     18  C   UNL     1      78.107  44.699  22.767  1.00  0.00     0.008 C 
ATOM     19  C   UNL     1      80.118  46.225  22.778  1.00  0.00     0.008 C 
ENDBRANCH  12  17
ENDBRANCH  11  12
ENDBRANCH   1  11
TORSDOF 1
ENDMDL
MODEL 4
REMARK VINA RESULT:    -3.059      3.086      5.122
REMARK INTER + INTRA:          -4.859
REMARK INTER:                  -4.482
REMARK INTRA:                  -0.377
REMARK UNBOUND:                -0.191
REMARK SMILES CC1=CCC[C@H](C)C(=O)C[C@@H](C(C)C)C(=O)C1
REMARK SMILES IDX 8 1 9 2 6 3 7 4 5 5 4 6 3 7 2 8 1 9 10 11 11 12 15 13 16 14
REMARK SMILES IDX 17 15 12 17 13 18 14 19
REMARK H PARENT
REMARK Flexibility Score: 70.00
ROOT
ATOM      1  C   UNL     1      84.984  34.622  23.340  1.00  0.00     0.136 C 
ATOM      2  O   UNL     1      86.093  34.630  22.831  1.00  0.00    -0.299 OA
ENDROOT
BRANCH   1   3
ATOM      3  C   UNL     1      84.878  34.415  24.843  1.00  0.00     0.053 C 
ATOM      4  C   UNL     1      85.084  32.941  25.215  1.00  0.00     0.016 C 
BRANCH   3   5
ATOM      5  C   UNL     1      85.856  35.327  25.613  1.00  0.00     0.015 C 
BRANCH   5   6
ATOM      6  C   UNL     1      85.305  36.759  25.731  1.00  0.00     0.028 C 
BRANCH   6   7
ATOM      7  C   UNL     1      84.011  36.858  26.500  1.00  0.00    -0.028 C 
ATOM      8  C   UNL     1      82.781  37.117  25.987  1.00  0.00    -0.070 CG0
ATOM      9  C   UNL     1      81.607  36.996  26.930  1.00  0.00     0.039 C 
ATOM     10  G   UNL     1      82.513  37.633  24.575  1.00  0.00     0.000 G0
ENDBRANCH   6   7
ENDBRANCH   5   6
ENDBRANCH   3   5
ENDBRANCH   1   3
BRANCH   1  11
ATOM     11  C   UNL     1      83.762  34.854  22.472  1.00  0.00     0.087 C 
BRANCH  11  12
ATOM     12  C   UNL     1      83.219  36.312  22.436  1.00  0.00     0.066 C 
BRANCH  12  13
ATOM     13  C   UNL     1      82.190  36.607  23.522  1.00  0.00     0.140 C 
ATOM     14  O   UNL     1      81.086  36.085  23.494  1.00  0.00    -0.299 OA
BRANCH  13  15
ATOM     15  C   UNL     1      82.500  37.654  24.564  1.00  0.00     0.106 CG0
ATOM     16  G   UNL     1      82.769  37.135  25.975  1.00  0.00     0.000 G0
ENDBRANCH  13  15
ENDBRANCH  12  13
BRANCH  12  17
ATOM     17  C   UNL     1      82.847  36.826  21.007  1.00  0.00    -0.006 C 
ATOM     18  C   UNL     1      83.387  35.893  19.910  1.00  0.00     0.008 C 
ATOM     19  C   UNL     1      83.249  38.281  20.720  1.00  0.00     0.008 C 
ENDBRANCH  12  17
ENDBRANCH  11  12
ENDBRANCH   1  11
TORSDOF 1
ENDMDL
MODEL 5
REMARK VINA RESULT:    -3.029      4.677      6.223
REMARK INTER + INTRA:          -4.813
REMARK INTER:                  -4.932
REMARK INTRA:                   0.119
REMARK UNBOUND:                -0.191
REMARK SMILES CC1=CCC[C@H](C)C(=O)C[C@@H](C(C)C)C(=O)C1
REMARK SMILES IDX 8 1 9 2 6 3 7 4 5 5 4 6 3 7 2 8 1 9 10 11 11 12 15 13 16 14
REMARK SMILES IDX 17 15 12 17 13 18 14 19
REMARK H PARENT
REMARK Flexibility Score: 70.00
ROOT
ATOM      1  C   UNL     1      86.329  32.978  29.043  1.00  0.00     0.136 C 
ATOM      2  O   UNL     1      87.083  32.608  28.157  1.00  0.00    -0.299 OA
ENDROOT
BRANCH   1   3
ATOM      3  C   UNL     1      86.321  32.209  30.356  1.00  0.00     0.053 C 
ATOM      4  C   UNL     1      86.119  30.708  30.118  1.00  0.00     0.016 C 
BRANCH   3   5
ATOM      5  C   UNL     1      87.598  32.477  31.179  1.00  0.00     0.015 C 
BRANCH   5   6
ATOM      6  C   UNL     1      87.276  33.259  32.465  1.00  0.00     0.028 C 
BRANCH   6   7
ATOM      7  C   UNL     1      85.929  32.933  33.061  1.00  0.00    -0.028 C 
ATOM      8  C   UNL     1      84.791  33.664  32.939  1.00  0.00    -0.070 CG0
ATOM      9  C   UNL     1      83.523  33.049  33.481  1.00  0.00     0.039 C 
ATOM     10  G   UNL     1      84.723  35.095  32.410  1.00  0.00     0.000 G0
ENDBRANCH   6   7
ENDBRANCH   5   6
ENDBRANCH   3   5
ENDBRANCH   1   3
BRANCH   1  11
ATOM     11  C   UNL     1      85.459  34.200  28.820  1.00  0.00     0.087 C 
BRANCH  11  12
ATOM     12  C   UNL     1      85.535  35.299  29.921  1.00  0.00     0.066 C 
BRANCH  12  13
ATOM     13  C   UNL     1      84.393  35.235  30.928  1.00  0.00     0.140 C 
ATOM     14  O   UNL     1      83.236  35.396  30.570  1.00  0.00    -0.299 OA
BRANCH  13  15
ATOM     15  C   UNL     1      84.714  35.099  32.396  1.00  0.00     0.106 CG0
ATOM     16  G   UNL     1      84.786  33.672  32.937  1.00  0.00     0.000 G0
ENDBRANCH  13  15
ENDBRANCH  12  13
BRANCH  12  17
ATOM     17  C   UNL     1      85.871  36.728  29.382  1.00  0.00    -0.006 C 
ATOM     18  C   UNL     1      84.790  37.750  29.772  1.00  0.00     0.008 C 
ATOM     19  C   UNL     1      86.155  36.798  27.874  1.00  0.00     0.008 C 
ENDBRANCH  12  17
ENDBRANCH  11  12
ENDBRANCH   1  11
TORSDOF 1
ENDMDL
MODEL 6
REMARK VINA RESULT:    -2.996      3.412      5.625
REMARK INTER + INTRA:          -4.763
REMARK INTER:                  -4.319
REMARK INTRA:                  -0.444
REMARK UNBOUND:                -0.191
REMARK SMILES CC1=CCC[C@H](C)C(=O)C[C@@H](C(C)C)C(=O)C1
REMARK SMILES IDX 8 1 9 2 6 3 7 4 5 5 4 6 3 7 2 8 1 9 10 11 11 12 15 13 16 14
REMARK SMILES IDX 17 15 12 17 13 18 14 19
REMARK H PARENT
REMARK Flexibility Score: 70.00
ROOT
ATOM      1  C   UNL     1      81.506  38.887  28.702  1.00  0.00     0.136 C 
ATOM      2  O   UNL     1      81.656  40.023  29.125  1.00  0.00    -0.299 OA
ENDROOT
BRANCH   1   3
ATOM      3  C   UNL     1      80.547  38.666  27.542  1.00  0.00     0.053 C 
ATOM      4  C   UNL     1      79.092  38.884  27.977  1.00  0.00     0.016 C 
BRANCH   3   5
ATOM      5  C   UNL     1      80.906  39.552  26.331  1.00  0.00     0.015 C 
BRANCH   5   6
ATOM      6  C   UNL     1      81.969  38.878  25.446  1.00  0.00     0.028 C 
BRANCH   6   7
ATOM      7  C   UNL     1      81.700  37.421  25.163  1.00  0.00    -0.028 C 
ATOM      8  C   UNL     1      82.400  36.360  25.640  1.00  0.00    -0.070 CG0
ATOM      9  C   UNL     1      81.838  34.987  25.358  1.00  0.00     0.039 C 
ATOM     10  G   UNL     1      83.761  36.447  26.327  1.00  0.00     0.000 G0
ENDBRANCH   6   7
ENDBRANCH   5   6
ENDBRANCH   3   5
ENDBRANCH   1   3
BRANCH   1  11
ATOM     11  C   UNL     1      82.301  37.752  29.318  1.00  0.00     0.087 C 
BRANCH  11  12
ATOM     12  C   UNL     1      83.712  37.502  28.710  1.00  0.00     0.066 C 
BRANCH  12  13
ATOM     13  C   UNL     1      83.784  36.265  27.821  1.00  0.00     0.140 C 
ATOM     14  O   UNL     1      83.962  35.158  28.305  1.00  0.00    -0.299 OA
BRANCH  13  15
ATOM     15  C   UNL     1      83.762  36.436  26.322  1.00  0.00     0.106 CG0
ATOM     16  G   UNL     1      82.389  36.362  25.659  1.00  0.00     0.000 G0
ENDBRANCH  13  15
ENDBRANCH  12  13
BRANCH  12  17
ATOM     17  C   UNL     1      84.889  37.661  29.728  1.00  0.00    -0.006 C 
ATOM     18  C   UNL     1      84.605  38.770  30.755  1.00  0.00     0.008 C 
ATOM     19  C   UNL     1      86.271  37.863  29.089  1.00  0.00     0.008 C 
ENDBRANCH  12  17
ENDBRANCH  11  12
ENDBRANCH   1  11
TORSDOF 1
ENDMDL
MODEL 7
REMARK VINA RESULT:    -2.930      3.860      5.645
REMARK INTER + INTRA:          -4.663
REMARK INTER:                  -4.537
REMARK INTRA:                  -0.126
REMARK UNBOUND:                -0.191
REMARK SMILES CC1=CCC[C@H](C)C(=O)C[C@@H](C(C)C)C(=O)C1
REMARK SMILES IDX 8 1 9 2 6 3 7 4 5 5 4 6 3 7 2 8 1 9 10 11 11 12 15 13 16 14
REMARK SMILES IDX 17 15 12 17 13 18 14 19
REMARK H PARENT
REMARK Flexibility Score: 70.00
ROOT
ATOM      1  C   UNL     1      85.723  32.916  29.281  1.00  0.00     0.136 C 
ATOM      2  O   UNL     1      84.823  32.093  29.318  1.00  0.00    -0.299 OA
ENDROOT
BRANCH   1   3
ATOM      3  C   UNL     1      86.335  33.260  27.931  1.00  0.00     0.053 C 
ATOM      4  C   UNL     1      86.661  31.992  27.131  1.00  0.00     0.016 C 
BRANCH   3   5
ATOM      5  C   UNL     1      85.430  34.212  27.122  1.00  0.00     0.015 C 
BRANCH   5   6
ATOM      6  C   UNL     1      85.717  35.683  27.474  1.00  0.00     0.028 C 
BRANCH   6   7
ATOM      7  C   UNL     1      84.482  36.497  27.769  1.00  0.00    -0.028 C 
ATOM      8  C   UNL     1      84.061  36.917  28.989  1.00  0.00    -0.070 CG0
ATOM      9  C   UNL     1      82.887  37.866  29.018  1.00  0.00     0.039 C 
ATOM     10  G   UNL     1      84.604  36.412  30.324  1.00  0.00     0.000 G0
ENDBRANCH   6   7
ENDBRANCH   5   6
ENDBRANCH   3   5
ENDBRANCH   1   3
BRANCH   1  11
ATOM     11  C   UNL     1      86.173  33.589  30.563  1.00  0.00     0.087 C 
BRANCH  11  12
ATOM     12  C   UNL     1      85.037  34.109  31.493  1.00  0.00     0.066 C 
BRANCH  12  13
ATOM     13  C   UNL     1      84.076  35.072  30.804  1.00  0.00     0.140 C 
ATOM     14  O   UNL     1      82.935  34.728  30.535  1.00  0.00    -0.299 OA
BRANCH  13  15
ATOM     15  C   UNL     1      84.588  36.413  30.339  1.00  0.00     0.106 CG0
ATOM     16  G   UNL     1      84.049  36.907  28.998  1.00  0.00     0.000 G0
ENDBRANCH  13  15
ENDBRANCH  12  13
BRANCH  12  17
ATOM     17  C   UNL     1      85.520  34.550  32.913  1.00  0.00    -0.006 C 
ATOM     18  C   UNL     1      86.725  33.719  33.387  1.00  0.00     0.008 C 
ATOM     19  C   UNL     1      84.424  34.567  33.990  1.00  0.00     0.008 C 
ENDBRANCH  12  17
ENDBRANCH  11  12
ENDBRANCH   1  11
TORSDOF 1
ENDMDL
MODEL 8
REMARK VINA RESULT:    -2.919      2.592      3.817
REMARK INTER + INTRA:          -4.646
REMARK INTER:                  -4.187
REMARK INTRA:                  -0.459
REMARK UNBOUND:                -0.191
REMARK SMILES CC1=CCC[C@H](C)C(=O)C[C@@H](C(C)C)C(=O)C1
REMARK SMILES IDX 8 1 9 2 6 3 7 4 5 5 4 6 3 7 2 8 1 9 10 11 11 12 15 13 16 14
REMARK SMILES IDX 17 15 12 17 13 18 14 19
REMARK H PARENT
REMARK Flexibility Score: 70.00
ROOT
ATOM      1  C   UNL     1      84.749  36.110  24.870  1.00  0.00     0.136 C 
ATOM      2  O   UNL     1      83.694  35.706  24.408  1.00  0.00    -0.299 OA
ENDROOT
BRANCH   1   3
ATOM      3  C   UNL     1      85.988  36.072  23.989  1.00  0.00     0.053 C 
ATOM      4  C   UNL     1      87.212  36.627  24.728  1.00  0.00     0.016 C 
BRANCH   3   5
ATOM      5  C   UNL     1      86.259  34.652  23.449  1.00  0.00     0.015 C 
BRANCH   5   6
ATOM      6  C   UNL     1      86.503  33.659  24.599  1.00  0.00     0.028 C 
BRANCH   6   7
ATOM      7  C   UNL     1      85.423  32.617  24.751  1.00  0.00    -0.028 C 
ATOM      8  C   UNL     1      84.621  32.434  25.831  1.00  0.00    -0.070 CG0
ATOM      9  C   UNL     1      83.495  31.438  25.686  1.00  0.00     0.039 C 
ATOM     10  G   UNL     1      84.845  33.064  27.204  1.00  0.00     0.000 G0
ENDBRANCH   6   7
ENDBRANCH   5   6
ENDBRANCH   3   5
ENDBRANCH   1   3
BRANCH   1  11
ATOM     11  C   UNL     1      84.782  36.665  26.281  1.00  0.00     0.087 C 
BRANCH  11  12
ATOM     12  C   UNL     1      85.140  35.648  27.404  1.00  0.00     0.066 C 
BRANCH  12  13
ATOM     13  C   UNL     1      84.234  34.422  27.430  1.00  0.00     0.140 C 
ATOM     14  O   UNL     1      83.053  34.525  27.723  1.00  0.00    -0.299 OA
BRANCH  13  15
ATOM     15  C   UNL     1      84.839  33.056  27.216  1.00  0.00     0.106 CG0
ATOM     16  G   UNL     1      84.619  32.434  25.839  1.00  0.00     0.000 G0
ENDBRANCH  13  15
ENDBRANCH  12  13
BRANCH  12  17
ATOM     17  C   UNL     1      85.421  36.300  28.798  1.00  0.00    -0.006 C 
ATOM     18  C   UNL     1      86.524  37.368  28.713  1.00  0.00     0.008 C 
ATOM     19  C   UNL     1      85.726  35.303  29.926  1.00  0.00     0.008 C 
ENDBRANCH  12  17
ENDBRANCH  11  12
ENDBRANCH   1  11
TORSDOF 1
ENDMDL
MODEL 9
REMARK VINA RESULT:    -2.810      1.962      2.703
REMARK INTER + INTRA:          -4.480
REMARK INTER:                  -4.419
REMARK INTRA:                  -0.060
REMARK UNBOUND:                -0.191
REMARK SMILES CC1=CCC[C@H](C)C(=O)C[C@@H](C(C)C)C(=O)C1
REMARK SMILES IDX 8 1 9 2 6 3 7 4 5 5 4 6 3 7 2 8 1 9 10 11 11 12 15 13 16 14
REMARK SMILES IDX 17 15 12 17 13 18 14 19
REMARK H PARENT
REMARK Flexibility Score: 70.00
ROOT
ATOM      1  C   UNL     1      86.457  35.983  24.829  1.00  0.00     0.136 C 
ATOM      2  O   UNL     1      87.560  36.470  24.638  1.00  0.00    -0.299 OA
ENDROOT
BRANCH   1   3
ATOM      3  C   UNL     1      85.952  34.929  23.856  1.00  0.00     0.053 C 
ATOM      4  C   UNL     1      87.051  34.511  22.872  1.00  0.00     0.016 C 
BRANCH   3   5
ATOM      5  C   UNL     1      85.369  33.705  24.594  1.00  0.00     0.015 C 
BRANCH   5   6
ATOM      6  C   UNL     1      83.837  33.800  24.703  1.00  0.00     0.028 C 
BRANCH   6   7
ATOM      7  C   UNL     1      83.261  33.086  25.900  1.00  0.00    -0.028 C 
ATOM      8  C   UNL     1      83.095  33.598  27.146  1.00  0.00    -0.070 CG0
ATOM      9  C   UNL     1      82.337  32.750  28.139  1.00  0.00     0.039 C 
ATOM     10  G   UNL     1      83.716  34.900  27.647  1.00  0.00     0.000 G0
ENDBRANCH   6   7
ENDBRANCH   5   6
ENDBRANCH   3   5
ENDBRANCH   1   3
BRANCH   1  11
ATOM     11  C   UNL     1      85.650  36.414  26.039  1.00  0.00     0.087 C 
BRANCH  11  12
ATOM     12  C   UNL     1      86.134  35.861  27.412  1.00  0.00     0.066 C 
BRANCH  12  13
ATOM     13  C   UNL     1      85.169  34.863  28.042  1.00  0.00     0.140 C 
ATOM     14  O   UNL     1      85.580  33.969  28.766  1.00  0.00    -0.299 OA
BRANCH  13  15
ATOM     15  C   UNL     1      83.710  34.908  27.658  1.00  0.00     0.106 CG0
ATOM     16  G   UNL     1      83.110  33.599  27.151  1.00  0.00     0.000 G0
ENDBRANCH  13  15
ENDBRANCH  12  13
BRANCH  12  17
ATOM     17  C   UNL     1      86.696  36.950  28.383  1.00  0.00    -0.006 C 
ATOM     18  C   UNL     1      85.568  37.673  29.139  1.00  0.00     0.008 C 
ATOM     19  C   UNL     1      87.642  37.969  27.730  1.00  0.00     0.008 C 
ENDBRANCH  12  17
ENDBRANCH  11  12
ENDBRANCH   1  11
TORSDOF 1
ENDMDL
