MODEL 1
REMARK VINA RESULT:    -3.908      0.000      0.000
REMARK INTER + INTRA:          -5.919
REMARK INTER:                  -5.279
REMARK INTRA:                  -0.641
REMARK UNBOUND:                -0.641
REMARK SMILES CCCCCCCC(=O)[O-]
REMARK SMILES IDX 5 1 6 2 7 3 8 4 9 5 10 6 4 7 3 8 2 9 1 10
REMARK H PARENT
REMARK Flexibility Score: inf
ROOT
ATOM      1  C   UNL     1      19.679  18.183  -4.608  1.00  0.00     0.000 C 
ENDROOT
BRANCH   1   2
ATOM      2  C   UNL     1      20.704  19.013  -5.398  1.00  0.00     0.006 C 
BRANCH   2   3
ATOM      3  C   UNL     1      20.380  20.512  -5.396  1.00  0.00     0.053 C 
BRANCH   3   4
ATOM      4  C   UNL     1      19.185  20.787  -6.255  1.00  0.00     0.041 C 
ATOM      5  O   UNL     1      18.077  21.070  -5.727  1.00  0.00    -0.550 OA
ATOM      6  O   UNL     1      19.306  20.778  -7.638  1.00  0.00    -0.550 OA
ENDBRANCH   3   4
ENDBRANCH   2   3
ENDBRANCH   1   2
BRANCH   1   7
ATOM      7  C   UNL     1      19.039  17.072  -5.458  1.00  0.00     0.000 C 
BRANCH   7   8
ATOM      8  C   UNL     1      19.668  16.950  -6.858  1.00  0.00    -0.000 C 
BRANCH   8   9
ATOM      9  C   UNL     1      18.687  17.128  -8.030  1.00  0.00    -0.003 C 
ATOM     10  C   UNL     1      17.381  17.808  -7.619  1.00  0.00     0.004 C 
ENDBRANCH   8   9
ENDBRANCH   7   8
ENDBRANCH   1   7
TORSDOF 6
ENDMDL
MODEL 2
REMARK VINA RESULT:    -3.759      1.828      3.736
REMARK INTER + INTRA:          -5.718
REMARK INTER:                  -5.211
REMARK INTRA:                  -0.507
REMARK UNBOUND:                -0.641
REMARK SMILES CCCCCCCC(=O)[O-]
REMARK SMILES IDX 5 1 6 2 7 3 8 4 9 5 10 6 4 7 3 8 2 9 1 10
REMARK H PARENT
REMARK Flexibility Score: inf
ROOT
ATOM      1  C   UNL     1      20.570  18.697  -5.350  1.00  0.00     0.000 C 
ENDROOT
BRANCH   1   2
ATOM      2  C   UNL     1      19.275  17.926  -5.051  1.00  0.00     0.006 C 
BRANCH   2   3
ATOM      3  C   UNL     1      19.053  16.746  -6.006  1.00  0.00     0.053 C 
BRANCH   3   4
ATOM      4  C   UNL     1      18.637  17.240  -7.356  1.00  0.00     0.041 C 
ATOM      5  O   UNL     1      19.395  17.083  -8.350  1.00  0.00    -0.550 OA
ATOM      6  O   UNL     1      17.391  17.830  -7.526  1.00  0.00    -0.550 OA
ENDBRANCH   3   4
ENDBRANCH   2   3
ENDBRANCH   1   2
BRANCH   1   7
ATOM      7  C   UNL     1      20.336  20.211  -5.493  1.00  0.00     0.000 C 
BRANCH   7   8
ATOM      8  C   UNL     1      18.850  20.574  -5.661  1.00  0.00    -0.000 C 
BRANCH   8   9
ATOM      9  C   UNL     1      18.487  21.216  -7.012  1.00  0.00    -0.003 C 
ATOM     10  C   UNL     1      19.637  22.015  -7.624  1.00  0.00     0.004 C 
ENDBRANCH   8   9
ENDBRANCH   7   8
ENDBRANCH   1   7
TORSDOF 6
ENDMDL
MODEL 3
REMARK VINA RESULT:    -3.740      0.941      1.719
REMARK INTER + INTRA:          -5.693
REMARK INTER:                  -5.182
REMARK INTRA:                  -0.511
REMARK UNBOUND:                -0.641
REMARK SMILES CCCCCCCC(=O)[O-]
REMARK SMILES IDX 5 1 6 2 7 3 8 4 9 5 10 6 4 7 3 8 2 9 1 10
REMARK H PARENT
REMARK Flexibility Score: inf
ROOT
ATOM      1  C   UNL     1      21.033  19.474  -5.887  1.00  0.00     0.000 C 
ENDROOT
BRANCH   1   2
ATOM      2  C   UNL     1      20.706  20.974  -5.816  1.00  0.00     0.006 C 
BRANCH   2   3
ATOM      3  C   UNL     1      19.762  21.427  -6.937  1.00  0.00     0.053 C 
BRANCH   3   4
ATOM      4  C   UNL     1      18.372  20.938  -6.677  1.00  0.00     0.041 C 
ATOM      5  O   UNL     1      17.760  21.294  -5.635  1.00  0.00    -0.550 OA
ATOM      6  O   UNL     1      17.735  20.128  -7.608  1.00  0.00    -0.550 OA
ENDBRANCH   3   4
ENDBRANCH   2   3
ENDBRANCH   1   2
BRANCH   1   7
ATOM      7  C   UNL     1      20.372  18.671  -4.753  1.00  0.00     0.000 C 
BRANCH   7   8
ATOM      8  C   UNL     1      19.334  17.656  -5.264  1.00  0.00    -0.000 C 
BRANCH   8   9
ATOM      9  C   UNL     1      19.638  17.056  -6.648  1.00  0.00    -0.003 C 
ATOM     10  C   UNL     1      18.379  16.773  -7.468  1.00  0.00     0.004 C 
ENDBRANCH   8   9
ENDBRANCH   7   8
ENDBRANCH   1   7
TORSDOF 6
ENDMDL
MODEL 4
REMARK VINA RESULT:    -3.698      2.270      3.932
REMARK INTER + INTRA:          -5.636
REMARK INTER:                  -5.043
REMARK INTRA:                  -0.593
REMARK UNBOUND:                -0.641
REMARK SMILES CCCCCCCC(=O)[O-]
REMARK SMILES IDX 5 1 6 2 7 3 8 4 9 5 10 6 4 7 3 8 2 9 1 10
REMARK H PARENT
REMARK Flexibility Score: inf
ROOT
ATOM      1  C   UNL     1      21.948  17.879  -7.596  1.00  0.00     0.000 C 
ENDROOT
BRANCH   1   2
ATOM      2  C   UNL     1      20.891  16.763  -7.616  1.00  0.00     0.006 C 
BRANCH   2   3
ATOM      3  C   UNL     1      19.645  17.141  -8.427  1.00  0.00     0.053 C 
BRANCH   3   4
ATOM      4  C   UNL     1      18.413  16.984  -7.592  1.00  0.00     0.041 C 
ATOM      5  O   UNL     1      18.453  16.321  -6.522  1.00  0.00    -0.550 OA
ATOM      6  O   UNL     1      17.232  17.609  -7.971  1.00  0.00    -0.550 OA
ENDBRANCH   3   4
ENDBRANCH   2   3
ENDBRANCH   1   2
BRANCH   1   7
ATOM      7  C   UNL     1      21.990  18.628  -6.253  1.00  0.00     0.000 C 
BRANCH   7   8
ATOM      8  C   UNL     1      20.960  19.769  -6.170  1.00  0.00    -0.000 C 
BRANCH   8   9
ATOM      9  C   UNL     1      19.751  19.489  -5.260  1.00  0.00    -0.003 C 
ATOM     10  C   UNL     1      20.004  18.363  -4.258  1.00  0.00     0.004 C 
ENDBRANCH   8   9
ENDBRANCH   7   8
ENDBRANCH   1   7
TORSDOF 6
ENDMDL
MODEL 5
REMARK VINA RESULT:    -3.651      9.478     10.537
REMARK INTER + INTRA:          -5.572
REMARK INTER:                  -5.236
REMARK INTRA:                  -0.335
REMARK UNBOUND:                -0.641
REMARK SMILES CCCCCCCC(=O)[O-]
REMARK SMILES IDX 5 1 6 2 7 3 8 4 9 5 10 6 4 7 3 8 2 9 1 10
REMARK H PARENT
REMARK Flexibility Score: inf
ROOT
ATOM      1  C   UNL     1      26.545  15.477  -9.927  1.00  0.00     0.000 C 
ENDROOT
BRANCH   1   2
ATOM      2  C   UNL     1      27.951  15.599 -10.536  1.00  0.00     0.006 C 
BRANCH   2   3
ATOM      3  C   UNL     1      28.973  14.681  -9.853  1.00  0.00     0.053 C 
BRANCH   3   4
ATOM      4  C   UNL     1      28.821  13.276 -10.343  1.00  0.00     0.041 C 
ATOM      5  O   UNL     1      29.230  12.957 -11.491  1.00  0.00    -0.550 OA
ATOM      6  O   UNL     1      28.270  12.307  -9.515  1.00  0.00    -0.550 OA
ENDBRANCH   3   4
ENDBRANCH   2   3
ENDBRANCH   1   2
BRANCH   1   7
ATOM      7  C   UNL     1      25.456  16.078 -10.832  1.00  0.00     0.000 C 
BRANCH   7   8
ATOM      8  C   UNL     1      24.891  17.404 -10.291  1.00  0.00    -0.000 C 
BRANCH   8   9
ATOM      9  C   UNL     1      25.269  18.653 -11.107  1.00  0.00    -0.003 C 
ATOM     10  C   UNL     1      26.114  18.330 -12.340  1.00  0.00     0.004 C 
ENDBRANCH   8   9
ENDBRANCH   7   8
ENDBRANCH   1   7
TORSDOF 6
ENDMDL
MODEL 6
REMARK VINA RESULT:    -3.616      1.028      2.768
REMARK INTER + INTRA:          -5.525
REMARK INTER:                  -4.918
REMARK INTRA:                  -0.606
REMARK UNBOUND:                -0.641
REMARK SMILES CCCCCCCC(=O)[O-]
REMARK SMILES IDX 5 1 6 2 7 3 8 4 9 5 10 6 4 7 3 8 2 9 1 10
REMARK H PARENT
REMARK Flexibility Score: inf
ROOT
ATOM      1  C   UNL     1      18.243  17.589  -7.590  1.00  0.00     0.000 C 
ENDROOT
BRANCH   1   2
ATOM      2  C   UNL     1      17.750  18.997  -7.220  1.00  0.00     0.006 C 
BRANCH   2   3
ATOM      3  C   UNL     1      18.645  20.106  -7.788  1.00  0.00     0.053 C 
BRANCH   3   4
ATOM      4  C   UNL     1      18.805  21.209  -6.790  1.00  0.00     0.041 C 
ATOM      5  O   UNL     1      18.171  21.176  -5.702  1.00  0.00    -0.550 OA
ATOM      6  O   UNL     1      19.690  22.249  -7.040  1.00  0.00    -0.550 OA
ENDBRANCH   3   4
ENDBRANCH   2   3
ENDBRANCH   1   2
BRANCH   1   7
ATOM      7  C   UNL     1      19.355  17.087  -6.654  1.00  0.00     0.000 C 
BRANCH   7   8
ATOM      8  C   UNL     1      19.182  17.574  -5.203  1.00  0.00    -0.000 C 
BRANCH   8   9
ATOM      9  C   UNL     1      20.292  18.511  -4.695  1.00  0.00    -0.003 C 
ATOM     10  C   UNL     1      21.392  18.752  -5.728  1.00  0.00     0.004 C 
ENDBRANCH   8   9
ENDBRANCH   7   8
ENDBRANCH   1   7
TORSDOF 6
ENDMDL
MODEL 7
REMARK VINA RESULT:    -3.547      1.652      2.118
REMARK INTER + INTRA:          -5.432
REMARK INTER:                  -4.989
REMARK INTRA:                  -0.443
REMARK UNBOUND:                -0.641
REMARK SMILES CCCCCCCC(=O)[O-]
REMARK SMILES IDX 5 1 6 2 7 3 8 4 9 5 10 6 4 7 3 8 2 9 1 10
REMARK H PARENT
REMARK Flexibility Score: inf
ROOT
ATOM      1  C   UNL     1      20.969  17.913  -7.017  1.00  0.00     0.000 C 
ENDROOT
BRANCH   1   2
ATOM      2  C   UNL     1      21.799  18.917  -6.202  1.00  0.00     0.006 C 
BRANCH   2   3
ATOM      3  C   UNL     1      20.938  20.004  -5.547  1.00  0.00     0.053 C 
BRANCH   3   4
ATOM      4  C   UNL     1      21.169  21.324  -6.213  1.00  0.00     0.041 C 
ATOM      5  O   UNL     1      20.432  21.692  -7.165  1.00  0.00    -0.550 OA
ATOM      6  O   UNL     1      22.169  22.170  -5.750  1.00  0.00    -0.550 OA
ENDBRANCH   3   4
ENDBRANCH   2   3
ENDBRANCH   1   2
BRANCH   1   7
ATOM      7  C   UNL     1      19.598  17.626  -6.380  1.00  0.00     0.000 C 
BRANCH   7   8
ATOM      8  C   UNL     1      18.558  17.123  -7.397  1.00  0.00    -0.000 C 
BRANCH   8   9
ATOM      9  C   UNL     1      17.337  18.041  -7.588  1.00  0.00    -0.003 C 
ATOM     10  C   UNL     1      17.641  19.509  -7.291  1.00  0.00     0.004 C 
ENDBRANCH   8   9
ENDBRANCH   7   8
ENDBRANCH   1   7
TORSDOF 6
ENDMDL
MODEL 8
REMARK VINA RESULT:    -3.517      1.451      3.438
REMARK INTER + INTRA:          -5.391
REMARK INTER:                  -4.952
REMARK INTRA:                  -0.439
REMARK UNBOUND:                -0.641
REMARK SMILES CCCCCCCC(=O)[O-]
REMARK SMILES IDX 5 1 6 2 7 3 8 4 9 5 10 6 4 7 3 8 2 9 1 10
REMARK H PARENT
REMARK Flexibility Score: inf
ROOT
ATOM      1  C   UNL     1      19.866  18.384  -6.160  1.00  0.00     0.000 C 
ENDROOT
BRANCH   1   2
ATOM      2  C   UNL     1      19.057  18.462  -7.464  1.00  0.00     0.006 C 
BRANCH   2   3
ATOM      3  C   UNL     1      17.766  19.275  -7.313  1.00  0.00     0.053 C 
BRANCH   3   4
ATOM      4  C   UNL     1      18.082  20.690  -6.941  1.00  0.00     0.041 C 
ATOM      5  O   UNL     1      17.661  21.169  -5.855  1.00  0.00    -0.550 OA
ATOM      6  O   UNL     1      18.881  21.465  -7.772  1.00  0.00    -0.550 OA
ENDBRANCH   3   4
ENDBRANCH   2   3
ENDBRANCH   1   2
BRANCH   1   7
ATOM      7  C   UNL     1      21.380  18.272  -6.409  1.00  0.00     0.000 C 
BRANCH   7   8
ATOM      8  C   UNL     1      22.090  19.638  -6.401  1.00  0.00    -0.000 C 
BRANCH   8   9
ATOM      9  C   UNL     1      21.422  20.714  -5.526  1.00  0.00    -0.003 C 
ATOM     10  C   UNL     1      22.249  21.994  -5.416  1.00  0.00     0.004 C 
ENDBRANCH   8   9
ENDBRANCH   7   8
ENDBRANCH   1   7
TORSDOF 6
ENDMDL
MODEL 9
REMARK VINA RESULT:    -3.508      8.684      9.721
REMARK INTER + INTRA:          -5.379
REMARK INTER:                  -5.007
REMARK INTRA:                  -0.372
REMARK UNBOUND:                -0.641
REMARK SMILES CCCCCCCC(=O)[O-]
REMARK SMILES IDX 5 1 6 2 7 3 8 4 9 5 10 6 4 7 3 8 2 9 1 10
REMARK H PARENT
REMARK Flexibility Score: inf
ROOT
ATOM      1  C   UNL     1      25.541  14.664  -9.786  1.00  0.00     0.000 C 
ENDROOT
BRANCH   1   2
ATOM      2  C   UNL     1      26.696  13.936  -9.080  1.00  0.00     0.006 C 
BRANCH   2   3
ATOM      3  C   UNL     1      27.916  14.838  -8.856  1.00  0.00     0.053 C 
BRANCH   3   4
ATOM      4  C   UNL     1      28.756  14.894 -10.094  1.00  0.00     0.041 C 
ATOM      5  O   UNL     1      29.012  16.002 -10.635  1.00  0.00    -0.550 OA
ATOM      6  O   UNL     1      29.295  13.729 -10.621  1.00  0.00    -0.550 OA
ENDBRANCH   3   4
ENDBRANCH   2   3
ENDBRANCH   1   2
BRANCH   1   7
ATOM      7  C   UNL     1      25.172  15.991  -9.099  1.00  0.00     0.000 C 
BRANCH   7   8
ATOM      8  C   UNL     1      24.607  17.035 -10.078  1.00  0.00    -0.000 C 
BRANCH   8   9
ATOM      9  C   UNL     1      25.587  17.500 -11.171  1.00  0.00    -0.003 C 
ATOM     10  C   UNL     1      25.496  18.998 -11.459  1.00  0.00     0.004 C 
ENDBRANCH   8   9
ENDBRANCH   7   8
ENDBRANCH   1   7
TORSDOF 6
ENDMDL
