MODEL 1
REMARK VINA RESULT:    -4.455      0.000      0.000
REMARK INTER + INTRA:          -7.074
REMARK INTER:                  -6.798
REMARK INTRA:                  -0.276
REMARK UNBOUND:                -0.276
REMARK SMILES CC1=CCC[C@@H](C)C(=O)C[C@H](C(C)C)C(=O)C1
REMARK SMILES IDX 8 1 9 2 6 3 7 4 5 5 4 6 3 7 2 8 1 9 10 11 11 12 15 13 16 14
REMARK SMILES IDX 17 15 12 17 13 18 14 19
REMARK H PARENT
REMARK Flexibility Score: 70.00
ROOT
ATOM      1  C   UNL     1     122.310 176.925 129.804  1.00  0.00     0.136 C 
ATOM      2  O   UNL     1     121.996 176.527 130.919  1.00  0.00    -0.299 OA
ENDROOT
BRANCH   1   3
ATOM      3  C   UNL     1     123.519 177.831 129.626  1.00  0.00     0.053 C 
ATOM      4  C   UNL     1     123.385 179.146 130.411  1.00  0.00     0.016 C 
BRANCH   3   5
ATOM      5  C   UNL     1     123.829 178.099 128.136  1.00  0.00     0.015 C 
BRANCH   5   6
ATOM      6  C   UNL     1     123.162 179.381 127.599  1.00  0.00     0.028 C 
BRANCH   6   7
ATOM      7  C   UNL     1     122.523 179.195 126.246  1.00  0.00    -0.028 C 
ATOM      8  C   UNL     1     121.190 179.143 125.992  1.00  0.00    -0.070 CG0
ATOM      9  C   UNL     1     120.768 179.079 124.544  1.00  0.00     0.039 C 
ATOM     10  G   UNL     1     120.107 179.069 127.065  1.00  0.00     0.000 G0
ENDBRANCH   6   7
ENDBRANCH   5   6
ENDBRANCH   3   5
ENDBRANCH   1   3
BRANCH   1  11
ATOM     11  C   UNL     1     121.490 176.482 128.616  1.00  0.00     0.087 C 
BRANCH  11  12
ATOM     12  C   UNL     1     120.014 176.969 128.679  1.00  0.00     0.066 C 
BRANCH  12  13
ATOM     13  C   UNL     1     119.598 177.663 127.386  1.00  0.00     0.140 C 
ATOM     14  O   UNL     1     118.972 177.029 126.549  1.00  0.00    -0.299 OA
BRANCH  13  15
ATOM     15  C   UNL     1     120.078 179.057 127.054  1.00  0.00     0.106 CG0
ATOM     16  G   UNL     1     121.180 179.124 126.000  1.00  0.00     0.000 G0
ENDBRANCH  13  15
ENDBRANCH  12  13
BRANCH  12  17
ATOM     17  C   UNL     1     119.017 175.816 129.028  1.00  0.00    -0.006 C 
ATOM     18  C   UNL     1     119.639 174.421 128.830  1.00  0.00     0.008 C 
ATOM     19  C   UNL     1     118.518 175.932 130.480  1.00  0.00     0.008 C 
ENDBRANCH  12  17
ENDBRANCH  11  12
ENDBRANCH   1  11
TORSDOF 1
ENDMDL
MODEL 2
REMARK VINA RESULT:    -4.444      1.358      3.781
REMARK INTER + INTRA:          -7.058
REMARK INTER:                  -6.904
REMARK INTRA:                  -0.154
REMARK UNBOUND:                -0.276
REMARK SMILES CC1=CCC[C@@H](C)C(=O)C[C@H](C(C)C)C(=O)C1
REMARK SMILES IDX 8 1 9 2 6 3 7 4 5 5 4 6 3 7 2 8 1 9 10 11 11 12 15 13 16 14
REMARK SMILES IDX 17 15 12 17 13 18 14 19
REMARK H PARENT
REMARK Flexibility Score: 70.00
ROOT
ATOM      1  C   UNL     1     119.268 177.904 126.761  1.00  0.00     0.136 C 
ATOM      2  O   UNL     1     118.790 176.983 126.112  1.00  0.00    -0.299 OA
ENDROOT
BRANCH   1   3
ATOM      3  C   UNL     1     119.587 179.231 126.088  1.00  0.00     0.053 C 
ATOM      4  C   UNL     1     118.323 180.056 125.794  1.00  0.00     0.016 C 
BRANCH   3   5
ATOM      5  C   UNL     1     120.441 179.046 124.814  1.00  0.00     0.015 C 
BRANCH   5   6
ATOM      6  C   UNL     1     121.774 178.318 125.077  1.00  0.00     0.028 C 
BRANCH   6   7
ATOM      7  C   UNL     1     122.557 178.909 126.222  1.00  0.00    -0.028 C 
ATOM      8  C   UNL     1     123.033 178.231 127.299  1.00  0.00    -0.070 CG0
ATOM      9  C   UNL     1     123.903 178.999 128.264  1.00  0.00     0.039 C 
ATOM     10  G   UNL     1     122.686 176.783 127.632  1.00  0.00     0.000 G0
ENDBRANCH   6   7
ENDBRANCH   5   6
ENDBRANCH   3   5
ENDBRANCH   1   3
BRANCH   1  11
ATOM     11  C   UNL     1     119.512 177.705 128.238  1.00  0.00     0.087 C 
BRANCH  11  12
ATOM     12  C   UNL     1     120.235 176.367 128.562  1.00  0.00     0.066 C 
BRANCH  12  13
ATOM     13  C   UNL     1     121.728 176.579 128.793  1.00  0.00     0.140 C 
ATOM     14  O   UNL     1     122.134 176.730 129.937  1.00  0.00    -0.299 OA
BRANCH  13  15
ATOM     15  C   UNL     1     122.683 176.765 127.637  1.00  0.00     0.106 CG0
ATOM     16  G   UNL     1     123.018 178.217 127.306  1.00  0.00     0.000 G0
ENDBRANCH  13  15
ENDBRANCH  12  13
BRANCH  12  17
ATOM     17  C   UNL     1     119.592 175.617 129.773  1.00  0.00    -0.006 C 
ATOM     18  C   UNL     1     118.118 176.005 129.991  1.00  0.00     0.008 C 
ATOM     19  C   UNL     1     119.680 174.090 129.593  1.00  0.00     0.008 C 
ENDBRANCH  12  17
ENDBRANCH  11  12
ENDBRANCH   1  11
TORSDOF 1
ENDMDL
MODEL 3
REMARK VINA RESULT:    -4.406      2.121      2.916
REMARK INTER + INTRA:          -7.001
REMARK INTER:                  -7.192
REMARK INTRA:                   0.192
REMARK UNBOUND:                -0.276
REMARK SMILES CC1=CCC[C@@H](C)C(=O)C[C@H](C(C)C)C(=O)C1
REMARK SMILES IDX 8 1 9 2 6 3 7 4 5 5 4 6 3 7 2 8 1 9 10 11 11 12 15 13 16 14
REMARK SMILES IDX 17 15 12 17 13 18 14 19
REMARK H PARENT
REMARK Flexibility Score: 70.00
ROOT
ATOM      1  C   UNL     1     122.186 178.291 129.984  1.00  0.00     0.136 C 
ATOM      2  O   UNL     1     122.262 179.211 130.788  1.00  0.00    -0.299 OA
ENDROOT
BRANCH   1   3
ATOM      3  C   UNL     1     122.482 178.535 128.511  1.00  0.00     0.053 C 
ATOM      4  C   UNL     1     123.772 179.343 128.301  1.00  0.00     0.016 C 
BRANCH   3   5
ATOM      5  C   UNL     1     121.289 179.189 127.779  1.00  0.00     0.015 C 
BRANCH   5   6
ATOM      6  C   UNL     1     120.534 178.213 126.856  1.00  0.00     0.028 C 
BRANCH   6   7
ATOM      7  C   UNL     1     121.449 177.287 126.094  1.00  0.00    -0.028 C 
ATOM      8  C   UNL     1     121.481 175.933 126.196  1.00  0.00    -0.070 CG0
ATOM      9  C   UNL     1     122.390 175.194 125.244  1.00  0.00     0.039 C 
ATOM     10  G   UNL     1     120.724 175.126 127.247  1.00  0.00     0.000 G0
ENDBRANCH   6   7
ENDBRANCH   5   6
ENDBRANCH   3   5
ENDBRANCH   1   3
BRANCH   1  11
ATOM     11  C   UNL     1     121.816 176.915 130.483  1.00  0.00     0.087 C 
BRANCH  11  12
ATOM     12  C   UNL     1     120.692 176.244 129.644  1.00  0.00     0.066 C 
BRANCH  12  13
ATOM     13  C   UNL     1     121.259 175.224 128.662  1.00  0.00     0.140 C 
ATOM     14  O   UNL     1     122.247 174.578 128.983  1.00  0.00    -0.299 OA
BRANCH  13  15
ATOM     15  C   UNL     1     120.726 175.111 127.252  1.00  0.00     0.106 CG0
ATOM     16  G   UNL     1     121.493 175.918 126.208  1.00  0.00     0.000 G0
ENDBRANCH  13  15
ENDBRANCH  12  13
BRANCH  12  17
ATOM     17  C   UNL     1     119.587 175.591 130.537  1.00  0.00    -0.006 C 
ATOM     18  C   UNL     1     118.165 175.948 130.068  1.00  0.00     0.008 C 
ATOM     19  C   UNL     1     119.727 174.057 130.565  1.00  0.00     0.008 C 
ENDBRANCH  12  17
ENDBRANCH  11  12
ENDBRANCH   1  11
TORSDOF 1
ENDMDL
MODEL 4
REMARK VINA RESULT:    -4.288      1.896      4.163
REMARK INTER + INTRA:          -6.820
REMARK INTER:                  -6.753
REMARK INTRA:                  -0.066
REMARK UNBOUND:                -0.276
REMARK SMILES CC1=CCC[C@@H](C)C(=O)C[C@H](C(C)C)C(=O)C1
REMARK SMILES IDX 8 1 9 2 6 3 7 4 5 5 4 6 3 7 2 8 1 9 10 11 11 12 15 13 16 14
REMARK SMILES IDX 17 15 12 17 13 18 14 19
REMARK H PARENT
REMARK Flexibility Score: 70.00
ROOT
ATOM      1  C   UNL     1     122.809 178.979 128.641  1.00  0.00     0.136 C 
ATOM      2  O   UNL     1     123.942 179.280 128.287  1.00  0.00    -0.299 OA
ENDROOT
BRANCH   1   3
ATOM      3  C   UNL     1     122.549 178.524 130.071  1.00  0.00     0.053 C 
ATOM      4  C   UNL     1     123.092 179.520 131.108  1.00  0.00     0.016 C 
BRANCH   3   5
ATOM      5  C   UNL     1     123.082 177.098 130.333  1.00  0.00     0.015 C 
BRANCH   5   6
ATOM      6  C   UNL     1     122.269 176.004 129.614  1.00  0.00     0.028 C 
BRANCH   6   7
ATOM      7  C   UNL     1     120.827 175.950 130.053  1.00  0.00    -0.028 C 
ATOM      8  C   UNL     1     119.749 175.804 129.240  1.00  0.00    -0.070 CG0
ATOM      9  C   UNL     1     118.403 175.646 129.905  1.00  0.00     0.039 C 
ATOM     10  G   UNL     1     119.800 175.864 127.716  1.00  0.00     0.000 G0
ENDBRANCH   6   7
ENDBRANCH   5   6
ENDBRANCH   3   5
ENDBRANCH   1   3
BRANCH   1  11
ATOM     11  C   UNL     1     121.681 179.088 127.644  1.00  0.00     0.087 C 
BRANCH  11  12
ATOM     12  C   UNL     1     121.423 177.765 126.868  1.00  0.00     0.066 C 
BRANCH  12  13
ATOM     13  C   UNL     1     120.016 177.233 127.120  1.00  0.00     0.140 C 
ATOM     14  O   UNL     1     119.063 177.984 126.969  1.00  0.00    -0.299 OA
BRANCH  13  15
ATOM     15  C   UNL     1     119.789 175.857 127.703  1.00  0.00     0.106 CG0
ATOM     16  G   UNL     1     119.761 175.800 129.227  1.00  0.00     0.000 G0
ENDBRANCH  13  15
ENDBRANCH  12  13
BRANCH  12  17
ATOM     17  C   UNL     1     121.689 177.909 125.334  1.00  0.00    -0.006 C 
ATOM     18  C   UNL     1     121.107 179.212 124.756  1.00  0.00     0.008 C 
ATOM     19  C   UNL     1     123.197 177.861 125.024  1.00  0.00     0.008 C 
ENDBRANCH  12  17
ENDBRANCH  11  12
ENDBRANCH   1  11
TORSDOF 1
ENDMDL
MODEL 5
REMARK VINA RESULT:    -4.288      2.369      3.799
REMARK INTER + INTRA:          -6.820
REMARK INTER:                  -6.621
REMARK INTRA:                  -0.199
REMARK UNBOUND:                -0.276
REMARK SMILES CC1=CCC[C@@H](C)C(=O)C[C@H](C(C)C)C(=O)C1
REMARK SMILES IDX 8 1 9 2 6 3 7 4 5 5 4 6 3 7 2 8 1 9 10 11 11 12 15 13 16 14
REMARK SMILES IDX 17 15 12 17 13 18 14 19
REMARK H PARENT
REMARK Flexibility Score: 70.00
ROOT
ATOM      1  C   UNL     1     120.341 174.002 127.421  1.00  0.00     0.136 C 
ATOM      2  O   UNL     1     119.981 173.093 128.158  1.00  0.00    -0.299 OA
ENDROOT
BRANCH   1   3
ATOM      3  C   UNL     1     121.076 173.693 126.124  1.00  0.00     0.053 C 
ATOM      4  C   UNL     1     121.323 172.187 125.938  1.00  0.00     0.016 C 
BRANCH   3   5
ATOM      5  C   UNL     1     122.390 174.494 125.996  1.00  0.00     0.015 C 
BRANCH   5   6
ATOM      6  C   UNL     1     122.216 175.832 125.251  1.00  0.00     0.028 C 
BRANCH   6   7
ATOM      7  C   UNL     1     123.131 176.917 125.758  1.00  0.00    -0.028 C 
ATOM      8  C   UNL     1     122.877 177.758 126.795  1.00  0.00    -0.070 CG0
ATOM      9  C   UNL     1     123.990 178.687 127.215  1.00  0.00     0.039 C 
ATOM     10  G   UNL     1     121.531 177.874 127.504  1.00  0.00     0.000 G0
ENDBRANCH   6   7
ENDBRANCH   5   6
ENDBRANCH   3   5
ENDBRANCH   1   3
BRANCH   1  11
ATOM     11  C   UNL     1     120.022 175.426 127.811  1.00  0.00     0.087 C 
BRANCH  11  12
ATOM     12  C   UNL     1     120.778 175.891 129.088  1.00  0.00     0.066 C 
BRANCH  12  13
ATOM     13  C   UNL     1     121.449 177.245 128.879  1.00  0.00     0.140 C 
ATOM     14  O   UNL     1     121.815 177.881 129.857  1.00  0.00    -0.299 OA
BRANCH  13  15
ATOM     15  C   UNL     1     121.526 177.881 127.510  1.00  0.00     0.106 CG0
ATOM     16  G   UNL     1     122.881 177.760 126.819  1.00  0.00     0.000 G0
ENDBRANCH  13  15
ENDBRANCH  12  13
BRANCH  12  17
ATOM     17  C   UNL     1     119.857 175.924 130.350  1.00  0.00    -0.006 C 
ATOM     18  C   UNL     1     118.398 176.275 130.005  1.00  0.00     0.008 C 
ATOM     19  C   UNL     1     119.879 174.574 131.091  1.00  0.00     0.008 C 
ENDBRANCH  12  17
ENDBRANCH  11  12
ENDBRANCH   1  11
TORSDOF 1
ENDMDL
MODEL 6
REMARK VINA RESULT:    -4.201      4.020      6.238
REMARK INTER + INTRA:          -6.687
REMARK INTER:                  -6.786
REMARK INTRA:                   0.099
REMARK UNBOUND:                -0.276
REMARK SMILES CC1=CCC[C@@H](C)C(=O)C[C@H](C(C)C)C(=O)C1
REMARK SMILES IDX 8 1 9 2 6 3 7 4 5 5 4 6 3 7 2 8 1 9 10 11 11 12 15 13 16 14
REMARK SMILES IDX 17 15 12 17 13 18 14 19
REMARK H PARENT
REMARK Flexibility Score: 70.00
ROOT
ATOM      1  C   UNL     1     119.142 171.647 128.738  1.00  0.00     0.136 C 
ATOM      2  O   UNL     1     119.141 171.519 127.520  1.00  0.00    -0.299 OA
ENDROOT
BRANCH   1   3
ATOM      3  C   UNL     1     119.518 170.473 129.632  1.00  0.00     0.053 C 
ATOM      4  C   UNL     1     119.501 170.846 131.123  1.00  0.00     0.016 C 
BRANCH   3   5
ATOM      5  C   UNL     1     120.871 169.846 129.229  1.00  0.00     0.015 C 
BRANCH   5   6
ATOM      6  C   UNL     1     122.053 170.828 129.342  1.00  0.00     0.028 C 
BRANCH   6   7
ATOM      7  C   UNL     1     122.562 171.301 128.004  1.00  0.00    -0.028 C 
ATOM      8  C   UNL     1     122.781 172.592 127.642  1.00  0.00    -0.070 CG0
ATOM      9  C   UNL     1     123.416 172.830 126.294  1.00  0.00     0.039 C 
ATOM     10  G   UNL     1     122.362 173.804 128.469  1.00  0.00     0.000 G0
ENDBRANCH   6   7
ENDBRANCH   5   6
ENDBRANCH   3   5
ENDBRANCH   1   3
BRANCH   1  11
ATOM     11  C   UNL     1     118.787 172.990 129.330  1.00  0.00     0.087 C 
BRANCH  11  12
ATOM     12  C   UNL     1     120.035 173.836 129.712  1.00  0.00     0.066 C 
BRANCH  12  13
ATOM     13  C   UNL     1     120.900 174.141 128.494  1.00  0.00     0.140 C 
ATOM     14  O   UNL     1     120.362 174.540 127.471  1.00  0.00    -0.299 OA
BRANCH  13  15
ATOM     15  C   UNL     1     122.374 173.810 128.475  1.00  0.00     0.106 CG0
ATOM     16  G   UNL     1     122.752 172.598 127.628  1.00  0.00     0.000 G0
ENDBRANCH  13  15
ENDBRANCH  12  13
BRANCH  12  17
ATOM     17  C   UNL     1     119.657 175.155 130.462  1.00  0.00    -0.006 C 
ATOM     18  C   UNL     1     120.760 176.225 130.363  1.00  0.00     0.008 C 
ATOM     19  C   UNL     1     118.344 175.749 129.917  1.00  0.00     0.008 C 
ENDBRANCH  12  17
ENDBRANCH  11  12
ENDBRANCH   1  11
TORSDOF 1
ENDMDL
MODEL 7
REMARK VINA RESULT:    -4.150      3.821      5.851
REMARK INTER + INTRA:          -6.610
REMARK INTER:                  -6.530
REMARK INTRA:                  -0.079
REMARK UNBOUND:                -0.276
REMARK SMILES CC1=CCC[C@@H](C)C(=O)C[C@H](C(C)C)C(=O)C1
REMARK SMILES IDX 8 1 9 2 6 3 7 4 5 5 4 6 3 7 2 8 1 9 10 11 11 12 15 13 16 14
REMARK SMILES IDX 17 15 12 17 13 18 14 19
REMARK H PARENT
REMARK Flexibility Score: 70.00
ROOT
ATOM      1  C   UNL     1     121.292 175.450 127.360  1.00  0.00     0.136 C 
ATOM      2  O   UNL     1     120.331 176.063 126.913  1.00  0.00    -0.299 OA
ENDROOT
BRANCH   1   3
ATOM      3  C   UNL     1     122.499 175.166 126.477  1.00  0.00     0.053 C 
ATOM      4  C   UNL     1     122.278 175.618 125.024  1.00  0.00     0.016 C 
BRANCH   3   5
ATOM      5  C   UNL     1     122.930 173.684 126.540  1.00  0.00     0.015 C 
BRANCH   5   6
ATOM      6  C   UNL     1     121.743 172.703 126.487  1.00  0.00     0.028 C 
BRANCH   6   7
ATOM      7  C   UNL     1     121.858 171.576 127.482  1.00  0.00    -0.028 C 
ATOM      8  C   UNL     1     120.919 171.217 128.395  1.00  0.00    -0.070 CG0
ATOM      9  C   UNL     1     121.191 169.974 129.207  1.00  0.00     0.039 C 
ATOM     10  G   UNL     1     119.658 172.020 128.701  1.00  0.00     0.000 G0
ENDBRANCH   6   7
ENDBRANCH   5   6
ENDBRANCH   3   5
ENDBRANCH   1   3
BRANCH   1  11
ATOM     11  C   UNL     1     121.264 175.003 128.802  1.00  0.00     0.087 C 
BRANCH  11  12
ATOM     12  C   UNL     1     119.846 174.583 129.283  1.00  0.00     0.066 C 
BRANCH  12  13
ATOM     13  C   UNL     1     119.809 173.118 129.705  1.00  0.00     0.140 C 
ATOM     14  O   UNL     1     120.051 172.831 130.869  1.00  0.00    -0.299 OA
BRANCH  13  15
ATOM     15  C   UNL     1     119.640 172.012 128.689  1.00  0.00     0.106 CG0
ATOM     16  G   UNL     1     120.908 171.220 128.382  1.00  0.00     0.000 G0
ENDBRANCH  13  15
ENDBRANCH  12  13
BRANCH  12  17
ATOM     17  C   UNL     1     119.308 175.499 130.430  1.00  0.00    -0.006 C 
ATOM     18  C   UNL     1     120.419 176.342 131.081  1.00  0.00     0.008 C 
ATOM     19  C   UNL     1     118.206 176.445 129.916  1.00  0.00     0.008 C 
ENDBRANCH  12  17
ENDBRANCH  11  12
ENDBRANCH   1  11
TORSDOF 1
ENDMDL
MODEL 8
REMARK VINA RESULT:    -4.123      2.453      4.128
REMARK INTER + INTRA:          -6.568
REMARK INTER:                  -6.588
REMARK INTRA:                   0.020
REMARK UNBOUND:                -0.276
REMARK SMILES CC1=CCC[C@@H](C)C(=O)C[C@H](C(C)C)C(=O)C1
REMARK SMILES IDX 8 1 9 2 6 3 7 4 5 5 4 6 3 7 2 8 1 9 10 11 11 12 15 13 16 14
REMARK SMILES IDX 17 15 12 17 13 18 14 19
REMARK H PARENT
REMARK Flexibility Score: 70.00
ROOT
ATOM      1  C   UNL     1     120.242 177.830 126.985  1.00  0.00     0.136 C 
ATOM      2  O   UNL     1     119.237 177.581 126.332  1.00  0.00    -0.299 OA
ENDROOT
BRANCH   1   3
ATOM      3  C   UNL     1     121.416 178.551 126.338  1.00  0.00     0.053 C 
ATOM      4  C   UNL     1     121.016 179.917 125.759  1.00  0.00     0.016 C 
BRANCH   3   5
ATOM      5  C   UNL     1     122.118 177.678 125.274  1.00  0.00     0.015 C 
BRANCH   5   6
ATOM      6  C   UNL     1     122.862 176.469 125.874  1.00  0.00     0.028 C 
BRANCH   6   7
ATOM      7  C   UNL     1     122.181 175.154 125.592  1.00  0.00    -0.028 C 
ATOM      8  C   UNL     1     121.848 174.212 126.512  1.00  0.00    -0.070 CG0
ATOM      9  C   UNL     1     121.054 173.024 126.024  1.00  0.00     0.039 C 
ATOM     10  G   UNL     1     122.283 174.240 127.975  1.00  0.00     0.000 G0
ENDBRANCH   6   7
ENDBRANCH   5   6
ENDBRANCH   3   5
ENDBRANCH   1   3
BRANCH   1  11
ATOM     11  C   UNL     1     120.284 177.431 128.441  1.00  0.00     0.087 C 
BRANCH  11  12
ATOM     12  C   UNL     1     120.328 175.890 128.649  1.00  0.00     0.066 C 
BRANCH  12  13
ATOM     13  C   UNL     1     121.759 175.387 128.803  1.00  0.00     0.140 C 
ATOM     14  O   UNL     1     122.537 176.021 129.501  1.00  0.00    -0.299 OA
BRANCH  13  15
ATOM     15  C   UNL     1     122.273 174.220 127.992  1.00  0.00     0.106 CG0
ATOM     16  G   UNL     1     121.842 174.214 126.528  1.00  0.00     0.000 G0
ENDBRANCH  13  15
ENDBRANCH  12  13
BRANCH  12  17
ATOM     17  C   UNL     1     119.448 175.423 129.854  1.00  0.00    -0.006 C 
ATOM     18  C   UNL     1     118.260 176.368 130.116  1.00  0.00     0.008 C 
ATOM     19  C   UNL     1     118.906 173.999 129.629  1.00  0.00     0.008 C 
ENDBRANCH  12  17
ENDBRANCH  11  12
ENDBRANCH   1  11
TORSDOF 1
ENDMDL
MODEL 9
REMARK VINA RESULT:    -4.028      2.379      4.050
REMARK INTER + INTRA:          -6.423
REMARK INTER:                  -6.147
REMARK INTRA:                  -0.276
REMARK UNBOUND:                -0.276
REMARK SMILES CC1=CCC[C@@H](C)C(=O)C[C@H](C(C)C)C(=O)C1
REMARK SMILES IDX 8 1 9 2 6 3 7 4 5 5 4 6 3 7 2 8 1 9 10 11 11 12 15 13 16 14
REMARK SMILES IDX 17 15 12 17 13 18 14 19
REMARK H PARENT
REMARK Flexibility Score: 70.00
ROOT
ATOM      1  C   UNL     1     122.496 175.969 125.763  1.00  0.00     0.136 C 
ATOM      2  O   UNL     1     123.290 175.049 125.613  1.00  0.00    -0.299 OA
ENDROOT
BRANCH   1   3
ATOM      3  C   UNL     1     122.673 177.269 124.991  1.00  0.00     0.053 C 
ATOM      4  C   UNL     1     123.373 177.054 123.640  1.00  0.00     0.016 C 
BRANCH   3   5
ATOM      5  C   UNL     1     123.395 178.348 125.828  1.00  0.00     0.015 C 
BRANCH   5   6
ATOM      6  C   UNL     1     122.491 178.993 126.897  1.00  0.00     0.028 C 
BRANCH   6   7
ATOM      7  C   UNL     1     123.042 178.867 128.295  1.00  0.00    -0.028 C 
ATOM      8  C   UNL     1     122.537 178.086 129.286  1.00  0.00    -0.070 CG0
ATOM      9  C   UNL     1     123.324 178.014 130.572  1.00  0.00     0.039 C 
ATOM     10  G   UNL     1     121.204 177.346 129.210  1.00  0.00     0.000 G0
ENDBRANCH   6   7
ENDBRANCH   5   6
ENDBRANCH   3   5
ENDBRANCH   1   3
BRANCH   1  11
ATOM     11  C   UNL     1     121.333 175.780 126.708  1.00  0.00     0.087 C 
BRANCH  11  12
ATOM     12  C   UNL     1     121.726 175.038 128.017  1.00  0.00     0.066 C 
BRANCH  12  13
ATOM     13  C   UNL     1     121.311 175.828 129.254  1.00  0.00     0.140 C 
ATOM     14  O   UNL     1     120.935 175.220 130.246  1.00  0.00    -0.299 OA
BRANCH  13  15
ATOM     15  C   UNL     1     121.205 177.335 129.224  1.00  0.00     0.106 CG0
ATOM     16  G   UNL     1     122.537 178.076 129.287  1.00  0.00     0.000 G0
ENDBRANCH  13  15
ENDBRANCH  12  13
BRANCH  12  17
ATOM     17  C   UNL     1     121.153 173.584 128.076  1.00  0.00    -0.006 C 
ATOM     18  C   UNL     1     120.221 173.270 126.891  1.00  0.00     0.008 C 
ATOM     19  C   UNL     1     122.285 172.540 128.105  1.00  0.00     0.008 C 
ENDBRANCH  12  17
ENDBRANCH  11  12
ENDBRANCH   1  11
TORSDOF 1
ENDMDL
