MODEL 1
REMARK VINA RESULT:    -4.081      0.000      0.000
REMARK INTER + INTRA:          -7.756
REMARK INTER:                  -6.229
REMARK INTRA:                  -1.527
REMARK UNBOUND:                -1.527
REMARK SMILES OC[C@@H]1O[C@@](CO)(O[C@@H]2O[C@H](CO)[C@H](O)[C@H](O)[C@H]2O)[C@@H](O)[C@H]1O
REMARK SMILES IDX 8 1 9 2 11 3 14 4 10 5 16 6 18 7 12 8 13 9 15 11 17 13 19 15
REMARK SMILES IDX 5 17 20 18 4 19 22 20 3 21 6 22 7 23 21 25 23 27 2 29 1 30
REMARK H PARENT 13 10 15 12 17 14 19 16 7 24 21 26 23 28 1 31
REMARK Flexibility Score: inf
ROOT
ATOM      1  O   UNL     1       7.116   6.350   2.429  1.00  0.00    -0.313 OA
ENDROOT
BRANCH   1   2
ATOM      2  C   UNL     1       6.894   5.354   3.416  1.00  0.00     0.285 C 
ATOM      3  C   UNL     1       8.672   3.739   3.205  1.00  0.00     0.178 C 
ATOM      4  C   UNL     1       8.237   3.615   1.725  1.00  0.00     0.177 C 
ATOM      5  O   UNL     1       8.156   4.884   3.880  1.00  0.00    -0.341 OA
ATOM      6  C   UNL     1       6.694   3.575   1.608  1.00  0.00     0.179 C 
ATOM      7  C   UNL     1       6.004   4.229   2.841  1.00  0.00     0.202 C 
BRANCH   3   8
ATOM      8  C   UNL     1      10.196   3.739   3.344  1.00  0.00     0.191 C 
BRANCH   8   9
ATOM      9  O   UNL     1      10.718   4.910   2.779  1.00  0.00    -0.394 OA
ATOM     10  H   UNL     1      10.072   5.207   2.085  1.00  0.00     0.210 HD
ENDBRANCH   8   9
ENDBRANCH   3   8
BRANCH   4  11
ATOM     11  O   UNL     1       8.771   4.685   0.985  1.00  0.00    -0.387 OA
ATOM     12  H   UNL     1       8.025   5.309   0.792  1.00  0.00     0.211 HD
ENDBRANCH   4  11
BRANCH   6  13
ATOM     13  O   UNL     1       6.301   4.132   0.370  1.00  0.00    -0.387 OA
ATOM     14  H   UNL     1       7.075   4.210  -0.244  1.00  0.00     0.211 HD
ENDBRANCH   6  13
BRANCH   7  15
ATOM     15  O   UNL     1       5.792   3.252   3.836  1.00  0.00    -0.385 OA
ATOM     16  H   UNL     1       4.817   3.065   3.849  1.00  0.00     0.211 HD
ENDBRANCH   7  15
ENDBRANCH   1   2
BRANCH   1  17
ATOM     17  C   UNL     1       7.232   7.701   2.888  1.00  0.00     0.224 C 
ATOM     18  C   UNL     1       8.691   8.168   3.112  1.00  0.00     0.208 C 
ATOM     19  O   UNL     1       6.748   8.511   1.837  1.00  0.00    -0.337 OA
ATOM     20  C   UNL     1       9.141   8.584   1.724  1.00  0.00     0.180 C 
ATOM     21  C   UNL     1       7.823   8.724   0.944  1.00  0.00     0.179 C 
BRANCH  17  22
ATOM     22  C   UNL     1       6.341   7.975   4.125  1.00  0.00     0.225 C 
BRANCH  22  23
ATOM     23  O   UNL     1       5.490   9.067   3.880  1.00  0.00    -0.391 OA
ATOM     24  H   UNL     1       5.804   9.821   4.445  1.00  0.00     0.210 HD
ENDBRANCH  22  23
ENDBRANCH  17  22
BRANCH  18  25
ATOM     25  O   UNL     1       9.539   7.196   3.658  1.00  0.00    -0.385 OA
ATOM     26  H   UNL     1      10.442   7.597   3.718  1.00  0.00     0.211 HD
ENDBRANCH  18  25
BRANCH  20  27
ATOM     27  O   UNL     1      10.000   7.645   1.118  1.00  0.00    -0.387 OA
ATOM     28  H   UNL     1       9.860   6.766   1.563  1.00  0.00     0.211 HD
ENDBRANCH  20  27
BRANCH  21  29
ATOM     29  C   UNL     1       7.687  10.105   0.292  1.00  0.00     0.191 C 
BRANCH  29  30
ATOM     30  O   UNL     1       7.026  10.002  -0.943  1.00  0.00    -0.394 OA
ATOM     31  H   UNL     1       7.145   9.067  -1.254  1.00  0.00     0.210 HD
ENDBRANCH  29  30
ENDBRANCH  21  29
ENDBRANCH   1  17
TORSDOF 13
ENDMDL
MODEL 2
REMARK VINA RESULT:    -3.285      2.202      4.018
REMARK INTER + INTRA:          -6.541
REMARK INTER:                  -4.917
REMARK INTRA:                  -1.624
REMARK UNBOUND:                -1.527
REMARK SMILES OC[C@@H]1O[C@@](CO)(O[C@@H]2O[C@H](CO)[C@H](O)[C@H](O)[C@H]2O)[C@@H](O)[C@H]1O
REMARK SMILES IDX 8 1 9 2 11 3 14 4 10 5 16 6 18 7 12 8 13 9 15 11 17 13 19 15
REMARK SMILES IDX 5 17 20 18 4 19 22 20 3 21 6 22 7 23 21 25 23 27 2 29 1 30
REMARK H PARENT 13 10 15 12 17 14 19 16 7 24 21 26 23 28 1 31
REMARK Flexibility Score: inf
ROOT
ATOM      1  O   UNL     1       9.469   5.525   3.284  1.00  0.00    -0.313 OA
ENDROOT
BRANCH   1   2
ATOM      2  C   UNL     1       9.117   4.150   3.285  1.00  0.00     0.285 C 
ATOM      3  C   UNL     1       7.660   3.789   1.397  1.00  0.00     0.178 C 
ATOM      4  C   UNL     1       6.784   4.917   1.996  1.00  0.00     0.177 C 
ATOM      5  O   UNL     1       8.979   3.714   1.935  1.00  0.00    -0.341 OA
ATOM      6  C   UNL     1       6.658   4.757   3.531  1.00  0.00     0.179 C 
ATOM      7  C   UNL     1       7.838   3.932   4.125  1.00  0.00     0.202 C 
BRANCH   3   8
ATOM      8  C   UNL     1       7.764   3.908  -0.125  1.00  0.00     0.191 C 
BRANCH   8   9
ATOM      9  O   UNL     1       9.099   3.744  -0.518  1.00  0.00    -0.394 OA
ATOM     10  H   UNL     1       9.662   4.067   0.234  1.00  0.00     0.210 HD
ENDBRANCH   8   9
ENDBRANCH   3   8
BRANCH   4  11
ATOM     11  O   UNL     1       7.334   6.168   1.663  1.00  0.00    -0.387 OA
ATOM     12  H   UNL     1       6.975   6.827   2.312  1.00  0.00     0.211 HD
ENDBRANCH   4  11
BRANCH   6  13
ATOM     13  O   UNL     1       6.492   6.027   4.125  1.00  0.00    -0.387 OA
ATOM     14  H   UNL     1       5.993   6.637   3.522  1.00  0.00     0.211 HD
ENDBRANCH   6  13
BRANCH   7  15
ATOM     15  O   UNL     1       7.506   2.561   4.117  1.00  0.00    -0.385 OA
ATOM     16  H   UNL     1       8.300   2.078   3.767  1.00  0.00     0.211 HD
ENDBRANCH   7  15
ENDBRANCH   1   2
BRANCH   1  17
ATOM     17  C   UNL     1      10.852   5.838   3.090  1.00  0.00     0.224 C 
ATOM     18  C   UNL     1      11.183   6.385   1.679  1.00  0.00     0.208 C 
ATOM     19  O   UNL     1      11.135   6.907   3.969  1.00  0.00    -0.337 OA
ATOM     20  C   UNL     1      10.848   7.860   1.789  1.00  0.00     0.180 C 
ATOM     21  C   UNL     1      10.774   8.101   3.306  1.00  0.00     0.179 C 
BRANCH  17  22
ATOM     22  C   UNL     1      11.777   4.661   3.486  1.00  0.00     0.225 C 
BRANCH  22  23
ATOM     23  O   UNL     1      12.834   4.542   2.566  1.00  0.00    -0.391 OA
ATOM     24  H   UNL     1      13.514   3.940   2.969  1.00  0.00     0.210 HD
ENDBRANCH  22  23
ENDBRANCH  17  22
BRANCH  18  25
ATOM     25  O   UNL     1      10.478   5.773   0.635  1.00  0.00    -0.385 OA
ATOM     26  H   UNL     1      10.625   6.320  -0.177  1.00  0.00     0.211 HD
ENDBRANCH  18  25
BRANCH  20  27
ATOM     27  O   UNL     1       9.635   8.200   1.155  1.00  0.00    -0.387 OA
ATOM     28  H   UNL     1       9.150   7.356   0.946  1.00  0.00     0.211 HD
ENDBRANCH  20  27
BRANCH  21  29
ATOM     29  C   UNL     1      11.699   9.240   3.751  1.00  0.00     0.191 C 
BRANCH  29  30
ATOM     30  O   UNL     1      12.563   9.606   2.707  1.00  0.00    -0.394 OA
ATOM     31  H   UNL     1      12.430  10.578   2.551  1.00  0.00     0.210 HD
ENDBRANCH  29  30
ENDBRANCH  21  29
ENDBRANCH   1  17
TORSDOF 13
ENDMDL
MODEL 3
REMARK VINA RESULT:    -3.113      1.071      2.457
REMARK INTER + INTRA:          -6.278
REMARK INTER:                  -5.100
REMARK INTRA:                  -1.177
REMARK UNBOUND:                -1.527
REMARK SMILES OC[C@@H]1O[C@@](CO)(O[C@@H]2O[C@H](CO)[C@H](O)[C@H](O)[C@H]2O)[C@@H](O)[C@H]1O
REMARK SMILES IDX 8 1 9 2 11 3 14 4 10 5 16 6 18 7 12 8 13 9 15 11 17 13 19 15
REMARK SMILES IDX 5 17 20 18 4 19 22 20 3 21 6 22 7 23 21 25 23 27 2 29 1 30
REMARK H PARENT 13 10 15 12 17 14 19 16 7 24 21 26 23 28 1 31
REMARK Flexibility Score: inf
ROOT
ATOM      1  O   UNL     1       7.792   6.540   2.589  1.00  0.00    -0.313 OA
ENDROOT
BRANCH   1   2
ATOM      2  C   UNL     1       7.439   5.568   3.561  1.00  0.00     0.285 C 
ATOM      3  C   UNL     1       8.987   3.734   3.326  1.00  0.00     0.178 C 
ATOM      4  C   UNL     1       8.542   3.690   1.844  1.00  0.00     0.177 C 
ATOM      5  O   UNL     1       8.627   4.928   4.018  1.00  0.00    -0.341 OA
ATOM      6  C   UNL     1       7.007   3.858   1.727  1.00  0.00     0.179 C 
ATOM      7  C   UNL     1       6.408   4.579   2.970  1.00  0.00     0.202 C 
BRANCH   3   8
ATOM      8  C   UNL     1      10.497   3.530   3.465  1.00  0.00     0.191 C 
BRANCH   8   9
ATOM      9  O   UNL     1      11.169   4.660   2.980  1.00  0.00    -0.394 OA
ATOM     10  H   UNL     1      12.028   4.341   2.595  1.00  0.00     0.210 HD
ENDBRANCH   8   9
ENDBRANCH   3   8
BRANCH   4  11
ATOM     11  O   UNL     1       9.215   4.691   1.119  1.00  0.00    -0.387 OA
ATOM     12  H   UNL     1       9.536   4.277   0.277  1.00  0.00     0.211 HD
ENDBRANCH   4  11
BRANCH   6  13
ATOM     13  O   UNL     1       6.693   4.480   0.498  1.00  0.00    -0.387 OA
ATOM     14  H   UNL     1       7.158   4.031  -0.254  1.00  0.00     0.211 HD
ENDBRANCH   6  13
BRANCH   7  15
ATOM     15  O   UNL     1       6.067   3.625   3.951  1.00  0.00    -0.385 OA
ATOM     16  H   UNL     1       6.677   2.852   3.821  1.00  0.00     0.211 HD
ENDBRANCH   7  15
ENDBRANCH   1   2
BRANCH   1  17
ATOM     17  C   UNL     1       8.215   7.817   3.076  1.00  0.00     0.224 C 
ATOM     18  C   UNL     1       8.300   8.913   1.984  1.00  0.00     0.208 C 
ATOM     19  O   UNL     1       7.198   8.256   3.953  1.00  0.00    -0.337 OA
ATOM     20  C   UNL     1       6.870   9.409   1.877  1.00  0.00     0.180 C 
ATOM     21  C   UNL     1       6.209   8.886   3.164  1.00  0.00     0.179 C 
BRANCH  17  22
ATOM     22  C   UNL     1       9.522   7.722   3.901  1.00  0.00     0.225 C 
BRANCH  22  23
ATOM     23  O   UNL     1      10.585   7.297   3.085  1.00  0.00    -0.391 OA
ATOM     24  H   UNL     1      10.562   6.305   3.058  1.00  0.00     0.210 HD
ENDBRANCH  22  23
ENDBRANCH  17  22
BRANCH  18  25
ATOM     25  O   UNL     1       8.784   8.468   0.747  1.00  0.00    -0.385 OA
ATOM     26  H   UNL     1       9.633   8.948   0.577  1.00  0.00     0.211 HD
ENDBRANCH  18  25
BRANCH  20  27
ATOM     27  O   UNL     1       6.205   8.934   0.728  1.00  0.00    -0.387 OA
ATOM     28  H   UNL     1       5.270   8.709   0.983  1.00  0.00     0.211 HD
ENDBRANCH  20  27
BRANCH  21  29
ATOM     29  C   UNL     1       5.548  10.013   3.967  1.00  0.00     0.191 C 
BRANCH  29  30
ATOM     30  O   UNL     1       4.170  10.058   3.704  1.00  0.00    -0.394 OA
ATOM     31  H   UNL     1       4.033  10.747   3.003  1.00  0.00     0.210 HD
ENDBRANCH  29  30
ENDBRANCH  21  29
ENDBRANCH   1  17
TORSDOF 13
ENDMDL
MODEL 4
REMARK VINA RESULT:    -2.845      4.423      7.138
REMARK INTER + INTRA:          -5.868
REMARK INTER:                  -4.774
REMARK INTRA:                  -1.095
REMARK UNBOUND:                -1.527
REMARK SMILES OC[C@@H]1O[C@@](CO)(O[C@@H]2O[C@H](CO)[C@H](O)[C@H](O)[C@H]2O)[C@@H](O)[C@H]1O
REMARK SMILES IDX 8 1 9 2 11 3 14 4 10 5 16 6 18 7 12 8 13 9 15 11 17 13 19 15
REMARK SMILES IDX 5 17 20 18 4 19 22 20 3 21 6 22 7 23 21 25 23 27 2 29 1 30
REMARK H PARENT 13 10 15 12 17 14 19 16 7 24 21 26 23 28 1 31
REMARK Flexibility Score: inf
ROOT
ATOM      1  O   UNL     1      12.715   8.192   2.253  1.00  0.00    -0.313 OA
ENDROOT
BRANCH   1   2
ATOM      2  C   UNL     1      13.558   9.282   2.595  1.00  0.00     0.285 C 
ATOM      3  C   UNL     1      15.585   9.040   1.310  1.00  0.00     0.178 C 
ATOM      4  C   UNL     1      15.685   7.627   1.935  1.00  0.00     0.177 C 
ATOM      5  O   UNL     1      14.306   9.657   1.442  1.00  0.00    -0.341 OA
ATOM      6  C   UNL     1      15.335   7.669   3.444  1.00  0.00     0.179 C 
ATOM      7  C   UNL     1      14.451   8.902   3.797  1.00  0.00     0.202 C 
BRANCH   3   8
ATOM      8  C   UNL     1      15.966   9.025  -0.172  1.00  0.00     0.191 C 
BRANCH   8   9
ATOM      9  O   UNL     1      16.952   8.054  -0.393  1.00  0.00    -0.394 OA
ATOM     10  H   UNL     1      16.520   7.316  -0.899  1.00  0.00     0.210 HD
ENDBRANCH   8   9
ENDBRANCH   3   8
BRANCH   4  11
ATOM     11  O   UNL     1      14.834   6.744   1.246  1.00  0.00    -0.387 OA
ATOM     12  H   UNL     1      14.352   7.276   0.562  1.00  0.00     0.211 HD
ENDBRANCH   4  11
BRANCH   6  13
ATOM     13  O   UNL     1      14.774   6.433   3.832  1.00  0.00    -0.387 OA
ATOM     14  H   UNL     1      14.634   6.400   4.813  1.00  0.00     0.211 HD
ENDBRANCH   6  13
BRANCH   7  15
ATOM     15  O   UNL     1      15.278   9.997   4.124  1.00  0.00    -0.385 OA
ATOM     16  H   UNL     1      15.934   9.669   4.794  1.00  0.00     0.211 HD
ENDBRANCH   7  15
ENDBRANCH   1   2
BRANCH   1  17
ATOM     17  C   UNL     1      11.579   7.966   3.092  1.00  0.00     0.224 C 
ATOM     18  C   UNL     1      10.274   7.655   2.318  1.00  0.00     0.208 C 
ATOM     19  O   UNL     1      11.860   6.787   3.818  1.00  0.00    -0.337 OA
ATOM     20  C   UNL     1      10.381   6.168   2.035  1.00  0.00     0.180 C 
ATOM     21  C   UNL     1      11.476   5.695   3.007  1.00  0.00     0.179 C 
BRANCH  17  22
ATOM     22  C   UNL     1      11.381   9.103   4.124  1.00  0.00     0.225 C 
BRANCH  22  23
ATOM     23  O   UNL     1      10.082   9.631   4.024  1.00  0.00    -0.391 OA
ATOM     24  H   UNL     1       9.444   8.884   4.173  1.00  0.00     0.210 HD
ENDBRANCH  22  23
ENDBRANCH  17  22
BRANCH  18  25
ATOM     25  O   UNL     1      10.105   8.392   1.138  1.00  0.00    -0.385 OA
ATOM     26  H   UNL     1      10.867   8.173   0.546  1.00  0.00     0.211 HD
ENDBRANCH  18  25
BRANCH  20  27
ATOM     27  O   UNL     1      10.723   5.883   0.698  1.00  0.00    -0.387 OA
ATOM     28  H   UNL     1      10.800   4.895   0.602  1.00  0.00     0.211 HD
ENDBRANCH  20  27
BRANCH  21  29
ATOM     29  C   UNL     1      10.996   4.538   3.892  1.00  0.00     0.191 C 
BRANCH  29  30
ATOM     30  O   UNL     1      10.210   3.645   3.146  1.00  0.00    -0.394 OA
ATOM     31  H   UNL     1      10.710   2.789   3.102  1.00  0.00     0.210 HD
ENDBRANCH  29  30
ENDBRANCH  21  29
ENDBRANCH   1  17
TORSDOF 13
ENDMDL
MODEL 5
REMARK VINA RESULT:    -2.784      1.209      2.033
REMARK INTER + INTRA:          -5.776
REMARK INTER:                  -5.201
REMARK INTRA:                  -0.575
REMARK UNBOUND:                -1.527
REMARK SMILES OC[C@@H]1O[C@@](CO)(O[C@@H]2O[C@H](CO)[C@H](O)[C@H](O)[C@H]2O)[C@@H](O)[C@H]1O
REMARK SMILES IDX 8 1 9 2 11 3 14 4 10 5 16 6 18 7 12 8 13 9 15 11 17 13 19 15
REMARK SMILES IDX 5 17 20 18 4 19 22 20 3 21 6 22 7 23 21 25 23 27 2 29 1 30
REMARK H PARENT 13 10 15 12 17 14 19 16 7 24 21 26 23 28 1 31
REMARK Flexibility Score: inf
ROOT
ATOM      1  O   UNL     1       7.693   5.808   2.388  1.00  0.00    -0.313 OA
ENDROOT
BRANCH   1   2
ATOM      2  C   UNL     1       6.523   5.068   2.072  1.00  0.00     0.285 C 
ATOM      3  C   UNL     1       6.902   2.799   2.796  1.00  0.00     0.178 C 
ATOM      4  C   UNL     1       8.173   2.844   1.914  1.00  0.00     0.177 C 
ATOM      5  O   UNL     1       6.328   4.075   3.074  1.00  0.00    -0.341 OA
ATOM      6  C   UNL     1       7.876   3.533   0.559  1.00  0.00     0.179 C 
ATOM      7  C   UNL     1       6.640   4.476   0.649  1.00  0.00     0.202 C 
BRANCH   3   8
ATOM      8  C   UNL     1       7.166   2.086   4.124  1.00  0.00     0.191 C 
BRANCH   8   9
ATOM      9  O   UNL     1       6.853   0.726   3.996  1.00  0.00    -0.394 OA
ATOM     10  H   UNL     1       7.478   0.230   4.588  1.00  0.00     0.210 HD
ENDBRANCH   8   9
ENDBRANCH   3   8
BRANCH   4  11
ATOM     11  O   UNL     1       9.203   3.511   2.603  1.00  0.00    -0.387 OA
ATOM     12  H   UNL     1       9.789   2.815   2.998  1.00  0.00     0.211 HD
ENDBRANCH   4  11
BRANCH   6  13
ATOM     13  O   UNL     1       9.047   4.166   0.086  1.00  0.00    -0.387 OA
ATOM     14  H   UNL     1       9.101   4.116  -0.903  1.00  0.00     0.211 HD
ENDBRANCH   6  13
BRANCH   7  15
ATOM     15  O   UNL     1       5.469   3.749   0.352  1.00  0.00    -0.385 OA
ATOM     16  H   UNL     1       5.643   2.808   0.617  1.00  0.00     0.211 HD
ENDBRANCH   7  15
ENDBRANCH   1   2
BRANCH   1  17
ATOM     17  C   UNL     1       7.503   7.096   2.981  1.00  0.00     0.224 C 
ATOM     18  C   UNL     1       8.816   7.786   3.426  1.00  0.00     0.208 C 
ATOM     19  O   UNL     1       6.986   7.922   1.959  1.00  0.00    -0.337 OA
ATOM     20  C   UNL     1       9.321   8.431   2.149  1.00  0.00     0.180 C 
ATOM     21  C   UNL     1       8.088   8.423   1.229  1.00  0.00     0.179 C 
BRANCH  17  22
ATOM     22  C   UNL     1       6.453   7.064   4.119  1.00  0.00     0.225 C 
BRANCH  22  23
ATOM     23  O   UNL     1       5.559   8.141   3.987  1.00  0.00    -0.391 OA
ATOM     24  H   UNL     1       5.936   8.906   4.498  1.00  0.00     0.210 HD
ENDBRANCH  22  23
ENDBRANCH  17  22
BRANCH  18  25
ATOM     25  O   UNL     1       9.771   6.923   3.979  1.00  0.00    -0.385 OA
ATOM     26  H   UNL     1      10.574   6.968   3.402  1.00  0.00     0.211 HD
ENDBRANCH  18  25
BRANCH  20  27
ATOM     27  O   UNL     1      10.400   7.735   1.568  1.00  0.00    -0.387 OA
ATOM     28  H   UNL     1      11.124   7.664   2.248  1.00  0.00     0.211 HD
ENDBRANCH  20  27
BRANCH  21  29
ATOM     29  C   UNL     1       7.762   9.824   0.696  1.00  0.00     0.191 C 
BRANCH  29  30
ATOM     30  O   UNL     1       7.159   9.739  -0.569  1.00  0.00    -0.394 OA
ATOM     31  H   UNL     1       6.201   9.531  -0.417  1.00  0.00     0.210 HD
ENDBRANCH  29  30
ENDBRANCH  21  29
ENDBRANCH   1  17
TORSDOF 13
ENDMDL
MODEL 6
REMARK VINA RESULT:    -2.751      2.340      3.955
REMARK INTER + INTRA:          -5.725
REMARK INTER:                  -5.357
REMARK INTRA:                  -0.368
REMARK UNBOUND:                -1.527
REMARK SMILES OC[C@@H]1O[C@@](CO)(O[C@@H]2O[C@H](CO)[C@H](O)[C@H](O)[C@H]2O)[C@@H](O)[C@H]1O
REMARK SMILES IDX 8 1 9 2 11 3 14 4 10 5 16 6 18 7 12 8 13 9 15 11 17 13 19 15
REMARK SMILES IDX 5 17 20 18 4 19 22 20 3 21 6 22 7 23 21 25 23 27 2 29 1 30
REMARK H PARENT 13 10 15 12 17 14 19 16 7 24 21 26 23 28 1 31
REMARK Flexibility Score: inf
ROOT
ATOM      1  O   UNL     1       9.801   4.726   2.687  1.00  0.00    -0.313 OA
ENDROOT
BRANCH   1   2
ATOM      2  C   UNL     1       8.497   5.115   3.093  1.00  0.00     0.285 C 
ATOM      3  C   UNL     1       7.183   3.101   3.281  1.00  0.00     0.178 C 
ATOM      4  C   UNL     1       7.596   2.824   1.815  1.00  0.00     0.177 C 
ATOM      5  O   UNL     1       7.962   4.100   3.937  1.00  0.00    -0.341 OA
ATOM      6  C   UNL     1       7.514   4.117   0.967  1.00  0.00     0.179 C 
ATOM      7  C   UNL     1       7.619   5.395   1.852  1.00  0.00     0.202 C 
BRANCH   3   8
ATOM      8  C   UNL     1       7.219   1.825   4.125  1.00  0.00     0.191 C 
BRANCH   8   9
ATOM      9  O   UNL     1       6.843   0.730   3.335  1.00  0.00    -0.394 OA
ATOM     10  H   UNL     1       6.793   1.056   2.398  1.00  0.00     0.210 HD
ENDBRANCH   8   9
ENDBRANCH   3   8
BRANCH   4  11
ATOM     11  O   UNL     1       8.895   2.283   1.784  1.00  0.00    -0.387 OA
ATOM     12  H   UNL     1       9.526   3.027   1.965  1.00  0.00     0.211 HD
ENDBRANCH   4  11
BRANCH   6  13
ATOM     13  O   UNL     1       8.469   4.061  -0.072  1.00  0.00    -0.387 OA
ATOM     14  H   UNL     1       8.533   3.144  -0.444  1.00  0.00     0.211 HD
ENDBRANCH   6  13
BRANCH   7  15
ATOM     15  O   UNL     1       6.330   5.783   2.275  1.00  0.00    -0.385 OA
ATOM     16  H   UNL     1       6.380   5.914   3.258  1.00  0.00     0.211 HD
ENDBRANCH   7  15
ENDBRANCH   1   2
BRANCH   1  17
ATOM     17  C   UNL     1      10.895   5.481   3.215  1.00  0.00     0.224 C 
ATOM     18  C   UNL     1      11.656   6.317   2.156  1.00  0.00     0.208 C 
ATOM     19  O   UNL     1      10.324   6.434   4.088  1.00  0.00    -0.337 OA
ATOM     20  C   UNL     1      10.820   7.578   2.040  1.00  0.00     0.180 C 
ATOM     21  C   UNL     1       9.940   7.544   3.301  1.00  0.00     0.179 C 
BRANCH  17  22
ATOM     22  C   UNL     1      11.854   4.606   4.059  1.00  0.00     0.225 C 
BRANCH  22  23
ATOM     23  O   UNL     1      12.742   3.909   3.220  1.00  0.00    -0.391 OA
ATOM     24  H   UNL     1      13.513   3.620   3.776  1.00  0.00     0.210 HD
ENDBRANCH  22  23
ENDBRANCH  17  22
BRANCH  18  25
ATOM     25  O   UNL     1      11.810   5.686   0.914  1.00  0.00    -0.385 OA
ATOM     26  H   UNL     1      12.714   5.913   0.582  1.00  0.00     0.211 HD
ENDBRANCH  18  25
BRANCH  20  27
ATOM     27  O   UNL     1      10.038   7.616   0.868  1.00  0.00    -0.387 OA
ATOM     28  H   UNL     1      10.094   8.534   0.489  1.00  0.00     0.211 HD
ENDBRANCH  20  27
BRANCH  21  29
ATOM     29  C   UNL     1      10.070   8.831   4.125  1.00  0.00     0.191 C 
BRANCH  29  30
ATOM     30  O   UNL     1      11.334   9.411   3.931  1.00  0.00    -0.394 OA
ATOM     31  H   UNL     1      11.396  10.179   4.557  1.00  0.00     0.210 HD
ENDBRANCH  29  30
ENDBRANCH  21  29
ENDBRANCH   1  17
TORSDOF 13
ENDMDL
MODEL 7
REMARK VINA RESULT:    -2.730      1.899      5.212
REMARK INTER + INTRA:          -5.694
REMARK INTER:                  -4.462
REMARK INTRA:                  -1.232
REMARK UNBOUND:                -1.527
REMARK SMILES OC[C@@H]1O[C@@](CO)(O[C@@H]2O[C@H](CO)[C@H](O)[C@H](O)[C@H]2O)[C@@H](O)[C@H]1O
REMARK SMILES IDX 8 1 9 2 11 3 14 4 10 5 16 6 18 7 12 8 13 9 15 11 17 13 19 15
REMARK SMILES IDX 5 17 20 18 4 19 22 20 3 21 6 22 7 23 21 25 23 27 2 29 1 30
REMARK H PARENT 13 10 15 12 17 14 19 16 7 24 21 26 23 28 1 31
REMARK Flexibility Score: inf
ROOT
ATOM      1  O   UNL     1       8.601   5.883   2.438  1.00  0.00    -0.313 OA
ENDROOT
BRANCH   1   2
ATOM      2  C   UNL     1       9.564   6.033   3.470  1.00  0.00     0.285 C 
ATOM      3  C   UNL     1      10.382   8.298   3.353  1.00  0.00     0.178 C 
ATOM      4  C   UNL     1      10.724   7.984   1.876  1.00  0.00     0.177 C 
ATOM      5  O   UNL     1       9.495   7.366   3.967  1.00  0.00    -0.341 OA
ATOM      6  C   UNL     1      11.357   6.577   1.747  1.00  0.00     0.179 C 
ATOM      7  C   UNL     1      10.967   5.656   2.942  1.00  0.00     0.202 C 
BRANCH   3   8
ATOM      8  C   UNL     1       9.792   9.702   3.505  1.00  0.00     0.191 C 
BRANCH   8   9
ATOM      9  O   UNL     1       8.411   9.659   3.265  1.00  0.00    -0.394 OA
ATOM     10  H   UNL     1       7.963   9.815   4.137  1.00  0.00     0.210 HD
ENDBRANCH   8   9
ENDBRANCH   3   8
BRANCH   4  11
ATOM     11  O   UNL     1       9.562   8.087   1.090  1.00  0.00    -0.387 OA
ATOM     12  H   UNL     1       9.718   7.558   0.266  1.00  0.00     0.211 HD
ENDBRANCH   4  11
BRANCH   6  13
ATOM     13  O   UNL     1      11.045   6.034   0.481  1.00  0.00    -0.387 OA
ATOM     14  H   UNL     1      11.845   6.025  -0.106  1.00  0.00     0.211 HD
ENDBRANCH   6  13
BRANCH   7  15
ATOM     15  O   UNL     1      11.909   5.808   3.981  1.00  0.00    -0.385 OA
ATOM     16  H   UNL     1      11.784   5.037   4.594  1.00  0.00     0.211 HD
ENDBRANCH   7  15
ENDBRANCH   1   2
BRANCH   1  17
ATOM     17  C   UNL     1       7.368   5.249   2.791  1.00  0.00     0.224 C 
ATOM     18  C   UNL     1       6.770   4.363   1.671  1.00  0.00     0.208 C 
ATOM     19  O   UNL     1       7.678   4.352   3.838  1.00  0.00    -0.337 OA
ATOM     20  C   UNL     1       7.510   3.048   1.834  1.00  0.00     0.180 C 
ATOM     21  C   UNL     1       8.122   3.151   3.241  1.00  0.00     0.179 C 
BRANCH  17  22
ATOM     22  C   UNL     1       6.332   6.259   3.344  1.00  0.00     0.225 C 
BRANCH  22  23
ATOM     23  O   UNL     1       6.612   7.553   2.872  1.00  0.00    -0.391 OA
ATOM     24  H   UNL     1       7.037   7.459   1.979  1.00  0.00     0.210 HD
ENDBRANCH  22  23
ENDBRANCH  17  22
BRANCH  18  25
ATOM     25  O   UNL     1       6.916   4.879   0.376  1.00  0.00    -0.385 OA
ATOM     26  H   UNL     1       7.859   5.161   0.280  1.00  0.00     0.211 HD
ENDBRANCH  18  25
BRANCH  20  27
ATOM     27  O   UNL     1       8.504   2.850   0.854  1.00  0.00    -0.387 OA
ATOM     28  H   UNL     1       8.074   2.442   0.055  1.00  0.00     0.211 HD
ENDBRANCH  20  27
BRANCH  21  29
ATOM     29  C   UNL     1       7.730   1.959   4.124  1.00  0.00     0.191 C 
BRANCH  29  30
ATOM     30  O   UNL     1       6.868   1.097   3.428  1.00  0.00    -0.394 OA
ATOM     31  H   UNL     1       6.928   1.343   2.469  1.00  0.00     0.210 HD
ENDBRANCH  29  30
ENDBRANCH  21  29
ENDBRANCH   1  17
TORSDOF 13
ENDMDL
MODEL 8
REMARK VINA RESULT:    -2.721      2.214      5.027
REMARK INTER + INTRA:          -5.680
REMARK INTER:                  -4.052
REMARK INTRA:                  -1.628
REMARK UNBOUND:                -1.527
REMARK SMILES OC[C@@H]1O[C@@](CO)(O[C@@H]2O[C@H](CO)[C@H](O)[C@H](O)[C@H]2O)[C@@H](O)[C@H]1O
REMARK SMILES IDX 8 1 9 2 11 3 14 4 10 5 16 6 18 7 12 8 13 9 15 11 17 13 19 15
REMARK SMILES IDX 5 17 20 18 4 19 22 20 3 21 6 22 7 23 21 25 23 27 2 29 1 30
REMARK H PARENT 13 10 15 12 17 14 19 16 7 24 21 26 23 28 1 31
REMARK Flexibility Score: inf
ROOT
ATOM      1  O   UNL     1       9.962   5.236   2.527  1.00  0.00    -0.313 OA
ENDROOT
BRANCH   1   2
ATOM      2  C   UNL     1      11.010   5.472   3.455  1.00  0.00     0.285 C 
ATOM      3  C   UNL     1      11.481   7.837   3.406  1.00  0.00     0.178 C 
ATOM      4  C   UNL     1      11.687   7.654   1.883  1.00  0.00     0.177 C 
ATOM      5  O   UNL     1      10.812   6.753   4.048  1.00  0.00    -0.341 OA
ATOM      6  C   UNL     1      12.492   6.364   1.589  1.00  0.00     0.179 C 
ATOM      7  C   UNL     1      12.380   5.336   2.753  1.00  0.00     0.202 C 
BRANCH   3   8
ATOM      8  C   UNL     1      10.721   9.129   3.718  1.00  0.00     0.191 C 
BRANCH   8   9
ATOM      9  O   UNL     1       9.384   8.994   3.319  1.00  0.00    -0.394 OA
ATOM     10  H   UNL     1       9.374   8.351   2.562  1.00  0.00     0.210 HD
ENDBRANCH   8   9
ENDBRANCH   3   8
BRANCH   4  11
ATOM     11  O   UNL     1      10.438   7.626   1.237  1.00  0.00    -0.387 OA
ATOM     12  H   UNL     1      10.298   6.700   0.909  1.00  0.00     0.211 HD
ENDBRANCH   4  11
BRANCH   6  13
ATOM     13  O   UNL     1      12.113   5.848   0.330  1.00  0.00    -0.387 OA
ATOM     14  H   UNL     1      11.573   5.022   0.435  1.00  0.00     0.211 HD
ENDBRANCH   6  13
BRANCH   7  15
ATOM     15  O   UNL     1      13.407   5.570   3.690  1.00  0.00    -0.385 OA
ATOM     16  H   UNL     1      13.835   4.692   3.869  1.00  0.00     0.211 HD
ENDBRANCH   7  15
ENDBRANCH   1   2
BRANCH   1  17
ATOM     17  C   UNL     1       8.784   4.598   3.030  1.00  0.00     0.224 C 
ATOM     18  C   UNL     1       7.677   5.583   3.481  1.00  0.00     0.208 C 
ATOM     19  O   UNL     1       8.225   3.898   1.937  1.00  0.00    -0.337 OA
ATOM     20  C   UNL     1       6.961   5.920   2.187  1.00  0.00     0.180 C 
ATOM     21  C   UNL     1       7.421   4.814   1.221  1.00  0.00     0.179 C 
BRANCH  17  22
ATOM     22  C   UNL     1       9.110   3.553   4.125  1.00  0.00     0.225 C 
BRANCH  22  23
ATOM     23  O   UNL     1       8.145   2.530   4.124  1.00  0.00    -0.391 OA
ATOM     24  H   UNL     1       8.486   1.798   4.702  1.00  0.00     0.210 HD
ENDBRANCH  22  23
ENDBRANCH  17  22
BRANCH  18  25
ATOM     25  O   UNL     1       8.146   6.735   4.125  1.00  0.00    -0.385 OA
ATOM     26  H   UNL     1       7.940   7.503   3.535  1.00  0.00     0.211 HD
ENDBRANCH  18  25
BRANCH  20  27
ATOM     27  O   UNL     1       7.285   7.200   1.694  1.00  0.00    -0.387 OA
ATOM     28  H   UNL     1       7.338   7.825   2.467  1.00  0.00     0.211 HD
ENDBRANCH  20  27
BRANCH  21  29
ATOM     29  C   UNL     1       6.235   4.076   0.589  1.00  0.00     0.191 C 
BRANCH  29  30
ATOM     30  O   UNL     1       5.446   3.474   1.582  1.00  0.00    -0.394 OA
ATOM     31  H   UNL     1       5.558   2.493   1.482  1.00  0.00     0.210 HD
ENDBRANCH  29  30
ENDBRANCH  21  29
ENDBRANCH   1  17
TORSDOF 13
ENDMDL
MODEL 9
REMARK VINA RESULT:    -2.458      3.463      5.746
REMARK INTER + INTRA:          -5.278
REMARK INTER:                  -4.414
REMARK INTRA:                  -0.863
REMARK UNBOUND:                -1.527
REMARK SMILES OC[C@@H]1O[C@@](CO)(O[C@@H]2O[C@H](CO)[C@H](O)[C@H](O)[C@H]2O)[C@@H](O)[C@H]1O
REMARK SMILES IDX 8 1 9 2 11 3 14 4 10 5 16 6 18 7 12 8 13 9 15 11 17 13 19 15
REMARK SMILES IDX 5 17 20 18 4 19 22 20 3 21 6 22 7 23 21 25 23 27 2 29 1 30
REMARK H PARENT 13 10 15 12 17 14 19 16 7 24 21 26 23 28 1 31
REMARK Flexibility Score: inf
ROOT
ATOM      1  O   UNL     1      11.724   6.854   2.782  1.00  0.00    -0.313 OA
ENDROOT
BRANCH   1   2
ATOM      2  C   UNL     1      10.721   7.175   3.734  1.00  0.00     0.285 C 
ATOM      3  C   UNL     1       8.864   5.689   3.335  1.00  0.00     0.178 C 
ATOM      4  C   UNL     1       8.892   6.220   1.881  1.00  0.00     0.177 C 
ATOM      5  O   UNL     1      10.036   5.979   4.094  1.00  0.00    -0.341 OA
ATOM      6  C   UNL     1       9.098   7.754   1.861  1.00  0.00     0.179 C 
ATOM      7  C   UNL     1       9.781   8.263   3.165  1.00  0.00     0.202 C 
BRANCH   3   8
ATOM      8  C   UNL     1       8.620   4.179   3.377  1.00  0.00     0.191 C 
BRANCH   8   9
ATOM      9  O   UNL     1       7.829   3.802   2.283  1.00  0.00    -0.394 OA
ATOM     10  H   UNL     1       8.449   3.489   1.573  1.00  0.00     0.210 HD
ENDBRANCH   8   9
ENDBRANCH   3   8
BRANCH   4  11
ATOM     11  O   UNL     1       9.906   5.566   1.159  1.00  0.00    -0.387 OA
ATOM     12  H   UNL     1      10.774   5.876   1.527  1.00  0.00     0.211 HD
ENDBRANCH   4  11
BRANCH   6  13
ATOM     13  O   UNL     1       9.777   8.123   0.679  1.00  0.00    -0.387 OA
ATOM     14  H   UNL     1       9.144   8.480   0.004  1.00  0.00     0.211 HD
ENDBRANCH   6  13
BRANCH   7  15
ATOM     15  O   UNL     1       8.794   8.570   4.125  1.00  0.00    -0.385 OA
ATOM     16  H   UNL     1       8.673   9.556   4.103  1.00  0.00     0.211 HD
ENDBRANCH   7  15
ENDBRANCH   1   2
BRANCH   1  17
ATOM     17  C   UNL     1      12.882   6.170   3.270  1.00  0.00     0.224 C 
ATOM     18  C   UNL     1      13.920   5.824   2.173  1.00  0.00     0.208 C 
ATOM     19  O   UNL     1      13.544   7.083   4.121  1.00  0.00    -0.337 OA
ATOM     20  C   UNL     1      14.718   7.107   2.030  1.00  0.00     0.180 C 
ATOM     21  C   UNL     1      14.367   7.893   3.306  1.00  0.00     0.179 C 
BRANCH  17  22
ATOM     22  C   UNL     1      12.512   4.933   4.125  1.00  0.00     0.225 C 
BRANCH  22  23
ATOM     23  O   UNL     1      12.189   3.846   3.295  1.00  0.00    -0.391 OA
ATOM     24  H   UNL     1      13.024   3.560   2.840  1.00  0.00     0.210 HD
ENDBRANCH  22  23
ENDBRANCH  17  22
BRANCH  18  25
ATOM     25  O   UNL     1      13.365   5.425   0.949  1.00  0.00    -0.385 OA
ATOM     26  H   UNL     1      12.780   4.648   1.134  1.00  0.00     0.211 HD
ENDBRANCH  18  25
BRANCH  20  27
ATOM     27  O   UNL     1      14.388   7.836   0.870  1.00  0.00    -0.387 OA
ATOM     28  H   UNL     1      15.031   8.591   0.786  1.00  0.00     0.211 HD
ENDBRANCH  20  27
BRANCH  21  29
ATOM     29  C   UNL     1      15.622   8.305   4.086  1.00  0.00     0.191 C 
BRANCH  29  30
ATOM     30  O   UNL     1      16.742   7.598   3.623  1.00  0.00    -0.394 OA
ATOM     31  H   UNL     1      16.612   7.459   2.649  1.00  0.00     0.210 HD
ENDBRANCH  29  30
ENDBRANCH  21  29
ENDBRANCH   1  17
TORSDOF 13
ENDMDL
