MODEL 1
REMARK VINA RESULT:    -2.980      0.000      0.000
REMARK INTER + INTRA:          -5.715
REMARK INTER:                  -4.374
REMARK INTRA:                  -1.342
REMARK UNBOUND:                -1.342
REMARK SMILES CCCCCC(=O)CCCCC
REMARK SMILES IDX 6 1 7 2 5 3 4 4 3 5 2 6 1 7 8 8 9 9 10 10 11 11 12 12
REMARK H PARENT
REMARK Flexibility Score: inf
ROOT
ATOM      1  C   UNL     1     140.226 135.486 129.844  1.00  0.00     0.132 C 
ATOM      2  O   UNL     1     140.614 134.966 130.880  1.00  0.00    -0.300 OA
ENDROOT
BRANCH   1   3
ATOM      3  C   UNL     1     139.821 134.616 128.682  1.00  0.00     0.075 C 
BRANCH   3   4
ATOM      4  C   UNL     1     138.441 133.974 128.893  1.00  0.00     0.008 C 
BRANCH   4   5
ATOM      5  C   UNL     1     137.256 134.945 128.706  1.00  0.00     0.000 C 
BRANCH   5   6
ATOM      6  C   UNL     1     136.228 134.938 129.851  1.00  0.00    -0.003 C 
ATOM      7  C   UNL     1     136.743 135.613 131.121  1.00  0.00     0.004 C 
ENDBRANCH   5   6
ENDBRANCH   4   5
ENDBRANCH   3   4
ENDBRANCH   1   3
BRANCH   1   8
ATOM      8  C   UNL     1     140.205 136.988 129.731  1.00  0.00     0.075 C 
BRANCH   8   9
ATOM      9  C   UNL     1     140.130 137.454 128.271  1.00  0.00     0.008 C 
BRANCH   9  10
ATOM     10  C   UNL     1     138.822 138.201 127.967  1.00  0.00     0.000 C 
BRANCH  10  11
ATOM     11  C   UNL     1     138.082 138.559 129.260  1.00  0.00    -0.003 C 
ATOM     12  C   UNL     1     136.601 138.819 128.994  1.00  0.00     0.004 C 
ENDBRANCH  10  11
ENDBRANCH   9  10
ENDBRANCH   8   9
ENDBRANCH   1   8
TORSDOF 8
ENDMDL
MODEL 2
REMARK VINA RESULT:    -2.976      1.752      3.117
REMARK INTER + INTRA:          -5.709
REMARK INTER:                  -4.400
REMARK INTRA:                  -1.309
REMARK UNBOUND:                -1.342
REMARK SMILES CCCCCC(=O)CCCCC
REMARK SMILES IDX 6 1 7 2 5 3 4 4 3 5 2 6 1 7 8 8 9 9 10 10 11 11 12 12
REMARK H PARENT
REMARK Flexibility Score: inf
ROOT
ATOM      1  C   UNL     1     137.288 135.008 128.961  1.00  0.00     0.132 C 
ATOM      2  O   UNL     1     136.214 134.799 129.505  1.00  0.00    -0.300 OA
ENDROOT
BRANCH   1   3
ATOM      3  C   UNL     1     138.388 133.984 129.070  1.00  0.00     0.075 C 
BRANCH   3   4
ATOM      4  C   UNL     1     139.763 134.572 128.714  1.00  0.00     0.008 C 
BRANCH   4   5
ATOM      5  C   UNL     1     140.598 135.013 129.935  1.00  0.00     0.000 C 
BRANCH   5   6
ATOM      6  C   UNL     1     139.933 134.759 131.299  1.00  0.00    -0.003 C 
ATOM      7  C   UNL     1     139.589 136.047 132.045  1.00  0.00     0.004 C 
ENDBRANCH   5   6
ENDBRANCH   4   5
ENDBRANCH   3   4
ENDBRANCH   1   3
BRANCH   1   8
ATOM      8  C   UNL     1     137.509 136.307 128.231  1.00  0.00     0.075 C 
BRANCH   8   9
ATOM      9  C   UNL     1     137.186 137.523 129.108  1.00  0.00     0.008 C 
BRANCH   9  10
ATOM     10  C   UNL     1     138.439 138.342 129.449  1.00  0.00     0.000 C 
BRANCH  10  11
ATOM     11  C   UNL     1     139.485 138.233 128.333  1.00  0.00    -0.003 C 
ATOM     12  C   UNL     1     140.894 138.462 128.875  1.00  0.00     0.004 C 
ENDBRANCH  10  11
ENDBRANCH   9  10
ENDBRANCH   8   9
ENDBRANCH   1   8
TORSDOF 8
ENDMDL
MODEL 3
REMARK VINA RESULT:    -2.962      2.492      4.074
REMARK INTER + INTRA:          -5.689
REMARK INTER:                  -4.661
REMARK INTRA:                  -1.028
REMARK UNBOUND:                -1.342
REMARK SMILES CCCCCC(=O)CCCCC
REMARK SMILES IDX 6 1 7 2 5 3 4 4 3 5 2 6 1 7 8 8 9 9 10 10 11 11 12 12
REMARK H PARENT
REMARK Flexibility Score: inf
ROOT
ATOM      1  C   UNL     1     139.505 140.161 129.718  1.00  0.00     0.132 C 
ATOM      2  O   UNL     1     140.005 140.487 130.785  1.00  0.00    -0.300 OA
ENDROOT
BRANCH   1   3
ATOM      3  C   UNL     1     140.388 139.650 128.609  1.00  0.00     0.075 C 
BRANCH   3   4
ATOM      4  C   UNL     1     141.181 138.402 129.028  1.00  0.00     0.008 C 
BRANCH   4   5
ATOM      5  C   UNL     1     140.325 137.127 129.172  1.00  0.00     0.000 C 
BRANCH   5   6
ATOM      6  C   UNL     1     139.418 136.818 127.968  1.00  0.00    -0.003 C 
ATOM      7  C   UNL     1     138.015 136.369 128.376  1.00  0.00     0.004 C 
ENDBRANCH   5   6
ENDBRANCH   4   5
ENDBRANCH   3   4
ENDBRANCH   1   3
BRANCH   1   8
ATOM      8  C   UNL     1     138.021 140.320 129.515  1.00  0.00     0.075 C 
BRANCH   8   9
ATOM      9  C   UNL     1     137.619 140.143 128.045  1.00  0.00     0.008 C 
BRANCH   9  10
ATOM     10  C   UNL     1     136.104 139.957 127.875  1.00  0.00     0.000 C 
BRANCH  10  11
ATOM     11  C   UNL     1     135.429 139.699 129.227  1.00  0.00    -0.003 C 
ATOM     12  C   UNL     1     134.872 138.280 129.303  1.00  0.00     0.004 C 
ENDBRANCH  10  11
ENDBRANCH   9  10
ENDBRANCH   8   9
ENDBRANCH   1   8
TORSDOF 8
ENDMDL
MODEL 4
REMARK VINA RESULT:    -2.940      3.110      4.788
REMARK INTER + INTRA:          -5.656
REMARK INTER:                  -4.384
REMARK INTRA:                  -1.272
REMARK UNBOUND:                -1.342
REMARK SMILES CCCCCC(=O)CCCCC
REMARK SMILES IDX 6 1 7 2 5 3 4 4 3 5 2 6 1 7 8 8 9 9 10 10 11 11 12 12
REMARK H PARENT
REMARK Flexibility Score: inf
ROOT
ATOM      1  C   UNL     1     134.867 139.722 129.753  1.00  0.00     0.132 C 
ATOM      2  O   UNL     1     134.491 140.265 130.782  1.00  0.00    -0.300 OA
ENDROOT
BRANCH   1   3
ATOM      3  C   UNL     1     134.866 138.218 129.663  1.00  0.00     0.075 C 
BRANCH   3   4
ATOM      4  C   UNL     1     134.912 137.726 128.208  1.00  0.00     0.008 C 
BRANCH   4   5
ATOM      5  C   UNL     1     135.853 136.525 127.976  1.00  0.00     0.000 C 
BRANCH   5   6
ATOM      6  C   UNL     1     137.063 136.459 128.924  1.00  0.00    -0.003 C 
ATOM      7  C   UNL     1     138.398 136.375 128.184  1.00  0.00     0.004 C 
ENDBRANCH   5   6
ENDBRANCH   4   5
ENDBRANCH   3   4
ENDBRANCH   1   3
BRANCH   1   8
ATOM      8  C   UNL     1     135.370 140.566 128.611  1.00  0.00     0.075 C 
BRANCH   8   9
ATOM      9  C   UNL     1     136.794 141.079 128.859  1.00  0.00     0.008 C 
BRANCH   9  10
ATOM     10  C   UNL     1     137.862 140.089 128.369  1.00  0.00     0.000 C 
BRANCH  10  11
ATOM     11  C   UNL     1     138.975 139.924 129.411  1.00  0.00    -0.003 C 
ATOM     12  C   UNL     1     138.397 139.619 130.790  1.00  0.00     0.004 C 
ENDBRANCH  10  11
ENDBRANCH   9  10
ENDBRANCH   8   9
ENDBRANCH   1   8
TORSDOF 8
ENDMDL
MODEL 5
REMARK VINA RESULT:    -2.926      2.290      4.093
REMARK INTER + INTRA:          -5.636
REMARK INTER:                  -4.575
REMARK INTRA:                  -1.061
REMARK UNBOUND:                -1.342
REMARK SMILES CCCCCC(=O)CCCCC
REMARK SMILES IDX 6 1 7 2 5 3 4 4 3 5 2 6 1 7 8 8 9 9 10 10 11 11 12 12
REMARK H PARENT
REMARK Flexibility Score: inf
ROOT
ATOM      1  C   UNL     1     135.474 134.939 129.657  1.00  0.00     0.132 C 
ATOM      2  O   UNL     1     134.976 134.722 130.752  1.00  0.00    -0.300 OA
ENDROOT
BRANCH   1   3
ATOM      3  C   UNL     1     136.941 134.667 129.441  1.00  0.00     0.075 C 
BRANCH   3   4
ATOM      4  C   UNL     1     137.486 135.387 128.197  1.00  0.00     0.008 C 
BRANCH   4   5
ATOM      5  C   UNL     1     138.759 136.220 128.455  1.00  0.00     0.000 C 
BRANCH   5   6
ATOM      6  C   UNL     1     139.383 136.032 129.849  1.00  0.00    -0.003 C 
ATOM      7  C   UNL     1     140.589 135.093 129.842  1.00  0.00     0.004 C 
ENDBRANCH   5   6
ENDBRANCH   4   5
ENDBRANCH   3   4
ENDBRANCH   1   3
BRANCH   1   8
ATOM      8  C   UNL     1     134.625 135.520 128.558  1.00  0.00     0.075 C 
BRANCH   8   9
ATOM      9  C   UNL     1     133.958 136.836 128.979  1.00  0.00     0.008 C 
BRANCH   9  10
ATOM     10  C   UNL     1     134.943 138.015 128.973  1.00  0.00     0.000 C 
BRANCH  10  11
ATOM     11  C   UNL     1     135.232 138.494 130.400  1.00  0.00    -0.003 C 
ATOM     12  C   UNL     1     136.730 138.472 130.696  1.00  0.00     0.004 C 
ENDBRANCH  10  11
ENDBRANCH   9  10
ENDBRANCH   8   9
ENDBRANCH   1   8
TORSDOF 8
ENDMDL
MODEL 6
REMARK VINA RESULT:    -2.908      2.142      4.060
REMARK INTER + INTRA:          -5.609
REMARK INTER:                  -4.288
REMARK INTRA:                  -1.321
REMARK UNBOUND:                -1.342
REMARK SMILES CCCCCC(=O)CCCCC
REMARK SMILES IDX 6 1 7 2 5 3 4 4 3 5 2 6 1 7 8 8 9 9 10 10 11 11 12 12
REMARK H PARENT
REMARK Flexibility Score: inf
ROOT
ATOM      1  C   UNL     1     135.637 135.004 129.365  1.00  0.00     0.132 C 
ATOM      2  O   UNL     1     135.000 134.434 130.238  1.00  0.00    -0.300 OA
ENDROOT
BRANCH   1   3
ATOM      3  C   UNL     1     134.906 135.748 128.278  1.00  0.00     0.075 C 
BRANCH   3   4
ATOM      4  C   UNL     1     134.608 137.203 128.672  1.00  0.00     0.008 C 
BRANCH   4   5
ATOM      5  C   UNL     1     135.509 138.245 127.976  1.00  0.00     0.000 C 
BRANCH   5   6
ATOM      6  C   UNL     1     136.706 138.726 128.813  1.00  0.00    -0.003 C 
ATOM      7  C   UNL     1     136.516 138.502 130.313  1.00  0.00     0.004 C 
ENDBRANCH   5   6
ENDBRANCH   4   5
ENDBRANCH   3   4
ENDBRANCH   1   3
BRANCH   1   8
ATOM      8  C   UNL     1     137.140 134.912 129.364  1.00  0.00     0.075 C 
BRANCH   8   9
ATOM      9  C   UNL     1     137.722 135.002 127.947  1.00  0.00     0.008 C 
BRANCH   9  10
ATOM     10  C   UNL     1     138.933 135.944 127.875  1.00  0.00     0.000 C 
BRANCH  10  11
ATOM     11  C   UNL     1     139.522 136.187 129.269  1.00  0.00    -0.003 C 
ATOM     12  C   UNL     1     140.305 137.497 129.316  1.00  0.00     0.004 C 
ENDBRANCH  10  11
ENDBRANCH   9  10
ENDBRANCH   8   9
ENDBRANCH   1   8
TORSDOF 8
ENDMDL
MODEL 7
REMARK VINA RESULT:    -2.884      1.758      2.376
REMARK INTER + INTRA:          -5.574
REMARK INTER:                  -4.430
REMARK INTRA:                  -1.144
REMARK UNBOUND:                -1.342
REMARK SMILES CCCCCC(=O)CCCCC
REMARK SMILES IDX 6 1 7 2 5 3 4 4 3 5 2 6 1 7 8 8 9 9 10 10 11 11 12 12
REMARK H PARENT
REMARK Flexibility Score: inf
ROOT
ATOM      1  C   UNL     1     140.297 137.011 128.898  1.00  0.00     0.132 C 
ATOM      2  O   UNL     1     139.639 136.794 127.891  1.00  0.00    -0.300 OA
ENDROOT
BRANCH   1   3
ATOM      3  C   UNL     1     140.248 136.034 130.044  1.00  0.00     0.075 C 
BRANCH   3   4
ATOM      4  C   UNL     1     139.387 136.549 131.207  1.00  0.00     0.008 C 
BRANCH   4   5
ATOM      5  C   UNL     1     138.036 135.819 131.368  1.00  0.00     0.000 C 
BRANCH   5   6
ATOM      6  C   UNL     1     136.984 136.164 130.299  1.00  0.00    -0.003 C 
ATOM      7  C   UNL     1     136.689 135.000 129.353  1.00  0.00     0.004 C 
ENDBRANCH   5   6
ENDBRANCH   4   5
ENDBRANCH   3   4
ENDBRANCH   1   3
BRANCH   1   8
ATOM      8  C   UNL     1     141.110 138.275 128.994  1.00  0.00     0.075 C 
BRANCH   8   9
ATOM      9  C   UNL     1     140.292 139.516 128.614  1.00  0.00     0.008 C 
BRANCH   9  10
ATOM     10  C   UNL     1     139.751 140.255 129.847  1.00  0.00     0.000 C 
BRANCH  10  11
ATOM     11  C   UNL     1     138.281 139.900 130.098  1.00  0.00    -0.003 C 
ATOM     12  C   UNL     1     137.555 139.601 128.789  1.00  0.00     0.004 C 
ENDBRANCH  10  11
ENDBRANCH   9  10
ENDBRANCH   8   9
ENDBRANCH   1   8
TORSDOF 8
ENDMDL
MODEL 8
REMARK VINA RESULT:    -2.879      2.335      4.186
REMARK INTER + INTRA:          -5.567
REMARK INTER:                  -4.181
REMARK INTRA:                  -1.386
REMARK UNBOUND:                -1.342
REMARK SMILES CCCCCC(=O)CCCCC
REMARK SMILES IDX 6 1 7 2 5 3 4 4 3 5 2 6 1 7 8 8 9 9 10 10 11 11 12 12
REMARK H PARENT
REMARK Flexibility Score: inf
ROOT
ATOM      1  C   UNL     1     140.087 139.596 128.999  1.00  0.00     0.132 C 
ATOM      2  O   UNL     1     140.254 140.633 129.624  1.00  0.00    -0.300 OA
ENDROOT
BRANCH   1   3
ATOM      3  C   UNL     1     138.967 139.504 127.996  1.00  0.00     0.075 C 
BRANCH   3   4
ATOM      4  C   UNL     1     137.670 140.142 128.517  1.00  0.00     0.008 C 
BRANCH   4   5
ATOM      5  C   UNL     1     136.928 139.296 129.573  1.00  0.00     0.000 C 
BRANCH   5   6
ATOM      6  C   UNL     1     136.883 139.915 130.981  1.00  0.00    -0.003 C 
ATOM      7  C   UNL     1     137.891 139.287 131.943  1.00  0.00     0.004 C 
ENDBRANCH   5   6
ENDBRANCH   4   5
ENDBRANCH   3   4
ENDBRANCH   1   3
BRANCH   1   8
ATOM      8  C   UNL     1     140.976 138.412 129.277  1.00  0.00     0.075 C 
BRANCH   8   9
ATOM      9  C   UNL     1     140.242 137.080 129.072  1.00  0.00     0.008 C 
BRANCH   9  10
ATOM     10  C   UNL     1     139.849 136.422 130.403  1.00  0.00     0.000 C 
BRANCH  10  11
ATOM     11  C   UNL     1     138.394 135.939 130.366  1.00  0.00    -0.003 C 
ATOM     12  C   UNL     1     137.916 135.738 128.931  1.00  0.00     0.004 C 
ENDBRANCH  10  11
ENDBRANCH   9  10
ENDBRANCH   8   9
ENDBRANCH   1   8
TORSDOF 8
ENDMDL
MODEL 9
REMARK VINA RESULT:    -2.848      2.987      5.499
REMARK INTER + INTRA:          -5.521
REMARK INTER:                  -4.253
REMARK INTRA:                  -1.268
REMARK UNBOUND:                -1.342
REMARK SMILES CCCCCC(=O)CCCCC
REMARK SMILES IDX 6 1 7 2 5 3 4 4 3 5 2 6 1 7 8 8 9 9 10 10 11 11 12 12
REMARK H PARENT
REMARK Flexibility Score: inf
ROOT
ATOM      1  C   UNL     1     134.985 139.671 129.393  1.00  0.00     0.132 C 
ATOM      2  O   UNL     1     134.257 140.284 130.161  1.00  0.00    -0.300 OA
ENDROOT
BRANCH   1   3
ATOM      3  C   UNL     1     135.836 140.432 128.410  1.00  0.00     0.075 C 
BRANCH   3   4
ATOM      4  C   UNL     1     137.231 140.745 128.974  1.00  0.00     0.008 C 
BRANCH   4   5
ATOM      5  C   UNL     1     138.353 139.838 128.426  1.00  0.00     0.000 C 
BRANCH   5   6
ATOM      6  C   UNL     1     139.046 138.958 129.481  1.00  0.00    -0.003 C 
ATOM      7  C   UNL     1     138.375 139.029 130.853  1.00  0.00     0.004 C 
ENDBRANCH   5   6
ENDBRANCH   4   5
ENDBRANCH   3   4
ENDBRANCH   1   3
BRANCH   1   8
ATOM      8  C   UNL     1     134.981 138.165 129.411  1.00  0.00     0.075 C 
BRANCH   8   9
ATOM      9  C   UNL     1     135.190 137.572 128.012  1.00  0.00     0.008 C 
BRANCH   9  10
ATOM     10  C   UNL     1     136.448 136.695 127.935  1.00  0.00     0.000 C 
BRANCH  10  11
ATOM     11  C   UNL     1     136.690 135.965 129.262  1.00  0.00    -0.003 C 
ATOM     12  C   UNL     1     137.560 134.728 129.060  1.00  0.00     0.004 C 
ENDBRANCH  10  11
ENDBRANCH   9  10
ENDBRANCH   8   9
ENDBRANCH   1   8
TORSDOF 8
ENDMDL
