MODEL 1
REMARK VINA RESULT:    -4.794      0.000      0.000
REMARK INTER + INTRA:          -6.255
REMARK INTER:                  -6.756
REMARK INTRA:                   0.501
REMARK UNBOUND:                 0.501
REMARK SMILES CC1=CCC(=C(C)C)C(=O)CC(C)=CCC1
REMARK SMILES IDX 12 1 14 2 13 3 15 4 16 5 2 6 1 7 3 8 11 10 9 11 10 12 5 13
REMARK SMILES IDX 6 14 7 15 8 16 4 17
REMARK H PARENT
REMARK Flexibility Score: 60.00
ROOT
ATOM      1  C   UNL     1      17.029 -30.905  21.885  1.00  0.00    -0.070 C 
ATOM      2  C   UNL     1      17.629 -31.278  20.732  1.00  0.00    -0.027 C 
ATOM      3  C   UNL     1      16.624 -29.460  22.033  1.00  0.00     0.039 C 
ENDROOT
BRANCH   2   4
ATOM      4  C   UNL     1      18.194 -32.650  20.434  1.00  0.00     0.032 C 
BRANCH   4   5
ATOM      5  C   UNL     1      17.292 -33.545  19.558  1.00  0.00     0.034 C 
BRANCH   5   6
ATOM      6  C   UNL     1      16.414 -34.482  20.367  1.00  0.00    -0.077 C 
ATOM      7  C   UNL     1      16.916 -35.885  20.602  1.00  0.00     0.039 C 
ATOM      8  C   UNL     1      15.181 -34.164  20.833  1.00  0.00    -0.023 CG0
ATOM      9  G   UNL     1      14.485 -32.822  20.734  1.00  0.00     0.000 G0
ENDBRANCH   5   6
ENDBRANCH   4   5
ENDBRANCH   2   4
BRANCH   1  10
ATOM     10  C   UNL     1      16.831 -31.841  23.059  1.00  0.00     0.111 C 
BRANCH  10  11
ATOM     11  C   UNL     1      15.441 -32.417  23.083  1.00  0.00     0.163 C 
ATOM     12  O   UNL     1      15.160 -33.256  23.982  1.00  0.00    -0.294 OA
BRANCH  11  13
ATOM     13  C   UNL     1      14.417 -32.080  22.049  1.00  0.00    -0.002 C 
ATOM     14  C   UNL     1      13.402 -31.207  22.331  1.00  0.00    -0.069 C 
ATOM     15  C   UNL     1      12.263 -30.966  21.364  1.00  0.00     0.039 C 
ATOM     16  C   UNL     1      13.367 -30.437  23.632  1.00  0.00     0.039 C 
BRANCH  13  17
ATOM     17  C   UNL     1      14.499 -32.816  20.722  1.00  0.00     0.066 CG0
ATOM     18  G   UNL     1      15.172 -34.167  20.853  1.00  0.00     0.000 G0
ENDBRANCH  13  17
ENDBRANCH  11  13
ENDBRANCH  10  11
ENDBRANCH   1  10
TORSDOF 0
ENDMDL
MODEL 2
REMARK VINA RESULT:    -4.544      1.416      1.830
REMARK INTER + INTRA:          -5.902
REMARK INTER:                  -6.315
REMARK INTRA:                   0.413
REMARK UNBOUND:                 0.501
REMARK SMILES CC1=CCC(=C(C)C)C(=O)CC(C)=CCC1
REMARK SMILES IDX 12 1 14 2 13 3 15 4 16 5 2 6 1 7 3 8 11 10 9 11 10 12 5 13
REMARK SMILES IDX 6 14 7 15 8 16 4 17
REMARK H PARENT
REMARK Flexibility Score: 60.00
ROOT
ATOM      1  C   UNL     1      18.675 -31.489  21.005  1.00  0.00    -0.070 C 
ATOM      2  C   UNL     1      18.742 -32.664  20.339  1.00  0.00    -0.027 C 
ATOM      3  C   UNL     1      19.851 -31.098  21.864  1.00  0.00     0.039 C 
ENDROOT
BRANCH   2   4
ATOM      4  C   UNL     1      17.633 -33.273  19.509  1.00  0.00     0.032 C 
BRANCH   4   5
ATOM      5  C   UNL     1      17.058 -34.592  20.066  1.00  0.00     0.034 C 
BRANCH   5   6
ATOM      6  C   UNL     1      16.770 -34.536  21.555  1.00  0.00    -0.077 C 
ATOM      7  C   UNL     1      17.589 -35.420  22.463  1.00  0.00     0.039 C 
ATOM      8  C   UNL     1      15.781 -33.796  22.116  1.00  0.00    -0.023 CG0
ATOM      9  G   UNL     1      14.853 -32.828  21.411  1.00  0.00     0.000 G0
ENDBRANCH   5   6
ENDBRANCH   4   5
ENDBRANCH   2   4
BRANCH   1  10
ATOM     10  C   UNL     1      17.448 -30.601  21.002  1.00  0.00     0.111 C 
BRANCH  10  11
ATOM     11  C   UNL     1      16.500 -30.958  22.115  1.00  0.00     0.163 C 
ATOM     12  O   UNL     1      16.941 -30.953  23.297  1.00  0.00    -0.294 OA
BRANCH  11  13
ATOM     13  C   UNL     1      15.089 -31.376  21.862  1.00  0.00    -0.002 C 
ATOM     14  C   UNL     1      14.053 -30.515  22.098  1.00  0.00    -0.069 C 
ATOM     15  C   UNL     1      12.609 -30.956  22.003  1.00  0.00     0.039 C 
ATOM     16  C   UNL     1      14.302 -29.070  22.469  1.00  0.00     0.039 C 
BRANCH  13  17
ATOM     17  C   UNL     1      14.856 -32.814  21.428  1.00  0.00     0.066 CG0
ATOM     18  G   UNL     1      15.783 -33.785  22.130  1.00  0.00     0.000 G0
ENDBRANCH  13  17
ENDBRANCH  11  13
ENDBRANCH  10  11
ENDBRANCH   1  10
TORSDOF 0
ENDMDL
MODEL 3
REMARK VINA RESULT:    -4.464      1.683      4.099
REMARK INTER + INTRA:          -5.789
REMARK INTER:                  -6.025
REMARK INTRA:                   0.236
REMARK UNBOUND:                 0.501
REMARK SMILES CC1=CCC(=C(C)C)C(=O)CC(C)=CCC1
REMARK SMILES IDX 12 1 14 2 13 3 15 4 16 5 2 6 1 7 3 8 11 10 9 11 10 12 5 13
REMARK SMILES IDX 6 14 7 15 8 16 4 17
REMARK H PARENT
REMARK Flexibility Score: 60.00
ROOT
ATOM      1  C   UNL     1      18.046 -29.850  21.005  1.00  0.00    -0.070 C 
ATOM      2  C   UNL     1      17.085 -29.161  21.661  1.00  0.00    -0.027 C 
ATOM      3  C   UNL     1      19.429 -29.251  20.951  1.00  0.00     0.039 C 
ENDROOT
BRANCH   2   4
ATOM      4  C   UNL     1      15.623 -29.545  21.743  1.00  0.00     0.032 C 
BRANCH   4   5
ATOM      5  C   UNL     1      15.305 -30.671  22.749  1.00  0.00     0.034 C 
BRANCH   5   6
ATOM      6  C   UNL     1      14.416 -31.756  22.169  1.00  0.00    -0.077 C 
ATOM      7  C   UNL     1      13.003 -31.381  21.795  1.00  0.00     0.039 C 
ATOM      8  C   UNL     1      14.786 -33.053  22.028  1.00  0.00    -0.023 CG0
ATOM      9  G   UNL     1      16.147 -33.652  22.317  1.00  0.00     0.000 G0
ENDBRANCH   5   6
ENDBRANCH   4   5
ENDBRANCH   2   4
BRANCH   1  10
ATOM     10  C   UNL     1      17.779 -31.135  20.251  1.00  0.00     0.111 C 
BRANCH  10  11
ATOM     11  C   UNL     1      18.026 -32.346  21.110  1.00  0.00     0.163 C 
ATOM     12  O   UNL     1      19.078 -32.378  21.804  1.00  0.00    -0.294 OA
BRANCH  11  13
ATOM     13  C   UNL     1      17.107 -33.524  21.118  1.00  0.00    -0.002 C 
ATOM     14  C   UNL     1      17.068 -34.386  20.057  1.00  0.00    -0.069 C 
ATOM     15  C   UNL     1      16.042 -35.494  19.964  1.00  0.00     0.039 C 
ATOM     16  C   UNL     1      18.055 -34.272  18.916  1.00  0.00     0.039 C 
BRANCH  13  17
ATOM     17  C   UNL     1      16.163 -33.663  22.301  1.00  0.00     0.066 CG0
ATOM     18  G   UNL     1      14.801 -33.060  22.024  1.00  0.00     0.000 G0
ENDBRANCH  13  17
ENDBRANCH  11  13
ENDBRANCH  10  11
ENDBRANCH   1  10
TORSDOF 0
ENDMDL
MODEL 4
REMARK VINA RESULT:    -4.446      1.863      4.616
REMARK INTER + INTRA:          -5.765
REMARK INTER:                  -6.450
REMARK INTRA:                   0.685
REMARK UNBOUND:                 0.501
REMARK SMILES CC1=CCC(=C(C)C)C(=O)CC(C)=CCC1
REMARK SMILES IDX 12 1 14 2 13 3 15 4 16 5 2 6 1 7 3 8 11 10 9 11 10 12 5 13
REMARK SMILES IDX 6 14 7 15 8 16 4 17
REMARK H PARENT
REMARK Flexibility Score: 60.00
ROOT
ATOM      1  C   UNL     1      16.289 -33.476  23.525  1.00  0.00    -0.070 C 
ATOM      2  C   UNL     1      15.412 -32.799  24.298  1.00  0.00    -0.027 C 
ATOM      3  C   UNL     1      17.725 -33.545  23.982  1.00  0.00     0.039 C 
ENDROOT
BRANCH   2   4
ATOM      4  C   UNL     1      13.960 -32.535  23.962  1.00  0.00     0.032 C 
BRANCH   4   5
ATOM      5  C   UNL     1      13.601 -31.048  23.760  1.00  0.00     0.034 C 
BRANCH   5   6
ATOM      6  C   UNL     1      13.325 -30.692  22.311  1.00  0.00    -0.077 C 
ATOM      7  C   UNL     1      11.885 -30.629  21.865  1.00  0.00     0.039 C 
ATOM      8  C   UNL     1      14.287 -30.494  21.375  1.00  0.00    -0.023 CG0
ATOM      9  G   UNL     1      15.786 -30.489  21.593  1.00  0.00     0.000 G0
ENDBRANCH   5   6
ENDBRANCH   4   5
ENDBRANCH   2   4
BRANCH   1  10
ATOM     10  C   UNL     1      15.922 -34.084  22.187  1.00  0.00     0.111 C 
BRANCH  10  11
ATOM     11  C   UNL     1      15.669 -33.027  21.146  1.00  0.00     0.163 C 
ATOM     12  O   UNL     1      14.797 -33.256  20.265  1.00  0.00    -0.294 OA
BRANCH  11  13
ATOM     13  C   UNL     1      16.453 -31.757  21.087  1.00  0.00    -0.002 C 
ATOM     14  C   UNL     1      17.755 -31.759  20.668  1.00  0.00    -0.069 C 
ATOM     15  C   UNL     1      18.623 -30.522  20.746  1.00  0.00     0.039 C 
ATOM     16  C   UNL     1      18.396 -33.008  20.105  1.00  0.00     0.039 C 
BRANCH  13  17
ATOM     17  C   UNL     1      15.776 -30.496  21.598  1.00  0.00     0.066 CG0
ATOM     18  G   UNL     1      14.282 -30.503  21.350  1.00  0.00     0.000 G0
ENDBRANCH  13  17
ENDBRANCH  11  13
ENDBRANCH  10  11
ENDBRANCH   1  10
TORSDOF 0
ENDMDL
MODEL 5
REMARK VINA RESULT:    -4.377      1.084      3.814
REMARK INTER + INTRA:          -5.668
REMARK INTER:                  -6.332
REMARK INTRA:                   0.665
REMARK UNBOUND:                 0.501
REMARK SMILES CC1=CCC(=C(C)C)C(=O)CC(C)=CCC1
REMARK SMILES IDX 12 1 14 2 13 3 15 4 16 5 2 6 1 7 3 8 11 10 9 11 10 12 5 13
REMARK SMILES IDX 6 14 7 15 8 16 4 17
REMARK H PARENT
REMARK Flexibility Score: 60.00
ROOT
ATOM      1  C   UNL     1      17.879 -31.540  21.607  1.00  0.00    -0.070 C 
ATOM      2  C   UNL     1      17.216 -30.433  21.207  1.00  0.00    -0.027 C 
ATOM      3  C   UNL     1      18.817 -32.194  20.623  1.00  0.00     0.039 C 
ENDROOT
BRANCH   2   4
ATOM      4  C   UNL     1      16.165 -29.695  22.009  1.00  0.00     0.032 C 
BRANCH   4   5
ATOM      5  C   UNL     1      14.736 -29.772  21.429  1.00  0.00     0.034 C 
BRANCH   5   6
ATOM      6  C   UNL     1      13.819 -30.686  22.222  1.00  0.00    -0.077 C 
ATOM      7  C   UNL     1      12.917 -30.052  23.252  1.00  0.00     0.039 C 
ATOM      8  C   UNL     1      13.806 -32.037  22.114  1.00  0.00    -0.023 CG0
ATOM      9  G   UNL     1      14.604 -32.884  21.144  1.00  0.00     0.000 G0
ENDBRANCH   5   6
ENDBRANCH   4   5
ENDBRANCH   2   4
BRANCH   1  10
ATOM     10  C   UNL     1      17.658 -32.203  22.951  1.00  0.00     0.111 C 
BRANCH  10  11
ATOM     11  C   UNL     1      16.372 -32.985  22.979  1.00  0.00     0.163 C 
ATOM     12  O   UNL     1      15.811 -33.167  24.094  1.00  0.00    -0.294 OA
BRANCH  11  13
ATOM     13  C   UNL     1      15.780 -33.599  21.753  1.00  0.00    -0.002 C 
ATOM     14  C   UNL     1      16.344 -34.709  21.186  1.00  0.00    -0.069 C 
ATOM     15  C   UNL     1      15.867 -35.261  19.861  1.00  0.00     0.039 C 
ATOM     16  C   UNL     1      17.482 -35.443  21.861  1.00  0.00     0.039 C 
BRANCH  13  17
ATOM     17  C   UNL     1      14.597 -32.887  21.119  1.00  0.00     0.066 CG0
ATOM     18  G   UNL     1      13.832 -32.041  22.117  1.00  0.00     0.000 G0
ENDBRANCH  13  17
ENDBRANCH  11  13
ENDBRANCH  10  11
ENDBRANCH   1  10
TORSDOF 0
ENDMDL
MODEL 6
REMARK VINA RESULT:    -4.250      1.715      4.286
REMARK INTER + INTRA:          -5.488
REMARK INTER:                  -5.648
REMARK INTRA:                   0.159
REMARK UNBOUND:                 0.501
REMARK SMILES CC1=CCC(=C(C)C)C(=O)CC(C)=CCC1
REMARK SMILES IDX 12 1 14 2 13 3 15 4 16 5 2 6 1 7 3 8 11 10 9 11 10 12 5 13
REMARK SMILES IDX 6 14 7 15 8 16 4 17
REMARK H PARENT
REMARK Flexibility Score: 60.00
ROOT
ATOM      1  C   UNL     1      14.039 -30.757  22.114  1.00  0.00    -0.070 C 
ATOM      2  C   UNL     1      14.764 -29.632  22.300  1.00  0.00    -0.027 C 
ATOM      3  C   UNL     1      12.706 -30.860  22.811  1.00  0.00     0.039 C 
ENDROOT
BRANCH   2   4
ATOM      4  C   UNL     1      16.159 -29.383  21.769  1.00  0.00     0.032 C 
BRANCH   4   5
ATOM      5  C   UNL     1      17.294 -29.991  22.621  1.00  0.00     0.034 C 
BRANCH   5   6
ATOM      6  C   UNL     1      18.346 -30.705  21.791  1.00  0.00    -0.077 C 
ATOM      7  C   UNL     1      19.221 -29.866  20.895  1.00  0.00     0.039 C 
ATOM      8  C   UNL     1      18.504 -32.051  21.752  1.00  0.00    -0.023 CG0
ATOM      9  G   UNL     1      17.758 -33.084  22.572  1.00  0.00     0.000 G0
ENDBRANCH   5   6
ENDBRANCH   4   5
ENDBRANCH   2   4
BRANCH   1  10
ATOM     10  C   UNL     1      14.540 -31.948  21.322  1.00  0.00     0.111 C 
BRANCH  10  11
ATOM     11  C   UNL     1      15.205 -32.966  22.209  1.00  0.00     0.163 C 
ATOM     12  O   UNL     1      14.659 -33.241  23.312  1.00  0.00    -0.294 OA
BRANCH  11  13
ATOM     13  C   UNL     1      16.508 -33.605  21.858  1.00  0.00    -0.002 C 
ATOM     14  C   UNL     1      16.557 -34.659  20.988  1.00  0.00    -0.069 C 
ATOM     15  C   UNL     1      17.835 -35.427  20.732  1.00  0.00     0.039 C 
ATOM     16  C   UNL     1      15.327 -35.112  20.234  1.00  0.00     0.039 C 
BRANCH  13  17
ATOM     17  C   UNL     1      17.748 -33.098  22.576  1.00  0.00     0.066 CG0
ATOM     18  G   UNL     1      18.496 -32.056  21.768  1.00  0.00     0.000 G0
ENDBRANCH  13  17
ENDBRANCH  11  13
ENDBRANCH  10  11
ENDBRANCH   1  10
TORSDOF 0
ENDMDL
MODEL 7
REMARK VINA RESULT:    -4.218      2.128      3.890
REMARK INTER + INTRA:          -5.444
REMARK INTER:                  -5.650
REMARK INTRA:                   0.207
REMARK UNBOUND:                 0.501
REMARK SMILES CC1=CCC(=C(C)C)C(=O)CC(C)=CCC1
REMARK SMILES IDX 12 1 14 2 13 3 15 4 16 5 2 6 1 7 3 8 11 10 9 11 10 12 5 13
REMARK SMILES IDX 6 14 7 15 8 16 4 17
REMARK H PARENT
REMARK Flexibility Score: 60.00
ROOT
ATOM      1  C   UNL     1      14.454 -32.904  20.848  1.00  0.00    -0.070 C 
ATOM      2  C   UNL     1      14.542 -33.907  19.946  1.00  0.00    -0.027 C 
ATOM      3  C   UNL     1      13.570 -31.730  20.511  1.00  0.00     0.039 C 
ENDROOT
BRANCH   2   4
ATOM      4  C   UNL     1      15.446 -35.116  20.056  1.00  0.00     0.032 C 
BRANCH   4   5
ATOM      5  C   UNL     1      16.831 -34.951  19.395  1.00  0.00     0.034 C 
BRANCH   5   6
ATOM      6  C   UNL     1      17.980 -35.309  20.320  1.00  0.00    -0.077 C 
ATOM      7  C   UNL     1      18.295 -36.772  20.513  1.00  0.00     0.039 C 
ATOM      8  C   UNL     1      18.697 -34.407  21.035  1.00  0.00    -0.023 CG0
ATOM      9  G   UNL     1      18.573 -32.898  20.988  1.00  0.00     0.000 G0
ENDBRANCH   5   6
ENDBRANCH   4   5
ENDBRANCH   2   4
BRANCH   1  10
ATOM     10  C   UNL     1      15.266 -32.861  22.126  1.00  0.00     0.111 C 
BRANCH  10  11
ATOM     11  C   UNL     1      16.426 -31.908  22.016  1.00  0.00     0.163 C 
ATOM     12  O   UNL     1      16.186 -30.713  21.694  1.00  0.00    -0.294 OA
BRANCH  11  13
ATOM     13  C   UNL     1      17.841 -32.344  22.210  1.00  0.00    -0.002 C 
ATOM     14  C   UNL     1      18.469 -32.164  23.412  1.00  0.00    -0.069 C 
ATOM     15  C   UNL     1      19.943 -32.448  23.596  1.00  0.00     0.039 C 
ATOM     16  C   UNL     1      17.714 -31.666  24.625  1.00  0.00     0.039 C 
BRANCH  13  17
ATOM     17  C   UNL     1      18.571 -32.902  20.999  1.00  0.00     0.066 CG0
ATOM     18  G   UNL     1      18.692 -34.411  21.044  1.00  0.00     0.000 G0
ENDBRANCH  13  17
ENDBRANCH  11  13
ENDBRANCH  10  11
ENDBRANCH   1  10
TORSDOF 0
ENDMDL
MODEL 8
REMARK VINA RESULT:    -4.197      2.104      3.758
REMARK INTER + INTRA:          -5.413
REMARK INTER:                  -5.937
REMARK INTRA:                   0.524
REMARK UNBOUND:                 0.501
REMARK SMILES CC1=CCC(=C(C)C)C(=O)CC(C)=CCC1
REMARK SMILES IDX 12 1 14 2 13 3 15 4 16 5 2 6 1 7 3 8 11 10 9 11 10 12 5 13
REMARK SMILES IDX 6 14 7 15 8 16 4 17
REMARK H PARENT
REMARK Flexibility Score: 60.00
ROOT
ATOM      1  C   UNL     1      15.500 -33.540  22.001  1.00  0.00    -0.070 C 
ATOM      2  C   UNL     1      16.731 -33.370  22.533  1.00  0.00    -0.027 C 
ATOM      3  C   UNL     1      15.389 -34.325  20.718  1.00  0.00     0.039 C 
ENDROOT
BRANCH   2   4
ATOM      4  C   UNL     1      17.058 -32.536  23.753  1.00  0.00     0.032 C 
BRANCH   4   5
ATOM      5  C   UNL     1      17.861 -31.250  23.462  1.00  0.00     0.034 C 
BRANCH   5   6
ATOM      6  C   UNL     1      17.424 -30.550  22.188  1.00  0.00    -0.077 C 
ATOM      7  C   UNL     1      18.378 -30.558  21.020  1.00  0.00     0.039 C 
ATOM      8  C   UNL     1      16.264 -29.860  22.054  1.00  0.00    -0.023 CG0
ATOM      9  G   UNL     1      15.154 -29.731  23.077  1.00  0.00     0.000 G0
ENDBRANCH   5   6
ENDBRANCH   4   5
ENDBRANCH   2   4
BRANCH   1  10
ATOM     10  C   UNL     1      14.251 -32.905  22.576  1.00  0.00     0.111 C 
BRANCH  10  11
ATOM     11  C   UNL     1      13.893 -31.631  21.859  1.00  0.00     0.163 C 
ATOM     12  O   UNL     1      13.694 -31.684  20.615  1.00  0.00    -0.294 OA
BRANCH  11  13
ATOM     13  C   UNL     1      13.830 -30.311  22.555  1.00  0.00    -0.002 C 
ATOM     14  C   UNL     1      12.652 -29.620  22.636  1.00  0.00    -0.069 C 
ATOM     15  C   UNL     1      12.586 -28.215  23.193  1.00  0.00     0.039 C 
ATOM     16  C   UNL     1      11.350 -30.231  22.169  1.00  0.00     0.039 C 
BRANCH  13  17
ATOM     17  C   UNL     1      15.136 -29.736  23.076  1.00  0.00     0.066 CG0
ATOM     18  G   UNL     1      16.263 -29.861  22.071  1.00  0.00     0.000 G0
ENDBRANCH  13  17
ENDBRANCH  11  13
ENDBRANCH  10  11
ENDBRANCH   1  10
TORSDOF 0
ENDMDL
MODEL 9
REMARK VINA RESULT:    -4.170      1.934      4.323
REMARK INTER + INTRA:          -5.376
REMARK INTER:                  -5.903
REMARK INTRA:                   0.528
REMARK UNBOUND:                 0.501
REMARK SMILES CC1=CCC(=C(C)C)C(=O)CC(C)=CCC1
REMARK SMILES IDX 12 1 14 2 13 3 15 4 16 5 2 6 1 7 3 8 11 10 9 11 10 12 5 13
REMARK SMILES IDX 6 14 7 15 8 16 4 17
REMARK H PARENT
REMARK Flexibility Score: 60.00
ROOT
ATOM      1  C   UNL     1      17.526 -31.779  20.970  1.00  0.00    -0.070 C 
ATOM      2  C   UNL     1      17.221 -30.556  21.461  1.00  0.00    -0.027 C 
ATOM      3  C   UNL     1      18.972 -32.205  20.988  1.00  0.00     0.039 C 
ENDROOT
BRANCH   2   4
ATOM      4  C   UNL     1      15.852 -29.913  21.440  1.00  0.00     0.032 C 
BRANCH   4   5
ATOM      5  C   UNL     1      15.067 -30.017  22.766  1.00  0.00     0.034 C 
BRANCH   5   6
ATOM      6  C   UNL     1      14.111 -31.195  22.802  1.00  0.00    -0.077 C 
ATOM      7  C   UNL     1      12.685 -30.955  22.371  1.00  0.00     0.039 C 
ATOM      8  C   UNL     1      14.434 -32.430  23.260  1.00  0.00    -0.023 CG0
ATOM      9  G   UNL     1      15.797 -32.905  23.723  1.00  0.00     0.000 G0
ENDBRANCH   5   6
ENDBRANCH   4   5
ENDBRANCH   2   4
BRANCH   1  10
ATOM     10  C   UNL     1      16.506 -32.693  20.323  1.00  0.00     0.111 C 
BRANCH  10  11
ATOM     11  C   UNL     1      15.994 -33.727  21.290  1.00  0.00     0.163 C 
ATOM     12  O   UNL     1      15.084 -34.507  20.900  1.00  0.00    -0.294 OA
BRANCH  11  13
ATOM     13  C   UNL     1      16.480 -33.815  22.700  1.00  0.00    -0.002 C 
ATOM     14  C   UNL     1      17.427 -34.736  23.056  1.00  0.00    -0.069 C 
ATOM     15  C   UNL     1      17.824 -34.957  24.499  1.00  0.00     0.039 C 
ATOM     16  C   UNL     1      18.126 -35.584  22.018  1.00  0.00     0.039 C 
BRANCH  13  17
ATOM     17  C   UNL     1      15.812 -32.912  23.724  1.00  0.00     0.066 CG0
ATOM     18  G   UNL     1      14.449 -32.434  23.268  1.00  0.00     0.000 G0
ENDBRANCH  13  17
ENDBRANCH  11  13
ENDBRANCH  10  11
ENDBRANCH   1  10
TORSDOF 0
ENDMDL
