MODEL 1
REMARK VINA RESULT:    -5.808      0.000      0.000
REMARK INTER + INTRA:         -12.008
REMARK INTER:                 -10.562
REMARK INTRA:                  -1.446
REMARK UNBOUND:                -1.446
REMARK SMILES CCCCCCCCCCCCCC[C@H](C)C(=O)[O-]
REMARK SMILES IDX 9 1 10 2 11 3 12 4 13 5 14 6 15 7 16 8 17 9 18 10 19 11 8 12
REMARK SMILES IDX 7 13 6 14 5 15 4 16 3 17 2 18 1 19
REMARK H PARENT
REMARK Flexibility Score: inf
ROOT
ATOM      1  C   UNL     1      27.018 -11.124  16.675  1.00  0.00     0.000 C 
ENDROOT
BRANCH   1   2
ATOM      2  C   UNL     1      27.538 -10.523  15.360  1.00  0.00     0.000 C 
BRANCH   2   3
ATOM      3  C   UNL     1      28.940 -11.030  14.990  1.00  0.00     0.000 C 
BRANCH   3   4
ATOM      4  C   UNL     1      29.855 -11.053  16.223  1.00  0.00     0.000 C 
BRANCH   4   5
ATOM      5  C   UNL     1      30.764  -9.816  16.319  1.00  0.00     0.001 C 
BRANCH   5   6
ATOM      6  C   UNL     1      30.582  -8.946  17.585  1.00  0.00     0.009 C 
BRANCH   6   7
ATOM      7  C   UNL     1      29.650  -7.711  17.463  1.00  0.00     0.032 C 
ATOM      8  C   UNL     1      28.222  -7.988  17.958  1.00  0.00     0.014 C 
BRANCH   7   9
ATOM      9  C   UNL     1      29.672  -7.106  16.081  1.00  0.00     0.044 C 
ATOM     10  O   UNL     1      30.676  -6.444  15.705  1.00  0.00    -0.550 OA
ATOM     11  O   UNL     1      28.588  -7.241  15.220  1.00  0.00    -0.550 OA
ENDBRANCH   7   9
ENDBRANCH   6   7
ENDBRANCH   5   6
ENDBRANCH   4   5
ENDBRANCH   3   4
ENDBRANCH   2   3
ENDBRANCH   1   2
BRANCH   1  12
ATOM     12  C   UNL     1      25.508 -10.895  16.873  1.00  0.00     0.000 C 
BRANCH  12  13
ATOM     13  C   UNL     1      24.661 -11.571  15.783  1.00  0.00    -0.000 C 
BRANCH  13  14
ATOM     14  C   UNL     1      23.663 -12.595  16.353  1.00  0.00    -0.000 C 
BRANCH  14  15
ATOM     15  C   UNL     1      23.890 -12.853  17.857  1.00  0.00    -0.000 C 
BRANCH  15  16
ATOM     16  C   UNL     1      22.671 -12.510  18.730  1.00  0.00    -0.000 C 
BRANCH  16  17
ATOM     17  C   UNL     1      22.975 -11.430  19.782  1.00  0.00    -0.000 C 
BRANCH  17  18
ATOM     18  C   UNL     1      22.649 -11.889  21.211  1.00  0.00    -0.003 C 
ATOM     19  C   UNL     1      23.062 -10.867  22.268  1.00  0.00     0.004 C 
ENDBRANCH  17  18
ENDBRANCH  16  17
ENDBRANCH  15  16
ENDBRANCH  14  15
ENDBRANCH  13  14
ENDBRANCH  12  13
ENDBRANCH   1  12
TORSDOF 14
ENDMDL
MODEL 2
REMARK VINA RESULT:    -5.771      1.304      1.576
REMARK INTER + INTRA:         -11.940
REMARK INTER:                 -10.655
REMARK INTRA:                  -1.285
REMARK UNBOUND:                -1.446
REMARK SMILES CCCCCCCCCCCCCC[C@H](C)C(=O)[O-]
REMARK SMILES IDX 9 1 10 2 11 3 12 4 13 5 14 6 15 7 16 8 17 9 18 10 19 11 8 12
REMARK SMILES IDX 7 13 6 14 5 15 4 16 3 17 2 18 1 19
REMARK H PARENT
REMARK Flexibility Score: inf
ROOT
ATOM      1  C   UNL     1      27.196 -11.237  16.576  1.00  0.00     0.000 C 
ENDROOT
BRANCH   1   2
ATOM      2  C   UNL     1      27.572 -10.903  15.123  1.00  0.00     0.000 C 
BRANCH   2   3
ATOM      3  C   UNL     1      29.075 -11.062  14.849  1.00  0.00     0.000 C 
BRANCH   3   4
ATOM      4  C   UNL     1      29.838  -9.785  15.231  1.00  0.00     0.000 C 
BRANCH   4   5
ATOM      5  C   UNL     1      30.618  -9.924  16.548  1.00  0.00     0.001 C 
BRANCH   5   6
ATOM      6  C   UNL     1      30.185  -8.973  17.689  1.00  0.00     0.009 C 
BRANCH   6   7
ATOM      7  C   UNL     1      29.456  -7.666  17.277  1.00  0.00     0.032 C 
ATOM      8  C   UNL     1      30.408  -6.471  17.128  1.00  0.00     0.014 C 
BRANCH   7   9
ATOM      9  C   UNL     1      28.280  -7.356  18.172  1.00  0.00     0.044 C 
ATOM     10  O   UNL     1      28.026  -6.161  18.477  1.00  0.00    -0.550 OA
ATOM     11  O   UNL     1      27.485  -8.372  18.692  1.00  0.00    -0.550 OA
ENDBRANCH   7   9
ENDBRANCH   6   7
ENDBRANCH   5   6
ENDBRANCH   4   5
ENDBRANCH   3   4
ENDBRANCH   2   3
ENDBRANCH   1   2
BRANCH   1  12
ATOM     12  C   UNL     1      25.750 -10.834  16.919  1.00  0.00     0.000 C 
BRANCH  12  13
ATOM     13  C   UNL     1      24.744 -11.269  15.841  1.00  0.00    -0.000 C 
BRANCH  13  14
ATOM     14  C   UNL     1      23.932 -12.511  16.250  1.00  0.00    -0.000 C 
BRANCH  14  15
ATOM     15  C   UNL     1      24.064 -12.823  17.755  1.00  0.00    -0.000 C 
BRANCH  15  16
ATOM     16  C   UNL     1      22.785 -12.532  18.557  1.00  0.00    -0.000 C 
BRANCH  16  17
ATOM     17  C   UNL     1      23.008 -11.519  19.692  1.00  0.00    -0.000 C 
BRANCH  17  18
ATOM     18  C   UNL     1      22.628 -12.082  21.069  1.00  0.00    -0.003 C 
ATOM     19  C   UNL     1      22.964 -11.125  22.212  1.00  0.00     0.004 C 
ENDBRANCH  17  18
ENDBRANCH  16  17
ENDBRANCH  15  16
ENDBRANCH  14  15
ENDBRANCH  13  14
ENDBRANCH  12  13
ENDBRANCH   1  12
TORSDOF 14
ENDMDL
MODEL 3
REMARK VINA RESULT:    -5.647      0.896      1.542
REMARK INTER + INTRA:         -11.714
REMARK INTER:                 -10.283
REMARK INTRA:                  -1.431
REMARK UNBOUND:                -1.446
REMARK SMILES CCCCCCCCCCCCCC[C@H](C)C(=O)[O-]
REMARK SMILES IDX 9 1 10 2 11 3 12 4 13 5 14 6 15 7 16 8 17 9 18 10 19 11 8 12
REMARK SMILES IDX 7 13 6 14 5 15 4 16 3 17 2 18 1 19
REMARK H PARENT
REMARK Flexibility Score: inf
ROOT
ATOM      1  C   UNL     1      25.923 -11.375  17.042  1.00  0.00     0.000 C 
ENDROOT
BRANCH   1   2
ATOM      2  C   UNL     1      27.050 -10.444  16.563  1.00  0.00     0.000 C 
BRANCH   2   3
ATOM      3  C   UNL     1      27.305 -10.550  15.053  1.00  0.00     0.000 C 
BRANCH   3   4
ATOM      4  C   UNL     1      28.705 -11.116  14.774  1.00  0.00     0.000 C 
BRANCH   4   5
ATOM      5  C   UNL     1      29.692 -10.873  15.927  1.00  0.00     0.001 C 
BRANCH   5   6
ATOM      6  C   UNL     1      30.800  -9.829  15.654  1.00  0.00     0.009 C 
BRANCH   6   7
ATOM      7  C   UNL     1      30.593  -8.411  16.248  1.00  0.00     0.032 C 
ATOM      8  C   UNL     1      29.942  -8.432  17.639  1.00  0.00     0.014 C 
BRANCH   7   9
ATOM      9  C   UNL     1      29.878  -7.485  15.293  1.00  0.00     0.044 C 
ATOM     10  O   UNL     1      30.522  -6.924  14.367  1.00  0.00    -0.550 OA
ATOM     11  O   UNL     1      28.521  -7.216  15.434  1.00  0.00    -0.550 OA
ENDBRANCH   7   9
ENDBRANCH   6   7
ENDBRANCH   5   6
ENDBRANCH   4   5
ENDBRANCH   3   4
ENDBRANCH   2   3
ENDBRANCH   1   2
BRANCH   1  12
ATOM     12  C   UNL     1      24.838 -11.586  15.971  1.00  0.00     0.000 C 
BRANCH  12  13
ATOM     13  C   UNL     1      23.762 -12.592  16.411  1.00  0.00    -0.000 C 
BRANCH  13  14
ATOM     14  C   UNL     1      23.924 -13.033  17.877  1.00  0.00    -0.000 C 
BRANCH  14  15
ATOM     15  C   UNL     1      22.680 -12.698  18.726  1.00  0.00    -0.000 C 
BRANCH  15  16
ATOM     16  C   UNL     1      22.767 -13.212  20.173  1.00  0.00    -0.000 C 
BRANCH  16  17
ATOM     17  C   UNL     1      22.738 -12.079  21.212  1.00  0.00    -0.000 C 
BRANCH  17  18
ATOM     18  C   UNL     1      22.825 -10.687  20.569  1.00  0.00    -0.003 C 
ATOM     19  C   UNL     1      24.154  -9.987  20.852  1.00  0.00     0.004 C 
ENDBRANCH  17  18
ENDBRANCH  16  17
ENDBRANCH  15  16
ENDBRANCH  14  15
ENDBRANCH  13  14
ENDBRANCH  12  13
ENDBRANCH   1  12
TORSDOF 14
ENDMDL
MODEL 4
REMARK VINA RESULT:    -5.453      1.314      2.046
REMARK INTER + INTRA:         -11.362
REMARK INTER:                 -10.202
REMARK INTRA:                  -1.159
REMARK UNBOUND:                -1.446
REMARK SMILES CCCCCCCCCCCCCC[C@H](C)C(=O)[O-]
REMARK SMILES IDX 9 1 10 2 11 3 12 4 13 5 14 6 15 7 16 8 17 9 18 10 19 11 8 12
REMARK SMILES IDX 7 13 6 14 5 15 4 16 3 17 2 18 1 19
REMARK H PARENT
REMARK Flexibility Score: inf
ROOT
ATOM      1  C   UNL     1      26.083 -11.488  16.998  1.00  0.00     0.000 C 
ENDROOT
BRANCH   1   2
ATOM      2  C   UNL     1      27.273 -10.599  16.602  1.00  0.00     0.000 C 
BRANCH   2   3
ATOM      3  C   UNL     1      27.571 -10.644  15.096  1.00  0.00     0.000 C 
BRANCH   3   4
ATOM      4  C   UNL     1      29.022 -11.077  14.839  1.00  0.00     0.000 C 
BRANCH   4   5
ATOM      5  C   UNL     1      29.883 -11.078  16.113  1.00  0.00     0.001 C 
BRANCH   5   6
ATOM      6  C   UNL     1      31.171 -10.225  16.053  1.00  0.00     0.009 C 
BRANCH   6   7
ATOM      7  C   UNL     1      31.365  -9.162  17.167  1.00  0.00     0.032 C 
ATOM      8  C   UNL     1      30.052  -8.483  17.583  1.00  0.00     0.014 C 
BRANCH   7   9
ATOM      9  C   UNL     1      32.446  -8.164  16.830  1.00  0.00     0.044 C 
ATOM     10  O   UNL     1      33.654  -8.519  16.858  1.00  0.00    -0.550 OA
ATOM     11  O   UNL     1      32.134  -6.846  16.514  1.00  0.00    -0.550 OA
ENDBRANCH   7   9
ENDBRANCH   6   7
ENDBRANCH   5   6
ENDBRANCH   4   5
ENDBRANCH   3   4
ENDBRANCH   2   3
ENDBRANCH   1   2
BRANCH   1  12
ATOM     12  C   UNL     1      24.941 -11.440  15.966  1.00  0.00     0.000 C 
BRANCH  12  13
ATOM     13  C   UNL     1      23.757 -12.340  16.354  1.00  0.00    -0.000 C 
BRANCH  13  14
ATOM     14  C   UNL     1      23.891 -12.923  17.772  1.00  0.00    -0.000 C 
BRANCH  14  15
ATOM     15  C   UNL     1      22.648 -12.633  18.640  1.00  0.00    -0.000 C 
BRANCH  15  16
ATOM     16  C   UNL     1      22.766 -13.165  20.078  1.00  0.00    -0.000 C 
BRANCH  16  17
ATOM     17  C   UNL     1      22.693 -12.050  21.135  1.00  0.00    -0.000 C 
BRANCH  17  18
ATOM     18  C   UNL     1      22.800 -10.647  20.521  1.00  0.00    -0.003 C 
ATOM     19  C   UNL     1      24.142  -9.976  20.813  1.00  0.00     0.004 C 
ENDBRANCH  17  18
ENDBRANCH  16  17
ENDBRANCH  15  16
ENDBRANCH  14  15
ENDBRANCH  13  14
ENDBRANCH  12  13
ENDBRANCH   1  12
TORSDOF 14
ENDMDL
MODEL 5
REMARK VINA RESULT:    -5.424      1.934      4.323
REMARK INTER + INTRA:         -11.310
REMARK INTER:                  -9.438
REMARK INTRA:                  -1.871
REMARK UNBOUND:                -1.446
REMARK SMILES CCCCCCCCCCCCCC[C@H](C)C(=O)[O-]
REMARK SMILES IDX 9 1 10 2 11 3 12 4 13 5 14 6 15 7 16 8 17 9 18 10 19 11 8 12
REMARK SMILES IDX 7 13 6 14 5 15 4 16 3 17 2 18 1 19
REMARK H PARENT
REMARK Flexibility Score: inf
ROOT
ATOM      1  C   UNL     1      23.604  -9.989  20.334  1.00  0.00     0.000 C 
ENDROOT
BRANCH   1   2
ATOM      2  C   UNL     1      25.137  -9.915  20.266  1.00  0.00     0.000 C 
BRANCH   2   3
ATOM      3  C   UNL     1      25.656  -9.661  18.843  1.00  0.00     0.000 C 
BRANCH   3   4
ATOM      4  C   UNL     1      27.180  -9.844  18.776  1.00  0.00     0.000 C 
BRANCH   4   5
ATOM      5  C   UNL     1      27.905  -8.626  18.181  1.00  0.00     0.001 C 
BRANCH   5   6
ATOM      6  C   UNL     1      29.344  -8.881  17.675  1.00  0.00     0.009 C 
BRANCH   6   7
ATOM      7  C   UNL     1      29.529  -9.077  16.147  1.00  0.00     0.032 C 
ATOM      8  C   UNL     1      28.440  -8.381  15.317  1.00  0.00     0.014 C 
BRANCH   7   9
ATOM      9  C   UNL     1      29.701 -10.528  15.768  1.00  0.00     0.044 C 
ATOM     10  O   UNL     1      30.055 -10.829  14.597  1.00  0.00    -0.550 OA
ATOM     11  O   UNL     1      29.448 -11.544  16.683  1.00  0.00    -0.550 OA
ENDBRANCH   7   9
ENDBRANCH   6   7
ENDBRANCH   5   6
ENDBRANCH   4   5
ENDBRANCH   3   4
ENDBRANCH   2   3
ENDBRANCH   1   2
BRANCH   1  12
ATOM     12  C   UNL     1      23.108 -11.010  21.376  1.00  0.00     0.000 C 
BRANCH  12  13
ATOM     13  C   UNL     1      22.688 -12.344  20.740  1.00  0.00    -0.000 C 
BRANCH  13  14
ATOM     14  C   UNL     1      22.654 -12.288  19.203  1.00  0.00    -0.000 C 
BRANCH  14  15
ATOM     15  C   UNL     1      23.603 -13.323  18.561  1.00  0.00    -0.000 C 
BRANCH  15  16
ATOM     16  C   UNL     1      24.549 -12.719  17.510  1.00  0.00    -0.000 C 
BRANCH  16  17
ATOM     17  C   UNL     1      23.840 -12.390  16.186  1.00  0.00    -0.000 C 
BRANCH  17  18
ATOM     18  C   UNL     1      24.474 -11.195  15.458  1.00  0.00    -0.003 C 
ATOM     19  C   UNL     1      26.002 -11.232  15.482  1.00  0.00     0.004 C 
ENDBRANCH  17  18
ENDBRANCH  16  17
ENDBRANCH  15  16
ENDBRANCH  14  15
ENDBRANCH  13  14
ENDBRANCH  12  13
ENDBRANCH   1  12
TORSDOF 14
ENDMDL
MODEL 6
REMARK VINA RESULT:    -5.340      1.626      2.734
REMARK INTER + INTRA:         -11.157
REMARK INTER:                  -9.414
REMARK INTRA:                  -1.743
REMARK UNBOUND:                -1.446
REMARK SMILES CCCCCCCCCCCCCC[C@H](C)C(=O)[O-]
REMARK SMILES IDX 9 1 10 2 11 3 12 4 13 5 14 6 15 7 16 8 17 9 18 10 19 11 8 12
REMARK SMILES IDX 7 13 6 14 5 15 4 16 3 17 2 18 1 19
REMARK H PARENT
REMARK Flexibility Score: inf
ROOT
ATOM      1  C   UNL     1      26.793 -11.698  17.262  1.00  0.00     0.000 C 
ENDROOT
BRANCH   1   2
ATOM      2  C   UNL     1      27.468 -10.668  18.182  1.00  0.00     0.000 C 
BRANCH   2   3
ATOM      3  C   UNL     1      27.089  -9.222  17.830  1.00  0.00     0.000 C 
BRANCH   3   4
ATOM      4  C   UNL     1      28.258  -8.266  18.116  1.00  0.00     0.000 C 
BRANCH   4   5
ATOM      5  C   UNL     1      29.147  -8.020  16.887  1.00  0.00     0.001 C 
BRANCH   5   6
ATOM      6  C   UNL     1      28.791  -8.841  15.625  1.00  0.00     0.009 C 
BRANCH   6   7
ATOM      7  C   UNL     1      29.879  -9.805  15.081  1.00  0.00     0.032 C 
ATOM      8  C   UNL     1      29.301 -11.130  14.564  1.00  0.00     0.014 C 
BRANCH   7   9
ATOM      9  C   UNL     1      31.007 -10.014  16.063  1.00  0.00     0.044 C 
ATOM     10  O   UNL     1      30.863 -10.824  17.016  1.00  0.00    -0.550 OA
ATOM     11  O   UNL     1      32.198  -9.304  15.950  1.00  0.00    -0.550 OA
ENDBRANCH   7   9
ENDBRANCH   6   7
ENDBRANCH   5   6
ENDBRANCH   4   5
ENDBRANCH   3   4
ENDBRANCH   2   3
ENDBRANCH   1   2
BRANCH   1  12
ATOM     12  C   UNL     1      25.742 -11.062  16.334  1.00  0.00     0.000 C 
BRANCH  12  13
ATOM     13  C   UNL     1      24.453 -11.896  16.243  1.00  0.00    -0.000 C 
BRANCH  13  14
ATOM     14  C   UNL     1      24.243 -12.803  17.468  1.00  0.00    -0.000 C 
BRANCH  14  15
ATOM     15  C   UNL     1      22.886 -12.547  18.157  1.00  0.00    -0.000 C 
BRANCH  15  16
ATOM     16  C   UNL     1      23.016 -12.076  19.615  1.00  0.00    -0.000 C 
BRANCH  16  17
ATOM     17  C   UNL     1      23.463 -10.609  19.730  1.00  0.00    -0.000 C 
BRANCH  17  18
ATOM     18  C   UNL     1      23.811 -10.210  21.172  1.00  0.00    -0.003 C 
ATOM     19  C   UNL     1      22.985 -10.969  22.210  1.00  0.00     0.004 C 
ENDBRANCH  17  18
ENDBRANCH  16  17
ENDBRANCH  15  16
ENDBRANCH  14  15
ENDBRANCH  13  14
ENDBRANCH  12  13
ENDBRANCH   1  12
TORSDOF 14
ENDMDL
MODEL 7
REMARK VINA RESULT:    -5.276      1.008      1.341
REMARK INTER + INTRA:         -11.040
REMARK INTER:                  -9.735
REMARK INTRA:                  -1.304
REMARK UNBOUND:                -1.446
REMARK SMILES CCCCCCCCCCCCCC[C@H](C)C(=O)[O-]
REMARK SMILES IDX 9 1 10 2 11 3 12 4 13 5 14 6 15 7 16 8 17 9 18 10 19 11 8 12
REMARK SMILES IDX 7 13 6 14 5 15 4 16 3 17 2 18 1 19
REMARK H PARENT
REMARK Flexibility Score: inf
ROOT
ATOM      1  C   UNL     1      27.112 -10.563  16.921  1.00  0.00     0.000 C 
ENDROOT
BRANCH   1   2
ATOM      2  C   UNL     1      27.301 -10.846  15.422  1.00  0.00     0.000 C 
BRANCH   2   3
ATOM      3  C   UNL     1      28.769 -11.099  15.047  1.00  0.00     0.000 C 
BRANCH   3   4
ATOM      4  C   UNL     1      29.644 -11.205  16.306  1.00  0.00     0.000 C 
BRANCH   4   5
ATOM      5  C   UNL     1      30.773 -10.162  16.342  1.00  0.00     0.001 C 
BRANCH   5   6
ATOM      6  C   UNL     1      30.597  -9.017  17.366  1.00  0.00     0.009 C 
BRANCH   6   7
ATOM      7  C   UNL     1      30.337  -7.597  16.798  1.00  0.00     0.032 C 
ATOM      8  C   UNL     1      29.039  -7.506  15.983  1.00  0.00     0.014 C 
BRANCH   7   9
ATOM      9  C   UNL     1      31.527  -7.051  16.046  1.00  0.00     0.044 C 
ATOM     10  O   UNL     1      31.366  -6.550  14.902  1.00  0.00    -0.550 OA
ATOM     11  O   UNL     1      32.808  -7.116  16.584  1.00  0.00    -0.550 OA
ENDBRANCH   7   9
ENDBRANCH   6   7
ENDBRANCH   5   6
ENDBRANCH   4   5
ENDBRANCH   3   4
ENDBRANCH   2   3
ENDBRANCH   1   2
BRANCH   1  12
ATOM     12  C   UNL     1      25.685 -10.879  17.406  1.00  0.00     0.000 C 
BRANCH  12  13
ATOM     13  C   UNL     1      24.825 -11.539  16.317  1.00  0.00    -0.000 C 
BRANCH  13  14
ATOM     14  C   UNL     1      24.042 -12.759  16.834  1.00  0.00    -0.000 C 
BRANCH  14  15
ATOM     15  C   UNL     1      22.732 -12.354  17.542  1.00  0.00    -0.000 C 
BRANCH  15  16
ATOM     16  C   UNL     1      22.644 -12.840  18.998  1.00  0.00    -0.000 C 
BRANCH  16  17
ATOM     17  C   UNL     1      23.292 -11.862  19.993  1.00  0.00    -0.000 C 
BRANCH  17  18
ATOM     18  C   UNL     1      22.610 -11.884  21.370  1.00  0.00    -0.003 C 
ATOM     19  C   UNL     1      22.916 -10.638  22.200  1.00  0.00     0.004 C 
ENDBRANCH  17  18
ENDBRANCH  16  17
ENDBRANCH  15  16
ENDBRANCH  14  15
ENDBRANCH  13  14
ENDBRANCH  12  13
ENDBRANCH   1  12
TORSDOF 14
ENDMDL
MODEL 8
REMARK VINA RESULT:    -5.260      3.067      7.530
REMARK INTER + INTRA:         -11.012
REMARK INTER:                  -9.632
REMARK INTRA:                  -1.380
REMARK UNBOUND:                -1.446
REMARK SMILES CCCCCCCCCCCCCC[C@H](C)C(=O)[O-]
REMARK SMILES IDX 9 1 10 2 11 3 12 4 13 5 14 6 15 7 16 8 17 9 18 10 19 11 8 12
REMARK SMILES IDX 7 13 6 14 5 15 4 16 3 17 2 18 1 19
REMARK H PARENT
REMARK Flexibility Score: inf
ROOT
ATOM      1  C   UNL     1      27.156 -11.046  16.410  1.00  0.00     0.000 C 
ENDROOT
BRANCH   1   2
ATOM      2  C   UNL     1      26.188 -11.100  15.218  1.00  0.00     0.000 C 
BRANCH   2   3
ATOM      3  C   UNL     1      24.716 -10.993  15.643  1.00  0.00     0.000 C 
BRANCH   3   4
ATOM      4  C   UNL     1      24.093 -12.388  15.808  1.00  0.00     0.000 C 
BRANCH   4   5
ATOM      5  C   UNL     1      23.296 -12.538  17.114  1.00  0.00     0.001 C 
BRANCH   5   6
ATOM      6  C   UNL     1      23.938 -11.904  18.370  1.00  0.00     0.009 C 
BRANCH   6   7
ATOM      7  C   UNL     1      23.433 -12.406  19.749  1.00  0.00     0.032 C 
ATOM      8  C   UNL     1      22.277 -13.410  19.635  1.00  0.00     0.014 C 
BRANCH   7   9
ATOM      9  C   UNL     1      23.120 -11.273  20.695  1.00  0.00     0.044 C 
ATOM     10  O   UNL     1      23.387 -10.089  20.361  1.00  0.00    -0.550 OA
ATOM     11  O   UNL     1      22.563 -11.515  21.947  1.00  0.00    -0.550 OA
ENDBRANCH   7   9
ENDBRANCH   6   7
ENDBRANCH   5   6
ENDBRANCH   4   5
ENDBRANCH   3   4
ENDBRANCH   2   3
ENDBRANCH   1   2
BRANCH   1  12
ATOM     12  C   UNL     1      26.710 -10.042  17.488  1.00  0.00     0.000 C 
BRANCH  12  13
ATOM     13  C   UNL     1      27.896  -9.350  18.178  1.00  0.00    -0.000 C 
BRANCH  13  14
ATOM     14  C   UNL     1      28.393  -8.112  17.410  1.00  0.00    -0.000 C 
BRANCH  14  15
ATOM     15  C   UNL     1      29.844  -7.741  17.779  1.00  0.00    -0.000 C 
BRANCH  15  16
ATOM     16  C   UNL     1      30.898  -8.637  17.106  1.00  0.00    -0.000 C 
BRANCH  16  17
ATOM     17  C   UNL     1      30.498  -9.063  15.684  1.00  0.00    -0.000 C 
BRANCH  17  18
ATOM     18  C   UNL     1      30.672 -10.571  15.450  1.00  0.00    -0.003 C 
ATOM     19  C   UNL     1      29.807 -11.095  14.305  1.00  0.00     0.004 C 
ENDBRANCH  17  18
ENDBRANCH  16  17
ENDBRANCH  15  16
ENDBRANCH  14  15
ENDBRANCH  13  14
ENDBRANCH  12  13
ENDBRANCH   1  12
TORSDOF 14
ENDMDL
MODEL 9
REMARK VINA RESULT:    -5.248      1.772      2.505
REMARK INTER + INTRA:         -10.990
REMARK INTER:                  -9.976
REMARK INTRA:                  -1.013
REMARK UNBOUND:                -1.446
REMARK SMILES CCCCCCCCCCCCCC[C@H](C)C(=O)[O-]
REMARK SMILES IDX 9 1 10 2 11 3 12 4 13 5 14 6 15 7 16 8 17 9 18 10 19 11 8 12
REMARK SMILES IDX 7 13 6 14 5 15 4 16 3 17 2 18 1 19
REMARK H PARENT
REMARK Flexibility Score: inf
ROOT
ATOM      1  C   UNL     1      27.213 -10.906  15.381  1.00  0.00     0.000 C 
ENDROOT
BRANCH   1   2
ATOM      2  C   UNL     1      28.515 -10.796  16.190  1.00  0.00     0.000 C 
BRANCH   2   3
ATOM      3  C   UNL     1      28.527  -9.585  17.134  1.00  0.00     0.000 C 
BRANCH   3   4
ATOM      4  C   UNL     1      28.442  -8.273  16.339  1.00  0.00     0.000 C 
BRANCH   4   5
ATOM      5  C   UNL     1      29.608  -8.092  15.353  1.00  0.00     0.001 C 
BRANCH   5   6
ATOM      6  C   UNL     1      30.919  -7.539  15.957  1.00  0.00     0.009 C 
BRANCH   6   7
ATOM      7  C   UNL     1      32.183  -8.431  15.832  1.00  0.00     0.032 C 
ATOM      8  C   UNL     1      32.247  -9.533  16.899  1.00  0.00     0.014 C 
BRANCH   7   9
ATOM      9  C   UNL     1      33.456  -7.621  15.766  1.00  0.00     0.044 C 
ATOM     10  O   UNL     1      33.753  -6.846  16.714  1.00  0.00    -0.550 OA
ATOM     11  O   UNL     1      34.296  -7.693  14.660  1.00  0.00    -0.550 OA
ENDBRANCH   7   9
ENDBRANCH   6   7
ENDBRANCH   5   6
ENDBRANCH   4   5
ENDBRANCH   3   4
ENDBRANCH   2   3
ENDBRANCH   1   2
BRANCH   1  12
ATOM     12  C   UNL     1      25.968 -11.030  16.279  1.00  0.00     0.000 C 
BRANCH  12  13
ATOM     13  C   UNL     1      24.693 -11.338  15.479  1.00  0.00    -0.000 C 
BRANCH  13  14
ATOM     14  C   UNL     1      23.822 -12.422  16.139  1.00  0.00    -0.000 C 
BRANCH  14  15
ATOM     15  C   UNL     1      24.197 -12.648  17.619  1.00  0.00    -0.000 C 
BRANCH  15  16
ATOM     16  C   UNL     1      22.983 -12.677  18.563  1.00  0.00    -0.000 C 
BRANCH  16  17
ATOM     17  C   UNL     1      23.040 -11.584  19.643  1.00  0.00    -0.000 C 
BRANCH  17  18
ATOM     18  C   UNL     1      22.644 -12.106  21.032  1.00  0.00    -0.003 C 
ATOM     19  C   UNL     1      22.972 -11.117  22.150  1.00  0.00     0.004 C 
ENDBRANCH  17  18
ENDBRANCH  16  17
ENDBRANCH  15  16
ENDBRANCH  14  15
ENDBRANCH  13  14
ENDBRANCH  12  13
ENDBRANCH   1  12
TORSDOF 14
ENDMDL
