MODEL 1
REMARK VINA RESULT:    -0.522      0.000      0.000
REMARK INTER + INTRA:          -2.011
REMARK INTER:                  -1.193
REMARK INTRA:                  -0.819
REMARK UNBOUND:                -0.819
REMARK SMILES CCCCCCCCCCCCCCCCCCCCCCCC(=O)[O-]
REMARK SMILES IDX 13 1 14 2 15 3 16 4 17 5 18 6 19 7 20 8 21 9 22 10 23 11
REMARK SMILES IDX 24 12 25 13 26 14 12 15 11 16 10 17 9 18 8 19 7 20 6 21 5 22
REMARK SMILES IDX 4 23 3 24 2 25 1 26
REMARK H PARENT
REMARK Flexibility Score: inf
ROOT
ATOM      1  C   UNL     1       1.716  19.875  15.653  1.00  0.00     0.000 C 
ENDROOT
BRANCH   1   2
ATOM      2  C   UNL     1       2.975  20.664  16.046  1.00  0.00     0.000 C 
BRANCH   2   3
ATOM      3  C   UNL     1       4.274  19.972  15.609  1.00  0.00     0.000 C 
BRANCH   3   4
ATOM      4  C   UNL     1       4.797  20.570  14.295  1.00  0.00     0.000 C 
BRANCH   4   5
ATOM      5  C   UNL     1       6.300  20.319  14.083  1.00  0.00     0.000 C 
BRANCH   5   6
ATOM      6  C   UNL     1       7.109  20.442  15.387  1.00  0.00     0.000 C 
BRANCH   6   7
ATOM      7  C   UNL     1       8.552  19.929  15.236  1.00  0.00     0.000 C 
BRANCH   7   8
ATOM      8  C   UNL     1       9.460  20.918  14.491  1.00  0.00     0.000 C 
BRANCH   8   9
ATOM      9  C   UNL     1       9.746  20.430  13.063  1.00  0.00     0.000 C 
BRANCH   9  10
ATOM     10  C   UNL     1      10.089  21.572  12.090  1.00  0.00     0.006 C 
BRANCH  10  11
ATOM     11  C   UNL     1      10.961  21.136  10.898  1.00  0.00     0.053 C 
BRANCH  11  12
ATOM     12  C   UNL     1      11.034  22.182   9.827  1.00  0.00     0.041 C 
ATOM     13  O   UNL     1      11.125  21.843   8.616  1.00  0.00    -0.550 OA
ATOM     14  O   UNL     1      11.039  23.530  10.165  1.00  0.00    -0.550 OA
ENDBRANCH  11  12
ENDBRANCH  10  11
ENDBRANCH   9  10
ENDBRANCH   8   9
ENDBRANCH   7   8
ENDBRANCH   6   7
ENDBRANCH   5   6
ENDBRANCH   4   5
ENDBRANCH   3   4
ENDBRANCH   2   3
ENDBRANCH   1   2
BRANCH   1  15
ATOM     15  C   UNL     1       0.628  19.913  16.737  1.00  0.00     0.000 C 
BRANCH  15  16
ATOM     16  C   UNL     1      -0.506  20.872  16.346  1.00  0.00     0.000 C 
BRANCH  16  17
ATOM     17  C   UNL     1      -1.876  20.177  16.268  1.00  0.00     0.000 C 
BRANCH  17  18
ATOM     18  C   UNL     1      -3.009  21.037  15.675  1.00  0.00    -0.000 C 
BRANCH  18  19
ATOM     19  C   UNL     1      -4.288  20.240  15.342  1.00  0.00    -0.000 C 
BRANCH  19  20
ATOM     20  C   UNL     1      -5.377  21.118  14.701  1.00  0.00    -0.000 C 
BRANCH  20  21
ATOM     21  C   UNL     1      -6.736  20.403  14.601  1.00  0.00    -0.000 C 
BRANCH  21  22
ATOM     22  C   UNL     1      -7.875  21.142  15.337  1.00  0.00    -0.000 C 
BRANCH  22  23
ATOM     23  C   UNL     1      -8.212  20.486  16.688  1.00  0.00    -0.000 C 
BRANCH  23  24
ATOM     24  C   UNL     1      -7.853  21.376  17.893  1.00  0.00    -0.000 C 
BRANCH  24  25
ATOM     25  C   UNL     1      -8.292  20.819  19.259  1.00  0.00    -0.003 C 
ATOM     26  C   UNL     1      -7.963  21.755  20.421  1.00  0.00     0.004 C 
ENDBRANCH  24  25
ENDBRANCH  23  24
ENDBRANCH  22  23
ENDBRANCH  21  22
ENDBRANCH  20  21
ENDBRANCH  19  20
ENDBRANCH  18  19
ENDBRANCH  17  18
ENDBRANCH  16  17
ENDBRANCH  15  16
ENDBRANCH   1  15
TORSDOF 22
ENDMDL
MODEL 2
REMARK VINA RESULT:    -0.515      1.209      2.245
REMARK INTER + INTRA:          -1.996
REMARK INTER:                  -1.008
REMARK INTRA:                  -0.988
REMARK UNBOUND:                -0.819
REMARK SMILES CCCCCCCCCCCCCCCCCCCCCCCC(=O)[O-]
REMARK SMILES IDX 13 1 14 2 15 3 16 4 17 5 18 6 19 7 20 8 21 9 22 10 23 11
REMARK SMILES IDX 24 12 25 13 26 14 12 15 11 16 10 17 9 18 8 19 7 20 6 21 5 22
REMARK SMILES IDX 4 23 3 24 2 25 1 26
REMARK H PARENT
REMARK Flexibility Score: inf
ROOT
ATOM      1  C   UNL     1      -0.441  21.128  16.386  1.00  0.00     0.000 C 
ENDROOT
BRANCH   1   2
ATOM      2  C   UNL     1       0.449  19.875  16.381  1.00  0.00     0.000 C 
BRANCH   2   3
ATOM      3  C   UNL     1       1.563  19.937  15.325  1.00  0.00     0.000 C 
BRANCH   3   4
ATOM      4  C   UNL     1       2.698  20.866  15.781  1.00  0.00     0.000 C 
BRANCH   4   5
ATOM      5  C   UNL     1       3.996  20.107  16.099  1.00  0.00     0.000 C 
BRANCH   5   6
ATOM      6  C   UNL     1       5.156  20.502  15.166  1.00  0.00     0.000 C 
BRANCH   6   7
ATOM      7  C   UNL     1       6.527  20.070  15.714  1.00  0.00     0.000 C 
BRANCH   7   8
ATOM      8  C   UNL     1       7.575  19.875  14.608  1.00  0.00     0.000 C 
BRANCH   8   9
ATOM      9  C   UNL     1       8.546  21.064  14.559  1.00  0.00     0.000 C 
BRANCH   9  10
ATOM     10  C   UNL     1      10.025  20.637  14.570  1.00  0.00     0.006 C 
BRANCH  10  11
ATOM     11  C   UNL     1      10.656  20.534  13.169  1.00  0.00     0.053 C 
BRANCH  11  12
ATOM     12  C   UNL     1      10.914  21.877  12.555  1.00  0.00     0.041 C 
ATOM     13  O   UNL     1      11.043  21.988  11.307  1.00  0.00    -0.550 OA
ATOM     14  O   UNL     1      11.049  23.001  13.362  1.00  0.00    -0.550 OA
ENDBRANCH  11  12
ENDBRANCH  10  11
ENDBRANCH   9  10
ENDBRANCH   8   9
ENDBRANCH   7   8
ENDBRANCH   6   7
ENDBRANCH   5   6
ENDBRANCH   4   5
ENDBRANCH   3   4
ENDBRANCH   2   3
ENDBRANCH   1   2
BRANCH   1  15
ATOM     15  C   UNL     1      -1.415  21.161  17.573  1.00  0.00     0.000 C 
BRANCH  15  16
ATOM     16  C   UNL     1      -2.545  20.138  17.387  1.00  0.00     0.000 C 
BRANCH  16  17
ATOM     17  C   UNL     1      -3.136  20.152  15.968  1.00  0.00     0.000 C 
BRANCH  17  18
ATOM     18  C   UNL     1      -4.651  19.876  15.891  1.00  0.00    -0.000 C 
BRANCH  18  19
ATOM     19  C   UNL     1      -5.473  21.058  15.335  1.00  0.00    -0.000 C 
BRANCH  19  20
ATOM     20  C   UNL     1      -6.921  20.661  14.999  1.00  0.00    -0.000 C 
BRANCH  20  21
ATOM     21  C   UNL     1      -7.797  20.491  16.252  1.00  0.00    -0.000 C 
BRANCH  21  22
ATOM     22  C   UNL     1      -8.360  21.823  16.794  1.00  0.00    -0.000 C 
BRANCH  22  23
ATOM     23  C   UNL     1      -8.601  21.774  18.313  1.00  0.00    -0.000 C 
BRANCH  23  24
ATOM     24  C   UNL     1      -7.474  21.054  19.076  1.00  0.00    -0.000 C 
BRANCH  24  25
ATOM     25  C   UNL     1      -7.789  20.745  20.551  1.00  0.00    -0.003 C 
ATOM     26  C   UNL     1      -8.759  21.744  21.179  1.00  0.00     0.004 C 
ENDBRANCH  24  25
ENDBRANCH  23  24
ENDBRANCH  22  23
ENDBRANCH  21  22
ENDBRANCH  20  21
ENDBRANCH  19  20
ENDBRANCH  18  19
ENDBRANCH  17  18
ENDBRANCH  16  17
ENDBRANCH  15  16
ENDBRANCH   1  15
TORSDOF 22
ENDMDL
MODEL 3
REMARK VINA RESULT:    -0.305      6.203     15.346
REMARK INTER + INTRA:          -1.516
REMARK INTER:                  -1.008
REMARK INTRA:                  -0.508
REMARK UNBOUND:                -0.819
REMARK SMILES CCCCCCCCCCCCCCCCCCCCCCCC(=O)[O-]
REMARK SMILES IDX 13 1 14 2 15 3 16 4 17 5 18 6 19 7 20 8 21 9 22 10 23 11
REMARK SMILES IDX 24 12 25 13 26 14 12 15 11 16 10 17 9 18 8 19 7 20 6 21 5 22
REMARK SMILES IDX 4 23 3 24 2 25 1 26
REMARK H PARENT
REMARK Flexibility Score: inf
ROOT
ATOM      1  C   UNL     1       1.647  21.324  15.826  1.00  0.00     0.000 C 
ENDROOT
BRANCH   1   2
ATOM      2  C   UNL     1       0.373  20.488  16.019  1.00  0.00     0.000 C 
BRANCH   2   3
ATOM      3  C   UNL     1      -0.908  21.260  15.669  1.00  0.00     0.000 C 
BRANCH   3   4
ATOM      4  C   UNL     1      -2.111  20.707  16.446  1.00  0.00     0.000 C 
BRANCH   4   5
ATOM      5  C   UNL     1      -3.134  20.005  15.539  1.00  0.00     0.000 C 
BRANCH   5   6
ATOM      6  C   UNL     1      -4.569  20.087  16.090  1.00  0.00     0.000 C 
BRANCH   6   7
ATOM      7  C   UNL     1      -5.620  20.245  14.978  1.00  0.00     0.000 C 
BRANCH   7   8
ATOM      8  C   UNL     1      -6.505  21.487  15.168  1.00  0.00     0.000 C 
BRANCH   8   9
ATOM      9  C   UNL     1      -7.969  21.086  15.398  1.00  0.00     0.000 C 
BRANCH   9  10
ATOM     10  C   UNL     1      -8.188  20.330  16.721  1.00  0.00     0.006 C 
BRANCH  10  11
ATOM     11  C   UNL     1      -7.648  21.069  17.959  1.00  0.00     0.053 C 
BRANCH  11  12
ATOM     12  C   UNL     1      -8.667  21.979  18.576  1.00  0.00     0.041 C 
ATOM     13  O   UNL     1      -9.112  22.963  17.928  1.00  0.00    -0.550 OA
ATOM     14  O   UNL     1      -9.099  21.763  19.879  1.00  0.00    -0.550 OA
ENDBRANCH  11  12
ENDBRANCH  10  11
ENDBRANCH   9  10
ENDBRANCH   8   9
ENDBRANCH   7   8
ENDBRANCH   6   7
ENDBRANCH   5   6
ENDBRANCH   4   5
ENDBRANCH   3   4
ENDBRANCH   2   3
ENDBRANCH   1   2
BRANCH   1  15
ATOM     15  C   UNL     1       2.902  20.630  16.377  1.00  0.00     0.000 C 
BRANCH  15  16
ATOM     16  C   UNL     1       3.812  20.151  15.237  1.00  0.00     0.000 C 
BRANCH  16  17
ATOM     17  C   UNL     1       5.134  20.933  15.158  1.00  0.00     0.000 C 
BRANCH  17  18
ATOM     18  C   UNL     1       6.365  20.093  14.766  1.00  0.00    -0.000 C 
BRANCH  18  19
ATOM     19  C   UNL     1       7.681  20.577  15.410  1.00  0.00    -0.000 C 
BRANCH  19  20
ATOM     20  C   UNL     1       8.925  20.045  14.676  1.00  0.00    -0.000 C 
BRANCH  20  21
ATOM     21  C   UNL     1       9.473  21.036  13.635  1.00  0.00    -0.000 C 
BRANCH  21  22
ATOM     22  C   UNL     1      10.880  20.669  13.117  1.00  0.00    -0.000 C 
BRANCH  22  23
ATOM     23  C   UNL     1      10.977  20.768  11.584  1.00  0.00    -0.000 C 
BRANCH  23  24
ATOM     24  C   UNL     1      10.996  22.222  11.077  1.00  0.00    -0.000 C 
BRANCH  24  25
ATOM     25  C   UNL     1      11.122  23.288  12.180  1.00  0.00    -0.003 C 
ATOM     26  C   UNL     1      10.958  24.714  11.657  1.00  0.00     0.004 C 
ENDBRANCH  24  25
ENDBRANCH  23  24
ENDBRANCH  22  23
ENDBRANCH  21  22
ENDBRANCH  20  21
ENDBRANCH  19  20
ENDBRANCH  18  19
ENDBRANCH  17  18
ENDBRANCH  16  17
ENDBRANCH  15  16
ENDBRANCH   1  15
TORSDOF 22
ENDMDL
MODEL 4
REMARK VINA RESULT:    -0.138      5.874     14.947
REMARK INTER + INTRA:          -1.133
REMARK INTER:                  -0.145
REMARK INTRA:                  -0.989
REMARK UNBOUND:                -0.819
REMARK SMILES CCCCCCCCCCCCCCCCCCCCCCCC(=O)[O-]
REMARK SMILES IDX 13 1 14 2 15 3 16 4 17 5 18 6 19 7 20 8 21 9 22 10 23 11
REMARK SMILES IDX 24 12 25 13 26 14 12 15 11 16 10 17 9 18 8 19 7 20 6 21 5 22
REMARK SMILES IDX 4 23 3 24 2 25 1 26
REMARK H PARENT
REMARK Flexibility Score: inf
ROOT
ATOM      1  C   UNL     1       2.580  21.459  15.844  1.00  0.00     0.000 C 
ENDROOT
BRANCH   1   2
ATOM      2  C   UNL     1       1.863  20.112  15.667  1.00  0.00     0.000 C 
BRANCH   2   3
ATOM      3  C   UNL     1       0.590  19.995  16.519  1.00  0.00     0.000 C 
BRANCH   3   4
ATOM      4  C   UNL     1      -0.560  20.802  15.898  1.00  0.00     0.000 C 
BRANCH   4   5
ATOM      5  C   UNL     1      -1.945  20.263  16.291  1.00  0.00     0.000 C 
BRANCH   5   6
ATOM      6  C   UNL     1      -3.094  21.053  15.639  1.00  0.00     0.000 C 
BRANCH   6   7
ATOM      7  C   UNL     1      -4.440  20.312  15.720  1.00  0.00     0.000 C 
BRANCH   7   8
ATOM      8  C   UNL     1      -5.422  20.740  14.619  1.00  0.00     0.000 C 
BRANCH   8   9
ATOM      9  C   UNL     1      -6.814  21.017  15.205  1.00  0.00     0.000 C 
BRANCH   9  10
ATOM     10  C   UNL     1      -7.209  20.031  16.318  1.00  0.00     0.006 C 
BRANCH  10  11
ATOM     11  C   UNL     1      -8.404  20.496  17.170  1.00  0.00     0.053 C 
BRANCH  11  12
ATOM     12  C   UNL     1      -8.051  21.630  18.085  1.00  0.00     0.041 C 
ATOM     13  O   UNL     1      -8.426  22.802  17.816  1.00  0.00    -0.550 OA
ATOM     14  O   UNL     1      -7.278  21.399  19.217  1.00  0.00    -0.550 OA
ENDBRANCH  11  12
ENDBRANCH  10  11
ENDBRANCH   9  10
ENDBRANCH   8   9
ENDBRANCH   7   8
ENDBRANCH   6   7
ENDBRANCH   5   6
ENDBRANCH   4   5
ENDBRANCH   3   4
ENDBRANCH   2   3
ENDBRANCH   1   2
BRANCH   1  15
ATOM     15  C   UNL     1       4.089  21.302  16.086  1.00  0.00     0.000 C 
BRANCH  15  16
ATOM     16  C   UNL     1       4.667  20.161  15.236  1.00  0.00     0.000 C 
BRANCH  16  17
ATOM     17  C   UNL     1       5.917  20.580  14.444  1.00  0.00     0.000 C 
BRANCH  17  18
ATOM     18  C   UNL     1       7.253  20.385  15.186  1.00  0.00    -0.000 C 
BRANCH  18  19
ATOM     19  C   UNL     1       8.398  19.875  14.285  1.00  0.00    -0.000 C 
BRANCH  19  20
ATOM     20  C   UNL     1       9.701  20.670  14.484  1.00  0.00    -0.000 C 
BRANCH  20  21
ATOM     21  C   UNL     1      10.604  20.655  13.239  1.00  0.00    -0.000 C 
BRANCH  21  22
ATOM     22  C   UNL     1       9.860  21.014  11.934  1.00  0.00    -0.000 C 
BRANCH  22  23
ATOM     23  C   UNL     1       9.967  19.898  10.880  1.00  0.00    -0.000 C 
BRANCH  23  24
ATOM     24  C   UNL     1       8.798  19.904   9.879  1.00  0.00    -0.000 C 
BRANCH  24  25
ATOM     25  C   UNL     1       9.108  20.575   8.529  1.00  0.00    -0.003 C 
ATOM     26  C   UNL     1      10.575  20.450   8.121  1.00  0.00     0.004 C 
ENDBRANCH  24  25
ENDBRANCH  23  24
ENDBRANCH  22  23
ENDBRANCH  21  22
ENDBRANCH  20  21
ENDBRANCH  19  20
ENDBRANCH  18  19
ENDBRANCH  17  18
ENDBRANCH  16  17
ENDBRANCH  15  16
ENDBRANCH   1  15
TORSDOF 22
ENDMDL
MODEL 5
REMARK VINA RESULT:     0.647      5.878     14.818
REMARK INTER + INTRA:           0.661
REMARK INTER:                   0.778
REMARK INTRA:                  -0.117
REMARK UNBOUND:                -0.819
REMARK SMILES CCCCCCCCCCCCCCCCCCCCCCCC(=O)[O-]
REMARK SMILES IDX 13 1 14 2 15 3 16 4 17 5 18 6 19 7 20 8 21 9 22 10 23 11
REMARK SMILES IDX 24 12 25 13 26 14 12 15 11 16 10 17 9 18 8 19 7 20 6 21 5 22
REMARK SMILES IDX 4 23 3 24 2 25 1 26
REMARK H PARENT
REMARK Flexibility Score: inf
ROOT
ATOM      1  C   UNL     1      -0.119  20.807  17.187  1.00  0.00     0.000 C 
ENDROOT
BRANCH   1   2
ATOM      2  C   UNL     1      -1.109  20.123  18.143  1.00  0.00     0.000 C 
BRANCH   2   3
ATOM      3  C   UNL     1      -2.549  20.120  17.608  1.00  0.00     0.000 C 
BRANCH   3   4
ATOM      4  C   UNL     1      -2.570  20.350  16.090  1.00  0.00     0.000 C 
BRANCH   4   5
ATOM      5  C   UNL     1      -3.878  19.876  15.435  1.00  0.00     0.000 C 
BRANCH   5   6
ATOM      6  C   UNL     1      -4.857  21.032  15.165  1.00  0.00     0.000 C 
BRANCH   6   7
ATOM      7  C   UNL     1      -6.306  20.547  14.984  1.00  0.00     0.000 C 
BRANCH   7   8
ATOM      8  C   UNL     1      -7.216  20.942  16.156  1.00  0.00     0.000 C 
BRANCH   8   9
ATOM      9  C   UNL     1      -8.359  19.931  16.326  1.00  0.00     0.000 C 
BRANCH   9  10
ATOM     10  C   UNL     1      -9.125  20.100  17.651  1.00  0.00     0.006 C 
BRANCH  10  11
ATOM     11  C   UNL     1      -8.875  21.449  18.348  1.00  0.00     0.053 C 
BRANCH  11  12
ATOM     12  C   UNL     1      -7.787  21.372  19.377  1.00  0.00     0.041 C 
ATOM     13  O   UNL     1      -6.924  20.455  19.318  1.00  0.00    -0.550 OA
ATOM     14  O   UNL     1      -7.744  22.290  20.420  1.00  0.00    -0.550 OA
ENDBRANCH  11  12
ENDBRANCH  10  11
ENDBRANCH   9  10
ENDBRANCH   8   9
ENDBRANCH   7   8
ENDBRANCH   6   7
ENDBRANCH   5   6
ENDBRANCH   4   5
ENDBRANCH   3   4
ENDBRANCH   2   3
ENDBRANCH   1   2
BRANCH   1  15
ATOM     15  C   UNL     1       0.311  19.898  16.026  1.00  0.00     0.000 C 
BRANCH  15  16
ATOM     16  C   UNL     1       1.561  20.451  15.327  1.00  0.00     0.000 C 
BRANCH  16  17
ATOM     17  C   UNL     1       2.867  20.041  16.026  1.00  0.00     0.000 C 
BRANCH  17  18
ATOM     18  C   UNL     1       4.082  19.875  15.092  1.00  0.00    -0.000 C 
BRANCH  18  19
ATOM     19  C   UNL     1       5.439  20.122  15.785  1.00  0.00    -0.000 C 
BRANCH  19  20
ATOM     20  C   UNL     1       6.424  20.894  14.889  1.00  0.00    -0.000 C 
BRANCH  20  21
ATOM     21  C   UNL     1       7.781  21.141  15.570  1.00  0.00    -0.000 C 
BRANCH  21  22
ATOM     22  C   UNL     1       8.770  19.965  15.417  1.00  0.00    -0.000 C 
BRANCH  22  23
ATOM     23  C   UNL     1       9.765  20.192  14.264  1.00  0.00    -0.000 C 
BRANCH  23  24
ATOM     24  C   UNL     1      10.246  21.651  14.166  1.00  0.00    -0.000 C 
BRANCH  24  25
ATOM     25  C   UNL     1      10.452  22.167  12.730  1.00  0.00    -0.003 C 
ATOM     26  C   UNL     1      10.347  21.065  11.677  1.00  0.00     0.004 C 
ENDBRANCH  24  25
ENDBRANCH  23  24
ENDBRANCH  22  23
ENDBRANCH  21  22
ENDBRANCH  20  21
ENDBRANCH  19  20
ENDBRANCH  18  19
ENDBRANCH  17  18
ENDBRANCH  16  17
ENDBRANCH  15  16
ENDBRANCH   1  15
TORSDOF 22
ENDMDL
MODEL 6
REMARK VINA RESULT:     0.739      5.383     14.771
REMARK INTER + INTRA:           0.872
REMARK INTER:                   1.469
REMARK INTRA:                  -0.597
REMARK UNBOUND:                -0.819
REMARK SMILES CCCCCCCCCCCCCCCCCCCCCCCC(=O)[O-]
REMARK SMILES IDX 13 1 14 2 15 3 16 4 17 5 18 6 19 7 20 8 21 9 22 10 23 11
REMARK SMILES IDX 24 12 25 13 26 14 12 15 11 16 10 17 9 18 8 19 7 20 6 21 5 22
REMARK SMILES IDX 4 23 3 24 2 25 1 26
REMARK H PARENT
REMARK Flexibility Score: inf
ROOT
ATOM      1  C   UNL     1      -1.191  20.395  17.006  1.00  0.00     0.000 C 
ENDROOT
BRANCH   1   2
ATOM      2  C   UNL     1      -1.904  20.851  18.288  1.00  0.00     0.000 C 
BRANCH   2   3
ATOM      3  C   UNL     1      -3.024  19.892  18.722  1.00  0.00     0.000 C 
BRANCH   3   4
ATOM      4  C   UNL     1      -4.204  19.950  17.742  1.00  0.00     0.000 C 
BRANCH   4   5
ATOM      5  C   UNL     1      -5.568  19.876  18.448  1.00  0.00     0.000 C 
BRANCH   5   6
ATOM      6  C   UNL     1      -5.691  20.883  19.605  1.00  0.00     0.000 C 
BRANCH   6   7
ATOM      7  C   UNL     1      -6.834  21.891  19.391  1.00  0.00     0.000 C 
BRANCH   7   8
ATOM      8  C   UNL     1      -8.178  21.392  19.941  1.00  0.00     0.000 C 
BRANCH   8   9
ATOM      9  C   UNL     1      -9.123  20.992  18.798  1.00  0.00     0.000 C 
BRANCH   9  10
ATOM     10  C   UNL     1      -8.646  21.482  17.419  1.00  0.00     0.006 C 
BRANCH  10  11
ATOM     11  C   UNL     1      -8.146  20.357  16.495  1.00  0.00     0.053 C 
BRANCH  11  12
ATOM     12  C   UNL     1      -7.359  20.877  15.330  1.00  0.00     0.041 C 
ATOM     13  O   UNL     1      -7.953  21.276  14.292  1.00  0.00    -0.550 OA
ATOM     14  O   UNL     1      -5.970  20.888  15.373  1.00  0.00    -0.550 OA
ENDBRANCH  11  12
ENDBRANCH  10  11
ENDBRANCH   9  10
ENDBRANCH   8   9
ENDBRANCH   7   8
ENDBRANCH   6   7
ENDBRANCH   5   6
ENDBRANCH   4   5
ENDBRANCH   3   4
ENDBRANCH   2   3
ENDBRANCH   1   2
BRANCH   1  15
ATOM     15  C   UNL     1       0.277  20.012  17.246  1.00  0.00     0.000 C 
BRANCH  15  16
ATOM     16  C   UNL     1       1.205  20.746  16.268  1.00  0.00     0.000 C 
BRANCH  16  17
ATOM     17  C   UNL     1       2.379  19.875  15.791  1.00  0.00     0.000 C 
BRANCH  17  18
ATOM     18  C   UNL     1       3.641  20.656  15.374  1.00  0.00    -0.000 C 
BRANCH  18  19
ATOM     19  C   UNL     1       4.962  19.932  15.711  1.00  0.00    -0.000 C 
BRANCH  19  20
ATOM     20  C   UNL     1       6.193  20.834  15.515  1.00  0.00    -0.000 C 
BRANCH  20  21
ATOM     21  C   UNL     1       7.501  20.036  15.372  1.00  0.00    -0.000 C 
BRANCH  21  22
ATOM     22  C   UNL     1       8.617  20.811  14.639  1.00  0.00    -0.000 C 
BRANCH  22  23
ATOM     23  C   UNL     1       9.324  19.945  13.581  1.00  0.00    -0.000 C 
BRANCH  23  24
ATOM     24  C   UNL     1       9.260  20.555  12.168  1.00  0.00    -0.000 C 
BRANCH  24  25
ATOM     25  C   UNL     1      10.412  20.139  11.234  1.00  0.00    -0.003 C 
ATOM     26  C   UNL     1      11.020  21.316  10.473  1.00  0.00     0.004 C 
ENDBRANCH  24  25
ENDBRANCH  23  24
ENDBRANCH  22  23
ENDBRANCH  21  22
ENDBRANCH  20  21
ENDBRANCH  19  20
ENDBRANCH  18  19
ENDBRANCH  17  18
ENDBRANCH  16  17
ENDBRANCH  15  16
ENDBRANCH   1  15
TORSDOF 22
ENDMDL
MODEL 7
REMARK VINA RESULT:     1.046      5.826     14.332
REMARK INTER + INTRA:           1.573
REMARK INTER:                   1.851
REMARK INTRA:                  -0.278
REMARK UNBOUND:                -0.819
REMARK SMILES CCCCCCCCCCCCCCCCCCCCCCCC(=O)[O-]
REMARK SMILES IDX 13 1 14 2 15 3 16 4 17 5 18 6 19 7 20 8 21 9 22 10 23 11
REMARK SMILES IDX 24 12 25 13 26 14 12 15 11 16 10 17 9 18 8 19 7 20 6 21 5 22
REMARK SMILES IDX 4 23 3 24 2 25 1 26
REMARK H PARENT
REMARK Flexibility Score: inf
ROOT
ATOM      1  C   UNL     1       2.950  21.005  15.978  1.00  0.00     0.000 C 
ENDROOT
BRANCH   1   2
ATOM      2  C   UNL     1       1.574  20.397  15.666  1.00  0.00     0.000 C 
BRANCH   2   3
ATOM      3  C   UNL     1       0.837  19.910  16.923  1.00  0.00     0.000 C 
BRANCH   3   4
ATOM      4  C   UNL     1      -0.342  20.835  17.259  1.00  0.00     0.000 C 
BRANCH   4   5
ATOM      5  C   UNL     1      -1.040  21.388  16.006  1.00  0.00     0.000 C 
BRANCH   5   6
ATOM      6  C   UNL     1      -2.165  20.467  15.500  1.00  0.00     0.000 C 
BRANCH   6   7
ATOM      7  C   UNL     1      -3.201  20.148  16.591  1.00  0.00     0.000 C 
BRANCH   7   8
ATOM      8  C   UNL     1      -4.607  19.904  16.023  1.00  0.00     0.000 C 
BRANCH   8   9
ATOM      9  C   UNL     1      -5.014  21.034  15.066  1.00  0.00     0.000 C 
BRANCH   9  10
ATOM     10  C   UNL     1      -6.508  21.394  15.156  1.00  0.00     0.006 C 
BRANCH  10  11
ATOM     11  C   UNL     1      -7.338  20.410  16.000  1.00  0.00     0.053 C 
BRANCH  11  12
ATOM     12  C   UNL     1      -7.769  20.997  17.310  1.00  0.00     0.041 C 
ATOM     13  O   UNL     1      -8.718  21.825  17.351  1.00  0.00    -0.550 OA
ATOM     14  O   UNL     1      -7.100  20.659  18.481  1.00  0.00    -0.550 OA
ENDBRANCH  11  12
ENDBRANCH  10  11
ENDBRANCH   9  10
ENDBRANCH   8   9
ENDBRANCH   7   8
ENDBRANCH   6   7
ENDBRANCH   5   6
ENDBRANCH   4   5
ENDBRANCH   3   4
ENDBRANCH   2   3
ENDBRANCH   1   2
BRANCH   1  15
ATOM     15  C   UNL     1       4.001  19.943  16.336  1.00  0.00     0.000 C 
BRANCH  15  16
ATOM     16  C   UNL     1       5.154  19.945  15.321  1.00  0.00     0.000 C 
BRANCH  16  17
ATOM     17  C   UNL     1       4.698  20.314  13.900  1.00  0.00     0.000 C 
BRANCH  17  18
ATOM     18  C   UNL     1       5.707  19.977  12.785  1.00  0.00    -0.000 C 
BRANCH  18  19
ATOM     19  C   UNL     1       7.167  19.876  13.275  1.00  0.00    -0.000 C 
BRANCH  19  20
ATOM     20  C   UNL     1       7.439  20.765  14.501  1.00  0.00    -0.000 C 
BRANCH  20  21
ATOM     21  C   UNL     1       8.940  20.985  14.757  1.00  0.00    -0.000 C 
BRANCH  21  22
ATOM     22  C   UNL     1       9.851  20.144  13.836  1.00  0.00    -0.000 C 
BRANCH  22  23
ATOM     23  C   UNL     1      10.737  21.024  12.938  1.00  0.00    -0.000 C 
BRANCH  23  24
ATOM     24  C   UNL     1      10.101  22.391  12.621  1.00  0.00    -0.000 C 
BRANCH  24  25
ATOM     25  C   UNL     1      11.072  23.583  12.677  1.00  0.00    -0.003 C 
ATOM     26  C   UNL     1      11.075  24.415  11.396  1.00  0.00     0.004 C 
ENDBRANCH  24  25
ENDBRANCH  23  24
ENDBRANCH  22  23
ENDBRANCH  21  22
ENDBRANCH  20  21
ENDBRANCH  19  20
ENDBRANCH  18  19
ENDBRANCH  17  18
ENDBRANCH  16  17
ENDBRANCH  15  16
ENDBRANCH   1  15
TORSDOF 22
ENDMDL
