MODEL 1
REMARK VINA RESULT:    -7.077      0.000      0.000
REMARK INTER + INTRA:         -11.095
REMARK INTER:                  -9.766
REMARK INTRA:                  -1.328
REMARK UNBOUND:                -1.328
REMARK SMILES O=C([O-])[C@H]1O[C@H](Oc2cc3oc(-c4ccccc4)cc(=O)c3c(O)c2O)[C@@H](O)[C@H](O)[C@@H]1O
REMARK SMILES IDX 7 1 6 2 4 3 31 4 5 5 29 6 27 7 2 8 1 9 3 10 32 11 30 13
REMARK SMILES IDX 28 15 8 17 25 18 9 19 23 20 10 21 22 22 11 23 20 24 12 25
REMARK SMILES IDX 19 26 21 27 26 28 24 30 13 32 14 33 18 34 15 35 17 36 16 37
REMARK H PARENT 32 12 30 14 28 16 26 29 24 31
REMARK Flexibility Score: inf
ROOT
ATOM      1  O   UNL     1      30.455  -4.208  35.936  1.00  0.00    -0.458 OA
ENDROOT
BRANCH   1   2
ATOM      2  C   UNL     1      31.655  -3.908  35.214  1.00  0.00     0.339 C 
ATOM      3  C   UNL     1      33.152  -4.938  33.645  1.00  0.00     0.199 C 
ATOM      4  C   UNL     1      33.352  -3.594  32.900  1.00  0.00     0.180 C 
ATOM      5  O   UNL     1      31.946  -5.047  34.397  1.00  0.00    -0.328 OA
ATOM      6  C   UNL     1      32.033  -2.793  32.872  1.00  0.00     0.181 C 
ATOM      7  C   UNL     1      31.489  -2.617  34.310  1.00  0.00     0.214 C 
BRANCH   3   8
ATOM      8  C   UNL     1      34.324  -5.393  34.462  1.00  0.00     0.073 C 
ATOM      9  O   UNL     1      34.677  -6.608  34.528  1.00  0.00    -0.547 OA
ATOM     10  O   UNL     1      35.050  -4.436  35.159  1.00  0.00    -0.547 OA
ENDBRANCH   3   8
BRANCH   4  11
ATOM     11  O   UNL     1      33.817  -3.788  31.584  1.00  0.00    -0.387 OA
ATOM     12  H   UNL     1      33.263  -3.226  30.974  1.00  0.00     0.211 HD
ENDBRANCH   4  11
BRANCH   6  13
ATOM     13  O   UNL     1      31.085  -3.400  32.029  1.00  0.00    -0.387 OA
ATOM     14  H   UNL     1      30.232  -2.915  32.100  1.00  0.00     0.211 HD
ENDBRANCH   6  13
BRANCH   7  15
ATOM     15  O   UNL     1      32.108  -1.510  34.945  1.00  0.00    -0.384 OA
ATOM     16  H   UNL     1      32.175  -1.703  35.934  1.00  0.00     0.211 HD
ENDBRANCH   7  15
ENDBRANCH   1   2
BRANCH   1  17
ATOM     17  C   UNL     1      29.173  -3.648  35.771  1.00  0.00     0.172 A 
ATOM     18  C   UNL     1      28.437  -3.881  34.581  1.00  0.00     0.201 A 
ATOM     19  C   UNL     1      28.588  -2.834  36.755  1.00  0.00     0.098 A 
ATOM     20  C   UNL     1      27.239  -3.187  34.315  1.00  0.00     0.176 A 
ATOM     21  C   UNL     1      27.591  -1.952  36.383  1.00  0.00     0.146 A 
ATOM     22  C   UNL     1      26.829  -2.158  35.211  1.00  0.00     0.111 A 
ATOM     23  O   UNL     1      27.509  -0.800  37.051  1.00  0.00    -0.456 OA
ATOM     24  C   UNL     1      25.851  -1.171  34.905  1.00  0.00     0.197 A 
ATOM     25  C   UNL     1      26.783   0.231  36.622  1.00  0.00     0.138 A 
ATOM     26  C   UNL     1      25.865   0.057  35.582  1.00  0.00     0.100 A 
ATOM     27  O   UNL     1      24.977  -1.360  34.017  1.00  0.00    -0.289 OA
BRANCH  18  28
ATOM     28  O   UNL     1      28.929  -4.748  33.598  1.00  0.00    -0.502 OA
ATOM     29  H   UNL     1      29.682  -4.489  32.976  1.00  0.00     0.293 HD
ENDBRANCH  18  28
BRANCH  20  30
ATOM     30  O   UNL     1      26.635  -3.456  33.080  1.00  0.00    -0.504 OA
ATOM     31  H   UNL     1      26.138  -4.300  32.856  1.00  0.00     0.293 HD
ENDBRANCH  20  30
BRANCH  25  32
ATOM     32  C   UNL     1      27.203   1.564  37.108  1.00  0.00     0.017 A 
ATOM     33  C   UNL     1      26.839   2.018  38.395  1.00  0.00     0.012 A 
ATOM     34  C   UNL     1      28.343   2.098  36.466  1.00  0.00     0.012 A 
ATOM     35  C   UNL     1      27.640   2.979  39.053  1.00  0.00     0.001 A 
ATOM     36  C   UNL     1      29.163   3.027  37.132  1.00  0.00     0.001 A 
ATOM     37  C   UNL     1      28.808   3.477  38.419  1.00  0.00     0.000 A 
ENDBRANCH  25  32
ENDBRANCH   1  17
TORSDOF 9
ENDMDL
MODEL 2
REMARK VINA RESULT:    -6.975      2.326      7.816
REMARK INTER + INTRA:         -10.954
REMARK INTER:                  -9.921
REMARK INTRA:                  -1.033
REMARK UNBOUND:                -1.328
REMARK SMILES O=C([O-])[C@H]1O[C@H](Oc2cc3oc(-c4ccccc4)cc(=O)c3c(O)c2O)[C@@H](O)[C@H](O)[C@@H]1O
REMARK SMILES IDX 7 1 6 2 4 3 31 4 5 5 29 6 27 7 2 8 1 9 3 10 32 11 30 13
REMARK SMILES IDX 28 15 8 17 25 18 9 19 23 20 10 21 22 22 11 23 20 24 12 25
REMARK SMILES IDX 19 26 21 27 26 28 24 30 13 32 14 33 18 34 15 35 17 36 16 37
REMARK H PARENT 32 12 30 14 28 16 26 29 24 31
REMARK Flexibility Score: inf
ROOT
ATOM      1  O   UNL     1      28.269  -2.571  35.975  1.00  0.00    -0.458 OA
ENDROOT
BRANCH   1   2
ATOM      2  C   UNL     1      27.209  -1.627  35.776  1.00  0.00     0.339 C 
ATOM      3  C   UNL     1      24.918  -1.290  36.409  1.00  0.00     0.199 C 
ATOM      4  C   UNL     1      25.141   0.239  36.533  1.00  0.00     0.180 C 
ATOM      5  O   UNL     1      26.091  -2.092  36.539  1.00  0.00    -0.328 OA
ATOM      6  C   UNL     1      26.544   0.534  37.103  1.00  0.00     0.181 C 
ATOM      7  C   UNL     1      27.624  -0.172  36.246  1.00  0.00     0.214 C 
BRANCH   3   8
ATOM      8  C   UNL     1      24.115  -1.722  35.219  1.00  0.00     0.073 C 
ATOM      9  O   UNL     1      24.361  -2.790  34.584  1.00  0.00    -0.547 OA
ATOM     10  O   UNL     1      23.058  -0.918  34.814  1.00  0.00    -0.547 OA
ENDBRANCH   3   8
BRANCH   4  11
ATOM     11  O   UNL     1      24.162   0.848  37.343  1.00  0.00    -0.387 OA
ATOM     12  H   UNL     1      23.413   0.200  37.461  1.00  0.00     0.211 HD
ENDBRANCH   4  11
BRANCH   6  13
ATOM     13  O   UNL     1      26.634   0.165  38.456  1.00  0.00    -0.387 OA
ATOM     14  H   UNL     1      27.566  -0.069  38.667  1.00  0.00     0.211 HD
ENDBRANCH   6  13
BRANCH   7  15
ATOM     15  O   UNL     1      27.955   0.616  35.114  1.00  0.00    -0.384 OA
ATOM     16  H   UNL     1      27.353   0.348  34.349  1.00  0.00     0.211 HD
ENDBRANCH   7  15
ENDBRANCH   1   2
BRANCH   1  17
ATOM     17  C   UNL     1      29.317  -2.906  35.096  1.00  0.00     0.172 A 
ATOM     18  C   UNL     1      29.211  -4.046  34.257  1.00  0.00     0.201 A 
ATOM     19  C   UNL     1      30.498  -2.150  35.027  1.00  0.00     0.098 A 
ATOM     20  C   UNL     1      30.313  -4.506  33.507  1.00  0.00     0.176 A 
ATOM     21  C   UNL     1      31.644  -2.746  34.535  1.00  0.00     0.146 A 
ATOM     22  C   UNL     1      31.577  -3.875  33.687  1.00  0.00     0.111 A 
ATOM     23  O   UNL     1      32.811  -2.351  35.047  1.00  0.00    -0.456 OA
ATOM     24  C   UNL     1      32.818  -4.430  33.266  1.00  0.00     0.197 A 
ATOM     25  C   UNL     1      33.944  -3.024  34.859  1.00  0.00     0.138 A 
ATOM     26  C   UNL     1      34.007  -4.038  33.898  1.00  0.00     0.100 A 
ATOM     27  O   UNL     1      32.878  -5.290  32.347  1.00  0.00    -0.289 OA
BRANCH  18  28
ATOM     28  O   UNL     1      28.029  -4.795  34.219  1.00  0.00    -0.502 OA
ATOM     29  H   UNL     1      28.020  -5.781  34.002  1.00  0.00     0.293 HD
ENDBRANCH  18  28
BRANCH  20  30
ATOM     30  O   UNL     1      30.105  -5.676  32.765  1.00  0.00    -0.504 OA
ATOM     31  H   UNL     1      29.355  -6.327  32.919  1.00  0.00     0.293 HD
ENDBRANCH  20  30
BRANCH  25  32
ATOM     32  C   UNL     1      34.991  -2.825  35.885  1.00  0.00     0.017 A 
ATOM     33  C   UNL     1      34.802  -1.922  36.955  1.00  0.00     0.012 A 
ATOM     34  C   UNL     1      35.903  -3.896  36.019  1.00  0.00     0.012 A 
ATOM     35  C   UNL     1      35.497  -2.115  38.169  1.00  0.00     0.001 A 
ATOM     36  C   UNL     1      36.570  -4.114  37.239  1.00  0.00     0.001 A 
ATOM     37  C   UNL     1      36.377  -3.219  38.310  1.00  0.00     0.000 A 
ENDBRANCH  25  32
ENDBRANCH   1  17
TORSDOF 9
ENDMDL
MODEL 3
REMARK VINA RESULT:    -6.942      3.848      9.709
REMARK INTER + INTRA:         -10.909
REMARK INTER:                  -9.651
REMARK INTRA:                  -1.258
REMARK UNBOUND:                -1.328
REMARK SMILES O=C([O-])[C@H]1O[C@H](Oc2cc3oc(-c4ccccc4)cc(=O)c3c(O)c2O)[C@@H](O)[C@H](O)[C@@H]1O
REMARK SMILES IDX 7 1 6 2 4 3 31 4 5 5 29 6 27 7 2 8 1 9 3 10 32 11 30 13
REMARK SMILES IDX 28 15 8 17 25 18 9 19 23 20 10 21 22 22 11 23 20 24 12 25
REMARK SMILES IDX 19 26 21 27 26 28 24 30 13 32 14 33 18 34 15 35 17 36 16 37
REMARK H PARENT 32 12 30 14 28 16 26 29 24 31
REMARK Flexibility Score: inf
ROOT
ATOM      1  O   UNL     1      25.072   1.164  38.019  1.00  0.00    -0.458 OA
ENDROOT
BRANCH   1   2
ATOM      2  C   UNL     1      24.445   2.417  38.319  1.00  0.00     0.339 C 
ATOM      3  C   UNL     1      22.528   3.270  39.484  1.00  0.00     0.199 C 
ATOM      4  C   UNL     1      23.333   4.497  39.983  1.00  0.00     0.180 C 
ATOM      5  O   UNL     1      23.307   2.127  39.136  1.00  0.00    -0.328 OA
ATOM      6  C   UNL     1      24.786   4.090  40.307  1.00  0.00     0.181 C 
ATOM      7  C   UNL     1      25.429   3.397  39.082  1.00  0.00     0.214 C 
BRANCH   3   8
ATOM      8  C   UNL     1      21.519   3.564  38.415  1.00  0.00     0.073 C 
ATOM      9  O   UNL     1      21.062   2.667  37.645  1.00  0.00    -0.547 OA
ATOM     10  O   UNL     1      21.065   4.869  38.281  1.00  0.00    -0.547 OA
ENDBRANCH   3   8
BRANCH   4  11
ATOM     11  O   UNL     1      22.741   5.087  41.117  1.00  0.00    -0.387 OA
ATOM     12  H   UNL     1      22.054   4.456  41.470  1.00  0.00     0.211 HD
ENDBRANCH   4  11
BRANCH   6  13
ATOM     13  O   UNL     1      24.846   3.278  41.453  1.00  0.00    -0.387 OA
ATOM     14  H   UNL     1      23.932   3.053  41.739  1.00  0.00     0.211 HD
ENDBRANCH   6  13
BRANCH   7  15
ATOM     15  O   UNL     1      25.937   4.361  38.174  1.00  0.00    -0.384 OA
ATOM     16  H   UNL     1      26.849   4.655  38.493  1.00  0.00     0.211 HD
ENDBRANCH   7  15
ENDBRANCH   1   2
BRANCH   1  17
ATOM     17  C   UNL     1      24.899   0.350  36.882  1.00  0.00     0.172 A 
ATOM     18  C   UNL     1      23.626  -0.200  36.583  1.00  0.00     0.201 A 
ATOM     19  C   UNL     1      25.966   0.039  36.024  1.00  0.00     0.098 A 
ATOM     20  C   UNL     1      23.467  -1.161  35.562  1.00  0.00     0.176 A 
ATOM     21  C   UNL     1      25.878  -1.092  35.234  1.00  0.00     0.146 A 
ATOM     22  C   UNL     1      24.626  -1.660  34.904  1.00  0.00     0.111 A 
ATOM     23  O   UNL     1      27.011  -1.744  34.965  1.00  0.00    -0.456 OA
ATOM     24  C   UNL     1      24.652  -2.843  34.113  1.00  0.00     0.197 A 
ATOM     25  C   UNL     1      27.029  -2.973  34.453  1.00  0.00     0.138 A 
ATOM     26  C   UNL     1      25.859  -3.534  33.933  1.00  0.00     0.100 A 
ATOM     27  O   UNL     1      23.607  -3.306  33.584  1.00  0.00    -0.289 OA
BRANCH  18  28
ATOM     28  O   UNL     1      22.506   0.137  37.352  1.00  0.00    -0.502 OA
ATOM     29  H   UNL     1      21.968   0.975  37.186  1.00  0.00     0.293 HD
ENDBRANCH  18  28
BRANCH  20  30
ATOM     30  O   UNL     1      22.174  -1.675  35.401  1.00  0.00    -0.504 OA
ATOM     31  H   UNL     1      21.467  -1.277  34.808  1.00  0.00     0.293 HD
ENDBRANCH  20  30
BRANCH  25  32
ATOM     32  C   UNL     1      28.249  -3.766  34.722  1.00  0.00     0.017 A 
ATOM     33  C   UNL     1      28.615  -4.846  33.888  1.00  0.00     0.012 A 
ATOM     34  C   UNL     1      29.232  -3.102  35.489  1.00  0.00     0.012 A 
ATOM     35  C   UNL     1      29.970  -5.234  33.796  1.00  0.00     0.001 A 
ATOM     36  C   UNL     1      30.588  -3.461  35.373  1.00  0.00     0.001 A 
ATOM     37  C   UNL     1      30.958  -4.533  34.536  1.00  0.00     0.000 A 
ENDBRANCH  25  32
ENDBRANCH   1  17
TORSDOF 9
ENDMDL
MODEL 4
REMARK VINA RESULT:    -6.913      3.612      8.003
REMARK INTER + INTRA:         -10.868
REMARK INTER:                  -9.773
REMARK INTRA:                  -1.095
REMARK UNBOUND:                -1.328
REMARK SMILES O=C([O-])[C@H]1O[C@H](Oc2cc3oc(-c4ccccc4)cc(=O)c3c(O)c2O)[C@@H](O)[C@H](O)[C@@H]1O
REMARK SMILES IDX 7 1 6 2 4 3 31 4 5 5 29 6 27 7 2 8 1 9 3 10 32 11 30 13
REMARK SMILES IDX 28 15 8 17 25 18 9 19 23 20 10 21 22 22 11 23 20 24 12 25
REMARK SMILES IDX 19 26 21 27 26 28 24 30 13 32 14 33 18 34 15 35 17 36 16 37
REMARK H PARENT 32 12 30 14 28 16 26 29 24 31
REMARK Flexibility Score: inf
ROOT
ATOM      1  O   UNL     1      25.010   1.223  37.949  1.00  0.00    -0.458 OA
ENDROOT
BRANCH   1   2
ATOM      2  C   UNL     1      26.227   1.757  38.483  1.00  0.00     0.339 C 
ATOM      3  C   UNL     1      27.790   3.528  38.057  1.00  0.00     0.199 C 
ATOM      4  C   UNL     1      27.990   3.764  39.575  1.00  0.00     0.180 C 
ATOM      5  O   UNL     1      26.562   2.901  37.692  1.00  0.00    -0.328 OA
ATOM      6  C   UNL     1      26.659   3.565  40.331  1.00  0.00     0.181 C 
ATOM      7  C   UNL     1      26.067   2.173  40.004  1.00  0.00     0.214 C 
BRANCH   3   8
ATOM      8  C   UNL     1      28.943   2.873  37.357  1.00  0.00     0.073 C 
ATOM      9  O   UNL     1      28.825   2.319  36.224  1.00  0.00    -0.547 OA
ATOM     10  O   UNL     1      30.184   2.890  37.979  1.00  0.00    -0.547 OA
ENDBRANCH   3   8
BRANCH   4  11
ATOM     11  O   UNL     1      28.500   5.050  39.843  1.00  0.00    -0.387 OA
ATOM     12  H   UNL     1      29.314   5.182  39.282  1.00  0.00     0.211 HD
ENDBRANCH   4  11
BRANCH   6  13
ATOM     13  O   UNL     1      25.749   4.597  40.042  1.00  0.00    -0.387 OA
ATOM     14  H   UNL     1      25.265   4.841  40.863  1.00  0.00     0.211 HD
ENDBRANCH   6  13
BRANCH   7  15
ATOM     15  O   UNL     1      26.647   1.178  40.832  1.00  0.00    -0.384 OA
ATOM     16  H   UNL     1      27.554   1.501  41.135  1.00  0.00     0.211 HD
ENDBRANCH   7  15
ENDBRANCH   1   2
BRANCH   1  17
ATOM     17  C   UNL     1      24.840   0.387  36.828  1.00  0.00     0.172 A 
ATOM     18  C   UNL     1      23.569  -0.176  36.540  1.00  0.00     0.201 A 
ATOM     19  C   UNL     1      25.908   0.064  35.975  1.00  0.00     0.098 A 
ATOM     20  C   UNL     1      23.414  -1.156  35.539  1.00  0.00     0.176 A 
ATOM     21  C   UNL     1      25.824  -1.081  35.207  1.00  0.00     0.146 A 
ATOM     22  C   UNL     1      24.575  -1.663  34.889  1.00  0.00     0.111 A 
ATOM     23  O   UNL     1      26.960  -1.733  34.949  1.00  0.00    -0.456 OA
ATOM     24  C   UNL     1      24.607  -2.860  34.121  1.00  0.00     0.197 A 
ATOM     25  C   UNL     1      26.985  -2.971  34.460  1.00  0.00     0.138 A 
ATOM     26  C   UNL     1      25.817  -3.549  33.952  1.00  0.00     0.100 A 
ATOM     27  O   UNL     1      23.564  -3.338  33.601  1.00  0.00    -0.289 OA
BRANCH  18  28
ATOM     28  O   UNL     1      22.448   0.170  37.304  1.00  0.00    -0.502 OA
ATOM     29  H   UNL     1      21.618   0.574  36.895  1.00  0.00     0.293 HD
ENDBRANCH  18  28
BRANCH  20  30
ATOM     30  O   UNL     1      22.124  -1.681  35.388  1.00  0.00    -0.504 OA
ATOM     31  H   UNL     1      21.881  -2.439  34.775  1.00  0.00     0.293 HD
ENDBRANCH  20  30
BRANCH  25  32
ATOM     32  C   UNL     1      28.209  -3.753  34.743  1.00  0.00     0.017 A 
ATOM     33  C   UNL     1      28.579  -4.848  33.932  1.00  0.00     0.012 A 
ATOM     34  C   UNL     1      29.190  -3.069  35.495  1.00  0.00     0.012 A 
ATOM     35  C   UNL     1      29.936  -5.231  33.844  1.00  0.00     0.001 A 
ATOM     36  C   UNL     1      30.547  -3.423  35.384  1.00  0.00     0.001 A 
ATOM     37  C   UNL     1      30.921  -4.511  34.569  1.00  0.00     0.000 A 
ENDBRANCH  25  32
ENDBRANCH   1  17
TORSDOF 9
ENDMDL
MODEL 5
REMARK VINA RESULT:    -6.852      3.626      9.421
REMARK INTER + INTRA:         -10.785
REMARK INTER:                 -10.406
REMARK INTRA:                  -0.378
REMARK UNBOUND:                -1.328
REMARK SMILES O=C([O-])[C@H]1O[C@H](Oc2cc3oc(-c4ccccc4)cc(=O)c3c(O)c2O)[C@@H](O)[C@H](O)[C@@H]1O
REMARK SMILES IDX 7 1 6 2 4 3 31 4 5 5 29 6 27 7 2 8 1 9 3 10 32 11 30 13
REMARK SMILES IDX 28 15 8 17 25 18 9 19 23 20 10 21 22 22 11 23 20 24 12 25
REMARK SMILES IDX 19 26 21 27 26 28 24 30 13 32 14 33 18 34 15 35 17 36 16 37
REMARK H PARENT 32 12 30 14 28 16 26 29 24 31
REMARK Flexibility Score: inf
ROOT
ATOM      1  O   UNL     1      26.365   1.444  38.813  1.00  0.00    -0.458 OA
ENDROOT
BRANCH   1   2
ATOM      2  C   UNL     1      25.651   2.453  39.535  1.00  0.00     0.339 C 
ATOM      3  C   UNL     1      25.081   3.028  41.795  1.00  0.00     0.199 C 
ATOM      4  C   UNL     1      25.255   4.538  41.493  1.00  0.00     0.180 C 
ATOM      5  O   UNL     1      25.786   2.144  40.926  1.00  0.00    -0.328 OA
ATOM      6  C   UNL     1      26.426   4.758  40.513  1.00  0.00     0.181 C 
ATOM      7  C   UNL     1      26.223   3.901  39.241  1.00  0.00     0.214 C 
BRANCH   3   8
ATOM      8  C   UNL     1      23.663   2.573  41.970  1.00  0.00     0.073 C 
ATOM      9  O   UNL     1      23.176   2.284  43.103  1.00  0.00    -0.547 OA
ATOM     10  O   UNL     1      22.859   2.480  40.841  1.00  0.00    -0.547 OA
ENDBRANCH   3   8
BRANCH   4  11
ATOM     11  O   UNL     1      25.470   5.287  42.666  1.00  0.00    -0.387 OA
ATOM     12  H   UNL     1      26.282   5.850  42.529  1.00  0.00     0.211 HD
ENDBRANCH   4  11
BRANCH   6  13
ATOM     13  O   UNL     1      27.663   4.490  41.126  1.00  0.00    -0.387 OA
ATOM     14  H   UNL     1      27.548   3.767  41.784  1.00  0.00     0.211 HD
ENDBRANCH   6  13
BRANCH   7  15
ATOM     15  O   UNL     1      25.373   4.569  38.322  1.00  0.00    -0.384 OA
ATOM     16  H   UNL     1      25.377   5.555  38.538  1.00  0.00     0.211 HD
ENDBRANCH   7  15
ENDBRANCH   1   2
BRANCH   1  17
ATOM     17  C   UNL     1      26.038   0.858  37.575  1.00  0.00     0.172 A 
ATOM     18  C   UNL     1      24.680   0.700  37.194  1.00  0.00     0.201 A 
ATOM     19  C   UNL     1      27.025   0.397  36.688  1.00  0.00     0.098 A 
ATOM     20  C   UNL     1      24.324  -0.045  36.050  1.00  0.00     0.176 A 
ATOM     21  C   UNL     1      26.684  -0.559  35.750  1.00  0.00     0.146 A 
ATOM     22  C   UNL     1      25.344  -0.737  35.337  1.00  0.00     0.111 A 
ATOM     23  O   UNL     1      27.624  -1.440  35.401  1.00  0.00    -0.456 OA
ATOM     24  C   UNL     1      25.100  -1.772  34.392  1.00  0.00     0.197 A 
ATOM     25  C   UNL     1      27.350  -2.555  34.725  1.00  0.00     0.138 A 
ATOM     26  C   UNL     1      26.097  -2.722  34.126  1.00  0.00     0.100 A 
ATOM     27  O   UNL     1      23.995  -1.876  33.797  1.00  0.00    -0.289 OA
BRANCH  18  28
ATOM     28  O   UNL     1      23.652   1.211  37.995  1.00  0.00    -0.502 OA
ATOM     29  H   UNL     1      22.676   1.063  37.782  1.00  0.00     0.293 HD
ENDBRANCH  18  28
BRANCH  20  30
ATOM     30  O   UNL     1      22.951  -0.183  35.812  1.00  0.00    -0.504 OA
ATOM     31  H   UNL     1      22.547  -0.774  35.106  1.00  0.00     0.293 HD
ENDBRANCH  20  30
BRANCH  25  32
ATOM     32  C   UNL     1      28.315  -3.664  34.891  1.00  0.00     0.017 A 
ATOM     33  C   UNL     1      28.341  -4.748  33.986  1.00  0.00     0.012 A 
ATOM     34  C   UNL     1      29.468  -3.341  35.641  1.00  0.00     0.012 A 
ATOM     35  C   UNL     1      29.535  -5.482  33.805  1.00  0.00     0.001 A 
ATOM     36  C   UNL     1      30.669  -4.046  35.437  1.00  0.00     0.001 A 
ATOM     37  C   UNL     1      30.701  -5.123  34.529  1.00  0.00     0.000 A 
ENDBRANCH  25  32
ENDBRANCH   1  17
TORSDOF 9
ENDMDL
MODEL 6
REMARK VINA RESULT:    -6.828      5.506     10.526
REMARK INTER + INTRA:         -10.750
REMARK INTER:                  -9.683
REMARK INTRA:                  -1.068
REMARK UNBOUND:                -1.328
REMARK SMILES O=C([O-])[C@H]1O[C@H](Oc2cc3oc(-c4ccccc4)cc(=O)c3c(O)c2O)[C@@H](O)[C@H](O)[C@@H]1O
REMARK SMILES IDX 7 1 6 2 4 3 31 4 5 5 29 6 27 7 2 8 1 9 3 10 32 11 30 13
REMARK SMILES IDX 28 15 8 17 25 18 9 19 23 20 10 21 22 22 11 23 20 24 12 25
REMARK SMILES IDX 19 26 21 27 26 28 24 30 13 32 14 33 18 34 15 35 17 36 16 37
REMARK H PARENT 32 12 30 14 28 16 26 29 24 31
REMARK Flexibility Score: inf
ROOT
ATOM      1  O   UNL     1      22.079   1.823  39.346  1.00  0.00    -0.458 OA
ENDROOT
BRANCH   1   2
ATOM      2  C   UNL     1      22.300   2.742  40.422  1.00  0.00     0.339 C 
ATOM      3  C   UNL     1      23.985   3.292  42.041  1.00  0.00     0.199 C 
ATOM      4  C   UNL     1      23.664   4.803  41.914  1.00  0.00     0.180 C 
ATOM      5  O   UNL     1      23.619   2.492  40.918  1.00  0.00    -0.328 OA
ATOM      6  C   UNL     1      23.316   5.158  40.453  1.00  0.00     0.181 C 
ATOM      7  C   UNL     1      22.173   4.247  39.943  1.00  0.00     0.214 C 
BRANCH   3   8
ATOM      8  C   UNL     1      23.529   2.649  43.316  1.00  0.00     0.073 C 
ATOM      9  O   UNL     1      22.781   3.244  44.149  1.00  0.00    -0.547 OA
ATOM     10  O   UNL     1      23.938   1.349  43.579  1.00  0.00    -0.547 OA
ENDBRANCH   3   8
BRANCH   4  11
ATOM     11  O   UNL     1      24.733   5.606  42.356  1.00  0.00    -0.387 OA
ATOM     12  H   UNL     1      25.140   5.167  43.154  1.00  0.00     0.211 HD
ENDBRANCH   4  11
BRANCH   6  13
ATOM     13  O   UNL     1      24.449   5.081  39.625  1.00  0.00    -0.387 OA
ATOM     14  H   UNL     1      25.234   5.409  40.118  1.00  0.00     0.211 HD
ENDBRANCH   6  13
BRANCH   7  15
ATOM     15  O   UNL     1      20.912   4.765  40.334  1.00  0.00    -0.384 OA
ATOM     16  H   UNL     1      20.335   3.999  40.652  1.00  0.00     0.211 HD
ENDBRANCH   7  15
ENDBRANCH   1   2
BRANCH   1  17
ATOM     17  C   UNL     1      22.564   1.890  38.026  1.00  0.00     0.172 A 
ATOM     18  C   UNL     1      21.702   2.269  36.964  1.00  0.00     0.201 A 
ATOM     19  C   UNL     1      23.895   1.570  37.708  1.00  0.00     0.098 A 
ATOM     20  C   UNL     1      22.112   2.167  35.619  1.00  0.00     0.176 A 
ATOM     21  C   UNL     1      24.199   1.197  36.412  1.00  0.00     0.146 A 
ATOM     22  C   UNL     1      23.371   1.568  35.328  1.00  0.00     0.111 A 
ATOM     23  O   UNL     1      25.180   0.309  36.243  1.00  0.00    -0.456 OA
ATOM     24  C   UNL     1      23.759   1.101  34.041  1.00  0.00     0.197 A 
ATOM     25  C   UNL     1      25.386  -0.326  35.090  1.00  0.00     0.138 A 
ATOM     26  C   UNL     1      24.739   0.104  33.928  1.00  0.00     0.100 A 
ATOM     27  O   UNL     1      23.226   1.546  32.990  1.00  0.00    -0.289 OA
BRANCH  18  28
ATOM     28  O   UNL     1      20.389   2.677  37.225  1.00  0.00    -0.502 OA
ATOM     29  H   UNL     1      20.151   3.261  38.014  1.00  0.00     0.293 HD
ENDBRANCH  18  28
BRANCH  20  30
ATOM     30  O   UNL     1      21.153   2.512  34.658  1.00  0.00    -0.504 OA
ATOM     31  H   UNL     1      20.951   1.979  33.830  1.00  0.00     0.293 HD
ENDBRANCH  20  30
BRANCH  25  32
ATOM     32  C   UNL     1      26.086  -1.626  35.185  1.00  0.00     0.017 A 
ATOM     33  C   UNL     1      26.017  -2.569  34.135  1.00  0.00     0.012 A 
ATOM     34  C   UNL     1      27.174  -1.650  36.086  1.00  0.00     0.012 A 
ATOM     35  C   UNL     1      27.058  -3.509  33.967  1.00  0.00     0.001 A 
ATOM     36  C   UNL     1      28.231  -2.561  35.900  1.00  0.00     0.001 A 
ATOM     37  C   UNL     1      28.169  -3.498  34.850  1.00  0.00     0.000 A 
ENDBRANCH  25  32
ENDBRANCH   1  17
TORSDOF 9
ENDMDL
MODEL 7
REMARK VINA RESULT:    -6.795      1.198      2.024
REMARK INTER + INTRA:         -10.706
REMARK INTER:                  -9.572
REMARK INTRA:                  -1.133
REMARK UNBOUND:                -1.328
REMARK SMILES O=C([O-])[C@H]1O[C@H](Oc2cc3oc(-c4ccccc4)cc(=O)c3c(O)c2O)[C@@H](O)[C@H](O)[C@@H]1O
REMARK SMILES IDX 7 1 6 2 4 3 31 4 5 5 29 6 27 7 2 8 1 9 3 10 32 11 30 13
REMARK SMILES IDX 28 15 8 17 25 18 9 19 23 20 10 21 22 22 11 23 20 24 12 25
REMARK SMILES IDX 19 26 21 27 26 28 24 30 13 32 14 33 18 34 15 35 17 36 16 37
REMARK H PARENT 32 12 30 14 28 16 26 29 24 31
REMARK Flexibility Score: inf
ROOT
ATOM      1  O   UNL     1      30.048  -3.816  35.526  1.00  0.00    -0.458 OA
ENDROOT
BRANCH   1   2
ATOM      2  C   UNL     1      31.152  -3.337  34.750  1.00  0.00     0.339 C 
ATOM      3  C   UNL     1      33.508  -2.934  34.976  1.00  0.00     0.199 C 
ATOM      4  C   UNL     1      33.764  -3.410  33.523  1.00  0.00     0.180 C 
ATOM      5  O   UNL     1      32.314  -3.428  35.580  1.00  0.00    -0.328 OA
ATOM      6  C   UNL     1      32.830  -4.586  33.170  1.00  0.00     0.181 C 
ATOM      7  C   UNL     1      31.356  -4.190  33.430  1.00  0.00     0.214 C 
BRANCH   3   8
ATOM      8  C   UNL     1      33.634  -1.456  35.192  1.00  0.00     0.073 C 
ATOM      9  O   UNL     1      34.120  -0.963  36.253  1.00  0.00    -0.547 OA
ATOM     10  O   UNL     1      33.208  -0.605  34.181  1.00  0.00    -0.547 OA
ENDBRANCH   3   8
BRANCH   4  11
ATOM     11  O   UNL     1      35.105  -3.794  33.326  1.00  0.00    -0.387 OA
ATOM     12  H   UNL     1      35.688  -3.035  33.607  1.00  0.00     0.211 HD
ENDBRANCH   4  11
BRANCH   6  13
ATOM     13  O   UNL     1      33.185  -5.750  33.874  1.00  0.00    -0.387 OA
ATOM     14  H   UNL     1      34.124  -5.972  33.681  1.00  0.00     0.211 HD
ENDBRANCH   6  13
BRANCH   7  15
ATOM     15  O   UNL     1      30.828  -3.481  32.321  1.00  0.00    -0.384 OA
ATOM     16  H   UNL     1      30.156  -4.071  31.852  1.00  0.00     0.211 HD
ENDBRANCH   7  15
ENDBRANCH   1   2
BRANCH   1  17
ATOM     17  C   UNL     1      28.750  -3.278  35.625  1.00  0.00     0.172 A 
ATOM     18  C   UNL     1      27.832  -3.420  34.552  1.00  0.00     0.201 A 
ATOM     19  C   UNL     1      28.324  -2.573  36.762  1.00  0.00     0.098 A 
ATOM     20  C   UNL     1      26.598  -2.737  34.551  1.00  0.00     0.176 A 
ATOM     21  C   UNL     1      27.270  -1.688  36.642  1.00  0.00     0.146 A 
ATOM     22  C   UNL     1      26.328  -1.806  35.594  1.00  0.00     0.111 A 
ATOM     23  O   UNL     1      27.285  -0.604  37.420  1.00  0.00    -0.456 OA
ATOM     24  C   UNL     1      25.303  -0.821  35.545  1.00  0.00     0.197 A 
ATOM     25  C   UNL     1      26.487   0.442  37.214  1.00  0.00     0.138 A 
ATOM     26  C   UNL     1      25.413   0.340  36.324  1.00  0.00     0.100 A 
ATOM     27  O   UNL     1      24.298  -0.951  34.796  1.00  0.00    -0.289 OA
BRANCH  18  28
ATOM     28  O   UNL     1      28.166  -4.180  33.425  1.00  0.00    -0.502 OA
ATOM     29  H   UNL     1      28.928  -4.843  33.426  1.00  0.00     0.293 HD
ENDBRANCH  18  28
BRANCH  20  30
ATOM     30  O   UNL     1      25.804  -2.907  33.410  1.00  0.00    -0.504 OA
ATOM     31  H   UNL     1      25.460  -3.791  33.077  1.00  0.00     0.293 HD
ENDBRANCH  20  30
BRANCH  25  32
ATOM     32  C   UNL     1      26.965   1.735  37.749  1.00  0.00     0.017 A 
ATOM     33  C   UNL     1      26.743   2.094  39.098  1.00  0.00     0.012 A 
ATOM     34  C   UNL     1      28.035   2.316  37.032  1.00  0.00     0.012 A 
ATOM     35  C   UNL     1      27.615   3.003  39.736  1.00  0.00     0.001 A 
ATOM     36  C   UNL     1      28.928   3.194  37.674  1.00  0.00     0.001 A 
ATOM     37  C   UNL     1      28.714   3.548  39.021  1.00  0.00     0.000 A 
ENDBRANCH  25  32
ENDBRANCH   1  17
TORSDOF 9
ENDMDL
MODEL 8
REMARK VINA RESULT:    -6.771      5.351      9.429
REMARK INTER + INTRA:         -10.673
REMARK INTER:                  -9.345
REMARK INTRA:                  -1.327
REMARK UNBOUND:                -1.328
REMARK SMILES O=C([O-])[C@H]1O[C@H](Oc2cc3oc(-c4ccccc4)cc(=O)c3c(O)c2O)[C@@H](O)[C@H](O)[C@@H]1O
REMARK SMILES IDX 7 1 6 2 4 3 31 4 5 5 29 6 27 7 2 8 1 9 3 10 32 11 30 13
REMARK SMILES IDX 28 15 8 17 25 18 9 19 23 20 10 21 22 22 11 23 20 24 12 25
REMARK SMILES IDX 19 26 21 27 26 28 24 30 13 32 14 33 18 34 15 35 17 36 16 37
REMARK H PARENT 32 12 30 14 28 16 26 29 24 31
REMARK Flexibility Score: inf
ROOT
ATOM      1  O   UNL     1      26.646   2.693  38.603  1.00  0.00    -0.458 OA
ENDROOT
BRANCH   1   2
ATOM      2  C   UNL     1      26.108   1.978  37.484  1.00  0.00     0.339 C 
ATOM      3  C   UNL     1      25.485  -0.258  36.871  1.00  0.00     0.199 C 
ATOM      4  C   UNL     1      24.268   0.265  36.066  1.00  0.00     0.180 C 
ATOM      5  O   UNL     1      25.962   0.615  37.894  1.00  0.00    -0.328 OA
ATOM      6  C   UNL     1      23.634   1.479  36.776  1.00  0.00     0.181 C 
ATOM      7  C   UNL     1      24.707   2.564  37.031  1.00  0.00     0.214 C 
BRANCH   3   8
ATOM      8  C   UNL     1      26.624  -0.769  36.042  1.00  0.00     0.073 C 
ATOM      9  O   UNL     1      27.784  -0.951  36.518  1.00  0.00    -0.547 OA
ATOM     10  O   UNL     1      26.385  -1.062  34.706  1.00  0.00    -0.547 OA
ENDBRANCH   3   8
BRANCH   4  11
ATOM     11  O   UNL     1      23.295  -0.736  35.878  1.00  0.00    -0.387 OA
ATOM     12  H   UNL     1      22.804  -0.535  35.032  1.00  0.00     0.211 HD
ENDBRANCH   4  11
BRANCH   6  13
ATOM     13  O   UNL     1      22.991   1.096  37.967  1.00  0.00    -0.387 OA
ATOM     14  H   UNL     1      23.633   1.141  38.711  1.00  0.00     0.211 HD
ENDBRANCH   6  13
BRANCH   7  15
ATOM     15  O   UNL     1      24.882   3.373  35.879  1.00  0.00    -0.384 OA
ATOM     16  H   UNL     1      24.440   4.266  36.043  1.00  0.00     0.211 HD
ENDBRANCH   7  15
ENDBRANCH   1   2
BRANCH   1  17
ATOM     17  C   UNL     1      26.066   2.897  39.870  1.00  0.00     0.172 A 
ATOM     18  C   UNL     1      26.049   1.850  40.827  1.00  0.00     0.201 A 
ATOM     19  C   UNL     1      25.473   4.120  40.226  1.00  0.00     0.098 A 
ATOM     20  C   UNL     1      25.316   1.968  42.027  1.00  0.00     0.176 A 
ATOM     21  C   UNL     1      24.535   4.136  41.241  1.00  0.00     0.146 A 
ATOM     22  C   UNL     1      24.496   3.116  42.219  1.00  0.00     0.111 A 
ATOM     23  O   UNL     1      23.545   5.026  41.150  1.00  0.00    -0.456 OA
ATOM     24  C   UNL     1      23.468   3.212  43.199  1.00  0.00     0.197 A 
ATOM     25  C   UNL     1      22.450   4.965  41.904  1.00  0.00     0.138 A 
ATOM     26  C   UNL     1      22.406   4.109  43.009  1.00  0.00     0.100 A 
ATOM     27  O   UNL     1      23.471   2.491  44.231  1.00  0.00    -0.289 OA
BRANCH  18  28
ATOM     28  O   UNL     1      26.693   0.635  40.565  1.00  0.00    -0.502 OA
ATOM     29  H   UNL     1      27.048   0.042  41.300  1.00  0.00     0.293 HD
ENDBRANCH  18  28
BRANCH  20  30
ATOM     30  O   UNL     1      25.325   0.846  42.864  1.00  0.00    -0.504 OA
ATOM     31  H   UNL     1      25.503  -0.096  42.560  1.00  0.00     0.293 HD
ENDBRANCH  20  30
BRANCH  25  32
ATOM     32  C   UNL     1      21.246   5.620  41.348  1.00  0.00     0.017 A 
ATOM     33  C   UNL     1      20.862   5.420  40.004  1.00  0.00     0.012 A 
ATOM     34  C   UNL     1      20.282   6.005  42.307  1.00  0.00     0.012 A 
ATOM     35  C   UNL     1      19.508   5.568  39.630  1.00  0.00     0.001 A 
ATOM     36  C   UNL     1      18.926   6.117  41.948  1.00  0.00     0.001 A 
ATOM     37  C   UNL     1      18.539   5.911  40.609  1.00  0.00     0.000 A 
ENDBRANCH  25  32
ENDBRANCH   1  17
TORSDOF 9
ENDMDL
MODEL 9
REMARK VINA RESULT:    -6.697      5.237      9.354
REMARK INTER + INTRA:         -10.571
REMARK INTER:                  -9.417
REMARK INTRA:                  -1.153
REMARK UNBOUND:                -1.328
REMARK SMILES O=C([O-])[C@H]1O[C@H](Oc2cc3oc(-c4ccccc4)cc(=O)c3c(O)c2O)[C@@H](O)[C@H](O)[C@@H]1O
REMARK SMILES IDX 7 1 6 2 4 3 31 4 5 5 29 6 27 7 2 8 1 9 3 10 32 11 30 13
REMARK SMILES IDX 28 15 8 17 25 18 9 19 23 20 10 21 22 22 11 23 20 24 12 25
REMARK SMILES IDX 19 26 21 27 26 28 24 30 13 32 14 33 18 34 15 35 17 36 16 37
REMARK H PARENT 32 12 30 14 28 16 26 29 24 31
REMARK Flexibility Score: inf
ROOT
ATOM      1  O   UNL     1      23.439   1.650  37.750  1.00  0.00    -0.458 OA
ENDROOT
BRANCH   1   2
ATOM      2  C   UNL     1      24.012   0.858  36.703  1.00  0.00     0.339 C 
ATOM      3  C   UNL     1      24.999  -1.306  36.378  1.00  0.00     0.199 C 
ATOM      4  C   UNL     1      24.332  -1.440  34.986  1.00  0.00     0.180 C 
ATOM      5  O   UNL     1      24.358  -0.406  37.280  1.00  0.00    -0.328 OA
ATOM      6  C   UNL     1      22.923  -0.812  35.001  1.00  0.00     0.181 C 
ATOM      7  C   UNL     1      22.999   0.651  35.503  1.00  0.00     0.214 C 
BRANCH   3   8
ATOM      8  C   UNL     1      26.478  -1.064  36.356  1.00  0.00     0.073 C 
ATOM      9  O   UNL     1      27.116  -0.851  35.282  1.00  0.00    -0.547 OA
ATOM     10  O   UNL     1      27.162  -1.062  37.564  1.00  0.00    -0.547 OA
ENDBRANCH   3   8
BRANCH   4  11
ATOM     11  O   UNL     1      24.248  -2.784  34.571  1.00  0.00    -0.387 OA
ATOM     12  H   UNL     1      24.812  -3.332  35.184  1.00  0.00     0.211 HD
ENDBRANCH   4  11
BRANCH   6  13
ATOM     13  O   UNL     1      22.031  -1.578  35.772  1.00  0.00    -0.387 OA
ATOM     14  H   UNL     1      22.067  -2.515  35.474  1.00  0.00     0.211 HD
ENDBRANCH   6  13
BRANCH   7  15
ATOM     15  O   UNL     1      23.341   1.525  34.439  1.00  0.00    -0.384 OA
ATOM     16  H   UNL     1      23.931   1.025  33.789  1.00  0.00     0.211 HD
ENDBRANCH   7  15
ENDBRANCH   1   2
BRANCH   1  17
ATOM     17  C   UNL     1      24.035   2.695  38.482  1.00  0.00     0.172 A 
ATOM     18  C   UNL     1      25.305   2.513  39.087  1.00  0.00     0.201 A 
ATOM     19  C   UNL     1      23.398   3.935  38.656  1.00  0.00     0.098 A 
ATOM     20  C   UNL     1      25.838   3.473  39.972  1.00  0.00     0.176 A 
ATOM     21  C   UNL     1      23.768   4.730  39.724  1.00  0.00     0.146 A 
ATOM     22  C   UNL     1      25.030   4.586  40.344  1.00  0.00     0.111 A 
ATOM     23  O   UNL     1      22.824   5.493  40.279  1.00  0.00    -0.456 OA
ATOM     24  C   UNL     1      25.295   5.432  41.457  1.00  0.00     0.197 A 
ATOM     25  C   UNL     1      22.981   6.087  41.460  1.00  0.00     0.138 A 
ATOM     26  C   UNL     1      24.246   6.147  42.053  1.00  0.00     0.100 A 
ATOM     27  O   UNL     1      26.452   5.542  41.942  1.00  0.00    -0.289 OA
BRANCH  18  28
ATOM     28  O   UNL     1      26.027   1.331  38.884  1.00  0.00    -0.502 OA
ATOM     29  H   UNL     1      25.610   0.506  38.476  1.00  0.00     0.293 HD
ENDBRANCH  18  28
BRANCH  20  30
ATOM     30  O   UNL     1      27.070   3.153  40.554  1.00  0.00    -0.504 OA
ATOM     31  H   UNL     1      27.951   3.148  40.069  1.00  0.00     0.293 HD
ENDBRANCH  20  30
BRANCH  25  32
ATOM     32  C   UNL     1      21.736   6.407  42.192  1.00  0.00     0.017 A 
ATOM     33  C   UNL     1      20.470   6.233  41.589  1.00  0.00     0.012 A 
ATOM     34  C   UNL     1      21.854   6.396  43.600  1.00  0.00     0.012 A 
ATOM     35  C   UNL     1      19.332   6.009  42.396  1.00  0.00     0.001 A 
ATOM     36  C   UNL     1      20.730   6.137  44.407  1.00  0.00     0.001 A 
ATOM     37  C   UNL     1      19.468   5.955  43.808  1.00  0.00     0.000 A 
ENDBRANCH  25  32
ENDBRANCH   1  17
TORSDOF 9
ENDMDL
