MODEL 1
REMARK VINA RESULT:    -3.940      0.000      0.000
REMARK INTER + INTRA:          -5.584
REMARK INTER:                  -5.322
REMARK INTRA:                  -0.262
REMARK UNBOUND:                -0.262
REMARK SMILES CCCCCCCC(=O)[O-]
REMARK SMILES IDX 5 1 6 2 7 3 8 4 9 5 10 6 4 7 3 8 2 9 1 10
REMARK H PARENT
REMARK Flexibility Score: inf
ROOT
ATOM      1  C   UNL     1     -16.088  -3.646 -31.411  1.00  0.00     0.000 C 
ENDROOT
BRANCH   1   2
ATOM      2  C   UNL     1     -15.900  -4.837 -30.454  1.00  0.00     0.006 C 
BRANCH   2   3
ATOM      3  C   UNL     1     -15.809  -6.183 -31.184  1.00  0.00     0.053 C 
BRANCH   3   4
ATOM      4  C   UNL     1     -14.678  -6.997 -30.639  1.00  0.00     0.041 C 
ATOM      5  O   UNL     1     -14.761  -8.253 -30.601  1.00  0.00    -0.550 OA
ATOM      6  O   UNL     1     -13.512  -6.371 -30.217  1.00  0.00    -0.550 OA
ENDBRANCH   3   4
ENDBRANCH   2   3
ENDBRANCH   1   2
BRANCH   1   7
ATOM      7  C   UNL     1     -15.770  -3.939 -32.889  1.00  0.00     0.000 C 
BRANCH   7   8
ATOM      8  C   UNL     1     -14.705  -2.995 -33.471  1.00  0.00    -0.000 C 
BRANCH   8   9
ATOM      9  C   UNL     1     -15.317  -1.731 -34.096  1.00  0.00    -0.003 C 
ATOM     10  C   UNL     1     -15.218  -0.509 -33.182  1.00  0.00     0.004 C 
ENDBRANCH   8   9
ENDBRANCH   7   8
ENDBRANCH   1   7
TORSDOF 6
ENDMDL
MODEL 2
REMARK VINA RESULT:    -3.768      2.531      5.228
REMARK INTER + INTRA:          -5.352
REMARK INTER:                  -5.080
REMARK INTRA:                  -0.272
REMARK UNBOUND:                -0.262
REMARK SMILES CCCCCCCC(=O)[O-]
REMARK SMILES IDX 5 1 6 2 7 3 8 4 9 5 10 6 4 7 3 8 2 9 1 10
REMARK H PARENT
REMARK Flexibility Score: inf
ROOT
ATOM      1  C   UNL     1     -15.568  -5.263 -30.341  1.00  0.00     0.000 C 
ENDROOT
BRANCH   1   2
ATOM      2  C   UNL     1     -16.068  -3.977 -31.024  1.00  0.00     0.006 C 
BRANCH   2   3
ATOM      3  C   UNL     1     -15.842  -3.979 -32.541  1.00  0.00     0.053 C 
BRANCH   3   4
ATOM      4  C   UNL     1     -14.720  -3.057 -32.903  1.00  0.00     0.041 C 
ATOM      5  O   UNL     1     -14.579  -2.667 -34.092  1.00  0.00    -0.550 OA
ATOM      6  O   UNL     1     -13.860  -2.590 -31.917  1.00  0.00    -0.550 OA
ENDBRANCH   3   4
ENDBRANCH   2   3
ENDBRANCH   1   2
BRANCH   1   7
ATOM      7  C   UNL     1     -15.466  -6.494 -31.259  1.00  0.00     0.000 C 
BRANCH   7   8
ATOM      8  C   UNL     1     -14.837  -7.712 -30.562  1.00  0.00    -0.000 C 
BRANCH   8   9
ATOM      9  C   UNL     1     -13.574  -7.347 -29.766  1.00  0.00    -0.003 C 
ATOM     10  C   UNL     1     -12.958  -8.548 -29.047  1.00  0.00     0.004 C 
ENDBRANCH   8   9
ENDBRANCH   7   8
ENDBRANCH   1   7
TORSDOF 6
ENDMDL
MODEL 3
REMARK VINA RESULT:    -3.765      3.123      5.669
REMARK INTER + INTRA:          -5.348
REMARK INTER:                  -5.133
REMARK INTRA:                  -0.216
REMARK UNBOUND:                -0.262
REMARK SMILES CCCCCCCC(=O)[O-]
REMARK SMILES IDX 5 1 6 2 7 3 8 4 9 5 10 6 4 7 3 8 2 9 1 10
REMARK H PARENT
REMARK Flexibility Score: inf
ROOT
ATOM      1  C   UNL     1     -14.249  -5.035 -31.450  1.00  0.00     0.000 C 
ENDROOT
BRANCH   1   2
ATOM      2  C   UNL     1     -14.212  -4.244 -32.771  1.00  0.00     0.006 C 
BRANCH   2   3
ATOM      3  C   UNL     1     -15.551  -3.574 -33.105  1.00  0.00     0.053 C 
BRANCH   3   4
ATOM      4  C   UNL     1     -15.355  -2.110 -33.347  1.00  0.00     0.041 C 
ATOM      5  O   UNL     1     -15.463  -1.291 -32.397  1.00  0.00    -0.550 OA
ATOM      6  O   UNL     1     -15.007  -1.656 -34.613  1.00  0.00    -0.550 OA
ENDBRANCH   3   4
ENDBRANCH   2   3
ENDBRANCH   1   2
BRANCH   1   7
ATOM      7  C   UNL     1     -15.365  -6.090 -31.352  1.00  0.00     0.000 C 
BRANCH   7   8
ATOM      8  C   UNL     1     -14.892  -7.405 -30.709  1.00  0.00    -0.000 C 
BRANCH   8   9
ATOM      9  C   UNL     1     -13.590  -7.234 -29.911  1.00  0.00    -0.003 C 
ATOM     10  C   UNL     1     -13.173  -8.509 -29.176  1.00  0.00     0.004 C 
ENDBRANCH   8   9
ENDBRANCH   7   8
ENDBRANCH   1   7
TORSDOF 6
ENDMDL
MODEL 4
REMARK VINA RESULT:    -3.747      3.115      5.482
REMARK INTER + INTRA:          -5.323
REMARK INTER:                  -4.986
REMARK INTRA:                  -0.338
REMARK UNBOUND:                -0.262
REMARK SMILES CCCCCCCC(=O)[O-]
REMARK SMILES IDX 5 1 6 2 7 3 8 4 9 5 10 6 4 7 3 8 2 9 1 10
REMARK H PARENT
REMARK Flexibility Score: inf
ROOT
ATOM      1  C   UNL     1     -14.196  -4.116 -32.874  1.00  0.00     0.000 C 
ENDROOT
BRANCH   1   2
ATOM      2  C   UNL     1     -15.479  -3.327 -33.192  1.00  0.00     0.006 C 
BRANCH   2   3
ATOM      3  C   UNL     1     -15.198  -1.953 -33.813  1.00  0.00     0.053 C 
BRANCH   3   4
ATOM      4  C   UNL     1     -15.294  -0.881 -32.773  1.00  0.00     0.041 C 
ATOM      5  O   UNL     1     -14.925   0.294 -33.037  1.00  0.00    -0.550 OA
ATOM      6  O   UNL     1     -15.836  -1.169 -31.526  1.00  0.00    -0.550 OA
ENDBRANCH   3   4
ENDBRANCH   2   3
ENDBRANCH   1   2
BRANCH   1   7
ATOM      7  C   UNL     1     -13.975  -4.431 -31.384  1.00  0.00     0.000 C 
BRANCH   7   8
ATOM      8  C   UNL     1     -15.230  -4.999 -30.699  1.00  0.00    -0.000 C 
BRANCH   8   9
ATOM      9  C   UNL     1     -15.598  -6.400 -31.213  1.00  0.00    -0.003 C 
ATOM     10  C   UNL     1     -14.762  -7.507 -30.568  1.00  0.00     0.004 C 
ENDBRANCH   8   9
ENDBRANCH   7   8
ENDBRANCH   1   7
TORSDOF 6
ENDMDL
MODEL 5
REMARK VINA RESULT:    -3.663     25.289     26.282
REMARK INTER + INTRA:          -5.210
REMARK INTER:                  -4.642
REMARK INTRA:                  -0.569
REMARK UNBOUND:                -0.262
REMARK SMILES CCCCCCCC(=O)[O-]
REMARK SMILES IDX 5 1 6 2 7 3 8 4 9 5 10 6 4 7 3 8 2 9 1 10
REMARK H PARENT
REMARK Flexibility Score: inf
ROOT
ATOM      1  C   UNL     1       1.949   9.991 -15.603  1.00  0.00     0.000 C 
ENDROOT
BRANCH   1   2
ATOM      2  C   UNL     1       1.210   8.737 -15.103  1.00  0.00     0.006 C 
BRANCH   2   3
ATOM      3  C   UNL     1       1.828   7.432 -15.621  1.00  0.00     0.053 C 
BRANCH   3   4
ATOM      4  C   UNL     1       1.205   7.043 -16.925  1.00  0.00     0.041 C 
ATOM      5  O   UNL     1       1.922   6.614 -17.867  1.00  0.00    -0.550 OA
ATOM      6  O   UNL     1      -0.174   7.108 -17.084  1.00  0.00    -0.550 OA
ENDBRANCH   3   4
ENDBRANCH   2   3
ENDBRANCH   1   2
BRANCH   1   7
ATOM      7  C   UNL     1       1.284  10.710 -16.791  1.00  0.00     0.000 C 
BRANCH   7   8
ATOM      8  C   UNL     1       1.934  10.365 -18.141  1.00  0.00    -0.000 C 
BRANCH   8   9
ATOM      9  C   UNL     1       3.422  10.004 -18.003  1.00  0.00    -0.003 C 
ATOM     10  C   UNL     1       4.006   9.395 -19.278  1.00  0.00     0.004 C 
ENDBRANCH   8   9
ENDBRANCH   7   8
ENDBRANCH   1   7
TORSDOF 6
ENDMDL
MODEL 6
REMARK VINA RESULT:    -3.658      2.720      4.372
REMARK INTER + INTRA:          -5.204
REMARK INTER:                  -4.680
REMARK INTRA:                  -0.525
REMARK UNBOUND:                -0.262
REMARK SMILES CCCCCCCC(=O)[O-]
REMARK SMILES IDX 5 1 6 2 7 3 8 4 9 5 10 6 4 7 3 8 2 9 1 10
REMARK H PARENT
REMARK Flexibility Score: inf
ROOT
ATOM      1  C   UNL     1     -14.915  -7.336 -30.664  1.00  0.00     0.000 C 
ENDROOT
BRANCH   1   2
ATOM      2  C   UNL     1     -15.711  -6.019 -30.691  1.00  0.00     0.006 C 
BRANCH   2   3
ATOM      3  C   UNL     1     -15.985  -5.515 -32.114  1.00  0.00     0.053 C 
BRANCH   3   4
ATOM      4  C   UNL     1     -16.008  -4.019 -32.142  1.00  0.00     0.041 C 
ATOM      5  O   UNL     1     -16.031  -3.405 -33.241  1.00  0.00    -0.550 OA
ATOM      6  O   UNL     1     -16.052  -3.302 -30.952  1.00  0.00    -0.550 OA
ENDBRANCH   3   4
ENDBRANCH   2   3
ENDBRANCH   1   2
BRANCH   1   7
ATOM      7  C   UNL     1     -13.570  -7.272 -29.917  1.00  0.00     0.000 C 
BRANCH   7   8
ATOM      8  C   UNL     1     -13.115  -5.832 -29.627  1.00  0.00    -0.000 C 
BRANCH   8   9
ATOM      9  C   UNL     1     -11.993  -5.368 -30.570  1.00  0.00    -0.003 C 
ATOM     10  C   UNL     1     -12.338  -4.077 -31.313  1.00  0.00     0.004 C 
ENDBRANCH   8   9
ENDBRANCH   7   8
ENDBRANCH   1   7
TORSDOF 6
ENDMDL
MODEL 7
REMARK VINA RESULT:    -3.652      1.505      1.957
REMARK INTER + INTRA:          -5.196
REMARK INTER:                  -4.887
REMARK INTRA:                  -0.309
REMARK UNBOUND:                -0.262
REMARK SMILES CCCCCCCC(=O)[O-]
REMARK SMILES IDX 5 1 6 2 7 3 8 4 9 5 10 6 4 7 3 8 2 9 1 10
REMARK H PARENT
REMARK Flexibility Score: inf
ROOT
ATOM      1  C   UNL     1     -16.125  -5.727 -31.691  1.00  0.00     0.000 C 
ENDROOT
BRANCH   1   2
ATOM      2  C   UNL     1     -14.787  -6.155 -31.061  1.00  0.00     0.006 C 
BRANCH   2   3
ATOM      3  C   UNL     1     -14.776  -7.624 -30.620  1.00  0.00     0.053 C 
BRANCH   3   4
ATOM      4  C   UNL     1     -13.568  -7.908 -29.783  1.00  0.00     0.041 C 
ATOM      5  O   UNL     1     -13.303  -9.088 -29.433  1.00  0.00    -0.550 OA
ATOM      6  O   UNL     1     -12.708  -6.874 -29.431  1.00  0.00    -0.550 OA
ENDBRANCH   3   4
ENDBRANCH   2   3
ENDBRANCH   1   2
BRANCH   1   7
ATOM      7  C   UNL     1     -16.116  -4.346 -32.370  1.00  0.00     0.000 C 
BRANCH   7   8
ATOM      8  C   UNL     1     -14.754  -3.993 -32.992  1.00  0.00    -0.000 C 
BRANCH   8   9
ATOM      9  C   UNL     1     -14.225  -2.631 -32.516  1.00  0.00    -0.003 C 
ATOM     10  C   UNL     1     -13.225  -2.752 -31.365  1.00  0.00     0.004 C 
ENDBRANCH   8   9
ENDBRANCH   7   8
ENDBRANCH   1   7
TORSDOF 6
ENDMDL
MODEL 8
REMARK VINA RESULT:    -3.555     25.412     26.598
REMARK INTER + INTRA:          -5.065
REMARK INTER:                  -4.605
REMARK INTRA:                  -0.460
REMARK UNBOUND:                -0.262
REMARK SMILES CCCCCCCC(=O)[O-]
REMARK SMILES IDX 5 1 6 2 7 3 8 4 9 5 10 6 4 7 3 8 2 9 1 10
REMARK H PARENT
REMARK Flexibility Score: inf
ROOT
ATOM      1  C   UNL     1       2.628  10.242 -16.344  1.00  0.00     0.000 C 
ENDROOT
BRANCH   1   2
ATOM      2  C   UNL     1       2.560  10.391 -17.875  1.00  0.00     0.006 C 
BRANCH   2   3
ATOM      3  C   UNL     1       3.676   9.627 -18.600  1.00  0.00     0.053 C 
BRANCH   3   4
ATOM      4  C   UNL     1       3.133   8.940 -19.814  1.00  0.00     0.041 C 
ATOM      5  O   UNL     1       1.973   9.203 -20.226  1.00  0.00    -0.550 OA
ATOM      6  O   UNL     1       3.928   8.044 -20.518  1.00  0.00    -0.550 OA
ENDBRANCH   3   4
ENDBRANCH   2   3
ENDBRANCH   1   2
BRANCH   1   7
ATOM      7  C   UNL     1       1.301   9.854 -15.666  1.00  0.00     0.000 C 
BRANCH   7   8
ATOM      8  C   UNL     1       1.357   8.476 -14.986  1.00  0.00    -0.000 C 
BRANCH   8   9
ATOM      9  C   UNL     1       1.909   7.383 -15.915  1.00  0.00    -0.003 C 
ATOM     10  C   UNL     1       0.959   7.046 -17.066  1.00  0.00     0.004 C 
ENDBRANCH   8   9
ENDBRANCH   7   8
ENDBRANCH   1   7
TORSDOF 6
ENDMDL
