MODEL 1
REMARK VINA RESULT:    -5.967      0.000      0.000
REMARK INTER + INTRA:          -5.967
REMARK INTER:                  -5.967
REMARK INTRA:                   0.000
REMARK UNBOUND:                 0.000
REMARK SMILES CC1(C)O[C@]2(C)CC[C@H]1CC2
REMARK SMILES IDX 1 1 2 2 9 3 10 4 11 5 5 6 4 7 7 8 8 9 6 10 3 11
REMARK H PARENT
REMARK Flexibility Score: inf
ROOT
ATOM      1  C   UNL     1      30.106  35.405  27.035  1.00  0.00     0.042 C 
ATOM      2  C   UNL     1      28.958  36.409  26.799  1.00  0.00     0.066 C 
ATOM      3  C   UNL     1      29.411  37.554  25.813  1.00  0.00     0.021 C 
ATOM      4  C   UNL     1      28.242  38.556  25.655  1.00  0.00     0.009 C 
ATOM      5  C   UNL     1      27.754  38.995  27.057  1.00  0.00     0.035 C 
ATOM      6  C   UNL     1      28.657  38.356  28.152  1.00  0.00     0.066 C 
ATOM      7  O   UNL     1      28.555  36.933  28.073  1.00  0.00    -0.369 OA
ATOM      8  C   UNL     1      30.133  38.777  27.898  1.00  0.00     0.035 C 
ATOM      9  C   UNL     1      30.565  38.343  26.475  1.00  0.00     0.009 C 
ATOM     10  C   UNL     1      28.207  38.808  29.545  1.00  0.00     0.042 C 
ATOM     11  C   UNL     1      27.770  35.618  26.209  1.00  0.00     0.042 C 
ENDROOT
TORSDOF 0
ENDMDL
MODEL 2
REMARK VINA RESULT:    -5.957      1.264      2.985
REMARK INTER + INTRA:          -5.957
REMARK INTER:                  -5.957
REMARK INTRA:                   0.000
REMARK UNBOUND:                 0.000
REMARK SMILES CC1(C)O[C@]2(C)CC[C@H]1CC2
REMARK SMILES IDX 1 1 2 2 9 3 10 4 11 5 5 6 4 7 7 8 8 9 6 10 3 11
REMARK H PARENT
REMARK Flexibility Score: inf
ROOT
ATOM      1  C   UNL     1      30.181  39.060  28.658  1.00  0.00     0.042 C 
ATOM      2  C   UNL     1      29.065  38.261  27.951  1.00  0.00     0.066 C 
ATOM      3  C   UNL     1      29.597  36.849  27.488  1.00  0.00     0.021 C 
ATOM      4  C   UNL     1      28.456  36.116  26.742  1.00  0.00     0.009 C 
ATOM      5  C   UNL     1      27.888  37.044  25.642  1.00  0.00     0.035 C 
ATOM      6  C   UNL     1      28.710  38.365  25.591  1.00  0.00     0.066 C 
ATOM      7  O   UNL     1      28.591  39.040  26.844  1.00  0.00    -0.369 OA
ATOM      8  C   UNL     1      30.206  38.019  25.337  1.00  0.00     0.035 C 
ATOM      9  C   UNL     1      30.720  37.068  26.445  1.00  0.00     0.009 C 
ATOM     10  C   UNL     1      28.180  39.281  24.483  1.00  0.00     0.042 C 
ATOM     11  C   UNL     1      27.905  38.103  28.958  1.00  0.00     0.042 C 
ENDROOT
TORSDOF 0
ENDMDL
MODEL 3
REMARK VINA RESULT:    -5.927      1.316      2.954
REMARK INTER + INTRA:          -5.927
REMARK INTER:                  -5.927
REMARK INTRA:                   0.000
REMARK UNBOUND:                 0.000
REMARK SMILES CC1(C)O[C@]2(C)CC[C@H]1CC2
REMARK SMILES IDX 1 1 2 2 9 3 10 4 11 5 5 6 4 7 7 8 8 9 6 10 3 11
REMARK H PARENT
REMARK Flexibility Score: inf
ROOT
ATOM      1  C   UNL     1      28.246  34.909  26.615  1.00  0.00     0.042 C 
ATOM      2  C   UNL     1      28.879  36.268  26.982  1.00  0.00     0.066 C 
ATOM      3  C   UNL     1      28.091  36.950  28.167  1.00  0.00     0.021 C 
ATOM      4  C   UNL     1      28.736  38.327  28.456  1.00  0.00     0.009 C 
ATOM      5  C   UNL     1      28.841  39.127  27.135  1.00  0.00     0.035 C 
ATOM      6  C   UNL     1      28.183  38.321  25.977  1.00  0.00     0.066 C 
ATOM      7  O   UNL     1      28.886  37.089  25.805  1.00  0.00    -0.369 OA
ATOM      8  C   UNL     1      26.704  38.018  26.350  1.00  0.00     0.035 C 
ATOM      9  C   UNL     1      26.648  37.243  27.690  1.00  0.00     0.009 C 
ATOM     10  C   UNL     1      28.251  39.116  24.669  1.00  0.00     0.042 C 
ATOM     11  C   UNL     1      30.345  35.998  27.386  1.00  0.00     0.042 C 
ENDROOT
TORSDOF 0
ENDMDL
MODEL 4
REMARK VINA RESULT:    -5.920      1.351      3.096
REMARK INTER + INTRA:          -5.920
REMARK INTER:                  -5.920
REMARK INTRA:                   0.000
REMARK UNBOUND:                 0.000
REMARK SMILES CC1(C)O[C@]2(C)CC[C@H]1CC2
REMARK SMILES IDX 1 1 2 2 9 3 10 4 11 5 5 6 4 7 7 8 8 9 6 10 3 11
REMARK H PARENT
REMARK Flexibility Score: inf
ROOT
ATOM      1  C   UNL     1      30.828  36.593  27.279  1.00  0.00     0.042 C 
ATOM      2  C   UNL     1      29.826  37.754  27.451  1.00  0.00     0.066 C 
ATOM      3  C   UNL     1      28.427  37.216  27.944  1.00  0.00     0.021 C 
ATOM      4  C   UNL     1      27.450  38.412  28.049  1.00  0.00     0.009 C 
ATOM      5  C   UNL     1      27.465  39.199  26.716  1.00  0.00     0.035 C 
ATOM      6  C   UNL     1      28.384  38.476  25.688  1.00  0.00     0.066 C 
ATOM      7  O   UNL     1      29.719  38.440  26.195  1.00  0.00    -0.369 OA
ATOM      8  C   UNL     1      27.873  37.020  25.491  1.00  0.00     0.035 C 
ATOM      9  C   UNL     1      27.848  36.283  26.853  1.00  0.00     0.009 C 
ATOM     10  C   UNL     1      28.382  39.226  24.352  1.00  0.00     0.042 C 
ATOM     11  C   UNL     1      30.428  38.733  28.482  1.00  0.00     0.042 C 
ENDROOT
TORSDOF 0
ENDMDL
MODEL 5
REMARK VINA RESULT:    -5.904      1.234      2.959
REMARK INTER + INTRA:          -5.904
REMARK INTER:                  -5.904
REMARK INTRA:                   0.000
REMARK UNBOUND:                 0.000
REMARK SMILES CC1(C)O[C@]2(C)CC[C@H]1CC2
REMARK SMILES IDX 1 1 2 2 9 3 10 4 11 5 5 6 4 7 7 8 8 9 6 10 3 11
REMARK H PARENT
REMARK Flexibility Score: inf
ROOT
ATOM      1  C   UNL     1      30.117  38.545  24.739  1.00  0.00     0.042 C 
ATOM      2  C   UNL     1      29.038  38.286  25.812  1.00  0.00     0.066 C 
ATOM      3  C   UNL     1      29.614  38.550  27.258  1.00  0.00     0.021 C 
ATOM      4  C   UNL     1      28.509  38.225  28.292  1.00  0.00     0.009 C 
ATOM      5  C   UNL     1      27.949  36.810  28.011  1.00  0.00     0.035 C 
ATOM      6  C   UNL     1      28.742  36.151  26.845  1.00  0.00     0.066 C 
ATOM      7  O   UNL     1      28.576  36.936  25.662  1.00  0.00    -0.369 OA
ATOM      8  C   UNL     1      30.251  36.109  27.221  1.00  0.00     0.035 C 
ATOM      9  C   UNL     1      30.758  37.541  27.521  1.00  0.00     0.009 C 
ATOM     10  C   UNL     1      28.220  34.736  26.577  1.00  0.00     0.042 C 
ATOM     11  C   UNL     1      27.856  39.234  25.514  1.00  0.00     0.042 C 
ENDROOT
TORSDOF 0
ENDMDL
MODEL 6
REMARK VINA RESULT:    -5.895      1.247      2.944
REMARK INTER + INTRA:          -5.895
REMARK INTER:                  -5.895
REMARK INTRA:                   0.000
REMARK UNBOUND:                 0.000
REMARK SMILES CC1(C)O[C@]2(C)CC[C@H]1CC2
REMARK SMILES IDX 1 1 2 2 9 3 10 4 11 5 5 6 4 7 7 8 8 9 6 10 3 11
REMARK H PARENT
REMARK Flexibility Score: inf
ROOT
ATOM      1  C   UNL     1      30.859  38.718  26.817  1.00  0.00     0.042 C 
ATOM      2  C   UNL     1      29.587  38.269  26.066  1.00  0.00     0.066 C 
ATOM      3  C   UNL     1      28.300  38.914  26.713  1.00  0.00     0.021 C 
ATOM      4  C   UNL     1      27.056  38.390  25.957  1.00  0.00     0.009 C 
ATOM      5  C   UNL     1      27.109  36.844  25.899  1.00  0.00     0.035 C 
ATOM      6  C   UNL     1      28.343  36.329  26.696  1.00  0.00     0.066 C 
ATOM      7  O   UNL     1      29.535  36.836  26.094  1.00  0.00    -0.369 OA
ATOM      8  C   UNL     1      28.250  36.847  28.160  1.00  0.00     0.035 C 
ATOM      9  C   UNL     1      28.170  38.393  28.166  1.00  0.00     0.009 C 
ATOM     10  C   UNL     1      28.390  34.798  26.675  1.00  0.00     0.042 C 
ATOM     11  C   UNL     1      29.739  38.715  24.595  1.00  0.00     0.042 C 
ENDROOT
TORSDOF 0
ENDMDL
MODEL 7
REMARK VINA RESULT:    -5.893      0.924      3.331
REMARK INTER + INTRA:          -5.893
REMARK INTER:                  -5.893
REMARK INTRA:                   0.000
REMARK UNBOUND:                 0.000
REMARK SMILES CC1(C)O[C@]2(C)CC[C@H]1CC2
REMARK SMILES IDX 1 1 2 2 9 3 10 4 11 5 5 6 4 7 7 8 8 9 6 10 3 11
REMARK H PARENT
REMARK Flexibility Score: inf
ROOT
ATOM      1  C   UNL     1      28.185  38.714  29.450  1.00  0.00     0.042 C 
ATOM      2  C   UNL     1      28.748  38.429  28.042  1.00  0.00     0.066 C 
ATOM      3  C   UNL     1      27.837  39.085  26.933  1.00  0.00     0.021 C 
ATOM      4  C   UNL     1      28.417  38.724  25.545  1.00  0.00     0.009 C 
ATOM      5  C   UNL     1      28.624  37.192  25.462  1.00  0.00     0.035 C 
ATOM      6  C   UNL     1      28.097  36.519  26.763  1.00  0.00     0.066 C 
ATOM      7  O   UNL     1      28.843  37.006  27.879  1.00  0.00    -0.369 OA
ATOM      8  C   UNL     1      26.597  36.888  26.950  1.00  0.00     0.035 C 
ATOM      9  C   UNL     1      26.437  38.427  26.997  1.00  0.00     0.009 C 
ATOM     10  C   UNL     1      28.265  34.998  26.682  1.00  0.00     0.042 C 
ATOM     11  C   UNL     1      30.177  39.014  27.990  1.00  0.00     0.042 C 
ENDROOT
TORSDOF 0
ENDMDL
MODEL 8
REMARK VINA RESULT:    -5.866      1.333      2.939
REMARK INTER + INTRA:          -5.866
REMARK INTER:                  -5.866
REMARK INTRA:                   0.000
REMARK UNBOUND:                 0.000
REMARK SMILES CC1(C)O[C@]2(C)CC[C@H]1CC2
REMARK SMILES IDX 1 1 2 2 9 3 10 4 11 5 5 6 4 7 7 8 8 9 6 10 3 11
REMARK H PARENT
REMARK Flexibility Score: inf
ROOT
ATOM      1  C   UNL     1      28.215  39.231  24.676  1.00  0.00     0.042 C 
ATOM      2  C   UNL     1      28.757  38.173  25.661  1.00  0.00     0.066 C 
ATOM      3  C   UNL     1      27.828  36.897  25.675  1.00  0.00     0.021 C 
ATOM      4  C   UNL     1      28.388  35.896  26.714  1.00  0.00     0.009 C 
ATOM      5  C   UNL     1      28.594  36.625  28.064  1.00  0.00     0.035 C 
ATOM      6  C   UNL     1      28.087  38.092  27.953  1.00  0.00     0.066 C 
ATOM      7  O   UNL     1      28.849  38.778  26.958  1.00  0.00    -0.369 OA
ATOM      8  C   UNL     1      26.590  38.078  27.529  1.00  0.00     0.035 C 
ATOM      9  C   UNL     1      26.430  37.315  26.191  1.00  0.00     0.009 C 
ATOM     10  C   UNL     1      28.255  38.817  29.292  1.00  0.00     0.042 C 
ATOM     11  C   UNL     1      30.184  37.804  25.200  1.00  0.00     0.042 C 
ENDROOT
TORSDOF 0
ENDMDL
MODEL 9
REMARK VINA RESULT:    -5.693      1.142      3.155
REMARK INTER + INTRA:          -5.693
REMARK INTER:                  -5.693
REMARK INTRA:                   0.000
REMARK UNBOUND:                 0.000
REMARK SMILES CC1(C)O[C@]2(C)CC[C@H]1CC2
REMARK SMILES IDX 1 1 2 2 9 3 10 4 11 5 5 6 4 7 7 8 8 9 6 10 3 11
REMARK H PARENT
REMARK Flexibility Score: inf
ROOT
ATOM      1  C   UNL     1      25.966  37.608  27.355  1.00  0.00     0.042 C 
ATOM      2  C   UNL     1      27.352  37.614  28.033  1.00  0.00     0.066 C 
ATOM      3  C   UNL     1      28.190  38.873  27.582  1.00  0.00     0.021 C 
ATOM      4  C   UNL     1      29.584  38.799  28.249  1.00  0.00     0.009 C 
ATOM      5  C   UNL     1      30.208  37.409  27.972  1.00  0.00     0.035 C 
ATOM      6  C   UNL     1      29.269  36.586  27.043  1.00  0.00     0.066 C 
ATOM      7  O   UNL     1      28.016  36.386  27.700  1.00  0.00    -0.369 OA
ATOM      8  C   UNL     1      29.034  37.384  25.728  1.00  0.00     0.035 C 
ATOM      9  C   UNL     1      28.438  38.775  26.057  1.00  0.00     0.009 C 
ATOM     10  C   UNL     1      29.889  35.220  26.733  1.00  0.00     0.042 C 
ATOM     11  C   UNL     1      27.117  37.633  29.559  1.00  0.00     0.042 C 
ENDROOT
TORSDOF 0
ENDMDL
