MODEL 1
REMARK VINA RESULT:    -4.196      0.000      0.000
REMARK INTER + INTRA:          -5.328
REMARK INTER:                  -5.177
REMARK INTRA:                  -0.151
REMARK UNBOUND:                -0.151
REMARK SMILES C=CC[C@@H](C)C(=O)CC
REMARK SMILES IDX 4 1 5 2 6 3 7 4 8 5 9 6 3 7 2 8 1 9
REMARK H PARENT
REMARK Flexibility Score: inf
ROOT
ATOM      1  C   UNL     1     -12.258   6.078  26.324  1.00  0.00     0.057 C 
ATOM      2  C   UNL     1     -13.006   4.788  26.693  1.00  0.00     0.016 C 
ENDROOT
BRANCH   1   3
ATOM      3  C   UNL     1     -10.965   5.758  25.603  1.00  0.00     0.135 C 
ATOM      4  O   UNL     1     -10.627   6.452  24.655  1.00  0.00    -0.299 OA
BRANCH   3   5
ATOM      5  C   UNL     1     -10.094   4.590  25.999  1.00  0.00     0.072 C 
ATOM      6  C   UNL     1      -9.300   4.074  24.804  1.00  0.00     0.012 C 
ENDBRANCH   3   5
ENDBRANCH   1   3
BRANCH   1   7
ATOM      7  C   UNL     1     -13.131   7.031  25.481  1.00  0.00     0.038 C 
BRANCH   7   8
ATOM      8  C   UNL     1     -14.291   7.586  26.264  1.00  0.00    -0.034 C 
ATOM      9  C   UNL     1     -14.499   8.900  26.379  1.00  0.00     0.004 C 
ENDBRANCH   7   8
ENDBRANCH   1   7
TORSDOF 4
ENDMDL
MODEL 2
REMARK VINA RESULT:    -4.189      1.011      4.369
REMARK INTER + INTRA:          -5.319
REMARK INTER:                  -5.101
REMARK INTRA:                  -0.218
REMARK UNBOUND:                -0.151
REMARK SMILES C=CC[C@@H](C)C(=O)CC
REMARK SMILES IDX 4 1 5 2 6 3 7 4 8 5 9 6 3 7 2 8 1 9
REMARK H PARENT
REMARK Flexibility Score: inf
ROOT
ATOM      1  C   UNL     1     -12.584   5.499  26.003  1.00  0.00     0.057 C 
ATOM      2  C   UNL     1     -13.360   4.908  27.188  1.00  0.00     0.016 C 
ENDROOT
BRANCH   1   3
ATOM      3  C   UNL     1     -13.250   6.766  25.506  1.00  0.00     0.135 C 
ATOM      4  O   UNL     1     -12.744   7.377  24.576  1.00  0.00    -0.299 OA
BRANCH   3   5
ATOM      5  C   UNL     1     -14.505   7.313  26.142  1.00  0.00     0.072 C 
ATOM      6  C   UNL     1     -14.445   8.833  26.244  1.00  0.00     0.012 C 
ENDBRANCH   3   5
ENDBRANCH   1   3
BRANCH   1   7
ATOM      7  C   UNL     1     -11.105   5.763  26.354  1.00  0.00     0.038 C 
BRANCH   7   8
ATOM      8  C   UNL     1     -10.165   4.893  25.561  1.00  0.00    -0.034 C 
ATOM      9  C   UNL     1      -9.642   3.775  26.071  1.00  0.00     0.004 C 
ENDBRANCH   7   8
ENDBRANCH   1   7
TORSDOF 4
ENDMDL
MODEL 3
REMARK VINA RESULT:    -4.177      1.479      4.702
REMARK INTER + INTRA:          -5.304
REMARK INTER:                  -5.156
REMARK INTRA:                  -0.148
REMARK UNBOUND:                -0.151
REMARK SMILES C=CC[C@@H](C)C(=O)CC
REMARK SMILES IDX 4 1 5 2 6 3 7 4 8 5 9 6 3 7 2 8 1 9
REMARK H PARENT
REMARK Flexibility Score: inf
ROOT
ATOM      1  C   UNL     1     -11.676   6.605  25.796  1.00  0.00     0.057 C 
ATOM      2  C   UNL     1     -11.002   6.925  24.454  1.00  0.00     0.016 C 
ENDROOT
BRANCH   1   3
ATOM      3  C   UNL     1     -13.179   6.766  25.690  1.00  0.00     0.135 C 
ATOM      4  O   UNL     1     -13.845   5.842  25.245  1.00  0.00    -0.299 OA
BRANCH   3   5
ATOM      5  C   UNL     1     -13.878   8.042  26.091  1.00  0.00     0.072 C 
ATOM      6  C   UNL     1     -15.320   7.767  26.504  1.00  0.00     0.012 C 
ENDBRANCH   3   5
ENDBRANCH   1   3
BRANCH   1   7
ATOM      7  C   UNL     1     -11.314   5.193  26.302  1.00  0.00     0.038 C 
BRANCH   7   8
ATOM      8  C   UNL     1      -9.999   4.708  25.751  1.00  0.00    -0.034 C 
ATOM      9  C   UNL     1      -9.514   3.501  26.049  1.00  0.00     0.004 C 
ENDBRANCH   7   8
ENDBRANCH   1   7
TORSDOF 4
ENDMDL
MODEL 4
REMARK VINA RESULT:    -4.160      1.131      2.530
REMARK INTER + INTRA:          -5.284
REMARK INTER:                  -4.970
REMARK INTRA:                  -0.314
REMARK UNBOUND:                -0.151
REMARK SMILES C=CC[C@@H](C)C(=O)CC
REMARK SMILES IDX 4 1 5 2 6 3 7 4 8 5 9 6 3 7 2 8 1 9
REMARK H PARENT
REMARK Flexibility Score: inf
ROOT
ATOM      1  C   UNL     1     -13.139   6.235  25.845  1.00  0.00     0.057 C 
ATOM      2  C   UNL     1     -13.747   7.639  25.983  1.00  0.00     0.016 C 
ENDROOT
BRANCH   1   3
ATOM      3  C   UNL     1     -11.662   6.323  25.520  1.00  0.00     0.135 C 
ATOM      4  O   UNL     1     -11.306   6.972  24.547  1.00  0.00    -0.299 OA
BRANCH   3   5
ATOM      5  C   UNL     1     -10.617   5.610  26.343  1.00  0.00     0.072 C 
ATOM      6  C   UNL     1      -9.937   4.514  25.530  1.00  0.00     0.012 C 
ENDBRANCH   3   5
ENDBRANCH   1   3
BRANCH   1   7
ATOM      7  C   UNL     1     -13.370   5.379  27.107  1.00  0.00     0.038 C 
BRANCH   7   8
ATOM      8  C   UNL     1     -13.996   4.047  26.787  1.00  0.00    -0.034 C 
ATOM      9  C   UNL     1     -15.179   3.955  26.173  1.00  0.00     0.004 C 
ENDBRANCH   7   8
ENDBRANCH   1   7
TORSDOF 4
ENDMDL
MODEL 5
REMARK VINA RESULT:    -4.101      2.268      4.100
REMARK INTER + INTRA:          -5.211
REMARK INTER:                  -4.793
REMARK INTRA:                  -0.419
REMARK UNBOUND:                -0.151
REMARK SMILES C=CC[C@@H](C)C(=O)CC
REMARK SMILES IDX 4 1 5 2 6 3 7 4 8 5 9 6 3 7 2 8 1 9
REMARK H PARENT
REMARK Flexibility Score: inf
ROOT
ATOM      1  C   UNL     1     -13.694   7.144  26.499  1.00  0.00     0.057 C 
ATOM      2  C   UNL     1     -14.423   8.486  26.334  1.00  0.00     0.016 C 
ENDROOT
BRANCH   1   3
ATOM      3  C   UNL     1     -14.665   6.056  26.907  1.00  0.00     0.135 C 
ATOM      4  O   UNL     1     -15.457   6.276  27.812  1.00  0.00    -0.299 OA
BRANCH   3   5
ATOM      5  C   UNL     1     -14.667   4.696  26.251  1.00  0.00     0.072 C 
ATOM      6  C   UNL     1     -14.022   3.653  27.156  1.00  0.00     0.012 C 
ENDBRANCH   3   5
ENDBRANCH   1   3
BRANCH   1   7
ATOM      7  C   UNL     1     -12.929   6.741  25.221  1.00  0.00     0.038 C 
BRANCH   7   8
ATOM      8  C   UNL     1     -11.452   6.578  25.467  1.00  0.00    -0.034 C 
ATOM      9  C   UNL     1     -10.947   5.465  26.003  1.00  0.00     0.004 C 
ENDBRANCH   7   8
ENDBRANCH   1   7
TORSDOF 4
ENDMDL
MODEL 6
REMARK VINA RESULT:    -4.026      1.466      4.071
REMARK INTER + INTRA:          -5.118
REMARK INTER:                  -4.765
REMARK INTRA:                  -0.353
REMARK UNBOUND:                -0.151
REMARK SMILES C=CC[C@@H](C)C(=O)CC
REMARK SMILES IDX 4 1 5 2 6 3 7 4 8 5 9 6 3 7 2 8 1 9
REMARK H PARENT
REMARK Flexibility Score: inf
ROOT
ATOM      1  C   UNL     1     -12.614   6.236  26.812  1.00  0.00     0.057 C 
ATOM      2  C   UNL     1     -11.467   5.446  26.166  1.00  0.00     0.016 C 
ENDROOT
BRANCH   1   3
ATOM      3  C   UNL     1     -13.341   7.067  25.774  1.00  0.00     0.135 C 
ATOM      4  O   UNL     1     -12.811   7.256  24.688  1.00  0.00    -0.299 OA
BRANCH   3   5
ATOM      5  C   UNL     1     -14.687   7.693  26.048  1.00  0.00     0.072 C 
ATOM      6  C   UNL     1     -14.536   9.158  26.441  1.00  0.00     0.012 C 
ENDBRANCH   3   5
ENDBRANCH   1   3
BRANCH   1   7
ATOM      7  C   UNL     1     -13.600   5.316  27.561  1.00  0.00     0.038 C 
BRANCH   7   8
ATOM      8  C   UNL     1     -13.931   4.074  26.775  1.00  0.00    -0.034 C 
ATOM      9  C   UNL     1     -15.160   3.847  26.304  1.00  0.00     0.004 C 
ENDBRANCH   7   8
ENDBRANCH   1   7
TORSDOF 4
ENDMDL
MODEL 7
REMARK VINA RESULT:    -3.989      2.134      4.787
REMARK INTER + INTRA:          -5.073
REMARK INTER:                  -4.869
REMARK INTRA:                  -0.203
REMARK UNBOUND:                -0.151
REMARK SMILES C=CC[C@@H](C)C(=O)CC
REMARK SMILES IDX 4 1 5 2 6 3 7 4 8 5 9 6 3 7 2 8 1 9
REMARK H PARENT
REMARK Flexibility Score: inf
ROOT
ATOM      1  C   UNL     1     -13.998   6.288  25.647  1.00  0.00     0.057 C 
ATOM      2  C   UNL     1     -14.193   4.940  26.355  1.00  0.00     0.016 C 
ENDROOT
BRANCH   1   3
ATOM      3  C   UNL     1     -14.868   7.354  26.280  1.00  0.00     0.135 C 
ATOM      4  O   UNL     1     -15.968   7.042  26.714  1.00  0.00    -0.299 OA
BRANCH   3   5
ATOM      5  C   UNL     1     -14.433   8.797  26.367  1.00  0.00     0.072 C 
ATOM      6  C   UNL     1     -15.567   9.733  25.964  1.00  0.00     0.012 C 
ENDBRANCH   3   5
ENDBRANCH   1   3
BRANCH   1   7
ATOM      7  C   UNL     1     -12.519   6.727  25.637  1.00  0.00     0.038 C 
BRANCH   7   8
ATOM      8  C   UNL     1     -11.626   5.745  26.348  1.00  0.00    -0.034 C 
ATOM      9  C   UNL     1     -10.551   5.216  25.759  1.00  0.00     0.004 C 
ENDBRANCH   7   8
ENDBRANCH   1   7
TORSDOF 4
ENDMDL
MODEL 8
REMARK VINA RESULT:    -3.882      1.471      2.560
REMARK INTER + INTRA:          -4.941
REMARK INTER:                  -4.640
REMARK INTRA:                  -0.300
REMARK UNBOUND:                -0.151
REMARK SMILES C=CC[C@@H](C)C(=O)CC
REMARK SMILES IDX 4 1 5 2 6 3 7 4 8 5 9 6 3 7 2 8 1 9
REMARK H PARENT
REMARK Flexibility Score: inf
ROOT
ATOM      1  C   UNL     1     -13.864   6.583  25.592  1.00  0.00     0.057 C 
ATOM      2  C   UNL     1     -14.293   7.864  26.322  1.00  0.00     0.016 C 
ENDROOT
BRANCH   1   3
ATOM      3  C   UNL     1     -12.358   6.542  25.425  1.00  0.00     0.135 C 
ATOM      4  O   UNL     1     -11.848   7.146  24.492  1.00  0.00    -0.299 OA
BRANCH   3   5
ATOM      5  C   UNL     1     -11.469   5.758  26.359  1.00  0.00     0.072 C 
ATOM      6  C   UNL     1     -10.352   5.061  25.590  1.00  0.00     0.012 C 
ENDBRANCH   3   5
ENDBRANCH   1   3
BRANCH   1   7
ATOM      7  C   UNL     1     -14.367   5.313  26.309  1.00  0.00     0.038 C 
BRANCH   7   8
ATOM      8  C   UNL     1     -14.929   5.613  27.674  1.00  0.00    -0.034 C 
ATOM      9  C   UNL     1     -14.708   4.810  28.718  1.00  0.00     0.004 C 
ENDBRANCH   7   8
ENDBRANCH   1   7
TORSDOF 4
ENDMDL
MODEL 9
REMARK VINA RESULT:    -3.725      2.127      4.601
REMARK INTER + INTRA:          -4.747
REMARK INTER:                  -4.510
REMARK INTRA:                  -0.238
REMARK UNBOUND:                -0.151
REMARK SMILES C=CC[C@@H](C)C(=O)CC
REMARK SMILES IDX 4 1 5 2 6 3 7 4 8 5 9 6 3 7 2 8 1 9
REMARK H PARENT
REMARK Flexibility Score: inf
ROOT
ATOM      1  C   UNL     1     -13.657   7.259  26.335  1.00  0.00     0.057 C 
ATOM      2  C   UNL     1     -14.288   8.658  26.285  1.00  0.00     0.016 C 
ENDROOT
BRANCH   1   3
ATOM      3  C   UNL     1     -14.723   6.199  26.520  1.00  0.00     0.135 C 
ATOM      4  O   UNL     1     -14.557   5.096  26.020  1.00  0.00    -0.299 OA
BRANCH   3   5
ATOM      5  C   UNL     1     -16.000   6.470  27.280  1.00  0.00     0.072 C 
ATOM      6  C   UNL     1     -16.031   5.688  28.588  1.00  0.00     0.012 C 
ENDBRANCH   3   5
ENDBRANCH   1   3
BRANCH   1   7
ATOM      7  C   UNL     1     -12.806   6.963  25.083  1.00  0.00     0.038 C 
BRANCH   7   8
ATOM      8  C   UNL     1     -11.376   6.639  25.427  1.00  0.00    -0.034 C 
ATOM      9  C   UNL     1     -11.045   5.522  26.080  1.00  0.00     0.004 C 
ENDBRANCH   7   8
ENDBRANCH   1   7
TORSDOF 4
ENDMDL
