MODEL 1
REMARK VINA RESULT:     6.691      0.000      0.000
REMARK INTER + INTRA:           9.472
REMARK INTER:                   9.038
REMARK INTRA:                   0.434
REMARK UNBOUND:                 0.434
REMARK SMILES CC(=O)CCC=C(C)CCC=C(C)C
REMARK SMILES IDX 7 1 6 2 8 3 9 4 10 5 11 6 13 7 12 8 14 9 5 10 4 11 2 12 3 13
REMARK SMILES IDX 1 14
REMARK H PARENT
REMARK Flexibility Score: inf
ROOT
ATOM      1  C   UNL     1      18.046  17.339 -11.890  1.00  0.00    -0.077 C 
ATOM      2  C   UNL     1      17.278  16.235 -12.038  1.00  0.00    -0.028 C 
ATOM      3  C   UNL     1      18.036  18.043 -10.558  1.00  0.00     0.039 C 
ENDROOT
BRANCH   1   4
ATOM      4  C   UNL     1      18.863  17.933 -13.019  1.00  0.00     0.034 C 
BRANCH   4   5
ATOM      5  C   UNL     1      18.139  19.135 -13.636  1.00  0.00     0.032 C 
BRANCH   5   6
ATOM      6  C   UNL     1      18.232  20.347 -12.741  1.00  0.00    -0.028 C 
ATOM      7  C   UNL     1      19.380  22.033 -11.366  1.00  0.00     0.039 C 
ATOM      8  C   UNL     1      19.400  20.814 -12.252  1.00  0.00    -0.080 C 
ATOM      9  C   UNL     1      20.715  20.144 -12.572  1.00  0.00     0.039 C 
ENDBRANCH   5   6
ENDBRANCH   4   5
ENDBRANCH   1   4
BRANCH   2  10
ATOM     10  C   UNL     1      17.189  15.411 -13.298  1.00  0.00     0.035 C 
BRANCH  10  11
ATOM     11  C   UNL     1      18.558  14.832 -13.666  1.00  0.00     0.079 C 
BRANCH  11  12
ATOM     12  C   UNL     1      18.758  13.487 -13.022  1.00  0.00     0.130 C 
ATOM     13  O   UNL     1      17.796  12.875 -12.582  1.00  0.00    -0.300 OA
ATOM     14  C   UNL     1      20.127  12.881 -12.939  1.00  0.00     0.087 C 
ENDBRANCH  11  12
ENDBRANCH  10  11
ENDBRANCH   2  10
TORSDOF 6
ENDMDL
MODEL 2
REMARK VINA RESULT:     6.781      2.808      6.119
REMARK INTER + INTRA:           9.593
REMARK INTER:                  10.195
REMARK INTRA:                  -0.602
REMARK UNBOUND:                 0.434
REMARK SMILES CC(=O)CCC=C(C)CCC=C(C)C
REMARK SMILES IDX 7 1 6 2 8 3 9 4 10 5 11 6 13 7 12 8 14 9 5 10 4 11 2 12 3 13
REMARK SMILES IDX 1 14
REMARK H PARENT
REMARK Flexibility Score: inf
ROOT
ATOM      1  C   UNL     1      18.531  15.192 -13.096  1.00  0.00    -0.077 C 
ATOM      2  C   UNL     1      18.849  16.360 -12.492  1.00  0.00    -0.028 C 
ATOM      3  C   UNL     1      19.403  13.991 -12.834  1.00  0.00     0.039 C 
ENDROOT
BRANCH   1   4
ATOM      4  C   UNL     1      17.380  15.054 -14.072  1.00  0.00     0.034 C 
BRANCH   4   5
ATOM      5  C   UNL     1      16.227  14.267 -13.440  1.00  0.00     0.032 C 
BRANCH   5   6
ATOM      6  C   UNL     1      15.681  14.976 -12.224  1.00  0.00    -0.028 C 
ATOM      7  C   UNL     1      14.451  15.159 -10.102  1.00  0.00     0.039 C 
ATOM      8  C   UNL     1      14.947  14.355 -11.277  1.00  0.00    -0.080 C 
ATOM      9  C   UNL     1      14.616  12.885 -11.371  1.00  0.00     0.039 C 
ENDBRANCH   5   6
ENDBRANCH   4   5
ENDBRANCH   1   4
BRANCH   2  10
ATOM     10  C   UNL     1      18.072  17.645 -12.639  1.00  0.00     0.035 C 
BRANCH  10  11
ATOM     11  C   UNL     1      18.599  18.711 -11.673  1.00  0.00     0.079 C 
BRANCH  11  12
ATOM     12  C   UNL     1      18.758  20.032 -12.374  1.00  0.00     0.130 C 
ATOM     13  O   UNL     1      17.846  20.469 -13.061  1.00  0.00    -0.300 OA
ATOM     14  C   UNL     1      20.018  20.830 -12.215  1.00  0.00     0.087 C 
ENDBRANCH  11  12
ENDBRANCH  10  11
ENDBRANCH   2  10
TORSDOF 6
ENDMDL
MODEL 3
REMARK VINA RESULT:     6.909      2.728      5.795
REMARK INTER + INTRA:           9.766
REMARK INTER:                  10.323
REMARK INTRA:                  -0.557
REMARK UNBOUND:                 0.434
REMARK SMILES CC(=O)CCC=C(C)CCC=C(C)C
REMARK SMILES IDX 7 1 6 2 8 3 9 4 10 5 11 6 13 7 12 8 14 9 5 10 4 11 2 12 3 13
REMARK SMILES IDX 1 14
REMARK H PARENT
REMARK Flexibility Score: inf
ROOT
ATOM      1  C   UNL     1      18.245  18.269 -11.176  1.00  0.00    -0.077 C 
ATOM      2  C   UNL     1      17.958  19.557 -11.471  1.00  0.00    -0.028 C 
ATOM      3  C   UNL     1      17.718  17.696  -9.885  1.00  0.00     0.039 C 
ENDROOT
BRANCH   1   4
ATOM      4  C   UNL     1      19.125  17.398 -12.051  1.00  0.00     0.034 C 
BRANCH   4   5
ATOM      5  C   UNL     1      18.365  16.950 -13.305  1.00  0.00     0.032 C 
BRANCH   5   6
ATOM      6  C   UNL     1      17.117  16.182 -12.943  1.00  0.00    -0.028 C 
ATOM      7  C   UNL     1      15.735  14.170 -12.640  1.00  0.00     0.039 C 
ATOM      8  C   UNL     1      17.030  14.837 -13.026  1.00  0.00    -0.080 C 
ATOM      9  C   UNL     1      18.194  13.997 -13.493  1.00  0.00     0.039 C 
ENDBRANCH   5   6
ENDBRANCH   4   5
ENDBRANCH   1   4
BRANCH   2  10
ATOM     10  C   UNL     1      18.396  20.272 -12.725  1.00  0.00     0.035 C 
BRANCH  10  11
ATOM     11  C   UNL     1      19.348  21.424 -12.388  1.00  0.00     0.079 C 
BRANCH  11  12
ATOM     12  C   UNL     1      20.742  20.912 -12.154  1.00  0.00     0.130 C 
ATOM     13  O   UNL     1      21.451  21.442 -11.311  1.00  0.00    -0.300 OA
ATOM     14  C   UNL     1      21.261  19.739 -12.930  1.00  0.00     0.087 C 
ENDBRANCH  11  12
ENDBRANCH  10  11
ENDBRANCH   2  10
TORSDOF 6
ENDMDL
MODEL 4
REMARK VINA RESULT:     7.005      1.985      3.036
REMARK INTER + INTRA:           9.896
REMARK INTER:                   9.985
REMARK INTRA:                  -0.089
REMARK UNBOUND:                 0.434
REMARK SMILES CC(=O)CCC=C(C)CCC=C(C)C
REMARK SMILES IDX 7 1 6 2 8 3 9 4 10 5 11 6 13 7 12 8 14 9 5 10 4 11 2 12 3 13
REMARK SMILES IDX 1 14
REMARK H PARENT
REMARK Flexibility Score: inf
ROOT
ATOM      1  C   UNL     1      18.695  15.290 -12.979  1.00  0.00    -0.077 C 
ATOM      2  C   UNL     1      17.881  14.232 -13.199  1.00  0.00    -0.028 C 
ATOM      3  C   UNL     1      20.080  15.028 -12.448  1.00  0.00     0.039 C 
ENDROOT
BRANCH   1   4
ATOM      4  C   UNL     1      18.255  16.726 -13.181  1.00  0.00     0.034 C 
BRANCH   4   5
ATOM      5  C   UNL     1      18.146  17.452 -11.835  1.00  0.00     0.032 C 
BRANCH   5   6
ATOM      6  C   UNL     1      19.111  18.611 -11.759  1.00  0.00    -0.028 C 
ATOM      7  C   UNL     1      19.900  20.900 -12.192  1.00  0.00     0.039 C 
ATOM      8  C   UNL     1      18.868  19.811 -12.328  1.00  0.00    -0.080 C 
ATOM      9  C   UNL     1      17.593  20.079 -13.091  1.00  0.00     0.039 C 
ENDBRANCH   5   6
ENDBRANCH   4   5
ENDBRANCH   1   4
BRANCH   2  10
ATOM     10  C   UNL     1      16.476  14.324 -13.741  1.00  0.00     0.035 C 
BRANCH  10  11
ATOM     11  C   UNL     1      15.606  15.209 -12.843  1.00  0.00     0.079 C 
BRANCH  11  12
ATOM     12  C   UNL     1      15.065  14.421 -11.682  1.00  0.00     0.130 C 
ATOM     13  O   UNL     1      14.808  14.988 -10.630  1.00  0.00    -0.300 OA
ATOM     14  C   UNL     1      14.812  12.949 -11.814  1.00  0.00     0.087 C 
ENDBRANCH  11  12
ENDBRANCH  10  11
ENDBRANCH   2  10
TORSDOF 6
ENDMDL
MODEL 5
REMARK VINA RESULT:     7.028      1.264      1.979
REMARK INTER + INTRA:           9.927
REMARK INTER:                  10.164
REMARK INTRA:                  -0.237
REMARK UNBOUND:                 0.434
REMARK SMILES CC(=O)CCC=C(C)CCC=C(C)C
REMARK SMILES IDX 7 1 6 2 8 3 9 4 10 5 11 6 13 7 12 8 14 9 5 10 4 11 2 12 3 13
REMARK SMILES IDX 1 14
REMARK H PARENT
REMARK Flexibility Score: inf
ROOT
ATOM      1  C   UNL     1      18.979  17.274 -11.736  1.00  0.00    -0.077 C 
ATOM      2  C   UNL     1      18.452  16.565 -12.761  1.00  0.00    -0.028 C 
ATOM      3  C   UNL     1      20.448  17.606 -11.777  1.00  0.00     0.039 C 
ENDROOT
BRANCH   1   4
ATOM      4  C   UNL     1      18.174  17.691 -10.521  1.00  0.00     0.034 C 
BRANCH   4   5
ATOM      5  C   UNL     1      17.644  19.119 -10.689  1.00  0.00     0.032 C 
BRANCH   5   6
ATOM      6  C   UNL     1      18.747  20.070 -11.087  1.00  0.00    -0.028 C 
ATOM      7  C   UNL     1      19.979  21.558 -12.609  1.00  0.00     0.039 C 
ATOM      8  C   UNL     1      18.836  20.621 -12.316  1.00  0.00    -0.080 C 
ATOM      9  C   UNL     1      17.821  20.319 -13.393  1.00  0.00     0.039 C 
ENDBRANCH   5   6
ENDBRANCH   4   5
ENDBRANCH   1   4
BRANCH   2  10
ATOM     10  C   UNL     1      17.002  16.166 -12.876  1.00  0.00     0.035 C 
BRANCH  10  11
ATOM     11  C   UNL     1      16.864  14.642 -12.960  1.00  0.00     0.079 C 
BRANCH  11  12
ATOM     12  C   UNL     1      18.033  14.042 -13.691  1.00  0.00     0.130 C 
ATOM     13  O   UNL     1      18.174  14.250 -14.887  1.00  0.00    -0.300 OA
ATOM     14  C   UNL     1      19.042  13.210 -12.958  1.00  0.00     0.087 C 
ENDBRANCH  11  12
ENDBRANCH  10  11
ENDBRANCH   2  10
TORSDOF 6
ENDMDL
MODEL 6
REMARK VINA RESULT:     7.253      2.587      6.030
REMARK INTER + INTRA:          10.231
REMARK INTER:                  10.231
REMARK INTRA:                   0.000
REMARK UNBOUND:                 0.434
REMARK SMILES CC(=O)CCC=C(C)CCC=C(C)C
REMARK SMILES IDX 7 1 6 2 8 3 9 4 10 5 11 6 13 7 12 8 14 9 5 10 4 11 2 12 3 13
REMARK SMILES IDX 1 14
REMARK H PARENT
REMARK Flexibility Score: inf
ROOT
ATOM      1  C   UNL     1      19.062  16.625 -12.041  1.00  0.00    -0.077 C 
ATOM      2  C   UNL     1      19.004  17.643 -11.152  1.00  0.00    -0.028 C 
ATOM      3  C   UNL     1      20.311  15.783 -12.084  1.00  0.00     0.039 C 
ENDROOT
BRANCH   1   4
ATOM      4  C   UNL     1      17.957  16.335 -13.037  1.00  0.00     0.034 C 
BRANCH   4   5
ATOM      5  C   UNL     1      18.146  14.950 -13.667  1.00  0.00     0.032 C 
BRANCH   5   6
ATOM      6  C   UNL     1      17.279  13.917 -12.989  1.00  0.00    -0.028 C 
ATOM      7  C   UNL     1      15.215  13.042 -11.977  1.00  0.00     0.039 C 
ATOM      8  C   UNL     1      15.991  14.143 -12.652  1.00  0.00    -0.080 C 
ATOM      9  C   UNL     1      15.320  15.466 -12.936  1.00  0.00     0.039 C 
ENDBRANCH   5   6
ENDBRANCH   4   5
ENDBRANCH   1   4
BRANCH   2  10
ATOM     10  C   UNL     1      17.824  18.565 -10.975  1.00  0.00     0.035 C 
BRANCH  10  11
ATOM     11  C   UNL     1      18.276  20.029 -10.968  1.00  0.00     0.079 C 
BRANCH  11  12
ATOM     12  C   UNL     1      18.835  20.420 -12.308  1.00  0.00     0.130 C 
ATOM     13  O   UNL     1      18.121  20.378 -13.300  1.00  0.00    -0.300 OA
ATOM     14  C   UNL     1      20.254  20.886 -12.433  1.00  0.00     0.087 C 
ENDBRANCH  11  12
ENDBRANCH  10  11
ENDBRANCH   2  10
TORSDOF 6
ENDMDL
MODEL 7
REMARK VINA RESULT:     7.338      2.492      5.245
REMARK INTER + INTRA:          10.346
REMARK INTER:                  10.729
REMARK INTRA:                  -0.383
REMARK UNBOUND:                 0.434
REMARK SMILES CC(=O)CCC=C(C)CCC=C(C)C
REMARK SMILES IDX 7 1 6 2 8 3 9 4 10 5 11 6 13 7 12 8 14 9 5 10 4 11 2 12 3 13
REMARK SMILES IDX 1 14
REMARK H PARENT
REMARK Flexibility Score: inf
ROOT
ATOM      1  C   UNL     1      18.624  19.998 -12.479  1.00  0.00    -0.077 C 
ATOM      2  C   UNL     1      19.815  20.639 -12.513  1.00  0.00    -0.028 C 
ATOM      3  C   UNL     1      17.461  20.611 -13.215  1.00  0.00     0.039 C 
ENDROOT
BRANCH   1   4
ATOM      4  C   UNL     1      18.392  18.729 -11.684  1.00  0.00     0.034 C 
BRANCH   4   5
ATOM      5  C   UNL     1      18.530  17.495 -12.582  1.00  0.00     0.032 C 
BRANCH   5   6
ATOM      6  C   UNL     1      17.280  16.648 -12.545  1.00  0.00    -0.028 C 
ATOM      7  C   UNL     1      15.929  14.631 -12.941  1.00  0.00     0.039 C 
ATOM      8  C   UNL     1      17.229  15.389 -13.028  1.00  0.00    -0.080 C 
ATOM      9  C   UNL     1      18.438  14.731 -13.648  1.00  0.00     0.039 C 
ENDBRANCH   5   6
ENDBRANCH   4   5
ENDBRANCH   1   4
BRANCH   2  10
ATOM     10  C   UNL     1      21.075  20.151 -11.844  1.00  0.00     0.035 C 
BRANCH  10  11
ATOM     11  C   UNL     1      21.657  18.948 -12.594  1.00  0.00     0.079 C 
BRANCH  11  12
ATOM     12  C   UNL     1      22.142  17.902 -11.628  1.00  0.00     0.130 C 
ATOM     13  O   UNL     1      23.125  18.123 -10.936  1.00  0.00    -0.300 OA
ATOM     14  C   UNL     1      21.413  16.600 -11.489  1.00  0.00     0.087 C 
ENDBRANCH  11  12
ENDBRANCH  10  11
ENDBRANCH   2  10
TORSDOF 6
ENDMDL
