MODEL 1
REMARK VINA RESULT:    -4.807      0.000      0.000
REMARK INTER + INTRA:         -10.994
REMARK INTER:                  -9.304
REMARK INTRA:                  -1.690
REMARK UNBOUND:                -1.690
REMARK SMILES CCCCCC=CCC=CCCCCCCCCOC(C)=O
REMARK SMILES IDX 12 1 11 2 10 3 9 4 8 5 7 6 6 7 5 8 4 9 3 10 2 11 1 12 13 13
REMARK SMILES IDX 14 14 15 15 16 16 17 17 18 18 19 19 20 20 22 21 21 22
REMARK H PARENT
REMARK Flexibility Score: inf
ROOT
ATOM      1  C   UNL     1     -10.190  -9.120   1.139  1.00  0.00     0.004 C 
ENDROOT
BRANCH   1   2
ATOM      2  C   UNL     1      -8.719  -9.565   1.116  1.00  0.00     0.027 C 
BRANCH   2   3
ATOM      3  C   UNL     1      -8.095  -9.430   2.477  1.00  0.00    -0.031 C 
ATOM      4  C   UNL     1      -8.630  -8.642   3.422  1.00  0.00    -0.027 C 
BRANCH   4   5
ATOM      5  C   UNL     1      -7.995  -8.508   4.776  1.00  0.00     0.054 C 
BRANCH   5   6
ATOM      6  C   UNL     1      -7.995  -7.073   5.229  1.00  0.00    -0.027 C 
ATOM      7  C   UNL     1      -6.989  -6.588   5.968  1.00  0.00    -0.031 C 
BRANCH   7   8
ATOM      8  C   UNL     1      -6.979  -5.160   6.442  1.00  0.00     0.027 C 
BRANCH   8   9
ATOM      9  C   UNL     1      -6.836  -5.081   7.971  1.00  0.00     0.004 C 
BRANCH   9  10
ATOM     10  C   UNL     1      -6.975  -6.452   8.656  1.00  0.00     0.000 C 
BRANCH  10  11
ATOM     11  C   UNL     1      -7.883  -6.462   9.900  1.00  0.00    -0.003 C 
ATOM     12  C   UNL     1      -8.660  -5.160  10.084  1.00  0.00     0.004 C 
ENDBRANCH  10  11
ENDBRANCH   9  10
ENDBRANCH   8   9
ENDBRANCH   7   8
ENDBRANCH   5   6
ENDBRANCH   4   5
ENDBRANCH   2   3
ENDBRANCH   1   2
BRANCH   1  13
ATOM     13  C   UNL     1     -10.541  -8.180  -0.024  1.00  0.00     0.000 C 
BRANCH  13  14
ATOM     14  C   UNL     1     -10.163  -6.716   0.265  1.00  0.00     0.000 C 
BRANCH  14  15
ATOM     15  C   UNL     1     -10.606  -6.262   1.665  1.00  0.00     0.000 C 
BRANCH  15  16
ATOM     16  C   UNL     1      -9.634  -5.248   2.293  1.00  0.00     0.003 C 
BRANCH  16  17
ATOM     17  C   UNL     1      -9.947  -4.967   3.771  1.00  0.00     0.042 C 
BRANCH  17  18
ATOM     18  C   UNL     1     -10.210  -3.488   4.055  1.00  0.00     0.233 C 
BRANCH  18  19
ATOM     19  O   UNL     1     -10.211  -3.271   5.462  1.00  0.00    -0.466 OA
BRANCH  19  20
ATOM     20  C   UNL     1     -10.399  -2.008   6.031  1.00  0.00     0.302 C 
ATOM     21  O   UNL     1     -10.173  -1.813   7.256  1.00  0.00    -0.253 OA
ATOM     22  C   UNL     1     -10.833  -0.871   5.170  1.00  0.00     0.139 C 
ENDBRANCH  19  20
ENDBRANCH  18  19
ENDBRANCH  17  18
ENDBRANCH  16  17
ENDBRANCH  15  16
ENDBRANCH  14  15
ENDBRANCH  13  14
ENDBRANCH   1  13
TORSDOF 16
ENDMDL
MODEL 2
REMARK VINA RESULT:    -4.646      1.364      2.239
REMARK INTER + INTRA:         -10.681
REMARK INTER:                  -8.871
REMARK INTRA:                  -1.810
REMARK UNBOUND:                -1.690
REMARK SMILES CCCCCC=CCC=CCCCCCCCCOC(C)=O
REMARK SMILES IDX 12 1 11 2 10 3 9 4 8 5 7 6 6 7 5 8 4 9 3 10 2 11 1 12 13 13
REMARK SMILES IDX 14 14 15 15 16 16 17 17 18 18 19 19 20 20 22 21 21 22
REMARK H PARENT
REMARK Flexibility Score: inf
ROOT
ATOM      1  C   UNL     1      -9.935  -6.643   0.640  1.00  0.00     0.004 C 
ENDROOT
BRANCH   1   2
ATOM      2  C   UNL     1      -9.110  -7.918   0.879  1.00  0.00     0.027 C 
BRANCH   2   3
ATOM      3  C   UNL     1      -9.201  -8.355   2.315  1.00  0.00    -0.031 C 
ATOM      4  C   UNL     1      -8.155  -8.253   3.150  1.00  0.00    -0.027 C 
BRANCH   4   5
ATOM      5  C   UNL     1      -8.254  -8.698   4.581  1.00  0.00     0.054 C 
BRANCH   5   6
ATOM      6  C   UNL     1      -7.777  -7.618   5.513  1.00  0.00    -0.027 C 
ATOM      7  C   UNL     1      -7.329  -6.449   5.036  1.00  0.00    -0.031 C 
BRANCH   7   8
ATOM      8  C   UNL     1      -6.836  -5.363   5.953  1.00  0.00     0.027 C 
BRANCH   8   9
ATOM      9  C   UNL     1      -7.820  -5.119   7.109  1.00  0.00     0.004 C 
BRANCH   9  10
ATOM     10  C   UNL     1      -7.157  -5.227   8.493  1.00  0.00     0.000 C 
BRANCH  10  11
ATOM     11  C   UNL     1      -8.027  -5.894   9.575  1.00  0.00    -0.003 C 
ATOM     12  C   UNL     1      -7.841  -7.409   9.643  1.00  0.00     0.004 C 
ENDBRANCH  10  11
ENDBRANCH   9  10
ENDBRANCH   8   9
ENDBRANCH   7   8
ENDBRANCH   5   6
ENDBRANCH   4   5
ENDBRANCH   2   3
ENDBRANCH   1   2
BRANCH   1  13
ATOM     13  C   UNL     1     -10.506  -6.057   1.941  1.00  0.00     0.000 C 
BRANCH  13  14
ATOM     14  C   UNL     1      -9.880  -4.698   2.301  1.00  0.00     0.000 C 
BRANCH  14  15
ATOM     15  C   UNL     1      -9.873  -4.439   3.816  1.00  0.00     0.000 C 
BRANCH  15  16
ATOM     16  C   UNL     1     -10.331  -3.014   4.175  1.00  0.00     0.003 C 
BRANCH  16  17
ATOM     17  C   UNL     1     -10.145  -2.693   5.666  1.00  0.00     0.042 C 
BRANCH  17  18
ATOM     18  C   UNL     1     -10.423  -1.227   5.999  1.00  0.00     0.233 C 
BRANCH  18  19
ATOM     19  O   UNL     1     -11.575  -1.142   6.832  1.00  0.00    -0.466 OA
BRANCH  19  20
ATOM     20  C   UNL     1     -11.554  -0.536   8.091  1.00  0.00     0.302 C 
ATOM     21  O   UNL     1     -11.030  -1.120   9.078  1.00  0.00    -0.253 OA
ATOM     22  C   UNL     1     -12.121   0.832   8.259  1.00  0.00     0.139 C 
ENDBRANCH  19  20
ENDBRANCH  18  19
ENDBRANCH  17  18
ENDBRANCH  16  17
ENDBRANCH  15  16
ENDBRANCH  14  15
ENDBRANCH  13  14
ENDBRANCH   1  13
TORSDOF 16
ENDMDL
MODEL 3
REMARK VINA RESULT:    -4.621      2.539      7.277
REMARK INTER + INTRA:         -10.633
REMARK INTER:                  -9.245
REMARK INTRA:                  -1.388
REMARK UNBOUND:                -1.690
REMARK SMILES CCCCCC=CCC=CCCCCCCCCOC(C)=O
REMARK SMILES IDX 12 1 11 2 10 3 9 4 8 5 7 6 6 7 5 8 4 9 3 10 2 11 1 12 13 13
REMARK SMILES IDX 14 14 15 15 16 16 17 17 18 18 19 19 20 20 22 21 21 22
REMARK H PARENT
REMARK Flexibility Score: inf
ROOT
ATOM      1  C   UNL     1      -7.596  -9.601   3.370  1.00  0.00     0.004 C 
ENDROOT
BRANCH   1   2
ATOM      2  C   UNL     1      -8.104  -9.669   1.921  1.00  0.00     0.027 C 
BRANCH   2   3
ATOM      3  C   UNL     1      -9.339  -8.829   1.745  1.00  0.00    -0.031 C 
ATOM      4  C   UNL     1      -9.826  -8.539   0.529  1.00  0.00    -0.027 C 
BRANCH   4   5
ATOM      5  C   UNL     1     -11.056  -7.693   0.364  1.00  0.00     0.054 C 
BRANCH   5   6
ATOM      6  C   UNL     1     -10.699  -6.316  -0.123  1.00  0.00    -0.027 C 
ATOM      7  C   UNL     1     -11.593  -5.568  -0.783  1.00  0.00    -0.031 C 
BRANCH   7   8
ATOM      8  C   UNL     1     -11.248  -4.194  -1.289  1.00  0.00     0.027 C 
BRANCH   8   9
ATOM      9  C   UNL     1     -10.990  -4.207  -2.805  1.00  0.00     0.004 C 
BRANCH   9  10
ATOM     10  C   UNL     1      -9.904  -5.217  -3.218  1.00  0.00     0.000 C 
BRANCH  10  11
ATOM     11  C   UNL     1     -10.360  -6.269  -4.247  1.00  0.00    -0.003 C 
ATOM     12  C   UNL     1     -10.501  -7.668  -3.651  1.00  0.00     0.004 C 
ENDBRANCH  10  11
ENDBRANCH   9  10
ENDBRANCH   8   9
ENDBRANCH   7   8
ENDBRANCH   5   6
ENDBRANCH   4   5
ENDBRANCH   2   3
ENDBRANCH   1   2
BRANCH   1  13
ATOM     13  C   UNL     1      -8.619  -8.967   4.326  1.00  0.00     0.000 C 
BRANCH  13  14
ATOM     14  C   UNL     1      -7.991  -7.903   5.242  1.00  0.00     0.000 C 
BRANCH  14  15
ATOM     15  C   UNL     1      -7.869  -6.534   4.553  1.00  0.00     0.000 C 
BRANCH  15  16
ATOM     16  C   UNL     1      -9.078  -5.624   4.828  1.00  0.00     0.003 C 
BRANCH  16  17
ATOM     17  C   UNL     1      -8.863  -4.707   6.043  1.00  0.00     0.042 C 
BRANCH  17  18
ATOM     18  C   UNL     1      -7.398  -4.619   6.471  1.00  0.00     0.233 C 
BRANCH  18  19
ATOM     19  O   UNL     1      -7.321  -4.623   7.893  1.00  0.00    -0.466 OA
BRANCH  19  20
ATOM     20  C   UNL     1      -7.387  -5.797   8.649  1.00  0.00     0.302 C 
ATOM     21  O   UNL     1      -6.862  -6.864   8.230  1.00  0.00    -0.253 OA
ATOM     22  C   UNL     1      -8.051  -5.775   9.984  1.00  0.00     0.139 C 
ENDBRANCH  19  20
ENDBRANCH  18  19
ENDBRANCH  17  18
ENDBRANCH  16  17
ENDBRANCH  15  16
ENDBRANCH  14  15
ENDBRANCH  13  14
ENDBRANCH   1  13
TORSDOF 16
ENDMDL
MODEL 4
REMARK VINA RESULT:    -4.587      2.635      7.631
REMARK INTER + INTRA:         -10.568
REMARK INTER:                  -8.770
REMARK INTRA:                  -1.798
REMARK UNBOUND:                -1.690
REMARK SMILES CCCCCC=CCC=CCCCCCCCCOC(C)=O
REMARK SMILES IDX 12 1 11 2 10 3 9 4 8 5 7 6 6 7 5 8 4 9 3 10 2 11 1 12 13 13
REMARK SMILES IDX 14 14 15 15 16 16 17 17 18 18 19 19 20 20 22 21 21 22
REMARK H PARENT
REMARK Flexibility Score: inf
ROOT
ATOM      1  C   UNL     1      -8.604  -6.834   1.494  1.00  0.00     0.004 C 
ENDROOT
BRANCH   1   2
ATOM      2  C   UNL     1      -8.649  -8.236   2.122  1.00  0.00     0.027 C 
BRANCH   2   3
ATOM      3  C   UNL     1      -9.128  -9.255   1.126  1.00  0.00    -0.031 C 
ATOM      4  C   UNL     1      -9.888  -8.910   0.075  1.00  0.00    -0.027 C 
BRANCH   4   5
ATOM      5  C   UNL     1     -10.368  -9.937  -0.911  1.00  0.00     0.054 C 
BRANCH   5   6
ATOM      6  C   UNL     1     -11.071  -9.282  -2.068  1.00  0.00    -0.027 C 
ATOM      7  C   UNL     1     -10.564  -9.349  -3.306  1.00  0.00    -0.031 C 
BRANCH   7   8
ATOM      8  C   UNL     1     -11.246  -8.688  -4.472  1.00  0.00     0.027 C 
BRANCH   8   9
ATOM      9  C   UNL     1     -11.415  -7.178  -4.236  1.00  0.00     0.004 C 
BRANCH   9  10
ATOM     10  C   UNL     1     -10.080  -6.413  -4.280  1.00  0.00     0.000 C 
BRANCH  10  11
ATOM     11  C   UNL     1      -9.896  -5.373  -3.159  1.00  0.00    -0.003 C 
ATOM     12  C   UNL     1     -10.737  -5.673  -1.919  1.00  0.00     0.004 C 
ENDBRANCH  10  11
ENDBRANCH   9  10
ENDBRANCH   8   9
ENDBRANCH   7   8
ENDBRANCH   5   6
ENDBRANCH   4   5
ENDBRANCH   2   3
ENDBRANCH   1   2
BRANCH   1  13
ATOM     13  C   UNL     1      -9.351  -5.787   2.336  1.00  0.00     0.000 C 
BRANCH  13  14
ATOM     14  C   UNL     1      -9.827  -6.346   3.688  1.00  0.00     0.000 C 
BRANCH  14  15
ATOM     15  C   UNL     1      -8.993  -5.819   4.867  1.00  0.00     0.000 C 
BRANCH  15  16
ATOM     16  C   UNL     1      -8.012  -6.871   5.414  1.00  0.00     0.003 C 
BRANCH  16  17
ATOM     17  C   UNL     1      -6.616  -6.290   5.686  1.00  0.00     0.042 C 
BRANCH  17  18
ATOM     18  C   UNL     1      -6.661  -4.917   6.356  1.00  0.00     0.233 C 
BRANCH  18  19
ATOM     19  O   UNL     1      -6.410  -5.063   7.750  1.00  0.00    -0.466 OA
BRANCH  19  20
ATOM     20  C   UNL     1      -7.420  -5.346   8.674  1.00  0.00     0.302 C 
ATOM     21  O   UNL     1      -8.315  -4.496   8.929  1.00  0.00    -0.253 OA
ATOM     22  C   UNL     1      -7.459  -6.682   9.334  1.00  0.00     0.139 C 
ENDBRANCH  19  20
ENDBRANCH  18  19
ENDBRANCH  17  18
ENDBRANCH  16  17
ENDBRANCH  15  16
ENDBRANCH  14  15
ENDBRANCH  13  14
ENDBRANCH   1  13
TORSDOF 16
ENDMDL
MODEL 5
REMARK VINA RESULT:    -4.562      2.134      6.057
REMARK INTER + INTRA:         -10.519
REMARK INTER:                  -9.094
REMARK INTRA:                  -1.424
REMARK UNBOUND:                -1.690
REMARK SMILES CCCCCC=CCC=CCCCCCCCCOC(C)=O
REMARK SMILES IDX 12 1 11 2 10 3 9 4 8 5 7 6 6 7 5 8 4 9 3 10 2 11 1 12 13 13
REMARK SMILES IDX 14 14 15 15 16 16 17 17 18 18 19 19 20 20 22 21 21 22
REMARK H PARENT
REMARK Flexibility Score: inf
ROOT
ATOM      1  C   UNL     1      -7.638  -5.246   6.921  1.00  0.00     0.004 C 
ENDROOT
BRANCH   1   2
ATOM      2  C   UNL     1      -7.230  -5.909   5.596  1.00  0.00     0.027 C 
BRANCH   2   3
ATOM      3  C   UNL     1      -7.607  -7.364   5.585  1.00  0.00    -0.031 C 
ATOM      4  C   UNL     1      -8.034  -7.973   4.467  1.00  0.00    -0.027 C 
BRANCH   4   5
ATOM      5  C   UNL     1      -8.415  -9.426   4.468  1.00  0.00     0.054 C 
BRANCH   5   6
ATOM      6  C   UNL     1      -9.329  -9.741   3.316  1.00  0.00    -0.027 C 
ATOM      7  C   UNL     1      -8.906  -9.619   2.051  1.00  0.00    -0.031 C 
BRANCH   7   8
ATOM      8  C   UNL     1      -9.811  -9.916   0.887  1.00  0.00     0.027 C 
BRANCH   8   9
ATOM      9  C   UNL     1      -9.966  -8.689  -0.026  1.00  0.00     0.004 C 
BRANCH   9  10
ATOM     10  C   UNL     1      -9.344  -7.415   0.574  1.00  0.00     0.000 C 
BRANCH  10  11
ATOM     11  C   UNL     1     -10.363  -6.377   1.081  1.00  0.00    -0.003 C 
ATOM     12  C   UNL     1      -9.830  -5.527   2.233  1.00  0.00     0.004 C 
ENDBRANCH  10  11
ENDBRANCH   9  10
ENDBRANCH   8   9
ENDBRANCH   7   8
ENDBRANCH   5   6
ENDBRANCH   4   5
ENDBRANCH   2   3
ENDBRANCH   1   2
BRANCH   1  13
ATOM     13  C   UNL     1      -8.679  -4.132   6.728  1.00  0.00     0.000 C 
BRANCH  13  14
ATOM     14  C   UNL     1      -9.332  -4.169   5.335  1.00  0.00     0.000 C 
BRANCH  14  15
ATOM     15  C   UNL     1     -10.211  -2.937   5.067  1.00  0.00     0.000 C 
BRANCH  15  16
ATOM     16  C   UNL     1      -9.941  -1.791   6.056  1.00  0.00     0.003 C 
BRANCH  16  17
ATOM     17  C   UNL     1     -10.968  -0.653   5.936  1.00  0.00     0.042 C 
BRANCH  17  18
ATOM     18  C   UNL     1     -11.605  -0.281   7.275  1.00  0.00     0.233 C 
BRANCH  18  19
ATOM     19  O   UNL     1     -10.947   0.863   7.809  1.00  0.00    -0.466 OA
BRANCH  19  20
ATOM     20  C   UNL     1     -11.479   2.152   7.717  1.00  0.00     0.302 C 
ATOM     21  O   UNL     1     -11.773   2.649   6.597  1.00  0.00    -0.253 OA
ATOM     22  C   UNL     1     -11.737   2.931   8.962  1.00  0.00     0.139 C 
ENDBRANCH  19  20
ENDBRANCH  18  19
ENDBRANCH  17  18
ENDBRANCH  16  17
ENDBRANCH  15  16
ENDBRANCH  14  15
ENDBRANCH  13  14
ENDBRANCH   1  13
TORSDOF 16
ENDMDL
MODEL 6
REMARK VINA RESULT:    -4.541      4.749      6.946
REMARK INTER + INTRA:         -10.478
REMARK INTER:                  -9.164
REMARK INTRA:                  -1.314
REMARK UNBOUND:                -1.690
REMARK SMILES CCCCCC=CCC=CCCCCCCCCOC(C)=O
REMARK SMILES IDX 12 1 11 2 10 3 9 4 8 5 7 6 6 7 5 8 4 9 3 10 2 11 1 12 13 13
REMARK SMILES IDX 14 14 15 15 16 16 17 17 18 18 19 19 20 20 22 21 21 22
REMARK H PARENT
REMARK Flexibility Score: inf
ROOT
ATOM      1  C   UNL     1      -9.844  -6.745   0.314  1.00  0.00     0.004 C 
ENDROOT
BRANCH   1   2
ATOM      2  C   UNL     1     -10.145  -8.160  -0.205  1.00  0.00     0.027 C 
BRANCH   2   3
ATOM      3  C   UNL     1      -9.610  -9.203   0.736  1.00  0.00    -0.031 C 
ATOM      4  C   UNL     1      -8.791  -8.883   1.751  1.00  0.00    -0.027 C 
BRANCH   4   5
ATOM      5  C   UNL     1      -8.257  -9.934   2.682  1.00  0.00     0.054 C 
BRANCH   5   6
ATOM      6  C   UNL     1      -7.882  -9.333   4.009  1.00  0.00    -0.027 C 
ATOM      7  C   UNL     1      -7.976  -8.013   4.216  1.00  0.00    -0.031 C 
BRANCH   7   8
ATOM      8  C   UNL     1      -7.591  -7.394   5.532  1.00  0.00     0.027 C 
BRANCH   8   9
ATOM      9  C   UNL     1      -8.033  -5.923   5.606  1.00  0.00     0.004 C 
BRANCH   9  10
ATOM     10  C   UNL     1      -9.244  -5.616   4.707  1.00  0.00     0.000 C 
BRANCH  10  11
ATOM     11  C   UNL     1      -9.714  -4.150   4.737  1.00  0.00    -0.003 C 
ATOM     12  C   UNL     1      -9.276  -3.406   5.997  1.00  0.00     0.004 C 
ENDBRANCH  10  11
ENDBRANCH   9  10
ENDBRANCH   8   9
ENDBRANCH   7   8
ENDBRANCH   5   6
ENDBRANCH   4   5
ENDBRANCH   2   3
ENDBRANCH   1   2
BRANCH   1  13
ATOM     13  C   UNL     1     -11.096  -5.855   0.363  1.00  0.00     0.000 C 
BRANCH  13  14
ATOM     14  C   UNL     1     -11.765  -5.702  -1.014  1.00  0.00     0.000 C 
BRANCH  14  15
ATOM     15  C   UNL     1     -11.732  -4.252  -1.524  1.00  0.00     0.000 C 
BRANCH  15  16
ATOM     16  C   UNL     1     -10.849  -4.085  -2.774  1.00  0.00     0.003 C 
BRANCH  16  17
ATOM     17  C   UNL     1     -10.250  -5.415  -3.256  1.00  0.00     0.042 C 
BRANCH  17  18
ATOM     18  C   UNL     1     -11.045  -6.048  -4.398  1.00  0.00     0.233 C 
BRANCH  18  19
ATOM     19  O   UNL     1     -10.149  -6.465  -5.423  1.00  0.00    -0.466 OA
BRANCH  19  20
ATOM     20  C   UNL     1     -10.586  -7.025  -6.627  1.00  0.00     0.302 C 
ATOM     21  O   UNL     1      -9.946  -7.966  -7.170  1.00  0.00    -0.253 OA
ATOM     22  C   UNL     1     -11.845  -6.529  -7.254  1.00  0.00     0.139 C 
ENDBRANCH  19  20
ENDBRANCH  18  19
ENDBRANCH  17  18
ENDBRANCH  16  17
ENDBRANCH  15  16
ENDBRANCH  14  15
ENDBRANCH  13  14
ENDBRANCH   1  13
TORSDOF 16
ENDMDL
MODEL 7
REMARK VINA RESULT:    -4.402      3.239      5.471
REMARK INTER + INTRA:         -10.209
REMARK INTER:                  -8.759
REMARK INTRA:                  -1.450
REMARK UNBOUND:                -1.690
REMARK SMILES CCCCCC=CCC=CCCCCCCCCOC(C)=O
REMARK SMILES IDX 12 1 11 2 10 3 9 4 8 5 7 6 6 7 5 8 4 9 3 10 2 11 1 12 13 13
REMARK SMILES IDX 14 14 15 15 16 16 17 17 18 18 19 19 20 20 22 21 21 22
REMARK H PARENT
REMARK Flexibility Score: inf
ROOT
ATOM      1  C   UNL     1      -8.394  -7.855   2.701  1.00  0.00     0.004 C 
ENDROOT
BRANCH   1   2
ATOM      2  C   UNL     1      -9.411  -6.935   2.008  1.00  0.00     0.027 C 
BRANCH   2   3
ATOM      3  C   UNL     1      -9.757  -5.761   2.881  1.00  0.00    -0.031 C 
ATOM      4  C   UNL     1      -9.187  -5.586   4.083  1.00  0.00    -0.027 C 
BRANCH   4   5
ATOM      5  C   UNL     1      -9.544  -4.413   4.951  1.00  0.00     0.054 C 
BRANCH   5   6
ATOM      6  C   UNL     1      -8.811  -4.475   6.264  1.00  0.00    -0.027 C 
ATOM      7  C   UNL     1      -7.593  -5.026   6.344  1.00  0.00    -0.031 C 
BRANCH   7   8
ATOM      8  C   UNL     1      -6.853  -5.109   7.651  1.00  0.00     0.027 C 
BRANCH   8   9
ATOM      9  C   UNL     1      -7.158  -6.427   8.382  1.00  0.00     0.004 C 
BRANCH   9  10
ATOM     10  C   UNL     1      -7.855  -6.213   9.737  1.00  0.00     0.000 C 
BRANCH  10  11
ATOM     11  C   UNL     1      -8.196  -4.746  10.062  1.00  0.00    -0.003 C 
ATOM     12  C   UNL     1      -9.695  -4.455  10.018  1.00  0.00     0.004 C 
ENDBRANCH  10  11
ENDBRANCH   9  10
ENDBRANCH   8   9
ENDBRANCH   7   8
ENDBRANCH   5   6
ENDBRANCH   4   5
ENDBRANCH   2   3
ENDBRANCH   1   2
BRANCH   1  13
ATOM     13  C   UNL     1      -8.338  -9.255   2.070  1.00  0.00     0.000 C 
BRANCH  13  14
ATOM     14  C   UNL     1      -9.720  -9.750   1.607  1.00  0.00     0.000 C 
BRANCH  14  15
ATOM     15  C   UNL     1      -9.777  -9.997   0.091  1.00  0.00     0.000 C 
BRANCH  15  16
ATOM     16  C   UNL     1     -11.092  -9.506  -0.539  1.00  0.00     0.003 C 
BRANCH  16  17
ATOM     17  C   UNL     1     -10.861  -8.652  -1.796  1.00  0.00     0.042 C 
BRANCH  17  18
ATOM     18  C   UNL     1     -10.962  -7.151  -1.524  1.00  0.00     0.233 C 
BRANCH  18  19
ATOM     19  O   UNL     1      -9.894  -6.479  -2.183  1.00  0.00    -0.466 OA
BRANCH  19  20
ATOM     20  C   UNL     1     -10.075  -5.740  -3.356  1.00  0.00     0.302 C 
ATOM     21  O   UNL     1     -10.142  -4.482  -3.320  1.00  0.00    -0.253 OA
ATOM     22  C   UNL     1     -10.150  -6.447  -4.666  1.00  0.00     0.139 C 
ENDBRANCH  19  20
ENDBRANCH  18  19
ENDBRANCH  17  18
ENDBRANCH  16  17
ENDBRANCH  15  16
ENDBRANCH  14  15
ENDBRANCH  13  14
ENDBRANCH   1  13
TORSDOF 16
ENDMDL
MODEL 8
REMARK VINA RESULT:    -4.368      2.865      8.346
REMARK INTER + INTRA:         -10.142
REMARK INTER:                  -8.222
REMARK INTRA:                  -1.920
REMARK UNBOUND:                -1.690
REMARK SMILES CCCCCC=CCC=CCCCCCCCCOC(C)=O
REMARK SMILES IDX 12 1 11 2 10 3 9 4 8 5 7 6 6 7 5 8 4 9 3 10 2 11 1 12 13 13
REMARK SMILES IDX 14 14 15 15 16 16 17 17 18 18 19 19 20 20 22 21 21 22
REMARK H PARENT
REMARK Flexibility Score: inf
ROOT
ATOM      1  C   UNL     1      -9.259  -3.296   5.821  1.00  0.00     0.004 C 
ENDROOT
BRANCH   1   2
ATOM      2  C   UNL     1     -10.177  -3.463   4.600  1.00  0.00     0.027 C 
BRANCH   2   3
ATOM      3  C   UNL     1      -9.878  -4.746   3.876  1.00  0.00    -0.031 C 
ATOM      4  C   UNL     1      -9.878  -4.815   2.535  1.00  0.00    -0.027 C 
BRANCH   4   5
ATOM      5  C   UNL     1      -9.585  -6.104   1.821  1.00  0.00     0.054 C 
BRANCH   5   6
ATOM      6  C   UNL     1     -10.681  -6.438   0.847  1.00  0.00    -0.027 C 
ATOM      7  C   UNL     1     -11.021  -5.580  -0.124  1.00  0.00    -0.031 C 
BRANCH   7   8
ATOM      8  C   UNL     1     -12.124  -5.892  -1.098  1.00  0.00     0.027 C 
BRANCH   8   9
ATOM      9  C   UNL     1     -11.976  -5.070  -2.390  1.00  0.00     0.004 C 
BRANCH   9  10
ATOM     10  C   UNL     1     -10.508  -4.876  -2.810  1.00  0.00     0.000 C 
BRANCH  10  11
ATOM     11  C   UNL     1      -9.934  -6.006  -3.686  1.00  0.00    -0.003 C 
ATOM     12  C   UNL     1     -10.882  -6.438  -4.803  1.00  0.00     0.004 C 
ENDBRANCH  10  11
ENDBRANCH   9  10
ENDBRANCH   8   9
ENDBRANCH   7   8
ENDBRANCH   5   6
ENDBRANCH   4   5
ENDBRANCH   2   3
ENDBRANCH   1   2
BRANCH   1  13
ATOM     13  C   UNL     1      -8.757  -4.640   6.372  1.00  0.00     0.000 C 
BRANCH  13  14
ATOM     14  C   UNL     1      -7.222  -4.743   6.370  1.00  0.00     0.000 C 
BRANCH  14  15
ATOM     15  C   UNL     1      -6.726  -6.116   5.888  1.00  0.00     0.000 C 
BRANCH  15  16
ATOM     16  C   UNL     1      -7.877  -7.108   5.645  1.00  0.00     0.003 C 
BRANCH  16  17
ATOM     17  C   UNL     1      -7.648  -7.983   4.402  1.00  0.00     0.042 C 
BRANCH  17  18
ATOM     18  C   UNL     1      -8.360  -9.334   4.485  1.00  0.00     0.233 C 
BRANCH  18  19
ATOM     19  O   UNL     1      -9.693  -9.195   4.006  1.00  0.00    -0.466 OA
BRANCH  19  20
ATOM     20  C   UNL     1     -10.090  -9.631   2.738  1.00  0.00     0.302 C 
ATOM     21  O   UNL     1     -11.312  -9.735   2.446  1.00  0.00    -0.253 OA
ATOM     22  C   UNL     1      -9.055  -9.937   1.709  1.00  0.00     0.139 C 
ENDBRANCH  19  20
ENDBRANCH  18  19
ENDBRANCH  17  18
ENDBRANCH  16  17
ENDBRANCH  15  16
ENDBRANCH  14  15
ENDBRANCH  13  14
ENDBRANCH   1  13
TORSDOF 16
ENDMDL
MODEL 9
REMARK VINA RESULT:    -4.335      3.599      5.355
REMARK INTER + INTRA:         -10.079
REMARK INTER:                  -8.378
REMARK INTRA:                  -1.701
REMARK UNBOUND:                -1.690
REMARK SMILES CCCCCC=CCC=CCCCCCCCCOC(C)=O
REMARK SMILES IDX 12 1 11 2 10 3 9 4 8 5 7 6 6 7 5 8 4 9 3 10 2 11 1 12 13 13
REMARK SMILES IDX 14 14 15 15 16 16 17 17 18 18 19 19 20 20 22 21 21 22
REMARK H PARENT
REMARK Flexibility Score: inf
ROOT
ATOM      1  C   UNL     1      -9.429  -8.300   0.843  1.00  0.00     0.004 C 
ENDROOT
BRANCH   1   2
ATOM      2  C   UNL     1     -10.433  -8.839   1.874  1.00  0.00     0.027 C 
BRANCH   2   3
ATOM      3  C   UNL     1     -10.401  -8.019   3.134  1.00  0.00    -0.031 C 
ATOM      4  C   UNL     1      -9.613  -6.940   3.252  1.00  0.00    -0.027 C 
BRANCH   4   5
ATOM      5  C   UNL     1      -9.583  -6.131   4.518  1.00  0.00     0.054 C 
BRANCH   5   6
ATOM      6  C   UNL     1      -8.231  -6.208   5.172  1.00  0.00    -0.027 C 
ATOM      7  C   UNL     1      -7.809  -5.236   5.992  1.00  0.00    -0.031 C 
BRANCH   7   8
ATOM      8  C   UNL     1      -6.454  -5.289   6.643  1.00  0.00     0.027 C 
BRANCH   8   9
ATOM      9  C   UNL     1      -6.571  -5.263   8.176  1.00  0.00     0.004 C 
BRANCH   9  10
ATOM     10  C   UNL     1      -7.143  -6.570   8.755  1.00  0.00     0.000 C 
BRANCH  10  11
ATOM     11  C   UNL     1      -7.958  -6.400  10.050  1.00  0.00    -0.003 C 
ATOM     12  C   UNL     1      -8.694  -5.062  10.123  1.00  0.00     0.004 C 
ENDBRANCH  10  11
ENDBRANCH   9  10
ENDBRANCH   8   9
ENDBRANCH   7   8
ENDBRANCH   5   6
ENDBRANCH   4   5
ENDBRANCH   2   3
ENDBRANCH   1   2
BRANCH   1  13
ATOM     13  C   UNL     1     -10.093  -7.937  -0.495  1.00  0.00     0.000 C 
BRANCH  13  14
ATOM     14  C   UNL     1     -11.625  -7.843  -0.387  1.00  0.00     0.000 C 
BRANCH  14  15
ATOM     15  C   UNL     1     -12.112  -6.397  -0.201  1.00  0.00     0.000 C 
BRANCH  15  16
ATOM     16  C   UNL     1     -11.023  -5.359  -0.527  1.00  0.00     0.003 C 
BRANCH  16  17
ATOM     17  C   UNL     1     -11.518  -4.269  -1.491  1.00  0.00     0.042 C 
BRANCH  17  18
ATOM     18  C   UNL     1     -10.721  -4.219  -2.795  1.00  0.00     0.233 C 
BRANCH  18  19
ATOM     19  O   UNL     1     -10.165  -5.503  -3.058  1.00  0.00    -0.466 OA
BRANCH  19  20
ATOM     20  C   UNL     1     -10.572  -6.296  -4.135  1.00  0.00     0.302 C 
ATOM     21  O   UNL     1     -10.989  -5.769  -5.201  1.00  0.00    -0.253 OA
ATOM     22  C   UNL     1     -10.472  -7.780  -4.034  1.00  0.00     0.139 C 
ENDBRANCH  19  20
ENDBRANCH  18  19
ENDBRANCH  17  18
ENDBRANCH  16  17
ENDBRANCH  15  16
ENDBRANCH  14  15
ENDBRANCH  13  14
ENDBRANCH   1  13
TORSDOF 16
ENDMDL
