MODEL 1
REMARK VINA RESULT:    -0.171      0.000      0.000
REMARK INTER + INTRA:           0.868
REMARK INTER:                  -0.252
REMARK INTRA:                   1.120
REMARK UNBOUND:                 1.120
REMARK SMILES O=c1c(O[C@H]2O[C@H](CO)[C@H](O)[C@H](O)[C@@H]2O)c(-c2ccc(O)c(O)c2)oc2cc(O)cc(O)c12
REMARK SMILES IDX 4 1 3 2 16 3 25 4 2 5 26 6 1 7 33 8 27 9 31 10 28 11 30 12
REMARK SMILES IDX 17 13 18 14 19 15 20 16 24 17 22 18 21 19 23 21 32 23 29 25
REMARK SMILES IDX 5 27 14 28 6 29 12 30 7 31 10 32 15 33 13 35 8 37 9 38 11 40
REMARK H PARENT 21 20 23 22 32 24 29 26 15 34 13 36 9 39 11 41
REMARK Flexibility Score: inf
ROOT
ATOM      1  O   UNL     1       4.661  23.434  26.577  1.00  0.00    -0.454 OA
ENDROOT
BRANCH   1   2
ATOM      2  C   UNL     1       4.255  22.101  26.719  1.00  0.00     0.214 A 
ATOM      3  C   UNL     1       2.892  21.734  26.717  1.00  0.00     0.180 A 
ATOM      4  O   UNL     1       2.558  20.448  26.774  1.00  0.00    -0.452 OA
ATOM      5  C   UNL     1       5.225  21.103  26.861  1.00  0.00     0.239 A 
ATOM      6  C   UNL     1       3.447  19.466  26.874  1.00  0.00     0.146 A 
ATOM      7  O   UNL     1       6.442  21.431  26.903  1.00  0.00    -0.285 OA
ATOM      8  C   UNL     1       4.831  19.752  26.937  1.00  0.00     0.111 A 
ATOM      9  C   UNL     1       2.998  18.143  26.929  1.00  0.00     0.094 A 
ATOM     10  C   UNL     1       5.752  18.683  27.059  1.00  0.00     0.134 A 
ATOM     11  C   UNL     1       3.913  17.091  27.048  1.00  0.00     0.123 A 
ATOM     12  C   UNL     1       5.281  17.364  27.113  1.00  0.00     0.093 A 
BRANCH   3  13
ATOM     13  C   UNL     1       1.802  22.733  26.668  1.00  0.00     0.025 A 
ATOM     14  C   UNL     1       2.076  24.105  26.515  1.00  0.00     0.016 A 
ATOM     15  C   UNL     1       1.032  25.032  26.477  1.00  0.00     0.051 A 
ATOM     16  C   UNL     1      -0.297  24.608  26.606  1.00  0.00     0.157 A 
ATOM     17  C   UNL     1       0.471  22.316  26.819  1.00  0.00     0.062 A 
ATOM     18  C   UNL     1      -0.577  23.242  26.782  1.00  0.00     0.158 A 
BRANCH  16  19
ATOM     19  O   UNL     1      -1.336  25.536  26.566  1.00  0.00    -0.504 OA
ATOM     20  H   UNL     1      -1.193  26.478  26.221  1.00  0.00     0.293 HD
ENDBRANCH  16  19
BRANCH  18  21
ATOM     21  O   UNL     1      -1.888  22.789  26.921  1.00  0.00    -0.504 OA
ATOM     22  H   UNL     1      -2.599  23.332  27.396  1.00  0.00     0.293 HD
ENDBRANCH  18  21
ENDBRANCH   3  13
BRANCH  10  23
ATOM     23  O   UNL     1       7.125  18.923  27.125  1.00  0.00    -0.507 OA
ATOM     24  H   UNL     1       7.626  19.364  26.362  1.00  0.00     0.293 HD
ENDBRANCH  10  23
BRANCH  11  25
ATOM     25  O   UNL     1       3.471  15.772  27.103  1.00  0.00    -0.508 OA
ATOM     26  H   UNL     1       2.676  15.455  26.562  1.00  0.00     0.293 HD
ENDBRANCH  11  25
ENDBRANCH   1   2
BRANCH   1  27
ATOM     27  C   UNL     1       4.441  24.190  25.379  1.00  0.00     0.339 C 
ATOM     28  C   UNL     1       5.014  23.460  24.148  1.00  0.00     0.214 C 
ATOM     29  O   UNL     1       4.973  25.500  25.509  1.00  0.00    -0.332 OA
ATOM     30  C   UNL     1       6.559  23.479  24.189  1.00  0.00     0.180 C 
ATOM     31  C   UNL     1       6.375  25.478  25.729  1.00  0.00     0.179 C 
ATOM     32  C   UNL     1       7.117  24.886  24.501  1.00  0.00     0.177 C 
BRANCH  28  33
ATOM     33  O   UNL     1       4.531  24.081  22.982  1.00  0.00    -0.384 OA
ATOM     34  H   UNL     1       4.956  23.624  22.210  1.00  0.00     0.211 HD
ENDBRANCH  28  33
BRANCH  30  35
ATOM     35  O   UNL     1       7.125  22.933  23.022  1.00  0.00    -0.387 OA
ATOM     36  H   UNL     1       6.492  23.080  22.273  1.00  0.00     0.211 HD
ENDBRANCH  30  35
BRANCH  31  37
ATOM     37  C   UNL     1       6.845  26.903  26.045  1.00  0.00     0.191 C 
BRANCH  37  38
ATOM     38  O   UNL     1       7.112  27.601  24.859  1.00  0.00    -0.394 OA
ATOM     39  H   UNL     1       6.373  28.254  24.751  1.00  0.00     0.210 HD
ENDBRANCH  37  38
ENDBRANCH  31  37
BRANCH  32  40
ATOM     40  O   UNL     1       7.051  25.737  23.380  1.00  0.00    -0.387 OA
ATOM     41  H   UNL     1       7.082  26.676  23.698  1.00  0.00     0.211 HD
ENDBRANCH  32  40
ENDBRANCH   1  27
TORSDOF 12
ENDMDL
