MODEL 1
REMARK VINA RESULT:    -4.665      0.000      0.000
REMARK INTER + INTRA:          -5.901
REMARK INTER:                  -5.755
REMARK INTRA:                  -0.146
REMARK UNBOUND:                -0.146
REMARK SMILES COC(=O)c1ccccc1C(=O)OC
REMARK SMILES IDX 5 1 6 2 7 3 8 4 9 5 10 6 3 7 4 8 2 9 1 10 11 11 12 12 13 13
REMARK SMILES IDX 14 14
REMARK H PARENT
REMARK Flexibility Score: inf
ROOT
ATOM      1  C   UNL     1      94.011  96.292  77.879  1.00  0.00     0.074 A 
ATOM      2  C   UNL     1      92.967  95.372  77.665  1.00  0.00     0.016 A 
ATOM      3  C   UNL     1      93.144  94.015  77.936  1.00  0.00     0.001 A 
ATOM      4  C   UNL     1      94.364  93.553  78.426  1.00  0.00     0.001 A 
ATOM      5  C   UNL     1      95.420  94.444  78.624  1.00  0.00     0.016 A 
ATOM      6  C   UNL     1      95.271  95.813  78.336  1.00  0.00     0.074 A 
ENDROOT
BRANCH   1   7
ATOM      7  C   UNL     1      93.727  97.731  77.687  1.00  0.00     0.338 C 
ATOM      8  O   UNL     1      93.780  98.232  76.531  1.00  0.00    -0.246 OA
BRANCH   7   9
ATOM      9  O   UNL     1      93.346  98.522  78.777  1.00  0.00    -0.465 OA
ATOM     10  C   UNL     1      92.253  98.188  79.623  1.00  0.00     0.282 C 
ENDBRANCH   7   9
ENDBRANCH   1   7
BRANCH   6  11
ATOM     11  C   UNL     1      96.463  96.681  78.462  1.00  0.00     0.338 C 
ATOM     12  O   UNL     1      97.016  96.845  79.584  1.00  0.00    -0.246 OA
BRANCH  11  13
ATOM     13  O   UNL     1      96.938  97.366  77.338  1.00  0.00    -0.465 OA
ATOM     14  C   UNL     1      98.138  98.130  77.357  1.00  0.00     0.282 C 
ENDBRANCH  11  13
ENDBRANCH   6  11
TORSDOF 4
ENDMDL
MODEL 2
REMARK VINA RESULT:    -4.595      8.502     10.015
REMARK INTER + INTRA:          -5.815
REMARK INTER:                  -5.411
REMARK INTRA:                  -0.404
REMARK UNBOUND:                -0.146
REMARK SMILES COC(=O)c1ccccc1C(=O)OC
REMARK SMILES IDX 5 1 6 2 7 3 8 4 9 5 10 6 3 7 4 8 2 9 1 10 11 11 12 12 13 13
REMARK SMILES IDX 14 14
REMARK H PARENT
REMARK Flexibility Score: inf
ROOT
ATOM      1  C   UNL     1      86.858  93.533  79.838  1.00  0.00     0.074 A 
ATOM      2  C   UNL     1      87.250  94.302  80.950  1.00  0.00     0.016 A 
ATOM      3  C   UNL     1      87.339  95.691  80.861  1.00  0.00     0.001 A 
ATOM      4  C   UNL     1      87.038  96.336  79.664  1.00  0.00     0.001 A 
ATOM      5  C   UNL     1      86.671  95.592  78.543  1.00  0.00     0.016 A 
ATOM      6  C   UNL     1      86.595  94.188  78.603  1.00  0.00     0.074 A 
ENDROOT
BRANCH   1   7
ATOM      7  C   UNL     1      86.667  92.077  80.025  1.00  0.00     0.338 C 
ATOM      8  O   UNL     1      87.628  91.287  79.823  1.00  0.00    -0.246 OA
BRANCH   7   9
ATOM      9  O   UNL     1      85.438  91.585  80.479  1.00  0.00    -0.465 OA
ATOM     10  C   UNL     1      84.871  90.373  79.997  1.00  0.00     0.282 C 
ENDBRANCH   7   9
ENDBRANCH   1   7
BRANCH   6  11
ATOM     11  C   UNL     1      86.309  93.456  77.349  1.00  0.00     0.338 C 
ATOM     12  O   UNL     1      87.252  92.976  76.661  1.00  0.00    -0.246 OA
BRANCH  11  13
ATOM     13  O   UNL     1      84.988  93.347  76.900  1.00  0.00    -0.465 OA
ATOM     14  C   UNL     1      83.878  93.296  77.789  1.00  0.00     0.282 C 
ENDBRANCH  11  13
ENDBRANCH   6  11
TORSDOF 4
ENDMDL
MODEL 3
REMARK VINA RESULT:    -4.568     10.751     12.080
REMARK INTER + INTRA:          -5.782
REMARK INTER:                  -5.387
REMARK INTRA:                  -0.395
REMARK UNBOUND:                -0.146
REMARK SMILES COC(=O)c1ccccc1C(=O)OC
REMARK SMILES IDX 5 1 6 2 7 3 8 4 9 5 10 6 3 7 4 8 2 9 1 10 11 11 12 12 13 13
REMARK SMILES IDX 14 14
REMARK H PARENT
REMARK Flexibility Score: inf
ROOT
ATOM      1  C   UNL     1      88.258  86.604  78.645  1.00  0.00     0.074 A 
ATOM      2  C   UNL     1      86.850  86.627  78.606  1.00  0.00     0.016 A 
ATOM      3  C   UNL     1      86.111  86.991  79.732  1.00  0.00     0.001 A 
ATOM      4  C   UNL     1      86.762  87.339  80.913  1.00  0.00     0.001 A 
ATOM      5  C   UNL     1      88.155  87.301  80.981  1.00  0.00     0.016 A 
ATOM      6  C   UNL     1      88.920  86.915  79.865  1.00  0.00     0.074 A 
ENDROOT
BRANCH   1   7
ATOM      7  C   UNL     1      88.988  86.325  77.388  1.00  0.00     0.338 C 
ATOM      8  O   UNL     1      89.502  87.276  76.737  1.00  0.00    -0.246 OA
BRANCH   7   9
ATOM      9  O   UNL     1      89.155  85.006  76.952  1.00  0.00    -0.465 OA
ATOM     10  C   UNL     1      89.213  83.903  77.848  1.00  0.00     0.282 C 
ENDBRANCH   7   9
ENDBRANCH   1   7
BRANCH   6  11
ATOM     11  C   UNL     1      90.385  86.788  80.039  1.00  0.00     0.338 C 
ATOM     12  O   UNL     1      91.148  87.748  79.741  1.00  0.00    -0.246 OA
BRANCH  11  13
ATOM     13  O   UNL     1      90.924  85.574  80.481  1.00  0.00    -0.465 OA
ATOM     14  C   UNL     1      92.137  85.041  79.964  1.00  0.00     0.282 C 
ENDBRANCH  11  13
ENDBRANCH   6  11
TORSDOF 4
ENDMDL
MODEL 4
REMARK VINA RESULT:    -4.561     10.689     12.299
REMARK INTER + INTRA:          -5.774
REMARK INTER:                  -5.378
REMARK INTRA:                  -0.396
REMARK UNBOUND:                -0.146
REMARK SMILES COC(=O)c1ccccc1C(=O)OC
REMARK SMILES IDX 5 1 6 2 7 3 8 4 9 5 10 6 3 7 4 8 2 9 1 10 11 11 12 12 13 13
REMARK SMILES IDX 14 14
REMARK H PARENT
REMARK Flexibility Score: inf
ROOT
ATOM      1  C   UNL     1      88.886  86.935  79.860  1.00  0.00     0.074 A 
ATOM      2  C   UNL     1      88.067  87.286  80.950  1.00  0.00     0.016 A 
ATOM      3  C   UNL     1      86.677  87.253  80.836  1.00  0.00     0.001 A 
ATOM      4  C   UNL     1      86.082  86.869  79.637  1.00  0.00     0.001 A 
ATOM      5  C   UNL     1      86.875  86.539  78.538  1.00  0.00     0.016 A 
ATOM      6  C   UNL     1      88.278  86.587  78.622  1.00  0.00     0.074 A 
ENDROOT
BRANCH   1   7
ATOM      7  C   UNL     1      90.350  86.875  80.075  1.00  0.00     0.338 C 
ATOM      8  O   UNL     1      91.059  87.892  79.849  1.00  0.00    -0.246 OA
BRANCH   7   9
ATOM      9  O   UNL     1      90.936  85.709  80.581  1.00  0.00    -0.465 OA
ATOM     10  C   UNL     1      92.010  85.045  79.928  1.00  0.00     0.282 C 
ENDBRANCH   7   9
ENDBRANCH   1   7
BRANCH   6  11
ATOM     11  C   UNL     1      89.055  86.334  77.388  1.00  0.00     0.338 C 
ATOM     12  O   UNL     1      89.530  87.297  76.725  1.00  0.00    -0.246 OA
BRANCH  11  13
ATOM     13  O   UNL     1      89.212  85.021  76.928  1.00  0.00    -0.465 OA
ATOM     14  C   UNL     1      89.213  83.899  77.801  1.00  0.00     0.282 C 
ENDBRANCH  11  13
ENDBRANCH   6  11
TORSDOF 4
ENDMDL
MODEL 5
REMARK VINA RESULT:    -4.550      6.209      8.005
REMARK INTER + INTRA:          -5.761
REMARK INTER:                  -5.360
REMARK INTRA:                  -0.401
REMARK UNBOUND:                -0.146
REMARK SMILES COC(=O)c1ccccc1C(=O)OC
REMARK SMILES IDX 5 1 6 2 7 3 8 4 9 5 10 6 3 7 4 8 2 9 1 10 11 11 12 12 13 13
REMARK SMILES IDX 14 14
REMARK H PARENT
REMARK Flexibility Score: inf
ROOT
ATOM      1  C   UNL     1      95.538  88.955  79.859  1.00  0.00     0.074 A 
ATOM      2  C   UNL     1      95.171  88.177  80.974  1.00  0.00     0.016 A 
ATOM      3  C   UNL     1      95.180  86.783  80.905  1.00  0.00     0.001 A 
ATOM      4  C   UNL     1      95.557  86.144  79.727  1.00  0.00     0.001 A 
ATOM      5  C   UNL     1      95.903  86.895  78.604  1.00  0.00     0.016 A 
ATOM      6  C   UNL     1      95.879  88.302  78.642  1.00  0.00     0.074 A 
ENDROOT
BRANCH   1   7
ATOM      7  C   UNL     1      95.623  90.423  80.028  1.00  0.00     0.338 C 
ATOM      8  O   UNL     1      94.627  91.145  79.750  1.00  0.00    -0.246 OA
BRANCH   7   9
ATOM      9  O   UNL     1      96.786  91.003  80.548  1.00  0.00    -0.465 OA
ATOM     10  C   UNL     1      97.465  92.072  79.902  1.00  0.00     0.282 C 
ENDBRANCH   7   9
ENDBRANCH   1   7
BRANCH   6  11
ATOM     11  C   UNL     1      96.148  89.035  77.385  1.00  0.00     0.338 C 
ATOM     12  O   UNL     1      95.196  89.527  76.718  1.00  0.00    -0.246 OA
BRANCH  11  13
ATOM     13  O   UNL     1      97.460  89.129  76.909  1.00  0.00    -0.465 OA
ATOM     14  C   UNL     1      98.582  89.261  77.774  1.00  0.00     0.282 C 
ENDBRANCH  11  13
ENDBRANCH   6  11
TORSDOF 4
ENDMDL
MODEL 6
REMARK VINA RESULT:    -4.547      2.283      3.549
REMARK INTER + INTRA:          -5.756
REMARK INTER:                  -5.332
REMARK INTRA:                  -0.424
REMARK UNBOUND:                -0.146
REMARK SMILES COC(=O)c1ccccc1C(=O)OC
REMARK SMILES IDX 5 1 6 2 7 3 8 4 9 5 10 6 3 7 4 8 2 9 1 10 11 11 12 12 13 13
REMARK SMILES IDX 14 14
REMARK H PARENT
REMARK Flexibility Score: inf
ROOT
ATOM      1  C   UNL     1      93.540  95.588  79.899  1.00  0.00     0.074 A 
ATOM      2  C   UNL     1      94.311  95.196  81.011  1.00  0.00     0.016 A 
ATOM      3  C   UNL     1      95.703  95.140  80.929  1.00  0.00     0.001 A 
ATOM      4  C   UNL     1      96.348  95.475  79.741  1.00  0.00     0.001 A 
ATOM      5  C   UNL     1      95.602  95.843  78.621  1.00  0.00     0.016 A 
ATOM      6  C   UNL     1      94.197  95.886  78.673  1.00  0.00     0.074 A 
ENDROOT
BRANCH   1   7
ATOM      7  C   UNL     1      92.079  95.743  80.080  1.00  0.00     0.338 C 
ATOM      8  O   UNL     1      91.318  94.752  79.913  1.00  0.00    -0.246 OA
BRANCH   7   9
ATOM      9  O   UNL     1      91.550  96.972  80.489  1.00  0.00    -0.465 OA
ATOM     10  C   UNL     1      90.357  97.516  79.940  1.00  0.00     0.282 C 
ENDBRANCH   7   9
ENDBRANCH   1   7
BRANCH   6  11
ATOM     11  C   UNL     1      93.465  96.175  77.419  1.00  0.00     0.338 C 
ATOM     12  O   UNL     1      92.937  95.239  76.759  1.00  0.00    -0.246 OA
BRANCH  11  13
ATOM     13  O   UNL     1      93.413  97.489  76.939  1.00  0.00    -0.465 OA
ATOM     14  C   UNL     1      93.260  98.613  77.797  1.00  0.00     0.282 C 
ENDBRANCH  11  13
ENDBRANCH   6  11
TORSDOF 4
ENDMDL
MODEL 7
REMARK VINA RESULT:    -4.546      8.496      9.810
REMARK INTER + INTRA:          -5.755
REMARK INTER:                  -5.357
REMARK INTRA:                  -0.398
REMARK UNBOUND:                -0.146
REMARK SMILES COC(=O)c1ccccc1C(=O)OC
REMARK SMILES IDX 5 1 6 2 7 3 8 4 9 5 10 6 3 7 4 8 2 9 1 10 11 11 12 12 13 13
REMARK SMILES IDX 14 14
REMARK H PARENT
REMARK Flexibility Score: inf
ROOT
ATOM      1  C   UNL     1      86.614  94.262  78.684  1.00  0.00     0.074 A 
ATOM      2  C   UNL     1      86.695  95.667  78.645  1.00  0.00     0.016 A 
ATOM      3  C   UNL     1      87.077  96.391  79.775  1.00  0.00     0.001 A 
ATOM      4  C   UNL     1      87.386  95.727  80.960  1.00  0.00     0.001 A 
ATOM      5  C   UNL     1      87.290  94.337  81.027  1.00  0.00     0.016 A 
ATOM      6  C   UNL     1      86.886  93.587  79.907  1.00  0.00     0.074 A 
ENDROOT
BRANCH   1   7
ATOM      7  C   UNL     1      86.320  93.543  77.424  1.00  0.00     0.338 C 
ATOM      8  O   UNL     1      87.239  92.917  76.829  1.00  0.00    -0.246 OA
BRANCH   7   9
ATOM      9  O   UNL     1      85.013  93.512  76.924  1.00  0.00    -0.465 OA
ATOM     10  C   UNL     1      83.879  93.289  77.753  1.00  0.00     0.282 C 
ENDBRANCH   7   9
ENDBRANCH   1   7
BRANCH   6  11
ATOM     11  C   UNL     1      86.698  92.129  80.079  1.00  0.00     0.338 C 
ATOM     12  O   UNL     1      87.638  91.330  79.816  1.00  0.00    -0.246 OA
BRANCH  11  13
ATOM     13  O   UNL     1      85.450  91.638  80.481  1.00  0.00    -0.465 OA
ATOM     14  C   UNL     1      84.891  90.443  79.951  1.00  0.00     0.282 C 
ENDBRANCH  11  13
ENDBRANCH   6  11
TORSDOF 4
ENDMDL
MODEL 8
REMARK VINA RESULT:    -4.543      6.179      8.132
REMARK INTER + INTRA:          -5.752
REMARK INTER:                  -5.362
REMARK INTRA:                  -0.390
REMARK UNBOUND:                -0.146
REMARK SMILES COC(=O)c1ccccc1C(=O)OC
REMARK SMILES IDX 5 1 6 2 7 3 8 4 9 5 10 6 3 7 4 8 2 9 1 10 11 11 12 12 13 13
REMARK SMILES IDX 14 14
REMARK H PARENT
REMARK Flexibility Score: inf
ROOT
ATOM      1  C   UNL     1      95.890  88.324  78.661  1.00  0.00     0.074 A 
ATOM      2  C   UNL     1      95.839  86.917  78.618  1.00  0.00     0.016 A 
ATOM      3  C   UNL     1      95.475  86.182  79.747  1.00  0.00     0.001 A 
ATOM      4  C   UNL     1      95.155  86.836  80.934  1.00  0.00     0.001 A 
ATOM      5  C   UNL     1      95.221  88.228  81.005  1.00  0.00     0.016 A 
ATOM      6  C   UNL     1      95.607  88.989  79.887  1.00  0.00     0.074 A 
ENDROOT
BRANCH   1   7
ATOM      7  C   UNL     1      96.166  89.053  77.403  1.00  0.00     0.338 C 
ATOM      8  O   UNL     1      95.217  89.585  76.764  1.00  0.00    -0.246 OA
BRANCH   7   9
ATOM      9  O   UNL     1      97.483  89.198  76.952  1.00  0.00    -0.465 OA
ATOM     10  C   UNL     1      98.598  89.219  77.834  1.00  0.00     0.282 C 
ENDBRANCH   7   9
ENDBRANCH   1   7
BRANCH   6  11
ATOM     11  C   UNL     1      95.764  90.450  80.063  1.00  0.00     0.338 C 
ATOM     12  O   UNL     1      94.822  91.234  79.760  1.00  0.00    -0.246 OA
BRANCH  11  13
ATOM     13  O   UNL     1      96.986  90.963  80.514  1.00  0.00    -0.465 OA
ATOM     14  C   UNL     1      97.579  92.130  79.958  1.00  0.00     0.282 C 
ENDBRANCH  11  13
ENDBRANCH   6  11
TORSDOF 4
ENDMDL
MODEL 9
REMARK VINA RESULT:    -4.535      2.072      4.084
REMARK INTER + INTRA:          -5.741
REMARK INTER:                  -5.398
REMARK INTRA:                  -0.344
REMARK UNBOUND:                -0.146
REMARK SMILES COC(=O)c1ccccc1C(=O)OC
REMARK SMILES IDX 5 1 6 2 7 3 8 4 9 5 10 6 3 7 4 8 2 9 1 10 11 11 12 12 13 13
REMARK SMILES IDX 14 14
REMARK H PARENT
REMARK Flexibility Score: inf
ROOT
ATOM      1  C   UNL     1      94.448  96.494  78.967  1.00  0.00     0.074 A 
ATOM      2  C   UNL     1      95.846  96.338  78.903  1.00  0.00     0.016 A 
ATOM      3  C   UNL     1      96.526  95.598  79.870  1.00  0.00     0.001 A 
ATOM      4  C   UNL     1      95.825  95.001  80.915  1.00  0.00     0.001 A 
ATOM      5  C   UNL     1      94.443  95.162  81.011  1.00  0.00     0.016 A 
ATOM      6  C   UNL     1      93.738  95.923  80.060  1.00  0.00     0.074 A 
ENDROOT
BRANCH   1   7
ATOM      7  C   UNL     1      93.769  97.189  77.850  1.00  0.00     0.338 C 
ATOM      8  O   UNL     1      93.719  98.449  77.833  1.00  0.00    -0.246 OA
BRANCH   7   9
ATOM      9  O   UNL     1      93.234  96.451  76.789  1.00  0.00    -0.465 OA
ATOM     10  C   UNL     1      93.214  95.029  76.775  1.00  0.00     0.282 C 
ENDBRANCH   7   9
ENDBRANCH   1   7
BRANCH   6  11
ATOM     11  C   UNL     1      92.292  96.146  80.284  1.00  0.00     0.338 C 
ATOM     12  O   UNL     1      91.457  95.244  80.000  1.00  0.00    -0.246 OA
BRANCH  11  13
ATOM     13  O   UNL     1      91.852  97.387  80.758  1.00  0.00    -0.465 OA
ATOM     14  C   UNL     1      90.932  98.199  80.039  1.00  0.00     0.282 C 
ENDBRANCH  11  13
ENDBRANCH   6  11
TORSDOF 4
ENDMDL
