MODEL 1
REMARK VINA RESULT:    -4.248      0.000      0.000
REMARK INTER + INTRA:          -9.773
REMARK INTER:                  -7.725
REMARK INTRA:                  -2.048
REMARK UNBOUND:                -2.048
REMARK SMILES CCCCCCCCCCCCCCCC(=O)[O-]
REMARK SMILES IDX 9 1 10 2 11 3 12 4 13 5 14 6 15 7 16 8 17 9 18 10 8 11 7 12
REMARK SMILES IDX 6 13 5 14 4 15 3 16 2 17 1 18
REMARK H PARENT
REMARK Flexibility Score: inf
ROOT
ATOM      1  C   UNL     1      -9.094  -3.271   5.544  1.00  0.00     0.000 C 
ENDROOT
BRANCH   1   2
ATOM      2  C   UNL     1      -8.805  -3.400   4.037  1.00  0.00     0.000 C 
BRANCH   2   3
ATOM      3  C   UNL     1     -10.037  -3.308   3.119  1.00  0.00     0.000 C 
BRANCH   3   4
ATOM      4  C   UNL     1     -10.029  -2.056   2.225  1.00  0.00     0.000 C 
BRANCH   4   5
ATOM      5  C   UNL     1      -8.715  -1.262   2.336  1.00  0.00     0.000 C 
BRANCH   5   6
ATOM      6  C   UNL     1      -8.949   0.227   2.643  1.00  0.00     0.006 C 
BRANCH   6   7
ATOM      7  C   UNL     1     -10.060   0.435   3.681  1.00  0.00     0.053 C 
BRANCH   7   8
ATOM      8  C   UNL     1     -10.906   1.630   3.360  1.00  0.00     0.041 C 
ATOM      9  O   UNL     1     -11.397   2.327   4.286  1.00  0.00    -0.550 OA
ATOM     10  O   UNL     1     -11.175   1.955   2.037  1.00  0.00    -0.550 OA
ENDBRANCH   7   8
ENDBRANCH   6   7
ENDBRANCH   5   6
ENDBRANCH   4   5
ENDBRANCH   3   4
ENDBRANCH   2   3
ENDBRANCH   1   2
BRANCH   1  11
ATOM     11  C   UNL     1      -8.271  -4.248   6.400  1.00  0.00     0.000 C 
BRANCH  11  12
ATOM     12  C   UNL     1      -9.095  -5.448   6.901  1.00  0.00    -0.000 C 
BRANCH  12  13
ATOM     13  C   UNL     1      -9.047  -6.699   6.000  1.00  0.00    -0.000 C 
BRANCH  13  14
ATOM     14  C   UNL     1     -10.154  -6.781   4.930  1.00  0.00    -0.000 C 
BRANCH  14  15
ATOM     15  C   UNL     1     -11.566  -6.432   5.434  1.00  0.00    -0.000 C 
BRANCH  15  16
ATOM     16  C   UNL     1     -12.479  -5.896   4.318  1.00  0.00    -0.000 C 
BRANCH  16  17
ATOM     17  C   UNL     1     -13.107  -4.540   4.671  1.00  0.00    -0.003 C 
ATOM     18  C   UNL     1     -12.622  -3.999   6.016  1.00  0.00     0.004 C 
ENDBRANCH  16  17
ENDBRANCH  15  16
ENDBRANCH  14  15
ENDBRANCH  13  14
ENDBRANCH  12  13
ENDBRANCH  11  12
ENDBRANCH   1  11
TORSDOF 14
ENDMDL
MODEL 2
REMARK VINA RESULT:    -4.164      1.298      1.936
REMARK INTER + INTRA:          -9.620
REMARK INTER:                  -7.180
REMARK INTRA:                  -2.440
REMARK UNBOUND:                -2.048
REMARK SMILES CCCCCCCCCCCCCCCC(=O)[O-]
REMARK SMILES IDX 9 1 10 2 11 3 12 4 13 5 14 6 15 7 16 8 17 9 18 10 8 11 7 12
REMARK SMILES IDX 6 13 5 14 4 15 3 16 2 17 1 18
REMARK H PARENT
REMARK Flexibility Score: inf
ROOT
ATOM      1  C   UNL     1      -8.621  -3.858   5.967  1.00  0.00     0.000 C 
ENDROOT
BRANCH   1   2
ATOM      2  C   UNL     1      -8.650  -3.675   4.439  1.00  0.00     0.000 C 
BRANCH   2   3
ATOM      3  C   UNL     1      -9.475  -2.477   3.934  1.00  0.00     0.000 C 
BRANCH   3   4
ATOM      4  C   UNL     1     -10.289  -2.798   2.669  1.00  0.00     0.000 C 
BRANCH   4   5
ATOM      5  C   UNL     1     -10.806  -1.533   1.963  1.00  0.00     0.000 C 
BRANCH   5   6
ATOM      6  C   UNL     1      -9.866  -0.328   2.147  1.00  0.00     0.006 C 
BRANCH   6   7
ATOM      7  C   UNL     1     -10.634   0.999   2.212  1.00  0.00     0.053 C 
BRANCH   7   8
ATOM      8  C   UNL     1     -11.563   1.048   3.387  1.00  0.00     0.041 C 
ATOM      9  O   UNL     1     -11.103   1.041   4.559  1.00  0.00    -0.550 OA
ATOM     10  O   UNL     1     -12.937   1.069   3.187  1.00  0.00    -0.550 OA
ENDBRANCH   7   8
ENDBRANCH   6   7
ENDBRANCH   5   6
ENDBRANCH   4   5
ENDBRANCH   3   4
ENDBRANCH   2   3
ENDBRANCH   1   2
BRANCH   1  11
ATOM     11  C   UNL     1      -9.203  -5.207   6.422  1.00  0.00     0.000 C 
BRANCH  11  12
ATOM     12  C   UNL     1      -9.475  -6.168   5.252  1.00  0.00    -0.000 C 
BRANCH  12  13
ATOM     13  C   UNL     1     -10.965  -6.440   4.959  1.00  0.00    -0.000 C 
BRANCH  13  14
ATOM     14  C   UNL     1     -11.961  -5.626   5.808  1.00  0.00    -0.000 C 
BRANCH  14  15
ATOM     15  C   UNL     1     -12.509  -4.360   5.125  1.00  0.00    -0.000 C 
BRANCH  15  16
ATOM     16  C   UNL     1     -12.407  -3.111   6.017  1.00  0.00    -0.000 C 
BRANCH  16  17
ATOM     17  C   UNL     1     -12.938  -1.848   5.325  1.00  0.00    -0.003 C 
ATOM     18  C   UNL     1     -13.830  -2.165   4.125  1.00  0.00     0.004 C 
ENDBRANCH  16  17
ENDBRANCH  15  16
ENDBRANCH  14  15
ENDBRANCH  13  14
ENDBRANCH  12  13
ENDBRANCH  11  12
ENDBRANCH   1  11
TORSDOF 14
ENDMDL
MODEL 3
REMARK VINA RESULT:    -4.141      3.711      5.910
REMARK INTER + INTRA:          -9.578
REMARK INTER:                  -7.692
REMARK INTRA:                  -1.886
REMARK UNBOUND:                -2.048
REMARK SMILES CCCCCCCCCCCCCCCC(=O)[O-]
REMARK SMILES IDX 9 1 10 2 11 3 12 4 13 5 14 6 15 7 16 8 17 9 18 10 8 11 7 12
REMARK SMILES IDX 6 13 5 14 4 15 3 16 2 17 1 18
REMARK H PARENT
REMARK Flexibility Score: inf
ROOT
ATOM      1  C   UNL     1     -10.740  -2.294   2.602  1.00  0.00     0.000 C 
ENDROOT
BRANCH   1   2
ATOM      2  C   UNL     1     -11.995  -1.661   3.230  1.00  0.00     0.000 C 
BRANCH   2   3
ATOM      3  C   UNL     1     -12.150  -1.870   4.748  1.00  0.00     0.000 C 
BRANCH   3   4
ATOM      4  C   UNL     1     -12.458  -3.329   5.125  1.00  0.00     0.000 C 
BRANCH   4   5
ATOM      5  C   UNL     1     -13.545  -3.952   4.232  1.00  0.00     0.000 C 
BRANCH   5   6
ATOM      6  C   UNL     1     -13.039  -5.181   3.457  1.00  0.00     0.006 C 
BRANCH   6   7
ATOM      7  C   UNL     1     -13.502  -6.497   4.096  1.00  0.00     0.053 C 
BRANCH   7   8
ATOM      8  C   UNL     1     -14.554  -7.176   3.272  1.00  0.00     0.041 C 
ATOM      9  O   UNL     1     -14.851  -8.380   3.490  1.00  0.00    -0.550 OA
ATOM     10  O   UNL     1     -15.184  -6.487   2.244  1.00  0.00    -0.550 OA
ENDBRANCH   7   8
ENDBRANCH   6   7
ENDBRANCH   5   6
ENDBRANCH   4   5
ENDBRANCH   3   4
ENDBRANCH   2   3
ENDBRANCH   1   2
BRANCH   1  11
ATOM     11  C   UNL     1      -9.475  -2.092   3.454  1.00  0.00     0.000 C 
BRANCH  11  12
ATOM     12  C   UNL     1      -8.853  -3.418   3.929  1.00  0.00    -0.000 C 
BRANCH  12  13
ATOM     13  C   UNL     1      -8.805  -3.610   5.458  1.00  0.00    -0.000 C 
BRANCH  13  14
ATOM     14  C   UNL     1      -9.205  -5.014   5.956  1.00  0.00    -0.000 C 
BRANCH  14  15
ATOM     15  C   UNL     1      -9.706  -5.970   4.860  1.00  0.00    -0.000 C 
BRANCH  15  16
ATOM     16  C   UNL     1     -10.077  -7.359   5.407  1.00  0.00    -0.000 C 
BRANCH  16  17
ATOM     17  C   UNL     1      -9.215  -8.478   4.804  1.00  0.00    -0.003 C 
ATOM     18  C   UNL     1      -7.984  -8.795   5.652  1.00  0.00     0.004 C 
ENDBRANCH  16  17
ENDBRANCH  15  16
ENDBRANCH  14  15
ENDBRANCH  13  14
ENDBRANCH  12  13
ENDBRANCH  11  12
ENDBRANCH   1  11
TORSDOF 14
ENDMDL
MODEL 4
REMARK VINA RESULT:    -4.093      3.823      6.283
REMARK INTER + INTRA:          -9.491
REMARK INTER:                  -7.457
REMARK INTRA:                  -2.035
REMARK UNBOUND:                -2.048
REMARK SMILES CCCCCCCCCCCCCCCC(=O)[O-]
REMARK SMILES IDX 9 1 10 2 11 3 12 4 13 5 14 6 15 7 16 8 17 9 18 10 8 11 7 12
REMARK SMILES IDX 6 13 5 14 4 15 3 16 2 17 1 18
REMARK H PARENT
REMARK Flexibility Score: inf
ROOT
ATOM      1  C   UNL     1      -8.780  -0.828   2.182  1.00  0.00     0.000 C 
ENDROOT
BRANCH   1   2
ATOM      2  C   UNL     1      -9.053  -1.769   3.370  1.00  0.00     0.000 C 
BRANCH   2   3
ATOM      3  C   UNL     1      -9.635  -3.146   2.999  1.00  0.00     0.000 C 
BRANCH   3   4
ATOM      4  C   UNL     1      -9.276  -4.243   4.016  1.00  0.00     0.000 C 
BRANCH   4   5
ATOM      5  C   UNL     1      -8.708  -3.671   5.325  1.00  0.00     0.000 C 
BRANCH   5   6
ATOM      6  C   UNL     1      -8.693  -4.705   6.464  1.00  0.00     0.006 C 
BRANCH   6   7
ATOM      7  C   UNL     1      -9.346  -6.030   6.050  1.00  0.00     0.053 C 
BRANCH   7   8
ATOM      8  C   UNL     1      -9.190  -7.082   7.106  1.00  0.00     0.041 C 
ATOM      9  O   UNL     1      -9.485  -6.828   8.304  1.00  0.00    -0.550 OA
ATOM     10  O   UNL     1      -8.688  -8.334   6.772  1.00  0.00    -0.550 OA
ENDBRANCH   7   8
ENDBRANCH   6   7
ENDBRANCH   5   6
ENDBRANCH   4   5
ENDBRANCH   3   4
ENDBRANCH   2   3
ENDBRANCH   1   2
BRANCH   1  11
ATOM     11  C   UNL     1      -9.689   0.413   2.178  1.00  0.00     0.000 C 
BRANCH  11  12
ATOM     12  C   UNL     1     -10.802   0.345   3.239  1.00  0.00    -0.000 C 
BRANCH  12  13
ATOM     13  C   UNL     1     -12.214   0.052   2.691  1.00  0.00    -0.000 C 
BRANCH  13  14
ATOM     14  C   UNL     1     -13.194  -0.576   3.703  1.00  0.00    -0.000 C 
BRANCH  14  15
ATOM     15  C   UNL     1     -12.955  -2.068   3.993  1.00  0.00    -0.000 C 
BRANCH  15  16
ATOM     16  C   UNL     1     -12.284  -2.309   5.356  1.00  0.00    -0.000 C 
BRANCH  16  17
ATOM     17  C   UNL     1     -12.694  -3.648   5.985  1.00  0.00    -0.003 C 
ATOM     18  C   UNL     1     -12.756  -4.785   4.965  1.00  0.00     0.004 C 
ENDBRANCH  16  17
ENDBRANCH  15  16
ENDBRANCH  14  15
ENDBRANCH  13  14
ENDBRANCH  12  13
ENDBRANCH  11  12
ENDBRANCH   1  11
TORSDOF 14
ENDMDL
MODEL 5
REMARK VINA RESULT:    -4.072      1.919      3.766
REMARK INTER + INTRA:          -9.452
REMARK INTER:                  -7.508
REMARK INTRA:                  -1.945
REMARK UNBOUND:                -2.048
REMARK SMILES CCCCCCCCCCCCCCCC(=O)[O-]
REMARK SMILES IDX 9 1 10 2 11 3 12 4 13 5 14 6 15 7 16 8 17 9 18 10 8 11 7 12
REMARK SMILES IDX 6 13 5 14 4 15 3 16 2 17 1 18
REMARK H PARENT
REMARK Flexibility Score: inf
ROOT
ATOM      1  C   UNL     1      -9.575  -2.281   2.758  1.00  0.00     0.000 C 
ENDROOT
BRANCH   1   2
ATOM      2  C   UNL     1      -8.920  -1.203   1.875  1.00  0.00     0.000 C 
BRANCH   2   3
ATOM      3  C   UNL     1      -8.683   0.156   2.561  1.00  0.00     0.000 C 
BRANCH   3   4
ATOM      4  C   UNL     1      -9.892   0.634   3.382  1.00  0.00     0.000 C 
BRANCH   4   5
ATOM      5  C   UNL     1     -10.851   1.514   2.562  1.00  0.00     0.000 C 
BRANCH   5   6
ATOM      6  C   UNL     1     -12.137   0.772   2.159  1.00  0.00     0.006 C 
BRANCH   6   7
ATOM      7  C   UNL     1     -13.148   0.703   3.311  1.00  0.00     0.053 C 
BRANCH   7   8
ATOM      8  C   UNL     1     -14.263   1.689   3.132  1.00  0.00     0.041 C 
ATOM      9  O   UNL     1     -14.027   2.836   2.671  1.00  0.00    -0.550 OA
ATOM     10  O   UNL     1     -15.558   1.349   3.504  1.00  0.00    -0.550 OA
ENDBRANCH   7   8
ENDBRANCH   6   7
ENDBRANCH   5   6
ENDBRANCH   4   5
ENDBRANCH   3   4
ENDBRANCH   2   3
ENDBRANCH   1   2
BRANCH   1  11
ATOM     11  C   UNL     1     -10.943  -2.742   2.227  1.00  0.00     0.000 C 
BRANCH  11  12
ATOM     12  C   UNL     1     -12.024  -2.796   3.322  1.00  0.00    -0.000 C 
BRANCH  12  13
ATOM     13  C   UNL     1     -11.499  -2.687   4.769  1.00  0.00    -0.000 C 
BRANCH  13  14
ATOM     14  C   UNL     1     -12.010  -3.773   5.736  1.00  0.00    -0.000 C 
BRANCH  14  15
ATOM     15  C   UNL     1     -11.474  -5.189   5.460  1.00  0.00    -0.000 C 
BRANCH  15  16
ATOM     16  C   UNL     1     -10.024  -5.186   4.946  1.00  0.00    -0.000 C 
BRANCH  16  17
ATOM     17  C   UNL     1      -8.997  -5.298   6.083  1.00  0.00    -0.003 C 
ATOM     18  C   UNL     1      -8.337  -3.960   6.414  1.00  0.00     0.004 C 
ENDBRANCH  16  17
ENDBRANCH  15  16
ENDBRANCH  14  15
ENDBRANCH  13  14
ENDBRANCH  12  13
ENDBRANCH  11  12
ENDBRANCH   1  11
TORSDOF 14
ENDMDL
MODEL 6
REMARK VINA RESULT:    -4.004      3.609      5.880
REMARK INTER + INTRA:          -9.329
REMARK INTER:                  -6.989
REMARK INTRA:                  -2.340
REMARK UNBOUND:                -2.048
REMARK SMILES CCCCCCCCCCCCCCCC(=O)[O-]
REMARK SMILES IDX 9 1 10 2 11 3 12 4 13 5 14 6 15 7 16 8 17 9 18 10 8 11 7 12
REMARK SMILES IDX 6 13 5 14 4 15 3 16 2 17 1 18
REMARK H PARENT
REMARK Flexibility Score: inf
ROOT
ATOM      1  C   UNL     1      -8.689  -4.195   5.962  1.00  0.00     0.000 C 
ENDROOT
BRANCH   1   2
ATOM      2  C   UNL     1     -10.047  -4.898   6.139  1.00  0.00     0.000 C 
BRANCH   2   3
ATOM      3  C   UNL     1     -10.028  -6.426   5.952  1.00  0.00     0.000 C 
BRANCH   3   4
ATOM      4  C   UNL     1     -11.280  -6.959   5.233  1.00  0.00     0.000 C 
BRANCH   4   5
ATOM      5  C   UNL     1     -12.395  -5.904   5.132  1.00  0.00     0.000 C 
BRANCH   5   6
ATOM      6  C   UNL     1     -12.787  -5.598   3.676  1.00  0.00     0.006 C 
BRANCH   6   7
ATOM      7  C   UNL     1     -14.282  -5.280   3.535  1.00  0.00     0.053 C 
BRANCH   7   8
ATOM      8  C   UNL     1     -15.031  -6.404   2.886  1.00  0.00     0.041 C 
ATOM      9  O   UNL     1     -14.626  -7.590   3.007  1.00  0.00    -0.550 OA
ATOM     10  O   UNL     1     -16.160  -6.136   2.122  1.00  0.00    -0.550 OA
ENDBRANCH   7   8
ENDBRANCH   6   7
ENDBRANCH   5   6
ENDBRANCH   4   5
ENDBRANCH   3   4
ENDBRANCH   2   3
ENDBRANCH   1   2
BRANCH   1  11
ATOM     11  C   UNL     1      -8.606  -3.365   4.670  1.00  0.00     0.000 C 
BRANCH  11  12
ATOM     12  C   UNL     1      -9.505  -3.912   3.547  1.00  0.00    -0.000 C 
BRANCH  12  13
ATOM     13  C   UNL     1     -10.100  -2.846   2.604  1.00  0.00    -0.000 C 
BRANCH  13  14
ATOM     14  C   UNL     1     -10.603  -1.564   3.297  1.00  0.00    -0.000 C 
BRANCH  14  15
ATOM     15  C   UNL     1     -12.080  -1.223   3.031  1.00  0.00    -0.000 C 
BRANCH  15  16
ATOM     16  C   UNL     1     -13.031  -1.857   4.061  1.00  0.00    -0.000 C 
BRANCH  16  17
ATOM     17  C   UNL     1     -12.359  -2.082   5.423  1.00  0.00    -0.003 C 
ATOM     18  C   UNL     1     -13.320  -2.650   6.467  1.00  0.00     0.004 C 
ENDBRANCH  16  17
ENDBRANCH  15  16
ENDBRANCH  14  15
ENDBRANCH  13  14
ENDBRANCH  12  13
ENDBRANCH  11  12
ENDBRANCH   1  11
TORSDOF 14
ENDMDL
MODEL 7
REMARK VINA RESULT:    -3.961      2.180      4.923
REMARK INTER + INTRA:          -9.251
REMARK INTER:                  -7.249
REMARK INTRA:                  -2.002
REMARK UNBOUND:                -2.048
REMARK SMILES CCCCCCCCCCCCCCCC(=O)[O-]
REMARK SMILES IDX 9 1 10 2 11 3 12 4 13 5 14 6 15 7 16 8 17 9 18 10 8 11 7 12
REMARK SMILES IDX 6 13 5 14 4 15 3 16 2 17 1 18
REMARK H PARENT
REMARK Flexibility Score: inf
ROOT
ATOM      1  C   UNL     1      -9.181  -6.024   6.351  1.00  0.00     0.000 C 
ENDROOT
BRANCH   1   2
ATOM      2  C   UNL     1     -10.598  -5.870   5.769  1.00  0.00     0.000 C 
BRANCH   2   3
ATOM      3  C   UNL     1     -11.744  -5.951   6.794  1.00  0.00     0.000 C 
BRANCH   3   4
ATOM      4  C   UNL     1     -12.909  -5.000   6.469  1.00  0.00     0.000 C 
BRANCH   4   5
ATOM      5  C   UNL     1     -12.708  -4.255   5.139  1.00  0.00     0.000 C 
BRANCH   5   6
ATOM      6  C   UNL     1     -12.752  -2.726   5.305  1.00  0.00     0.006 C 
BRANCH   6   7
ATOM      7  C   UNL     1     -13.430  -2.035   4.114  1.00  0.00     0.053 C 
BRANCH   7   8
ATOM      8  C   UNL     1     -14.672  -1.305   4.528  1.00  0.00     0.041 C 
ATOM      9  O   UNL     1     -15.608  -1.920   5.102  1.00  0.00    -0.550 OA
ATOM     10  O   UNL     1     -14.807   0.050   4.250  1.00  0.00    -0.550 OA
ENDBRANCH   7   8
ENDBRANCH   6   7
ENDBRANCH   5   6
ENDBRANCH   4   5
ENDBRANCH   3   4
ENDBRANCH   2   3
ENDBRANCH   1   2
BRANCH   1  11
ATOM     11  C   UNL     1      -8.431  -4.686   6.468  1.00  0.00     0.000 C 
BRANCH  11  12
ATOM     12  C   UNL     1      -9.141  -3.535   5.734  1.00  0.00    -0.000 C 
BRANCH  12  13
ATOM     13  C   UNL     1      -8.601  -3.223   4.323  1.00  0.00    -0.000 C 
BRANCH  13  14
ATOM     14  C   UNL     1      -9.609  -3.427   3.174  1.00  0.00    -0.000 C 
BRANCH  14  15
ATOM     15  C   UNL     1     -10.065  -2.133   2.478  1.00  0.00    -0.000 C 
BRANCH  15  16
ATOM     16  C   UNL     1      -9.835  -0.881   3.340  1.00  0.00    -0.000 C 
BRANCH  16  17
ATOM     17  C   UNL     1      -9.033   0.202   2.604  1.00  0.00    -0.003 C 
ATOM     18  C   UNL     1      -7.693  -0.313   2.078  1.00  0.00     0.004 C 
ENDBRANCH  16  17
ENDBRANCH  15  16
ENDBRANCH  14  15
ENDBRANCH  13  14
ENDBRANCH  12  13
ENDBRANCH  11  12
ENDBRANCH   1  11
TORSDOF 14
ENDMDL
MODEL 8
REMARK VINA RESULT:    -3.954      1.557      2.416
REMARK INTER + INTRA:          -9.238
REMARK INTER:                  -7.465
REMARK INTRA:                  -1.774
REMARK UNBOUND:                -2.048
REMARK SMILES CCCCCCCCCCCCCCCC(=O)[O-]
REMARK SMILES IDX 9 1 10 2 11 3 12 4 13 5 14 6 15 7 16 8 17 9 18 10 8 11 7 12
REMARK SMILES IDX 6 13 5 14 4 15 3 16 2 17 1 18
REMARK H PARENT
REMARK Flexibility Score: inf
ROOT
ATOM      1  C   UNL     1      -9.362  -2.225   4.041  1.00  0.00     0.000 C 
ENDROOT
BRANCH   1   2
ATOM      2  C   UNL     1      -8.940  -1.632   2.684  1.00  0.00     0.000 C 
BRANCH   2   3
ATOM      3  C   UNL     1      -8.704  -0.110   2.675  1.00  0.00     0.000 C 
BRANCH   3   4
ATOM      4  C   UNL     1     -10.006   0.698   2.550  1.00  0.00     0.000 C 
BRANCH   4   5
ATOM      5  C   UNL     1     -10.476   1.272   3.898  1.00  0.00     0.000 C 
BRANCH   5   6
ATOM      6  C   UNL     1     -11.796   0.645   4.379  1.00  0.00     0.006 C 
BRANCH   6   7
ATOM      7  C   UNL     1     -12.718   0.272   3.211  1.00  0.00     0.053 C 
BRANCH   7   8
ATOM      8  C   UNL     1     -13.690   1.368   2.896  1.00  0.00     0.041 C 
ATOM      9  O   UNL     1     -13.338   2.341   2.178  1.00  0.00    -0.550 OA
ATOM     10  O   UNL     1     -14.974   1.331   3.424  1.00  0.00    -0.550 OA
ENDBRANCH   7   8
ENDBRANCH   6   7
ENDBRANCH   5   6
ENDBRANCH   4   5
ENDBRANCH   3   4
ENDBRANCH   2   3
ENDBRANCH   1   2
BRANCH   1  11
ATOM     11  C   UNL     1      -8.584  -3.500   4.408  1.00  0.00     0.000 C 
BRANCH  11  12
ATOM     12  C   UNL     1      -8.677  -3.850   5.904  1.00  0.00    -0.000 C 
BRANCH  12  13
ATOM     13  C   UNL     1      -9.099  -5.301   6.214  1.00  0.00    -0.000 C 
BRANCH  13  14
ATOM     14  C   UNL     1      -9.700  -6.078   5.026  1.00  0.00    -0.000 C 
BRANCH  14  15
ATOM     15  C   UNL     1     -11.225  -6.276   5.088  1.00  0.00    -0.000 C 
BRANCH  15  16
ATOM     16  C   UNL     1     -11.998  -5.183   4.330  1.00  0.00    -0.000 C 
BRANCH  16  17
ATOM     17  C   UNL     1     -12.977  -4.419   5.234  1.00  0.00    -0.003 C 
ATOM     18  C   UNL     1     -12.364  -3.150   5.825  1.00  0.00     0.004 C 
ENDBRANCH  16  17
ENDBRANCH  15  16
ENDBRANCH  14  15
ENDBRANCH  13  14
ENDBRANCH  12  13
ENDBRANCH  11  12
ENDBRANCH   1  11
TORSDOF 14
ENDMDL
MODEL 9
REMARK VINA RESULT:    -3.936      3.379      6.251
REMARK INTER + INTRA:          -9.205
REMARK INTER:                  -7.461
REMARK INTRA:                  -1.744
REMARK UNBOUND:                -2.048
REMARK SMILES CCCCCCCCCCCCCCCC(=O)[O-]
REMARK SMILES IDX 9 1 10 2 11 3 12 4 13 5 14 6 15 7 16 8 17 9 18 10 8 11 7 12
REMARK SMILES IDX 6 13 5 14 4 15 3 16 2 17 1 18
REMARK H PARENT
REMARK Flexibility Score: inf
ROOT
ATOM      1  C   UNL     1      -9.484  -3.207   5.301  1.00  0.00     0.000 C 
ENDROOT
BRANCH   1   2
ATOM      2  C   UNL     1      -8.756  -4.246   6.173  1.00  0.00     0.000 C 
BRANCH   2   3
ATOM      3  C   UNL     1      -9.533  -5.549   6.433  1.00  0.00     0.000 C 
BRANCH   3   4
ATOM      4  C   UNL     1      -9.749  -6.384   5.159  1.00  0.00     0.000 C 
BRANCH   4   5
ATOM      5  C   UNL     1     -11.237  -6.646   4.871  1.00  0.00     0.000 C 
BRANCH   5   6
ATOM      6  C   UNL     1     -12.055  -5.347   4.760  1.00  0.00     0.006 C 
BRANCH   6   7
ATOM      7  C   UNL     1     -13.057  -5.393   3.599  1.00  0.00     0.053 C 
BRANCH   7   8
ATOM      8  C   UNL     1     -14.207  -6.308   3.892  1.00  0.00     0.041 C 
ATOM      9  O   UNL     1     -14.823  -6.222   4.986  1.00  0.00    -0.550 OA
ATOM     10  O   UNL     1     -14.578  -7.276   2.966  1.00  0.00    -0.550 OA
ENDBRANCH   7   8
ENDBRANCH   6   7
ENDBRANCH   5   6
ENDBRANCH   4   5
ENDBRANCH   3   4
ENDBRANCH   2   3
ENDBRANCH   1   2
BRANCH   1  11
ATOM     11  C   UNL     1      -8.791  -2.965   3.948  1.00  0.00     0.000 C 
BRANCH  11  12
ATOM     12  C   UNL     1      -9.787  -2.772   2.791  1.00  0.00    -0.000 C 
BRANCH  12  13
ATOM     13  C   UNL     1      -9.503  -1.563   1.875  1.00  0.00    -0.000 C 
BRANCH  13  14
ATOM     14  C   UNL     1      -9.062  -0.278   2.603  1.00  0.00    -0.000 C 
BRANCH  14  15
ATOM     15  C   UNL     1     -10.213   0.646   3.037  1.00  0.00    -0.000 C 
BRANCH  15  16
ATOM     16  C   UNL     1     -10.626   0.434   4.504  1.00  0.00    -0.000 C 
BRANCH  16  17
ATOM     17  C   UNL     1     -12.050  -0.124   4.640  1.00  0.00    -0.003 C 
ATOM     18  C   UNL     1     -12.701  -0.412   3.288  1.00  0.00     0.004 C 
ENDBRANCH  16  17
ENDBRANCH  15  16
ENDBRANCH  14  15
ENDBRANCH  13  14
ENDBRANCH  12  13
ENDBRANCH  11  12
ENDBRANCH   1  11
TORSDOF 14
ENDMDL
