MODEL 1
REMARK VINA RESULT:     3.790      0.000      0.000
REMARK INTER + INTRA:           6.013
REMARK INTER:                   6.891
REMARK INTRA:                  -0.878
REMARK UNBOUND:                -0.878
REMARK SMILES CCCCCC=CCC=CCCCCCCCC(=O)[O-]
REMARK SMILES IDX 11 1 12 2 13 3 14 4 15 5 16 6 17 7 18 8 19 9 20 10 10 11
REMARK SMILES IDX 9 12 8 13 7 14 6 15 5 16 4 17 3 18 2 19 1 20
REMARK H PARENT
REMARK Flexibility Score: inf
ROOT
ATOM      1  C   UNL     1      31.277  17.533   5.506  1.00  0.00     0.027 C 
ENDROOT
BRANCH   1   2
ATOM      2  C   UNL     1      30.340  17.397   6.716  1.00  0.00     0.004 C 
BRANCH   2   3
ATOM      3  C   UNL     1      29.851  15.951   6.905  1.00  0.00     0.000 C 
BRANCH   3   4
ATOM      4  C   UNL     1      29.535  15.611   8.373  1.00  0.00     0.000 C 
BRANCH   4   5
ATOM      5  C   UNL     1      29.652  16.790   9.355  1.00  0.00     0.000 C 
BRANCH   5   6
ATOM      6  C   UNL     1      28.306  17.183   9.981  1.00  0.00     0.006 C 
BRANCH   6   7
ATOM      7  C   UNL     1      28.454  18.425  10.865  1.00  0.00     0.053 C 
BRANCH   7   8
ATOM      8  C   UNL     1      27.576  19.530  10.369  1.00  0.00     0.041 C 
ATOM      9  O   UNL     1      27.409  20.567  11.062  1.00  0.00    -0.550 OA
ATOM     10  O   UNL     1      26.900  19.393   9.163  1.00  0.00    -0.550 OA
ENDBRANCH   7   8
ENDBRANCH   6   7
ENDBRANCH   5   6
ENDBRANCH   4   5
ENDBRANCH   3   4
ENDBRANCH   2   3
ENDBRANCH   1   2
BRANCH   1  11
ATOM     11  C   UNL     1      30.940  18.733   4.656  1.00  0.00    -0.031 C 
ATOM     12  C   UNL     1      29.833  18.855   3.899  1.00  0.00    -0.027 C 
BRANCH  12  13
ATOM     13  C   UNL     1      28.722  17.839   3.815  1.00  0.00     0.054 C 
BRANCH  13  14
ATOM     14  C   UNL     1      28.383  17.560   2.379  1.00  0.00    -0.027 C 
ATOM     15  C   UNL     1      28.727  18.410   1.399  1.00  0.00    -0.031 C 
BRANCH  15  16
ATOM     16  C   UNL     1      28.396  18.127  -0.040  1.00  0.00     0.027 C 
BRANCH  16  17
ATOM     17  C   UNL     1      29.206  16.934  -0.570  1.00  0.00     0.004 C 
BRANCH  17  18
ATOM     18  C   UNL     1      28.424  16.099  -1.595  1.00  0.00     0.000 C 
BRANCH  18  19
ATOM     19  C   UNL     1      29.284  15.006  -2.246  1.00  0.00    -0.003 C 
ATOM     20  C   UNL     1      30.735  15.458  -2.385  1.00  0.00     0.004 C 
ENDBRANCH  18  19
ENDBRANCH  17  18
ENDBRANCH  16  17
ENDBRANCH  15  16
ENDBRANCH  13  14
ENDBRANCH  12  13
ENDBRANCH   1  11
TORSDOF 14
ENDMDL
MODEL 2
REMARK VINA RESULT:     3.932      1.108      1.365
REMARK INTER + INTRA:           6.271
REMARK INTER:                   6.963
REMARK INTRA:                  -0.692
REMARK UNBOUND:                -0.878
REMARK SMILES CCCCCC=CCC=CCCCCCCCC(=O)[O-]
REMARK SMILES IDX 11 1 12 2 13 3 14 4 15 5 16 6 17 7 18 8 19 9 20 10 10 11
REMARK SMILES IDX 9 12 8 13 7 14 6 15 5 16 4 17 3 18 2 19 1 20
REMARK H PARENT
REMARK Flexibility Score: inf
ROOT
ATOM      1  C   UNL     1      31.090  17.335   5.556  1.00  0.00     0.027 C 
ENDROOT
BRANCH   1   2
ATOM      2  C   UNL     1      30.261  17.096   6.827  1.00  0.00     0.004 C 
BRANCH   2   3
ATOM      3  C   UNL     1      29.957  15.603   7.044  1.00  0.00     0.000 C 
BRANCH   3   4
ATOM      4  C   UNL     1      29.833  15.226   8.532  1.00  0.00     0.000 C 
BRANCH   4   5
ATOM      5  C   UNL     1      28.434  14.762   8.972  1.00  0.00     0.000 C 
BRANCH   5   6
ATOM      6  C   UNL     1      27.701  15.802   9.831  1.00  0.00     0.006 C 
BRANCH   6   7
ATOM      7  C   UNL     1      27.915  17.216   9.284  1.00  0.00     0.053 C 
BRANCH   7   8
ATOM      8  C   UNL     1      28.436  18.120  10.354  1.00  0.00     0.041 C 
ATOM      9  O   UNL     1      29.523  17.859  10.933  1.00  0.00    -0.550 OA
ATOM     10  O   UNL     1      27.696  19.228  10.750  1.00  0.00    -0.550 OA
ENDBRANCH   7   8
ENDBRANCH   6   7
ENDBRANCH   5   6
ENDBRANCH   4   5
ENDBRANCH   3   4
ENDBRANCH   2   3
ENDBRANCH   1   2
BRANCH   1  11
ATOM     11  C   UNL     1      30.879  18.717   4.989  1.00  0.00    -0.031 C 
ATOM     12  C   UNL     1      29.996  19.025   4.020  1.00  0.00    -0.027 C 
BRANCH  12  13
ATOM     13  C   UNL     1      29.037  18.055   3.377  1.00  0.00     0.054 C 
BRANCH  13  14
ATOM     14  C   UNL     1      28.729  18.485   1.972  1.00  0.00    -0.027 C 
ATOM     15  C   UNL     1      28.539  17.590   0.990  1.00  0.00    -0.031 C 
BRANCH  15  16
ATOM     16  C   UNL     1      28.221  18.020  -0.416  1.00  0.00     0.027 C 
BRANCH  16  17
ATOM     17  C   UNL     1      28.011  16.804  -1.331  1.00  0.00     0.004 C 
BRANCH  17  18
ATOM     18  C   UNL     1      29.151  15.780  -1.225  1.00  0.00     0.000 C 
BRANCH  18  19
ATOM     19  C   UNL     1      29.848  15.529  -2.570  1.00  0.00    -0.003 C 
ATOM     20  C   UNL     1      31.293  15.083  -2.367  1.00  0.00     0.004 C 
ENDBRANCH  18  19
ENDBRANCH  17  18
ENDBRANCH  16  17
ENDBRANCH  15  16
ENDBRANCH  13  14
ENDBRANCH  12  13
ENDBRANCH   1  11
TORSDOF 14
ENDMDL
MODEL 3
REMARK VINA RESULT:     4.257      4.448      9.645
REMARK INTER + INTRA:           6.863
REMARK INTER:                   7.937
REMARK INTRA:                  -1.074
REMARK UNBOUND:                -0.878
REMARK SMILES CCCCCC=CCC=CCCCCCCCC(=O)[O-]
REMARK SMILES IDX 11 1 12 2 13 3 14 4 15 5 16 6 17 7 18 8 19 9 20 10 10 11
REMARK SMILES IDX 9 12 8 13 7 14 6 15 5 16 4 17 3 18 2 19 1 20
REMARK H PARENT
REMARK Flexibility Score: inf
ROOT
ATOM      1  C   UNL     1      28.812  17.709   3.951  1.00  0.00     0.027 C 
ENDROOT
BRANCH   1   2
ATOM      2  C   UNL     1      28.306  17.810   2.504  1.00  0.00     0.004 C 
BRANCH   2   3
ATOM      3  C   UNL     1      29.043  18.903   1.711  1.00  0.00     0.000 C 
BRANCH   3   4
ATOM      4  C   UNL     1      29.193  18.563   0.217  1.00  0.00     0.000 C 
BRANCH   4   5
ATOM      5  C   UNL     1      27.889  18.158  -0.493  1.00  0.00     0.000 C 
BRANCH   5   6
ATOM      6  C   UNL     1      27.987  16.795  -1.193  1.00  0.00     0.006 C 
BRANCH   6   7
ATOM      7  C   UNL     1      29.322  16.113  -0.882  1.00  0.00     0.053 C 
BRANCH   7   8
ATOM      8  C   UNL     1      29.806  15.341  -2.068  1.00  0.00     0.041 C 
ATOM      9  O   UNL     1      28.998  14.672  -2.763  1.00  0.00    -0.550 OA
ATOM     10  O   UNL     1      31.161  15.318  -2.377  1.00  0.00    -0.550 OA
ENDBRANCH   7   8
ENDBRANCH   6   7
ENDBRANCH   5   6
ENDBRANCH   4   5
ENDBRANCH   3   4
ENDBRANCH   2   3
ENDBRANCH   1   2
BRANCH   1  11
ATOM     11  C   UNL     1      29.796  18.802   4.289  1.00  0.00    -0.031 C 
ATOM     12  C   UNL     1      30.889  18.644   5.060  1.00  0.00    -0.027 C 
BRANCH  12  13
ATOM     13  C   UNL     1      31.340  17.341   5.672  1.00  0.00     0.054 C 
BRANCH  13  14
ATOM     14  C   UNL     1      30.554  17.053   6.918  1.00  0.00    -0.027 C 
ATOM     15  C   UNL     1      29.916  15.885   7.090  1.00  0.00    -0.031 C 
BRANCH  15  16
ATOM     16  C   UNL     1      29.135  15.592   8.342  1.00  0.00     0.027 C 
BRANCH  16  17
ATOM     17  C   UNL     1      29.420  16.639   9.429  1.00  0.00     0.004 C 
BRANCH  17  18
ATOM     18  C   UNL     1      28.219  17.561   9.690  1.00  0.00     0.000 C 
BRANCH  18  19
ATOM     19  C   UNL     1      28.475  18.556  10.832  1.00  0.00    -0.003 C 
ATOM     20  C   UNL     1      27.485  19.716  10.782  1.00  0.00     0.004 C 
ENDBRANCH  18  19
ENDBRANCH  17  18
ENDBRANCH  16  17
ENDBRANCH  15  16
ENDBRANCH  13  14
ENDBRANCH  12  13
ENDBRANCH   1  11
TORSDOF 14
ENDMDL
MODEL 4
REMARK VINA RESULT:     5.039      4.607      9.389
REMARK INTER + INTRA:           8.285
REMARK INTER:                   9.161
REMARK INTRA:                  -0.876
REMARK UNBOUND:                -0.878
REMARK SMILES CCCCCC=CCC=CCCCCCCCC(=O)[O-]
REMARK SMILES IDX 11 1 12 2 13 3 14 4 15 5 16 6 17 7 18 8 19 9 20 10 10 11
REMARK SMILES IDX 9 12 8 13 7 14 6 15 5 16 4 17 3 18 2 19 1 20
REMARK H PARENT
REMARK Flexibility Score: inf
ROOT
ATOM      1  C   UNL     1      28.868  17.642   3.622  1.00  0.00     0.027 C 
ENDROOT
BRANCH   1   2
ATOM      2  C   UNL     1      28.300  17.921   2.222  1.00  0.00     0.004 C 
BRANCH   2   3
ATOM      3  C   UNL     1      29.155  18.937   1.446  1.00  0.00     0.000 C 
BRANCH   3   4
ATOM      4  C   UNL     1      28.994  18.815  -0.081  1.00  0.00     0.000 C 
BRANCH   4   5
ATOM      5  C   UNL     1      27.721  18.087  -0.546  1.00  0.00     0.000 C 
BRANCH   5   6
ATOM      6  C   UNL     1      28.015  16.750  -1.240  1.00  0.00     0.006 C 
BRANCH   6   7
ATOM      7  C   UNL     1      29.458  16.305  -0.985  1.00  0.00     0.053 C 
BRANCH   7   8
ATOM      8  C   UNL     1      29.929  15.400  -2.079  1.00  0.00     0.041 C 
ATOM      9  O   UNL     1      29.102  14.722  -2.743  1.00  0.00    -0.550 OA
ATOM     10  O   UNL     1      31.289  15.265  -2.332  1.00  0.00    -0.550 OA
ENDBRANCH   7   8
ENDBRANCH   6   7
ENDBRANCH   5   6
ENDBRANCH   4   5
ENDBRANCH   3   4
ENDBRANCH   2   3
ENDBRANCH   1   2
BRANCH   1  11
ATOM     11  C   UNL     1      29.646  18.814   4.166  1.00  0.00    -0.031 C 
ATOM     12  C   UNL     1      30.657  18.725   5.051  1.00  0.00    -0.027 C 
BRANCH  12  13
ATOM     13  C   UNL     1      31.216  17.437   5.605  1.00  0.00     0.054 C 
BRANCH  13  14
ATOM     14  C   UNL     1      30.270  16.854   6.614  1.00  0.00    -0.027 C 
ATOM     15  C   UNL     1      30.447  17.043   7.931  1.00  0.00    -0.031 C 
BRANCH  15  16
ATOM     16  C   UNL     1      29.495  16.467   8.943  1.00  0.00     0.027 C 
BRANCH  16  17
ATOM     17  C   UNL     1      29.080  15.038   8.562  1.00  0.00     0.004 C 
BRANCH  17  18
ATOM     18  C   UNL     1      28.069  14.434   9.548  1.00  0.00     0.000 C 
BRANCH  18  19
ATOM     19  C   UNL     1      26.614  14.640   9.104  1.00  0.00    -0.003 C 
ATOM     20  C   UNL     1      26.091  13.419   8.351  1.00  0.00     0.004 C 
ENDBRANCH  18  19
ENDBRANCH  17  18
ENDBRANCH  16  17
ENDBRANCH  15  16
ENDBRANCH  13  14
ENDBRANCH  12  13
ENDBRANCH   1  11
TORSDOF 14
ENDMDL
MODEL 5
REMARK VINA RESULT:     5.076      2.231      2.809
REMARK INTER + INTRA:           8.352
REMARK INTER:                   9.148
REMARK INTRA:                  -0.796
REMARK UNBOUND:                -0.878
REMARK SMILES CCCCCC=CCC=CCCCCCCCC(=O)[O-]
REMARK SMILES IDX 11 1 12 2 13 3 14 4 15 5 16 6 17 7 18 8 19 9 20 10 10 11
REMARK SMILES IDX 9 12 8 13 7 14 6 15 5 16 4 17 3 18 2 19 1 20
REMARK H PARENT
REMARK Flexibility Score: inf
ROOT
ATOM      1  C   UNL     1      31.326  17.486   5.399  1.00  0.00     0.027 C 
ENDROOT
BRANCH   1   2
ATOM      2  C   UNL     1      30.616  17.450   6.761  1.00  0.00     0.004 C 
BRANCH   2   3
ATOM      3  C   UNL     1      29.899  16.110   7.001  1.00  0.00     0.000 C 
BRANCH   3   4
ATOM      4  C   UNL     1      29.958  15.653   8.470  1.00  0.00     0.000 C 
BRANCH   4   5
ATOM      5  C   UNL     1      29.008  16.399   9.424  1.00  0.00     0.000 C 
BRANCH   5   6
ATOM      6  C   UNL     1      27.653  15.696   9.591  1.00  0.00     0.006 C 
BRANCH   6   7
ATOM      7  C   UNL     1      27.637  14.353   8.856  1.00  0.00     0.053 C 
BRANCH   7   8
ATOM      8  C   UNL     1      26.234  13.865   8.684  1.00  0.00     0.041 C 
ATOM      9  O   UNL     1      25.270  14.529   9.148  1.00  0.00    -0.550 OA
ATOM     10  O   UNL     1      25.992  12.650   8.055  1.00  0.00    -0.550 OA
ENDBRANCH   7   8
ENDBRANCH   6   7
ENDBRANCH   5   6
ENDBRANCH   4   5
ENDBRANCH   3   4
ENDBRANCH   2   3
ENDBRANCH   1   2
BRANCH   1  11
ATOM     11  C   UNL     1      30.981  18.723   4.608  1.00  0.00    -0.031 C 
ATOM     12  C   UNL     1      29.887  18.864   3.835  1.00  0.00    -0.027 C 
BRANCH  12  13
ATOM     13  C   UNL     1      28.800  17.831   3.672  1.00  0.00     0.054 C 
BRANCH  13  14
ATOM     14  C   UNL     1      28.349  17.775   2.241  1.00  0.00    -0.027 C 
ATOM     15  C   UNL     1      28.770  18.674   1.337  1.00  0.00    -0.031 C 
BRANCH  15  16
ATOM     16  C   UNL     1      28.327  18.613  -0.098  1.00  0.00     0.027 C 
BRANCH  16  17
ATOM     17  C   UNL     1      28.098  17.162  -0.546  1.00  0.00     0.004 C 
BRANCH  17  18
ATOM     18  C   UNL     1      29.411  16.416  -0.827  1.00  0.00     0.000 C 
BRANCH  18  19
ATOM     19  C   UNL     1      29.268  15.365  -1.937  1.00  0.00    -0.003 C 
ATOM     20  C   UNL     1      30.543  15.268  -2.770  1.00  0.00     0.004 C 
ENDBRANCH  18  19
ENDBRANCH  17  18
ENDBRANCH  16  17
ENDBRANCH  15  16
ENDBRANCH  13  14
ENDBRANCH  12  13
ENDBRANCH   1  11
TORSDOF 14
ENDMDL
MODEL 6
REMARK VINA RESULT:     5.129      2.232      2.837
REMARK INTER + INTRA:           8.449
REMARK INTER:                   8.546
REMARK INTRA:                  -0.098
REMARK UNBOUND:                -0.878
REMARK SMILES CCCCCC=CCC=CCCCCCCCC(=O)[O-]
REMARK SMILES IDX 11 1 12 2 13 3 14 4 15 5 16 6 17 7 18 8 19 9 20 10 10 11
REMARK SMILES IDX 9 12 8 13 7 14 6 15 5 16 4 17 3 18 2 19 1 20
REMARK H PARENT
REMARK Flexibility Score: inf
ROOT
ATOM      1  C   UNL     1      30.239  18.803   4.464  1.00  0.00     0.027 C 
ENDROOT
BRANCH   1   2
ATOM      2  C   UNL     1      31.297  17.904   5.121  1.00  0.00     0.004 C 
BRANCH   2   3
ATOM      3  C   UNL     1      30.954  17.588   6.587  1.00  0.00     0.000 C 
BRANCH   3   4
ATOM      4  C   UNL     1      30.024  16.371   6.737  1.00  0.00     0.000 C 
BRANCH   4   5
ATOM      5  C   UNL     1      30.008  15.731   8.137  1.00  0.00     0.000 C 
BRANCH   5   6
ATOM      6  C   UNL     1      29.408  16.651   9.210  1.00  0.00     0.006 C 
BRANCH   6   7
ATOM      7  C   UNL     1      27.987  16.214   9.575  1.00  0.00     0.053 C 
BRANCH   7   8
ATOM      8  C   UNL     1      27.821  14.742   9.368  1.00  0.00     0.041 C 
ATOM      9  O   UNL     1      28.761  13.952   9.642  1.00  0.00    -0.550 OA
ATOM     10  O   UNL     1      26.643  14.245   8.823  1.00  0.00    -0.550 OA
ENDBRANCH   7   8
ENDBRANCH   6   7
ENDBRANCH   5   6
ENDBRANCH   4   5
ENDBRANCH   3   4
ENDBRANCH   2   3
ENDBRANCH   1   2
BRANCH   1  11
ATOM     11  C   UNL     1      29.120  18.005   3.841  1.00  0.00    -0.031 C 
ATOM     12  C   UNL     1      28.698  18.132   2.568  1.00  0.00    -0.027 C 
BRANCH  12  13
ATOM     13  C   UNL     1      29.304  19.054   1.540  1.00  0.00     0.054 C 
BRANCH  13  14
ATOM     14  C   UNL     1      28.706  18.789   0.189  1.00  0.00    -0.027 C 
ATOM     15  C   UNL     1      28.155  17.603  -0.114  1.00  0.00    -0.031 C 
BRANCH  15  16
ATOM     16  C   UNL     1      27.547  17.338  -1.463  1.00  0.00     0.027 C 
BRANCH  16  17
ATOM     17  C   UNL     1      27.799  15.890  -1.909  1.00  0.00     0.004 C 
BRANCH  17  18
ATOM     18  C   UNL     1      29.223  15.412  -1.587  1.00  0.00     0.000 C 
BRANCH  18  19
ATOM     19  C   UNL     1      30.130  15.382  -2.826  1.00  0.00    -0.003 C 
ATOM     20  C   UNL     1      31.569  15.044  -2.446  1.00  0.00     0.004 C 
ENDBRANCH  18  19
ENDBRANCH  17  18
ENDBRANCH  16  17
ENDBRANCH  15  16
ENDBRANCH  13  14
ENDBRANCH  12  13
ENDBRANCH   1  11
TORSDOF 14
ENDMDL
MODEL 7
REMARK VINA RESULT:     5.927      5.227      9.322
REMARK INTER + INTRA:           9.900
REMARK INTER:                  10.461
REMARK INTRA:                  -0.561
REMARK UNBOUND:                -0.878
REMARK SMILES CCCCCC=CCC=CCCCCCCCC(=O)[O-]
REMARK SMILES IDX 11 1 12 2 13 3 14 4 15 5 16 6 17 7 18 8 19 9 20 10 10 11
REMARK SMILES IDX 9 12 8 13 7 14 6 15 5 16 4 17 3 18 2 19 1 20
REMARK H PARENT
REMARK Flexibility Score: inf
ROOT
ATOM      1  C   UNL     1      29.854  16.449   6.781  1.00  0.00     0.027 C 
ENDROOT
BRANCH   1   2
ATOM      2  C   UNL     1      31.034  17.222   6.174  1.00  0.00     0.004 C 
BRANCH   2   3
ATOM      3  C   UNL     1      30.569  18.467   5.399  1.00  0.00     0.000 C 
BRANCH   3   4
ATOM      4  C   UNL     1      29.366  18.188   4.480  1.00  0.00     0.000 C 
BRANCH   4   5
ATOM      5  C   UNL     1      29.464  18.804   3.073  1.00  0.00     0.000 C 
BRANCH   5   6
ATOM      6  C   UNL     1      28.696  18.002   2.013  1.00  0.00     0.006 C 
BRANCH   6   7
ATOM      7  C   UNL     1      28.928  18.579   0.613  1.00  0.00     0.053 C 
BRANCH   7   8
ATOM      8  C   UNL     1      28.180  17.787  -0.412  1.00  0.00     0.041 C 
ATOM      9  O   UNL     1      27.140  18.258  -0.942  1.00  0.00    -0.550 OA
ATOM     10  O   UNL     1      28.602  16.506  -0.745  1.00  0.00    -0.550 OA
ENDBRANCH   7   8
ENDBRANCH   6   7
ENDBRANCH   5   6
ENDBRANCH   4   5
ENDBRANCH   3   4
ENDBRANCH   2   3
ENDBRANCH   1   2
BRANCH   1  11
ATOM     11  C   UNL     1      29.740  16.659   8.270  1.00  0.00    -0.031 C 
ATOM     12  C   UNL     1      29.097  15.833   9.119  1.00  0.00    -0.027 C 
BRANCH  12  13
ATOM     13  C   UNL     1      28.430  14.537   8.731  1.00  0.00     0.054 C 
BRANCH  13  14
ATOM     14  C   UNL     1      26.960  14.600   9.032  1.00  0.00    -0.027 C 
ATOM     15  C   UNL     1      26.114  13.655   8.596  1.00  0.00    -0.031 C 
BRANCH  15  16
ATOM     16  C   UNL     1      24.643  13.712   8.904  1.00  0.00     0.027 C 
BRANCH  16  17
ATOM     17  C   UNL     1      23.945  12.401   8.514  1.00  0.00     0.004 C 
BRANCH  17  18
ATOM     18  C   UNL     1      23.141  11.793   9.674  1.00  0.00     0.000 C 
BRANCH  18  19
ATOM     19  C   UNL     1      21.965  10.932   9.190  1.00  0.00    -0.003 C 
ATOM     20  C   UNL     1      21.917   9.599   9.931  1.00  0.00     0.004 C 
ENDBRANCH  18  19
ENDBRANCH  17  18
ENDBRANCH  16  17
ENDBRANCH  15  16
ENDBRANCH  13  14
ENDBRANCH  12  13
ENDBRANCH   1  11
TORSDOF 14
ENDMDL
