MODEL 1
REMARK VINA RESULT:    -7.009      0.000      0.000
REMARK INTER + INTRA:          -8.947
REMARK INTER:                  -8.648
REMARK INTRA:                  -0.300
REMARK UNBOUND:                -0.300
REMARK SMILES Oc1cc(O)c2cc(O)c(-c3cc(O)c(O)c(O)c3)[o+]c2c1
REMARK SMILES IDX 10 1 20 2 21 3 22 4 2 5 3 6 4 7 6 8 7 9 8 10 11 11 12 12
REMARK SMILES IDX 13 13 19 14 15 15 17 16 14 17 16 19 18 21 9 23 1 25 5 27
REMARK H PARENT 14 18 16 20 18 22 9 24 1 26 5 28
REMARK Flexibility Score: inf
ROOT
ATOM      1  C   UNL     1       3.804  36.316  27.920  1.00  0.00     0.402 A 
ATOM      2  O   UNL     1       4.620  36.113  26.889  1.00  0.00    -0.202 OA
ATOM      3  C   UNL     1       5.089  37.095  26.125  1.00  0.00     0.368 A 
ATOM      4  C   UNL     1       5.944  36.783  25.066  1.00  0.00     0.162 A 
ATOM      5  C   UNL     1       6.455  37.796  24.249  1.00  0.00     0.128 A 
ATOM      6  C   UNL     1       6.109  39.126  24.494  1.00  0.00     0.093 A 
ATOM      7  C   UNL     1       5.254  39.466  25.550  1.00  0.00     0.136 A 
ATOM      8  C   UNL     1       4.730  38.440  26.380  1.00  0.00     0.125 A 
ATOM      9  C   UNL     1       3.857  38.686  27.452  1.00  0.00     0.078 A 
ATOM     10  C   UNL     1       3.379  37.622  28.224  1.00  0.00     0.223 A 
ENDROOT
BRANCH   1  11
ATOM     11  C   UNL     1       3.357  35.140  28.701  1.00  0.00     0.091 A 
ATOM     12  C   UNL     1       2.411  34.237  28.187  1.00  0.00     0.068 A 
ATOM     13  C   UNL     1       1.983  33.142  28.952  1.00  0.00     0.162 A 
ATOM     14  C   UNL     1       3.841  34.953  30.005  1.00  0.00     0.068 A 
ATOM     15  C   UNL     1       2.491  32.950  30.248  1.00  0.00     0.200 A 
ATOM     16  C   UNL     1       3.421  33.864  30.774  1.00  0.00     0.162 A 
BRANCH  13  17
ATOM     17  O   UNL     1       1.049  32.249  28.429  1.00  0.00    -0.504 OA
ATOM     18  H   UNL     1       1.062  31.977  27.454  1.00  0.00     0.293 HD
ENDBRANCH  13  17
BRANCH  15  19
ATOM     19  O   UNL     1       2.079  31.863  31.021  1.00  0.00    -0.502 OA
ATOM     20  H   UNL     1       1.168  31.830  31.461  1.00  0.00     0.293 HD
ENDBRANCH  15  19
BRANCH  16  21
ATOM     21  O   UNL     1       3.938  33.705  32.060  1.00  0.00    -0.504 OA
ATOM     22  H   UNL     1       4.912  33.478  32.224  1.00  0.00     0.293 HD
ENDBRANCH  16  21
ENDBRANCH   1  11
BRANCH  10  23
ATOM     23  O   UNL     1       2.472  37.861  29.257  1.00  0.00    -0.500 OA
ATOM     24  H   UNL     1       1.927  38.714  29.301  1.00  0.00     0.294 HD
ENDBRANCH  10  23
BRANCH   5  25
ATOM     25  O   UNL     1       7.308  37.492  23.191  1.00  0.00    -0.507 OA
ATOM     26  H   UNL     1       7.087  36.760  22.526  1.00  0.00     0.293 HD
ENDBRANCH   5  25
BRANCH   7  27
ATOM     27  O   UNL     1       4.960  40.821  25.730  1.00  0.00    -0.507 OA
ATOM     28  H   UNL     1       4.096  41.169  26.120  1.00  0.00     0.293 HD
ENDBRANCH   7  27
TORSDOF 7
ENDMDL
MODEL 2
REMARK VINA RESULT:    -6.730      2.216      2.800
REMARK INTER + INTRA:          -8.603
REMARK INTER:                  -8.299
REMARK INTRA:                  -0.305
REMARK UNBOUND:                -0.300
REMARK SMILES Oc1cc(O)c2cc(O)c(-c3cc(O)c(O)c(O)c3)[o+]c2c1
REMARK SMILES IDX 10 1 20 2 21 3 22 4 2 5 3 6 4 7 6 8 7 9 8 10 11 11 12 12
REMARK SMILES IDX 13 13 19 14 15 15 17 16 14 17 16 19 18 21 9 23 1 25 5 27
REMARK H PARENT 14 18 16 20 18 22 9 24 1 26 5 28
REMARK Flexibility Score: inf
ROOT
ATOM      1  C   UNL     1       4.144  35.542  28.944  1.00  0.00     0.402 A 
ATOM      2  O   UNL     1       5.272  36.144  29.311  1.00  0.00    -0.202 OA
ATOM      3  C   UNL     1       5.808  37.160  28.642  1.00  0.00     0.368 A 
ATOM      4  C   UNL     1       6.995  37.731  29.108  1.00  0.00     0.162 A 
ATOM      5  C   UNL     1       7.578  38.802  28.425  1.00  0.00     0.128 A 
ATOM      6  C   UNL     1       6.971  39.305  27.273  1.00  0.00     0.093 A 
ATOM      7  C   UNL     1       5.781  38.751  26.785  1.00  0.00     0.136 A 
ATOM      8  C   UNL     1       5.186  37.661  27.473  1.00  0.00     0.125 A 
ATOM      9  C   UNL     1       4.002  37.035  27.050  1.00  0.00     0.078 A 
ATOM     10  C   UNL     1       3.478  35.963  27.779  1.00  0.00     0.223 A 
ENDROOT
BRANCH   1  11
ATOM     11  C   UNL     1       3.642  34.426  29.779  1.00  0.00     0.091 A 
ATOM     12  C   UNL     1       4.256  33.162  29.757  1.00  0.00     0.068 A 
ATOM     13  C   UNL     1       3.753  32.112  30.537  1.00  0.00     0.162 A 
ATOM     14  C   UNL     1       2.495  34.614  30.565  1.00  0.00     0.068 A 
ATOM     15  C   UNL     1       2.616  32.316  31.338  1.00  0.00     0.200 A 
ATOM     16  C   UNL     1       1.986  33.572  31.346  1.00  0.00     0.162 A 
BRANCH  13  17
ATOM     17  O   UNL     1       4.374  30.865  30.512  1.00  0.00    -0.504 OA
ATOM     18  H   UNL     1       4.064  30.129  29.889  1.00  0.00     0.293 HD
ENDBRANCH  13  17
BRANCH  15  19
ATOM     19  O   UNL     1       2.104  31.283  32.125  1.00  0.00    -0.502 OA
ATOM     20  H   UNL     1       2.362  30.315  31.977  1.00  0.00     0.293 HD
ENDBRANCH  15  19
BRANCH  16  21
ATOM     21  O   UNL     1       0.852  33.805  32.125  1.00  0.00    -0.504 OA
ATOM     22  H   UNL     1       0.909  33.969  33.123  1.00  0.00     0.293 HD
ENDBRANCH  16  21
ENDBRANCH   1  11
BRANCH  10  23
ATOM     23  O   UNL     1       2.330  35.309  27.331  1.00  0.00    -0.500 OA
ATOM     24  H   UNL     1       1.416  35.746  27.375  1.00  0.00     0.294 HD
ENDBRANCH  10  23
BRANCH   5  25
ATOM     25  O   UNL     1       8.762  39.376  28.884  1.00  0.00    -0.507 OA
ATOM     26  H   UNL     1       8.941  40.369  28.789  1.00  0.00     0.293 HD
ENDBRANCH   5  25
BRANCH   7  27
ATOM     27  O   UNL     1       5.236  39.314  25.627  1.00  0.00    -0.507 OA
ATOM     28  H   UNL     1       5.139  38.828  24.748  1.00  0.00     0.293 HD
ENDBRANCH   7  27
TORSDOF 7
ENDMDL
MODEL 3
REMARK VINA RESULT:    -6.591      1.239      7.050
REMARK INTER + INTRA:          -8.432
REMARK INTER:                  -8.474
REMARK INTRA:                   0.042
REMARK UNBOUND:                -0.300
REMARK SMILES Oc1cc(O)c2cc(O)c(-c3cc(O)c(O)c(O)c3)[o+]c2c1
REMARK SMILES IDX 10 1 20 2 21 3 22 4 2 5 3 6 4 7 6 8 7 9 8 10 11 11 12 12
REMARK SMILES IDX 13 13 19 14 15 15 17 16 14 17 16 19 18 21 9 23 1 25 5 27
REMARK H PARENT 14 18 16 20 18 22 9 24 1 26 5 28
REMARK Flexibility Score: inf
ROOT
ATOM      1  C   UNL     1       3.920  36.586  27.933  1.00  0.00     0.402 A 
ATOM      2  O   UNL     1       3.338  35.435  27.609  1.00  0.00    -0.202 OA
ATOM      3  C   UNL     1       2.709  34.662  28.489  1.00  0.00     0.368 A 
ATOM      4  C   UNL     1       2.124  33.471  28.052  1.00  0.00     0.162 A 
ATOM      5  C   UNL     1       1.454  32.641  28.956  1.00  0.00     0.128 A 
ATOM      6  C   UNL     1       1.369  33.005  30.302  1.00  0.00     0.093 A 
ATOM      7  C   UNL     1       1.947  34.194  30.764  1.00  0.00     0.136 A 
ATOM      8  C   UNL     1       2.630  35.038  29.851  1.00  0.00     0.125 A 
ATOM      9  C   UNL     1       3.250  36.241  30.228  1.00  0.00     0.078 A 
ATOM     10  C   UNL     1       3.909  37.019  29.271  1.00  0.00     0.223 A 
ENDROOT
BRANCH   1  11
ATOM     11  C   UNL     1       4.582  37.363  26.859  1.00  0.00     0.091 A 
ATOM     12  C   UNL     1       4.494  38.765  26.810  1.00  0.00     0.068 A 
ATOM     13  C   UNL     1       5.108  39.481  25.773  1.00  0.00     0.162 A 
ATOM     14  C   UNL     1       5.262  36.686  25.836  1.00  0.00     0.068 A 
ATOM     15  C   UNL     1       5.807  38.795  24.765  1.00  0.00     0.200 A 
ATOM     16  C   UNL     1       5.878  37.392  24.798  1.00  0.00     0.162 A 
BRANCH  13  17
ATOM     17  O   UNL     1       5.019  40.871  25.738  1.00  0.00    -0.504 OA
ATOM     18  H   UNL     1       4.134  41.351  25.847  1.00  0.00     0.293 HD
ENDBRANCH  13  17
BRANCH  15  19
ATOM     19  O   UNL     1       6.428  39.492  23.727  1.00  0.00    -0.502 OA
ATOM     20  H   UNL     1       5.913  40.105  23.106  1.00  0.00     0.293 HD
ENDBRANCH  15  19
BRANCH  16  21
ATOM     21  O   UNL     1       6.558  36.681  23.809  1.00  0.00    -0.504 OA
ATOM     22  H   UNL     1       6.072  36.120  23.119  1.00  0.00     0.293 HD
ENDBRANCH  16  21
ENDBRANCH   1  11
BRANCH  10  23
ATOM     23  O   UNL     1       4.568  38.188  29.654  1.00  0.00    -0.500 OA
ATOM     24  H   UNL     1       4.125  39.097  29.582  1.00  0.00     0.294 HD
ENDBRANCH  10  23
BRANCH   5  25
ATOM     25  O   UNL     1       0.869  31.452  28.528  1.00  0.00    -0.507 OA
ATOM     26  H   UNL     1       1.307  30.870  27.823  1.00  0.00     0.293 HD
ENDBRANCH   5  25
BRANCH   7  27
ATOM     27  O   UNL     1       1.813  34.487  32.125  1.00  0.00    -0.507 OA
ATOM     28  H   UNL     1       1.132  35.127  32.505  1.00  0.00     0.293 HD
ENDBRANCH   7  27
TORSDOF 7
ENDMDL
MODEL 4
REMARK VINA RESULT:    -6.574      2.890      4.845
REMARK INTER + INTRA:          -8.411
REMARK INTER:                  -8.030
REMARK INTRA:                  -0.381
REMARK UNBOUND:                -0.300
REMARK SMILES Oc1cc(O)c2cc(O)c(-c3cc(O)c(O)c(O)c3)[o+]c2c1
REMARK SMILES IDX 10 1 20 2 21 3 22 4 2 5 3 6 4 7 6 8 7 9 8 10 11 11 12 12
REMARK SMILES IDX 13 13 19 14 15 15 17 16 14 17 16 19 18 21 9 23 1 25 5 27
REMARK H PARENT 14 18 16 20 18 22 9 24 1 26 5 28
REMARK Flexibility Score: inf
ROOT
ATOM      1  C   UNL     1       6.664  38.207  25.912  1.00  0.00     0.402 A 
ATOM      2  O   UNL     1       6.433  39.188  25.045  1.00  0.00    -0.202 OA
ATOM      3  C   UNL     1       7.241  39.468  24.027  1.00  0.00     0.368 A 
ATOM      4  C   UNL     1       6.912  40.517  23.165  1.00  0.00     0.162 A 
ATOM      5  C   UNL     1       7.743  40.830  22.085  1.00  0.00     0.128 A 
ATOM      6  C   UNL     1       8.907  40.092  21.867  1.00  0.00     0.093 A 
ATOM      7  C   UNL     1       9.260  39.035  22.717  1.00  0.00     0.136 A 
ATOM      8  C   UNL     1       8.421  38.715  23.815  1.00  0.00     0.125 A 
ATOM      9  C   UNL     1       8.702  37.682  24.725  1.00  0.00     0.078 A 
ATOM     10  C   UNL     1       7.829  37.428  25.788  1.00  0.00     0.223 A 
ENDROOT
BRANCH   1  11
ATOM     11  C   UNL     1       5.683  37.988  26.999  1.00  0.00     0.091 A 
ATOM     12  C   UNL     1       4.568  37.151  26.821  1.00  0.00     0.068 A 
ATOM     13  C   UNL     1       3.637  36.974  27.854  1.00  0.00     0.162 A 
ATOM     14  C   UNL     1       5.834  38.672  28.215  1.00  0.00     0.068 A 
ATOM     15  C   UNL     1       3.810  37.646  29.076  1.00  0.00     0.200 A 
ATOM     16  C   UNL     1       4.912  38.501  29.252  1.00  0.00     0.162 A 
BRANCH  13  17
ATOM     17  O   UNL     1       2.538  36.137  27.668  1.00  0.00    -0.504 OA
ATOM     18  H   UNL     1       1.862  36.304  26.933  1.00  0.00     0.293 HD
ENDBRANCH  13  17
BRANCH  15  19
ATOM     19  O   UNL     1       2.896  37.478  30.118  1.00  0.00    -0.502 OA
ATOM     20  H   UNL     1       2.533  36.567  30.374  1.00  0.00     0.293 HD
ENDBRANCH  15  19
BRANCH  16  21
ATOM     21  O   UNL     1       5.107  39.188  30.450  1.00  0.00    -0.504 OA
ATOM     22  H   UNL     1       5.656  38.802  31.208  1.00  0.00     0.293 HD
ENDBRANCH  16  21
ENDBRANCH   1  11
BRANCH  10  23
ATOM     23  O   UNL     1       8.133  36.436  26.720  1.00  0.00    -0.500 OA
ATOM     24  H   UNL     1       8.474  35.525  26.436  1.00  0.00     0.294 HD
ENDBRANCH  10  23
BRANCH   5  25
ATOM     25  O   UNL     1       7.420  41.875  21.222  1.00  0.00    -0.507 OA
ATOM     26  H   UNL     1       8.138  42.417  20.754  1.00  0.00     0.293 HD
ENDBRANCH   5  25
BRANCH   7  27
ATOM     27  O   UNL     1      10.440  38.343  22.427  1.00  0.00    -0.507 OA
ATOM     28  H   UNL     1      11.094  38.611  21.707  1.00  0.00     0.293 HD
ENDBRANCH   7  27
TORSDOF 7
ENDMDL
MODEL 5
REMARK VINA RESULT:    -6.454      2.656      7.779
REMARK INTER + INTRA:          -8.262
REMARK INTER:                  -7.887
REMARK INTRA:                  -0.375
REMARK UNBOUND:                -0.300
REMARK SMILES Oc1cc(O)c2cc(O)c(-c3cc(O)c(O)c(O)c3)[o+]c2c1
REMARK SMILES IDX 10 1 20 2 21 3 22 4 2 5 3 6 4 7 6 8 7 9 8 10 11 11 12 12
REMARK SMILES IDX 13 13 19 14 15 15 17 16 14 17 16 19 18 21 9 23 1 25 5 27
REMARK H PARENT 14 18 16 20 18 22 9 24 1 26 5 28
REMARK Flexibility Score: inf
ROOT
ATOM      1  C   UNL     1       6.085  38.102  26.054  1.00  0.00     0.402 A 
ATOM      2  O   UNL     1       6.320  38.569  27.276  1.00  0.00    -0.202 OA
ATOM      3  C   UNL     1       5.636  38.184  28.350  1.00  0.00     0.368 A 
ATOM      4  C   UNL     1       5.959  38.729  29.594  1.00  0.00     0.162 A 
ATOM      5  C   UNL     1       5.258  38.339  30.739  1.00  0.00     0.128 A 
ATOM      6  C   UNL     1       4.230  37.400  30.637  1.00  0.00     0.093 A 
ATOM      7  C   UNL     1       3.887  36.838  29.401  1.00  0.00     0.136 A 
ATOM      8  C   UNL     1       4.594  37.233  28.236  1.00  0.00     0.125 A 
ATOM      9  C   UNL     1       4.311  36.732  26.955  1.00  0.00     0.078 A 
ATOM     10  C   UNL     1       5.049  37.172  25.852  1.00  0.00     0.223 A 
ENDROOT
BRANCH   1  11
ATOM     11  C   UNL     1       6.923  38.602  24.940  1.00  0.00     0.091 A 
ATOM     12  C   UNL     1       6.590  39.776  24.244  1.00  0.00     0.068 A 
ATOM     13  C   UNL     1       7.383  40.222  23.177  1.00  0.00     0.162 A 
ATOM     14  C   UNL     1       8.041  37.859  24.529  1.00  0.00     0.068 A 
ATOM     15  C   UNL     1       8.514  39.483  22.788  1.00  0.00     0.200 A 
ATOM     16  C   UNL     1       8.838  38.296  23.467  1.00  0.00     0.162 A 
BRANCH  13  17
ATOM     17  O   UNL     1       7.047  41.391  22.498  1.00  0.00    -0.504 OA
ATOM     18  H   UNL     1       7.649  41.784  21.785  1.00  0.00     0.293 HD
ENDBRANCH  13  17
BRANCH  15  19
ATOM     19  O   UNL     1       9.317  39.914  21.731  1.00  0.00    -0.502 OA
ATOM     20  H   UNL     1       9.912  39.278  21.212  1.00  0.00     0.293 HD
ENDBRANCH  15  19
BRANCH  16  21
ATOM     21  O   UNL     1       9.949  37.536  23.100  1.00  0.00    -0.504 OA
ATOM     22  H   UNL     1       9.933  36.908  22.306  1.00  0.00     0.293 HD
ENDBRANCH  16  21
ENDBRANCH   1  11
BRANCH  10  23
ATOM     23  O   UNL     1       4.735  36.713  24.572  1.00  0.00    -0.500 OA
ATOM     24  H   UNL     1       4.310  37.317  23.878  1.00  0.00     0.294 HD
ENDBRANCH  10  23
BRANCH   5  25
ATOM     25  O   UNL     1       5.574  38.880  31.983  1.00  0.00    -0.507 OA
ATOM     26  H   UNL     1       5.077  38.605  32.822  1.00  0.00     0.293 HD
ENDBRANCH   5  25
BRANCH   7  27
ATOM     27  O   UNL     1       2.849  35.901  29.386  1.00  0.00    -0.507 OA
ATOM     28  H   UNL     1       2.962  34.922  29.602  1.00  0.00     0.293 HD
ENDBRANCH   7  27
TORSDOF 7
ENDMDL
MODEL 6
REMARK VINA RESULT:    -6.441      2.561      7.709
REMARK INTER + INTRA:          -8.247
REMARK INTER:                  -7.876
REMARK INTRA:                  -0.371
REMARK UNBOUND:                -0.300
REMARK SMILES Oc1cc(O)c2cc(O)c(-c3cc(O)c(O)c(O)c3)[o+]c2c1
REMARK SMILES IDX 10 1 20 2 21 3 22 4 2 5 3 6 4 7 6 8 7 9 8 10 11 11 12 12
REMARK SMILES IDX 13 13 19 14 15 15 17 16 14 17 16 19 18 21 9 23 1 25 5 27
REMARK H PARENT 14 18 16 20 18 22 9 24 1 26 5 28
REMARK Flexibility Score: inf
ROOT
ATOM      1  C   UNL     1       6.705  38.301  25.908  1.00  0.00     0.402 A 
ATOM      2  O   UNL     1       5.701  37.432  25.833  1.00  0.00    -0.202 OA
ATOM      3  C   UNL     1       4.912  37.136  26.862  1.00  0.00     0.368 A 
ATOM      4  C   UNL     1       3.880  36.212  26.685  1.00  0.00     0.162 A 
ATOM      5  C   UNL     1       3.035  35.886  27.750  1.00  0.00     0.128 A 
ATOM      6  C   UNL     1       3.223  36.486  28.996  1.00  0.00     0.093 A 
ATOM      7  C   UNL     1       4.251  37.416  29.199  1.00  0.00     0.136 A 
ATOM      8  C   UNL     1       5.113  37.749  28.122  1.00  0.00     0.125 A 
ATOM      9  C   UNL     1       6.176  38.660  28.238  1.00  0.00     0.078 A 
ATOM     10  C   UNL     1       6.987  38.934  27.132  1.00  0.00     0.223 A 
ENDROOT
BRANCH   1  11
ATOM     11  C   UNL     1       7.506  38.553  24.688  1.00  0.00     0.091 A 
ATOM     12  C   UNL     1       7.089  39.480  23.717  1.00  0.00     0.068 A 
ATOM     13  C   UNL     1       7.850  39.688  22.558  1.00  0.00     0.162 A 
ATOM     14  C   UNL     1       8.676  37.811  24.465  1.00  0.00     0.068 A 
ATOM     15  C   UNL     1       9.032  38.956  22.355  1.00  0.00     0.200 A 
ATOM     16  C   UNL     1       9.441  38.013  23.313  1.00  0.00     0.162 A 
BRANCH  13  17
ATOM     17  O   UNL     1       7.429  40.614  21.605  1.00  0.00    -0.504 OA
ATOM     18  H   UNL     1       7.418  40.392  20.617  1.00  0.00     0.293 HD
ENDBRANCH  13  17
BRANCH  15  19
ATOM     19  O   UNL     1       9.804  39.154  21.209  1.00  0.00    -0.502 OA
ATOM     20  H   UNL     1       9.937  40.072  20.800  1.00  0.00     0.293 HD
ENDBRANCH  15  19
BRANCH  16  21
ATOM     21  O   UNL     1      10.606  37.266  23.137  1.00  0.00    -0.504 OA
ATOM     22  H   UNL     1      10.806  36.776  22.273  1.00  0.00     0.293 HD
ENDBRANCH  16  21
ENDBRANCH   1  11
BRANCH  10  23
ATOM     23  O   UNL     1       8.073  39.800  27.260  1.00  0.00    -0.500 OA
ATOM     24  H   UNL     1       8.506  40.235  26.453  1.00  0.00     0.294 HD
ENDBRANCH  10  23
BRANCH   5  25
ATOM     25  O   UNL     1       2.004  34.965  27.580  1.00  0.00    -0.507 OA
ATOM     26  H   UNL     1       1.031  35.236  27.668  1.00  0.00     0.293 HD
ENDBRANCH   5  25
BRANCH   7  27
ATOM     27  O   UNL     1       4.369  37.975  30.476  1.00  0.00    -0.507 OA
ATOM     28  H   UNL     1       5.246  38.131  30.949  1.00  0.00     0.293 HD
ENDBRANCH   7  27
TORSDOF 7
ENDMDL
MODEL 7
REMARK VINA RESULT:    -6.418      2.555      7.794
REMARK INTER + INTRA:          -8.219
REMARK INTER:                  -7.852
REMARK INTRA:                  -0.367
REMARK UNBOUND:                -0.300
REMARK SMILES Oc1cc(O)c2cc(O)c(-c3cc(O)c(O)c(O)c3)[o+]c2c1
REMARK SMILES IDX 10 1 20 2 21 3 22 4 2 5 3 6 4 7 6 8 7 9 8 10 11 11 12 12
REMARK SMILES IDX 13 13 19 14 15 15 17 16 14 17 16 19 18 21 9 23 1 25 5 27
REMARK H PARENT 14 18 16 20 18 22 9 24 1 26 5 28
REMARK Flexibility Score: inf
ROOT
ATOM      1  C   UNL     1       6.693  38.251  25.903  1.00  0.00     0.402 A 
ATOM      2  O   UNL     1       5.695  37.374  25.842  1.00  0.00    -0.202 OA
ATOM      3  C   UNL     1       4.897  37.102  26.870  1.00  0.00     0.368 A 
ATOM      4  C   UNL     1       3.872  36.168  26.708  1.00  0.00     0.162 A 
ATOM      5  C   UNL     1       3.017  35.866  27.772  1.00  0.00     0.128 A 
ATOM      6  C   UNL     1       3.189  36.502  29.003  1.00  0.00     0.093 A 
ATOM      7  C   UNL     1       4.209  37.443  29.192  1.00  0.00     0.136 A 
ATOM      8  C   UNL     1       5.081  37.750  28.115  1.00  0.00     0.125 A 
ATOM      9  C   UNL     1       6.137  38.670  28.217  1.00  0.00     0.078 A 
ATOM     10  C   UNL     1       6.958  38.918  27.112  1.00  0.00     0.223 A 
ENDROOT
BRANCH   1  11
ATOM     11  C   UNL     1       7.506  38.474  24.685  1.00  0.00     0.091 A 
ATOM     12  C   UNL     1       8.720  37.796  24.482  1.00  0.00     0.068 A 
ATOM     13  C   UNL     1       9.486  38.038  23.333  1.00  0.00     0.162 A 
ATOM     14  C   UNL     1       7.086  39.422  23.740  1.00  0.00     0.068 A 
ATOM     15  C   UNL     1       9.047  38.974  22.381  1.00  0.00     0.200 A 
ATOM     16  C   UNL     1       7.844  39.669  22.591  1.00  0.00     0.162 A 
BRANCH  13  17
ATOM     17  O   UNL     1      10.686  37.356  23.139  1.00  0.00    -0.504 OA
ATOM     18  H   UNL     1      10.789  36.655  22.415  1.00  0.00     0.293 HD
ENDBRANCH  13  17
BRANCH  15  19
ATOM     19  O   UNL     1       9.795  39.223  21.229  1.00  0.00    -0.502 OA
ATOM     20  H   UNL     1      10.235  38.479  20.701  1.00  0.00     0.293 HD
ENDBRANCH  15  19
BRANCH  16  21
ATOM     21  O   UNL     1       7.384  40.609  21.669  1.00  0.00    -0.504 OA
ATOM     22  H   UNL     1       7.538  41.603  21.792  1.00  0.00     0.293 HD
ENDBRANCH  16  21
ENDBRANCH   1  11
BRANCH  10  23
ATOM     23  O   UNL     1       8.038  39.794  27.228  1.00  0.00    -0.500 OA
ATOM     24  H   UNL     1       8.997  39.465  27.206  1.00  0.00     0.294 HD
ENDBRANCH  10  23
BRANCH   5  25
ATOM     25  O   UNL     1       1.993  34.935  27.617  1.00  0.00    -0.507 OA
ATOM     26  H   UNL     1       1.112  35.028  28.111  1.00  0.00     0.293 HD
ENDBRANCH   5  25
BRANCH   7  27
ATOM     27  O   UNL     1       4.310  38.037  30.453  1.00  0.00    -0.507 OA
ATOM     28  H   UNL     1       3.537  38.156  31.090  1.00  0.00     0.293 HD
ENDBRANCH   7  27
TORSDOF 7
ENDMDL
MODEL 8
REMARK VINA RESULT:    -6.360      2.179      2.800
REMARK INTER + INTRA:          -8.147
REMARK INTER:                  -7.763
REMARK INTRA:                  -0.384
REMARK UNBOUND:                -0.300
REMARK SMILES Oc1cc(O)c2cc(O)c(-c3cc(O)c(O)c(O)c3)[o+]c2c1
REMARK SMILES IDX 10 1 20 2 21 3 22 4 2 5 3 6 4 7 6 8 7 9 8 10 11 11 12 12
REMARK SMILES IDX 13 13 19 14 15 15 17 16 14 17 16 19 18 21 9 23 1 25 5 27
REMARK H PARENT 14 18 16 20 18 22 9 24 1 26 5 28
REMARK Flexibility Score: inf
ROOT
ATOM      1  C   UNL     1       4.931  35.798  29.772  1.00  0.00     0.402 A 
ATOM      2  O   UNL     1       4.624  36.193  28.540  1.00  0.00    -0.202 OA
ATOM      3  C   UNL     1       5.236  37.198  27.922  1.00  0.00     0.368 A 
ATOM      4  C   UNL     1       4.847  37.538  26.625  1.00  0.00     0.162 A 
ATOM      5  C   UNL     1       5.476  38.589  25.951  1.00  0.00     0.128 A 
ATOM      6  C   UNL     1       6.499  39.303  26.578  1.00  0.00     0.093 A 
ATOM      7  C   UNL     1       6.909  38.982  27.878  1.00  0.00     0.136 A 
ATOM      8  C   UNL     1       6.271  37.917  28.567  1.00  0.00     0.125 A 
ATOM      9  C   UNL     1       6.607  37.534  29.876  1.00  0.00     0.078 A 
ATOM     10  C   UNL     1       5.930  36.477  30.492  1.00  0.00     0.223 A 
ENDROOT
BRANCH   1  11
ATOM     11  C   UNL     1       4.183  34.657  30.349  1.00  0.00     0.091 A 
ATOM     12  C   UNL     1       4.658  33.339  30.238  1.00  0.00     0.068 A 
ATOM     13  C   UNL     1       3.924  32.270  30.770  1.00  0.00     0.162 A 
ATOM     14  C   UNL     1       2.945  34.886  30.969  1.00  0.00     0.068 A 
ATOM     15  C   UNL     1       2.696  32.512  31.409  1.00  0.00     0.200 A 
ATOM     16  C   UNL     1       2.206  33.826  31.503  1.00  0.00     0.162 A 
BRANCH  13  17
ATOM     17  O   UNL     1       4.408  30.968  30.660  1.00  0.00    -0.504 OA
ATOM     18  H   UNL     1       3.919  30.182  31.071  1.00  0.00     0.293 HD
ENDBRANCH  13  17
BRANCH  15  19
ATOM     19  O   UNL     1       1.954  31.460  31.949  1.00  0.00    -0.502 OA
ATOM     20  H   UNL     1       2.388  30.704  32.465  1.00  0.00     0.293 HD
ENDBRANCH  15  19
BRANCH  16  21
ATOM     21  O   UNL     1       0.988  34.099  32.125  1.00  0.00    -0.504 OA
ATOM     22  H   UNL     1       0.109  34.068  31.622  1.00  0.00     0.293 HD
ENDBRANCH  16  21
ENDBRANCH   1  11
BRANCH  10  23
ATOM     23  O   UNL     1       6.229  36.129  31.809  1.00  0.00    -0.500 OA
ATOM     24  H   UNL     1       5.880  35.274  32.228  1.00  0.00     0.294 HD
ENDBRANCH  10  23
BRANCH   5  25
ATOM     25  O   UNL     1       5.092  38.933  24.657  1.00  0.00    -0.507 OA
ATOM     26  H   UNL     1       5.038  38.241  23.918  1.00  0.00     0.293 HD
ENDBRANCH   5  25
BRANCH   7  27
ATOM     27  O   UNL     1       7.943  39.742  28.433  1.00  0.00    -0.507 OA
ATOM     28  H   UNL     1       8.017  40.746  28.355  1.00  0.00     0.293 HD
ENDBRANCH   7  27
TORSDOF 7
ENDMDL
MODEL 9
REMARK VINA RESULT:    -6.205      2.680      4.430
REMARK INTER + INTRA:          -7.956
REMARK INTER:                  -7.660
REMARK INTRA:                  -0.296
REMARK UNBOUND:                -0.300
REMARK SMILES Oc1cc(O)c2cc(O)c(-c3cc(O)c(O)c(O)c3)[o+]c2c1
REMARK SMILES IDX 10 1 20 2 21 3 22 4 2 5 3 6 4 7 6 8 7 9 8 10 11 11 12 12
REMARK SMILES IDX 13 13 19 14 15 15 17 16 14 17 16 19 18 21 9 23 1 25 5 27
REMARK H PARENT 14 18 16 20 18 22 9 24 1 26 5 28
REMARK Flexibility Score: inf
ROOT
ATOM      1  C   UNL     1       6.366  38.731  25.509  1.00  0.00     0.402 A 
ATOM      2  O   UNL     1       7.460  38.316  24.877  1.00  0.00    -0.202 OA
ATOM      3  C   UNL     1       7.976  38.942  23.823  1.00  0.00     0.368 A 
ATOM      4  C   UNL     1       9.131  38.432  23.227  1.00  0.00     0.162 A 
ATOM      5  C   UNL     1       9.696  39.073  22.120  1.00  0.00     0.128 A 
ATOM      6  C   UNL     1       9.103  40.228  21.608  1.00  0.00     0.093 A 
ATOM      7  C   UNL     1       7.944  40.760  22.188  1.00  0.00     0.136 A 
ATOM      8  C   UNL     1       7.365  40.112  23.310  1.00  0.00     0.125 A 
ATOM      9  C   UNL     1       6.198  40.566  23.946  1.00  0.00     0.078 A 
ATOM     10  C   UNL     1       5.684  39.871  25.045  1.00  0.00     0.223 A 
ENDROOT
BRANCH   1  11
ATOM     11  C   UNL     1       5.895  37.953  26.678  1.00  0.00     0.091 A 
ATOM     12  C   UNL     1       4.742  37.152  26.607  1.00  0.00     0.068 A 
ATOM     13  C   UNL     1       4.299  36.440  27.731  1.00  0.00     0.162 A 
ATOM     14  C   UNL     1       6.578  38.059  27.899  1.00  0.00     0.068 A 
ATOM     15  C   UNL     1       5.003  36.536  28.943  1.00  0.00     0.200 A 
ATOM     16  C   UNL     1       6.143  37.353  29.024  1.00  0.00     0.162 A 
BRANCH  13  17
ATOM     17  O   UNL     1       3.158  35.644  27.647  1.00  0.00    -0.504 OA
ATOM     18  H   UNL     1       3.194  34.699  27.284  1.00  0.00     0.293 HD
ENDBRANCH  13  17
BRANCH  15  19
ATOM     19  O   UNL     1       4.578  35.831  30.071  1.00  0.00    -0.502 OA
ATOM     20  H   UNL     1       3.623  35.871  30.404  1.00  0.00     0.293 HD
ENDBRANCH  15  19
BRANCH  16  21
ATOM     21  O   UNL     1       6.859  37.475  30.215  1.00  0.00    -0.504 OA
ATOM     22  H   UNL     1       7.136  38.376  30.587  1.00  0.00     0.293 HD
ENDBRANCH  16  21
ENDBRANCH   1  11
BRANCH  10  23
ATOM     23  O   UNL     1       4.498  40.293  25.646  1.00  0.00    -0.500 OA
ATOM     24  H   UNL     1       4.409  41.212  26.064  1.00  0.00     0.294 HD
ENDBRANCH  10  23
BRANCH   5  25
ATOM     25  O   UNL     1      10.849  38.569  21.521  1.00  0.00    -0.507 OA
ATOM     26  H   UNL     1      11.338  37.768  21.903  1.00  0.00     0.293 HD
ENDBRANCH   5  25
BRANCH   7  27
ATOM     27  O   UNL     1       7.414  41.922  21.617  1.00  0.00    -0.507 OA
ATOM     28  H   UNL     1       6.964  42.658  22.140  1.00  0.00     0.293 HD
ENDBRANCH   7  27
TORSDOF 7
ENDMDL
