MODEL 1
REMARK VINA RESULT:    -6.179      0.000      0.000
REMARK INTER + INTRA:          -9.934
REMARK INTER:                  -9.068
REMARK INTRA:                  -0.866
REMARK UNBOUND:                -0.866
REMARK SMILES O=c1c(O[C@@H]2O[C@@H](CO)[C@@H](O)[C@@H](O)[C@@H]2O)c(-c2ccc(O)c(O)c2)oc2cc(O)cc(O)c12
REMARK SMILES IDX 4 1 3 2 16 3 25 4 2 5 26 6 1 7 33 8 27 9 31 10 28 11 30 12
REMARK SMILES IDX 17 13 18 14 19 15 20 16 24 17 22 18 21 19 23 21 32 23 29 25
REMARK SMILES IDX 5 27 14 28 6 29 12 30 7 31 10 32 15 33 13 35 8 37 9 38 11 40
REMARK H PARENT 21 20 23 22 32 24 29 26 15 34 13 36 9 39 11 41
REMARK Flexibility Score: inf
ROOT
ATOM      1  O   UNL     1       7.468  10.359 -17.718  1.00  0.00    -0.454 OA
ENDROOT
BRANCH   1   2
ATOM      2  C   UNL     1       7.466   9.049 -17.221  1.00  0.00     0.214 A 
ATOM      3  C   UNL     1       7.670   8.765 -15.853  1.00  0.00     0.180 A 
ATOM      4  O   UNL     1       7.739   7.500 -15.448  1.00  0.00    -0.452 OA
ATOM      5  C   UNL     1       7.255   7.988 -18.108  1.00  0.00     0.239 A 
ATOM      6  C   UNL     1       7.582   6.463 -16.262  1.00  0.00     0.146 A 
ATOM      7  O   UNL     1       7.026   8.240 -19.323  1.00  0.00    -0.285 OA
ATOM      8  C   UNL     1       7.318   6.661 -17.639  1.00  0.00     0.111 A 
ATOM      9  C   UNL     1       7.667   5.168 -15.741  1.00  0.00     0.094 A 
ATOM     10  C   UNL     1       7.138   5.534 -18.476  1.00  0.00     0.134 A 
ATOM     11  C   UNL     1       7.487   4.058 -16.574  1.00  0.00     0.123 A 
ATOM     12  C   UNL     1       7.225   4.244 -17.934  1.00  0.00     0.093 A 
BRANCH   3  13
ATOM     13  C   UNL     1       7.794   9.827 -14.830  1.00  0.00     0.025 A 
ATOM     14  C   UNL     1       7.072   9.724 -13.632  1.00  0.00     0.016 A 
ATOM     15  C   UNL     1       7.173  10.719 -12.657  1.00  0.00     0.051 A 
ATOM     16  C   UNL     1       7.986  11.836 -12.869  1.00  0.00     0.157 A 
ATOM     17  C   UNL     1       8.591  10.964 -15.053  1.00  0.00     0.062 A 
ATOM     18  C   UNL     1       8.697  11.962 -14.074  1.00  0.00     0.158 A 
BRANCH  16  19
ATOM     19  O   UNL     1       8.072  12.811 -11.875  1.00  0.00    -0.504 OA
ATOM     20  H   UNL     1       7.508  13.652 -11.895  1.00  0.00     0.293 HD
ENDBRANCH  16  19
BRANCH  18  21
ATOM     21  O   UNL     1       9.505  13.077 -14.296  1.00  0.00    -0.504 OA
ATOM     22  H   UNL     1      10.078  13.474 -13.561  1.00  0.00     0.293 HD
ENDBRANCH  18  21
ENDBRANCH   3  13
BRANCH  10  23
ATOM     23  O   UNL     1       6.875   5.687 -19.838  1.00  0.00    -0.507 OA
ATOM     24  H   UNL     1       6.674   4.892 -20.434  1.00  0.00     0.293 HD
ENDBRANCH  10  23
BRANCH  11  25
ATOM     25  O   UNL     1       7.561   2.766 -16.059  1.00  0.00    -0.508 OA
ATOM     26  H   UNL     1       6.786   2.353 -15.554  1.00  0.00     0.293 HD
ENDBRANCH  11  25
ENDBRANCH   1   2
BRANCH   1  27
ATOM     27  C   UNL     1       8.432  10.846 -18.658  1.00  0.00     0.339 C 
ATOM     28  C   UNL     1       7.755  11.558 -19.845  1.00  0.00     0.214 C 
ATOM     29  O   UNL     1       9.369  11.676 -17.989  1.00  0.00    -0.332 OA
ATOM     30  C   UNL     1       6.963  12.805 -19.382  1.00  0.00     0.180 C 
ATOM     31  C   UNL     1       8.948  13.024 -17.765  1.00  0.00     0.179 C 
ATOM     32  C   UNL     1       7.435  13.296 -17.995  1.00  0.00     0.177 C 
BRANCH  28  33
ATOM     33  O   UNL     1       6.910  10.661 -20.517  1.00  0.00    -0.384 OA
ATOM     34  H   UNL     1       7.070   9.764 -20.124  1.00  0.00     0.211 HD
ENDBRANCH  28  33
BRANCH  30  35
ATOM     35  O   UNL     1       7.099  13.836 -20.329  1.00  0.00    -0.387 OA
ATOM     36  H   UNL     1       8.045  14.136 -20.293  1.00  0.00     0.211 HD
ENDBRANCH  30  35
BRANCH  31  37
ATOM     37  C   UNL     1       9.850  13.974 -18.576  1.00  0.00     0.191 C 
BRANCH  37  38
ATOM     38  O   UNL     1      10.102  15.149 -17.853  1.00  0.00    -0.394 OA
ATOM     39  H   UNL     1      10.971  15.504 -18.178  1.00  0.00     0.210 HD
ENDBRANCH  37  38
ENDBRANCH  31  37
BRANCH  32  40
ATOM     40  O   UNL     1       7.148  14.661 -17.815  1.00  0.00    -0.387 OA
ATOM     41  H   UNL     1       7.395  14.885 -16.880  1.00  0.00     0.211 HD
ENDBRANCH  32  40
ENDBRANCH   1  27
TORSDOF 12
ENDMDL
MODEL 2
REMARK VINA RESULT:    -5.781      1.665      2.288
REMARK INTER + INTRA:          -9.350
REMARK INTER:                  -8.760
REMARK INTRA:                  -0.590
REMARK UNBOUND:                -0.866
REMARK SMILES O=c1c(O[C@@H]2O[C@@H](CO)[C@@H](O)[C@@H](O)[C@@H]2O)c(-c2ccc(O)c(O)c2)oc2cc(O)cc(O)c12
REMARK SMILES IDX 4 1 3 2 16 3 25 4 2 5 26 6 1 7 33 8 27 9 31 10 28 11 30 12
REMARK SMILES IDX 17 13 18 14 19 15 20 16 24 17 22 18 21 19 23 21 32 23 29 25
REMARK SMILES IDX 5 27 14 28 6 29 12 30 7 31 10 32 15 33 13 35 8 37 9 38 11 40
REMARK H PARENT 21 20 23 22 32 24 29 26 15 34 13 36 9 39 11 41
REMARK Flexibility Score: inf
ROOT
ATOM      1  O   UNL     1       7.589   9.512 -16.451  1.00  0.00    -0.454 OA
ENDROOT
BRANCH   1   2
ATOM      2  C   UNL     1       7.417   8.124 -16.538  1.00  0.00     0.214 A 
ATOM      3  C   UNL     1       7.315   7.307 -15.392  1.00  0.00     0.180 A 
ATOM      4  O   UNL     1       7.234   5.987 -15.531  1.00  0.00    -0.452 OA
ATOM      5  C   UNL     1       7.344   7.528 -17.803  1.00  0.00     0.239 A 
ATOM      6  C   UNL     1       7.199   5.377 -16.710  1.00  0.00     0.146 A 
ATOM      7  O   UNL     1       7.386   8.259 -18.829  1.00  0.00    -0.285 OA
ATOM      8  C   UNL     1       7.239   6.127 -17.910  1.00  0.00     0.111 A 
ATOM      9  C   UNL     1       7.107   3.983 -16.755  1.00  0.00     0.094 A 
ATOM     10  C   UNL     1       7.182   5.448 -19.151  1.00  0.00     0.134 A 
ATOM     11  C   UNL     1       7.050   3.317 -17.984  1.00  0.00     0.123 A 
ATOM     12  C   UNL     1       7.088   4.049 -19.174  1.00  0.00     0.093 A 
BRANCH   3  13
ATOM     13  C   UNL     1       7.276   7.862 -14.020  1.00  0.00     0.025 A 
ATOM     14  C   UNL     1       6.943   7.027 -12.944  1.00  0.00     0.016 A 
ATOM     15  C   UNL     1       6.896   7.535 -11.643  1.00  0.00     0.051 A 
ATOM     16  C   UNL     1       7.169   8.885 -11.401  1.00  0.00     0.157 A 
ATOM     17  C   UNL     1       7.524   9.225 -13.778  1.00  0.00     0.062 A 
ATOM     18  C   UNL     1       7.481   9.736 -12.474  1.00  0.00     0.158 A 
BRANCH  16  19
ATOM     19  O   UNL     1       7.121   9.362 -10.091  1.00  0.00    -0.504 OA
ATOM     20  H   UNL     1       6.379   9.971  -9.768  1.00  0.00     0.293 HD
ENDBRANCH  16  19
BRANCH  18  21
ATOM     21  O   UNL     1       7.747  11.085 -12.242  1.00  0.00    -0.504 OA
ATOM     22  H   UNL     1       8.299  11.390 -11.449  1.00  0.00     0.293 HD
ENDBRANCH  18  21
ENDBRANCH   3  13
BRANCH  10  23
ATOM     23  O   UNL     1       7.218   6.150 -20.356  1.00  0.00    -0.507 OA
ATOM     24  H   UNL     1       8.039   6.668 -20.647  1.00  0.00     0.293 HD
ENDBRANCH  10  23
BRANCH  11  25
ATOM     25  O   UNL     1       6.949   1.929 -18.034  1.00  0.00    -0.508 OA
ATOM     26  H   UNL     1       7.690   1.359 -18.423  1.00  0.00     0.293 HD
ENDBRANCH  11  25
ENDBRANCH   1   2
BRANCH   1  27
ATOM     27  C   UNL     1       8.587  10.232 -17.183  1.00  0.00     0.339 C 
ATOM     28  C   UNL     1       7.980  11.426 -17.945  1.00  0.00     0.214 C 
ATOM     29  O   UNL     1       9.631  10.622 -16.304  1.00  0.00    -0.332 OA
ATOM     30  C   UNL     1       7.354  12.458 -16.975  1.00  0.00     0.180 C 
ATOM     31  C   UNL     1       9.381  11.803 -15.538  1.00  0.00     0.179 C 
ATOM     32  C   UNL     1       7.908  12.300 -15.542  1.00  0.00     0.177 C 
BRANCH  28  33
ATOM     33  O   UNL     1       7.019  10.966 -18.860  1.00  0.00    -0.384 OA
ATOM     34  H   UNL     1       6.805  11.727 -19.459  1.00  0.00     0.211 HD
ENDBRANCH  28  33
BRANCH  30  35
ATOM     35  O   UNL     1       7.596  13.761 -17.444  1.00  0.00    -0.387 OA
ATOM     36  H   UNL     1       8.289  13.687 -18.152  1.00  0.00     0.211 HD
ENDBRANCH  30  35
BRANCH  31  37
ATOM     37  C   UNL     1      10.376  12.900 -15.965  1.00  0.00     0.191 C 
BRANCH  37  38
ATOM     38  O   UNL     1      10.537  13.843 -14.940  1.00  0.00    -0.394 OA
ATOM     39  H   UNL     1      11.498  13.832 -14.690  1.00  0.00     0.210 HD
ENDBRANCH  37  38
ENDBRANCH  31  37
BRANCH  32  40
ATOM     40  O   UNL     1       7.793  13.501 -14.818  1.00  0.00    -0.387 OA
ATOM     41  H   UNL     1       8.714  13.852 -14.698  1.00  0.00     0.211 HD
ENDBRANCH  32  40
ENDBRANCH   1  27
TORSDOF 12
ENDMDL
MODEL 3
REMARK VINA RESULT:    -5.740      2.912      7.865
REMARK INTER + INTRA:          -9.290
REMARK INTER:                  -8.655
REMARK INTRA:                  -0.635
REMARK UNBOUND:                -0.866
REMARK SMILES O=c1c(O[C@@H]2O[C@@H](CO)[C@@H](O)[C@@H](O)[C@@H]2O)c(-c2ccc(O)c(O)c2)oc2cc(O)cc(O)c12
REMARK SMILES IDX 4 1 3 2 16 3 25 4 2 5 26 6 1 7 33 8 27 9 31 10 28 11 30 12
REMARK SMILES IDX 17 13 18 14 19 15 20 16 24 17 22 18 21 19 23 21 32 23 29 25
REMARK SMILES IDX 5 27 14 28 6 29 12 30 7 31 10 32 15 33 13 35 8 37 9 38 11 40
REMARK H PARENT 21 20 23 22 32 24 29 26 15 34 13 36 9 39 11 41
REMARK Flexibility Score: inf
ROOT
ATOM      1  O   UNL     1       7.910  14.111 -17.606  1.00  0.00    -0.454 OA
ENDROOT
BRANCH   1   2
ATOM      2  C   UNL     1       8.208  14.225 -18.970  1.00  0.00     0.214 A 
ATOM      3  C   UNL     1       8.608  13.116 -19.746  1.00  0.00     0.180 A 
ATOM      4  O   UNL     1       8.957  13.294 -21.017  1.00  0.00    -0.452 OA
ATOM      5  C   UNL     1       8.105  15.478 -19.584  1.00  0.00     0.239 A 
ATOM      6  C   UNL     1       8.910  14.472 -21.628  1.00  0.00     0.146 A 
ATOM      7  O   UNL     1       7.702  16.463 -18.907  1.00  0.00    -0.285 OA
ATOM      8  C   UNL     1       8.465  15.625 -20.938  1.00  0.00     0.111 A 
ATOM      9  C   UNL     1       9.292  14.558 -22.970  1.00  0.00     0.094 A 
ATOM     10  C   UNL     1       8.411  16.861 -21.624  1.00  0.00     0.134 A 
ATOM     11  C   UNL     1       9.235  15.783 -23.644  1.00  0.00     0.123 A 
ATOM     12  C   UNL     1       8.797  16.927 -22.971  1.00  0.00     0.093 A 
BRANCH   3  13
ATOM     13  C   UNL     1       8.641  11.738 -19.206  1.00  0.00     0.025 A 
ATOM     14  C   UNL     1       7.459  11.150 -18.733  1.00  0.00     0.016 A 
ATOM     15  C   UNL     1       7.472   9.852 -18.216  1.00  0.00     0.051 A 
ATOM     16  C   UNL     1       8.666   9.129 -18.151  1.00  0.00     0.157 A 
ATOM     17  C   UNL     1       9.847  11.019 -19.115  1.00  0.00     0.062 A 
ATOM     18  C   UNL     1       9.861   9.716 -18.599  1.00  0.00     0.158 A 
BRANCH  16  19
ATOM     19  O   UNL     1       8.648   7.833 -17.635  1.00  0.00    -0.504 OA
ATOM     20  H   UNL     1       9.472   7.244 -17.631  1.00  0.00     0.293 HD
ENDBRANCH  16  19
BRANCH  18  21
ATOM     21  O   UNL     1      11.059   9.004 -18.531  1.00  0.00    -0.504 OA
ATOM     22  H   UNL     1      11.893   9.320 -19.010  1.00  0.00     0.293 HD
ENDBRANCH  18  21
ENDBRANCH   3  13
BRANCH  10  23
ATOM     23  O   UNL     1       7.978  18.021 -20.980  1.00  0.00    -0.507 OA
ATOM     24  H   UNL     1       8.146  18.942 -21.370  1.00  0.00     0.293 HD
ENDBRANCH  10  23
BRANCH  11  25
ATOM     25  O   UNL     1       9.605  15.874 -24.984  1.00  0.00    -0.508 OA
ATOM     26  H   UNL     1       9.444  15.111 -25.630  1.00  0.00     0.293 HD
ENDBRANCH  11  25
ENDBRANCH   1   2
BRANCH   1  27
ATOM     27  C   UNL     1       8.566  14.874 -16.587  1.00  0.00     0.339 C 
ATOM     28  C   UNL     1       8.258  14.326 -15.181  1.00  0.00     0.214 C 
ATOM     29  O   UNL     1       9.959  14.926 -16.857  1.00  0.00    -0.332 OA
ATOM     30  C   UNL     1       8.777  12.877 -15.011  1.00  0.00     0.180 C 
ATOM     31  C   UNL     1      10.709  13.782 -16.443  1.00  0.00     0.179 C 
ATOM     32  C   UNL     1       9.864  12.536 -16.054  1.00  0.00     0.177 C 
BRANCH  28  33
ATOM     33  O   UNL     1       6.875  14.384 -14.941  1.00  0.00    -0.384 OA
ATOM     34  H   UNL     1       6.432  13.926 -15.702  1.00  0.00     0.211 HD
ENDBRANCH  28  33
BRANCH  30  35
ATOM     35  O   UNL     1       9.286  12.702 -13.711  1.00  0.00    -0.387 OA
ATOM     36  H   UNL     1      10.269  12.591 -13.801  1.00  0.00     0.211 HD
ENDBRANCH  30  35
BRANCH  31  37
ATOM     37  C   UNL     1      11.692  14.199 -15.333  1.00  0.00     0.191 C 
BRANCH  37  38
ATOM     38  O   UNL     1      11.069  15.069 -14.426  1.00  0.00    -0.394 OA
ATOM     39  H   UNL     1      10.988  14.577 -13.568  1.00  0.00     0.210 HD
ENDBRANCH  37  38
ENDBRANCH  31  37
BRANCH  32  40
ATOM     40  O   UNL     1      10.697  11.499 -15.599  1.00  0.00    -0.387 OA
ATOM     41  H   UNL     1      10.912  11.700 -14.650  1.00  0.00     0.211 HD
ENDBRANCH  32  40
ENDBRANCH   1  27
TORSDOF 12
ENDMDL
MODEL 4
REMARK VINA RESULT:    -5.443      2.426      7.868
REMARK INTER + INTRA:          -8.854
REMARK INTER:                  -8.319
REMARK INTRA:                  -0.535
REMARK UNBOUND:                -0.866
REMARK SMILES O=c1c(O[C@@H]2O[C@@H](CO)[C@@H](O)[C@@H](O)[C@@H]2O)c(-c2ccc(O)c(O)c2)oc2cc(O)cc(O)c12
REMARK SMILES IDX 4 1 3 2 16 3 25 4 2 5 26 6 1 7 33 8 27 9 31 10 28 11 30 12
REMARK SMILES IDX 17 13 18 14 19 15 20 16 24 17 22 18 21 19 23 21 32 23 29 25
REMARK SMILES IDX 5 27 14 28 6 29 12 30 7 31 10 32 15 33 13 35 8 37 9 38 11 40
REMARK H PARENT 21 20 23 22 32 24 29 26 15 34 13 36 9 39 11 41
REMARK Flexibility Score: inf
ROOT
ATOM      1  O   UNL     1       8.372  13.373 -16.891  1.00  0.00    -0.454 OA
ENDROOT
BRANCH   1   2
ATOM      2  C   UNL     1       8.415  13.686 -18.256  1.00  0.00     0.214 A 
ATOM      3  C   UNL     1       8.455  12.690 -19.255  1.00  0.00     0.180 A 
ATOM      4  O   UNL     1       8.577  13.042 -20.531  1.00  0.00    -0.452 OA
ATOM      5  C   UNL     1       8.420  15.032 -18.642  1.00  0.00     0.239 A 
ATOM      6  C   UNL     1       8.623  14.306 -20.939  1.00  0.00     0.146 A 
ATOM      7  O   UNL     1       8.337  15.925 -17.756  1.00  0.00    -0.285 OA
ATOM      8  C   UNL     1       8.532  15.367 -20.006  1.00  0.00     0.111 A 
ATOM      9  C   UNL     1       8.747  14.577 -22.304  1.00  0.00     0.094 A 
ATOM     10  C   UNL     1       8.567  16.702 -20.475  1.00  0.00     0.134 A 
ATOM     11  C   UNL     1       8.779  15.899 -22.762  1.00  0.00     0.123 A 
ATOM     12  C   UNL     1       8.690  16.953 -21.849  1.00  0.00     0.093 A 
BRANCH   3  13
ATOM     13  C   UNL     1       8.346  11.247 -18.943  1.00  0.00     0.025 A 
ATOM     14  C   UNL     1       7.085  10.682 -18.704  1.00  0.00     0.016 A 
ATOM     15  C   UNL     1       6.963   9.323 -18.404  1.00  0.00     0.051 A 
ATOM     16  C   UNL     1       8.100   8.512 -18.325  1.00  0.00     0.157 A 
ATOM     17  C   UNL     1       9.490  10.436 -18.837  1.00  0.00     0.062 A 
ATOM     18  C   UNL     1       9.370   9.071 -18.539  1.00  0.00     0.158 A 
BRANCH  16  19
ATOM     19  O   UNL     1       7.947   7.158 -18.029  1.00  0.00    -0.504 OA
ATOM     20  H   UNL     1       7.040   6.709 -18.011  1.00  0.00     0.293 HD
ENDBRANCH  16  19
BRANCH  18  21
ATOM     21  O   UNL     1      10.509   8.271 -18.454  1.00  0.00    -0.504 OA
ATOM     22  H   UNL     1      11.439   8.672 -18.413  1.00  0.00     0.293 HD
ENDBRANCH  18  21
ENDBRANCH   3  13
BRANCH  10  23
ATOM     23  O   UNL     1       8.480  17.776 -19.589  1.00  0.00    -0.507 OA
ATOM     24  H   UNL     1       7.732  17.847 -18.909  1.00  0.00     0.293 HD
ENDBRANCH  10  23
BRANCH  11  25
ATOM     25  O   UNL     1       8.894  16.176 -24.122  1.00  0.00    -0.508 OA
ATOM     26  H   UNL     1       8.077  16.322 -24.703  1.00  0.00     0.293 HD
ENDBRANCH  11  25
ENDBRANCH   1   2
BRANCH   1  27
ATOM     27  C   UNL     1       9.498  12.878 -16.158  1.00  0.00     0.339 C 
ATOM     28  C   UNL     1       9.472  13.353 -14.692  1.00  0.00     0.214 C 
ATOM     29  O   UNL     1       9.552  11.464 -16.270  1.00  0.00    -0.332 OA
ATOM     30  C   UNL     1       8.225  12.820 -13.945  1.00  0.00     0.180 C 
ATOM     31  C   UNL     1       8.694  10.743 -15.384  1.00  0.00     0.179 C 
ATOM     32  C   UNL     1       7.613  11.596 -14.662  1.00  0.00     0.177 C 
BRANCH  28  33
ATOM     33  O   UNL     1       9.509  14.756 -14.648  1.00  0.00    -0.384 OA
ATOM     34  H   UNL     1      10.344  15.007 -14.173  1.00  0.00     0.211 HD
ENDBRANCH  28  33
BRANCH  30  35
ATOM     35  O   UNL     1       8.570  12.481 -12.624  1.00  0.00    -0.387 OA
ATOM     36  H   UNL     1       9.248  11.759 -12.680  1.00  0.00     0.211 HD
ENDBRANCH  30  35
BRANCH  31  37
ATOM     37  C   UNL     1       9.556   9.926 -14.401  1.00  0.00     0.191 C 
BRANCH  37  38
ATOM     38  O   UNL     1       8.885   8.757 -14.013  1.00  0.00    -0.394 OA
ATOM     39  H   UNL     1       9.349   8.000 -14.458  1.00  0.00     0.210 HD
ENDBRANCH  37  38
ENDBRANCH  31  37
BRANCH  32  40
ATOM     40  O   UNL     1       6.875  10.801 -13.767  1.00  0.00    -0.387 OA
ATOM     41  H   UNL     1       7.268   9.889 -13.803  1.00  0.00     0.211 HD
ENDBRANCH  32  40
ENDBRANCH   1  27
TORSDOF 12
ENDMDL
MODEL 5
REMARK VINA RESULT:    -5.426      2.230      7.828
REMARK INTER + INTRA:          -8.830
REMARK INTER:                  -7.772
REMARK INTRA:                  -1.058
REMARK UNBOUND:                -0.866
REMARK SMILES O=c1c(O[C@@H]2O[C@@H](CO)[C@@H](O)[C@@H](O)[C@@H]2O)c(-c2ccc(O)c(O)c2)oc2cc(O)cc(O)c12
REMARK SMILES IDX 4 1 3 2 16 3 25 4 2 5 26 6 1 7 33 8 27 9 31 10 28 11 30 12
REMARK SMILES IDX 17 13 18 14 19 15 20 16 24 17 22 18 21 19 23 21 32 23 29 25
REMARK SMILES IDX 5 27 14 28 6 29 12 30 7 31 10 32 15 33 13 35 8 37 9 38 11 40
REMARK H PARENT 21 20 23 22 32 24 29 26 15 34 13 36 9 39 11 41
REMARK Flexibility Score: inf
ROOT
ATOM      1  O   UNL     1       7.404  12.040 -15.620  1.00  0.00    -0.454 OA
ENDROOT
BRANCH   1   2
ATOM      2  C   UNL     1       7.588  12.760 -16.807  1.00  0.00     0.214 A 
ATOM      3  C   UNL     1       7.944  12.130 -18.020  1.00  0.00     0.180 A 
ATOM      4  O   UNL     1       8.185  12.869 -19.099  1.00  0.00    -0.452 OA
ATOM      5  C   UNL     1       7.415  14.148 -16.792  1.00  0.00     0.239 A 
ATOM      6  C   UNL     1       8.069  14.192 -19.118  1.00  0.00     0.146 A 
ATOM      7  O   UNL     1       7.051  14.710 -15.723  1.00  0.00    -0.285 OA
ATOM      8  C   UNL     1       7.662  14.897 -17.960  1.00  0.00     0.111 A 
ATOM      9  C   UNL     1       8.340  14.882 -20.303  1.00  0.00     0.094 A 
ATOM     10  C   UNL     1       7.531  16.305 -18.020  1.00  0.00     0.134 A 
ATOM     11  C   UNL     1       8.207  16.274 -20.357  1.00  0.00     0.123 A 
ATOM     12  C   UNL     1       7.806  16.979 -19.218  1.00  0.00     0.093 A 
BRANCH   3  13
ATOM     13  C   UNL     1       8.044  10.659 -18.152  1.00  0.00     0.025 A 
ATOM     14  C   UNL     1       6.875   9.892 -18.263  1.00  0.00     0.016 A 
ATOM     15  C   UNL     1       6.950   8.502 -18.384  1.00  0.00     0.051 A 
ATOM     16  C   UNL     1       8.191   7.858 -18.383  1.00  0.00     0.157 A 
ATOM     17  C   UNL     1       9.290  10.008 -18.124  1.00  0.00     0.062 A 
ATOM     18  C   UNL     1       9.368   8.614 -18.249  1.00  0.00     0.158 A 
BRANCH  16  19
ATOM     19  O   UNL     1       8.235   6.470 -18.511  1.00  0.00    -0.504 OA
ATOM     20  H   UNL     1       7.798   5.853 -17.837  1.00  0.00     0.293 HD
ENDBRANCH  16  19
BRANCH  18  21
ATOM     21  O   UNL     1      10.609   7.979 -18.239  1.00  0.00    -0.504 OA
ATOM     22  H   UNL     1      11.262   8.076 -19.008  1.00  0.00     0.293 HD
ENDBRANCH  18  21
ENDBRANCH   3  13
BRANCH  10  23
ATOM     23  O   UNL     1       7.132  17.037 -16.900  1.00  0.00    -0.507 OA
ATOM     24  H   UNL     1       7.733  17.734 -16.477  1.00  0.00     0.293 HD
ENDBRANCH  10  23
BRANCH  11  25
ATOM     25  O   UNL     1       8.467  16.967 -21.537  1.00  0.00    -0.508 OA
ATOM     26  H   UNL     1       8.153  16.618 -22.435  1.00  0.00     0.293 HD
ENDBRANCH  11  25
ENDBRANCH   1   2
BRANCH   1  27
ATOM     27  C   UNL     1       8.456  11.770 -14.688  1.00  0.00     0.339 C 
ATOM     28  C   UNL     1       7.906  11.507 -13.272  1.00  0.00     0.214 C 
ATOM     29  O   UNL     1       9.252  10.698 -15.169  1.00  0.00    -0.332 OA
ATOM     30  C   UNL     1       6.996  10.255 -13.241  1.00  0.00     0.180 C 
ATOM     31  C   UNL     1       8.736   9.388 -14.922  1.00  0.00     0.179 C 
ATOM     32  C   UNL     1       7.254   9.334 -14.454  1.00  0.00     0.177 C 
BRANCH  28  33
ATOM     33  O   UNL     1       7.206  12.636 -12.818  1.00  0.00    -0.384 OA
ATOM     34  H   UNL     1       6.996  13.186 -13.617  1.00  0.00     0.211 HD
ENDBRANCH  28  33
BRANCH  30  35
ATOM     35  O   UNL     1       7.202   9.545 -12.045  1.00  0.00    -0.387 OA
ATOM     36  H   UNL     1       8.150   9.252 -12.045  1.00  0.00     0.211 HD
ENDBRANCH  30  35
BRANCH  31  37
ATOM     37  C   UNL     1       9.686   8.645 -13.963  1.00  0.00     0.191 C 
BRANCH  37  38
ATOM     38  O   UNL     1       9.480   7.260 -14.042  1.00  0.00    -0.394 OA
ATOM     39  H   UNL     1      10.084   6.922 -14.754  1.00  0.00     0.210 HD
ENDBRANCH  37  38
ENDBRANCH  31  37
BRANCH  32  40
ATOM     40  O   UNL     1       6.875   8.009 -14.174  1.00  0.00    -0.387 OA
ATOM     41  H   UNL     1       7.364   7.738 -13.353  1.00  0.00     0.211 HD
ENDBRANCH  32  40
ENDBRANCH   1  27
TORSDOF 12
ENDMDL
MODEL 6
REMARK VINA RESULT:    -5.236      2.858      7.273
REMARK INTER + INTRA:          -8.551
REMARK INTER:                  -7.843
REMARK INTRA:                  -0.708
REMARK UNBOUND:                -0.866
REMARK SMILES O=c1c(O[C@@H]2O[C@@H](CO)[C@@H](O)[C@@H](O)[C@@H]2O)c(-c2ccc(O)c(O)c2)oc2cc(O)cc(O)c12
REMARK SMILES IDX 4 1 3 2 16 3 25 4 2 5 26 6 1 7 33 8 27 9 31 10 28 11 30 12
REMARK SMILES IDX 17 13 18 14 19 15 20 16 24 17 22 18 21 19 23 21 32 23 29 25
REMARK SMILES IDX 5 27 14 28 6 29 12 30 7 31 10 32 15 33 13 35 8 37 9 38 11 40
REMARK H PARENT 21 20 23 22 32 24 29 26 15 34 13 36 9 39 11 41
REMARK Flexibility Score: inf
ROOT
ATOM      1  O   UNL     1       9.022  11.678 -18.019  1.00  0.00    -0.454 OA
ENDROOT
BRANCH   1   2
ATOM      2  C   UNL     1       8.620  13.013 -17.887  1.00  0.00     0.214 A 
ATOM      3  C   UNL     1       7.969  13.490 -16.729  1.00  0.00     0.180 A 
ATOM      4  O   UNL     1       7.537  14.747 -16.688  1.00  0.00    -0.452 OA
ATOM      5  C   UNL     1       8.873  13.904 -18.936  1.00  0.00     0.239 A 
ATOM      6  C   UNL     1       7.722  15.615 -17.676  1.00  0.00     0.146 A 
ATOM      7  O   UNL     1       9.497  13.495 -19.953  1.00  0.00    -0.285 OA
ATOM      8  C   UNL     1       8.416  15.234 -18.849  1.00  0.00     0.111 A 
ATOM      9  C   UNL     1       7.235  16.918 -17.538  1.00  0.00     0.094 A 
ATOM     10  C   UNL     1       8.611  16.189 -19.876  1.00  0.00     0.134 A 
ATOM     11  C   UNL     1       7.432  17.858 -18.556  1.00  0.00     0.123 A 
ATOM     12  C   UNL     1       8.116  17.492 -19.718  1.00  0.00     0.093 A 
BRANCH   3  13
ATOM     13  C   UNL     1       7.757  12.646 -15.531  1.00  0.00     0.025 A 
ATOM     14  C   UNL     1       7.088  11.420 -15.657  1.00  0.00     0.016 A 
ATOM     15  C   UNL     1       6.875  10.612 -14.537  1.00  0.00     0.051 A 
ATOM     16  C   UNL     1       7.315  11.024 -13.275  1.00  0.00     0.157 A 
ATOM     17  C   UNL     1       8.175  13.071 -14.257  1.00  0.00     0.062 A 
ATOM     18  C   UNL     1       7.966  12.261 -13.133  1.00  0.00     0.158 A 
BRANCH  16  19
ATOM     19  O   UNL     1       7.094  10.194 -12.176  1.00  0.00    -0.504 OA
ATOM     20  H   UNL     1       7.725   9.440 -11.934  1.00  0.00     0.293 HD
ENDBRANCH  16  19
BRANCH  18  21
ATOM     21  O   UNL     1       8.401  12.682 -11.877  1.00  0.00    -0.504 OA
ATOM     22  H   UNL     1       9.080  12.152 -11.344  1.00  0.00     0.293 HD
ENDBRANCH  18  21
ENDBRANCH   3  13
BRANCH  10  23
ATOM     23  O   UNL     1       9.290  15.854 -21.048  1.00  0.00    -0.507 OA
ATOM     24  H   UNL     1      10.264  15.574 -21.038  1.00  0.00     0.293 HD
ENDBRANCH  10  23
BRANCH  11  25
ATOM     25  O   UNL     1       6.957  19.161 -18.420  1.00  0.00    -0.508 OA
ATOM     26  H   UNL     1       6.113  19.364 -17.899  1.00  0.00     0.293 HD
ENDBRANCH  11  25
ENDBRANCH   1   2
BRANCH   1  27
ATOM     27  C   UNL     1      10.391  11.271 -18.117  1.00  0.00     0.339 C 
ATOM     28  C   UNL     1      11.026  11.080 -16.726  1.00  0.00     0.214 C 
ATOM     29  O   UNL     1      10.483  10.104 -18.920  1.00  0.00    -0.332 OA
ATOM     30  C   UNL     1      10.317   9.958 -15.928  1.00  0.00     0.180 C 
ATOM     31  C   UNL     1      10.194   8.873 -18.254  1.00  0.00     0.179 C 
ATOM     32  C   UNL     1       9.524   9.012 -16.858  1.00  0.00     0.177 C 
BRANCH  28  33
ATOM     33  O   UNL     1      10.984  12.290 -16.014  1.00  0.00    -0.384 OA
ATOM     34  H   UNL     1      11.340  12.992 -16.619  1.00  0.00     0.211 HD
ENDBRANCH  28  33
BRANCH  30  35
ATOM     35  O   UNL     1      11.264   9.224 -15.191  1.00  0.00    -0.387 OA
ATOM     36  H   UNL     1      11.513   8.439 -15.745  1.00  0.00     0.211 HD
ENDBRANCH  30  35
BRANCH  31  37
ATOM     37  C   UNL     1      11.470   8.010 -18.215  1.00  0.00     0.191 C 
BRANCH  37  38
ATOM     38  O   UNL     1      12.496   8.617 -18.953  1.00  0.00    -0.394 OA
ATOM     39  H   UNL     1      12.635   8.057 -19.762  1.00  0.00     0.210 HD
ENDBRANCH  37  38
ENDBRANCH  31  37
BRANCH  32  40
ATOM     40  O   UNL     1       9.350   7.748 -16.268  1.00  0.00    -0.387 OA
ATOM     41  H   UNL     1       9.572   7.848 -15.305  1.00  0.00     0.211 HD
ENDBRANCH  32  40
ENDBRANCH   1  27
TORSDOF 12
ENDMDL
MODEL 7
REMARK VINA RESULT:    -5.056      1.736      5.630
REMARK INTER + INTRA:          -8.286
REMARK INTER:                  -8.318
REMARK INTRA:                   0.033
REMARK UNBOUND:                -0.866
REMARK SMILES O=c1c(O[C@@H]2O[C@@H](CO)[C@@H](O)[C@@H](O)[C@@H]2O)c(-c2ccc(O)c(O)c2)oc2cc(O)cc(O)c12
REMARK SMILES IDX 4 1 3 2 16 3 25 4 2 5 26 6 1 7 33 8 27 9 31 10 28 11 30 12
REMARK SMILES IDX 17 13 18 14 19 15 20 16 24 17 22 18 21 19 23 21 32 23 29 25
REMARK SMILES IDX 5 27 14 28 6 29 12 30 7 31 10 32 15 33 13 35 8 37 9 38 11 40
REMARK H PARENT 21 20 23 22 32 24 29 26 15 34 13 36 9 39 11 41
REMARK Flexibility Score: inf
ROOT
ATOM      1  O   UNL     1       7.594  10.316 -17.272  1.00  0.00    -0.454 OA
ENDROOT
BRANCH   1   2
ATOM      2  C   UNL     1       7.486   9.586 -16.082  1.00  0.00     0.214 A 
ATOM      3  C   UNL     1       7.242   8.195 -16.074  1.00  0.00     0.180 A 
ATOM      4  O   UNL     1       7.068   7.564 -14.916  1.00  0.00    -0.452 OA
ATOM      5  C   UNL     1       7.622  10.255 -14.861  1.00  0.00     0.239 A 
ATOM      6  C   UNL     1       7.152   8.168 -13.736  1.00  0.00     0.146 A 
ATOM      7  O   UNL     1       7.887  11.488 -14.863  1.00  0.00    -0.285 OA
ATOM      8  C   UNL     1       7.448   9.550 -13.653  1.00  0.00     0.111 A 
ATOM      9  C   UNL     1       6.957   7.419 -12.572  1.00  0.00     0.094 A 
ATOM     10  C   UNL     1       7.548  10.159 -12.380  1.00  0.00     0.134 A 
ATOM     11  C   UNL     1       7.058   8.026 -11.316  1.00  0.00     0.123 A 
ATOM     12  C   UNL     1       7.351   9.389 -11.224  1.00  0.00     0.093 A 
BRANCH   3  13
ATOM     13  C   UNL     1       7.190   7.390 -17.316  1.00  0.00     0.025 A 
ATOM     14  C   UNL     1       6.946   8.023 -18.543  1.00  0.00     0.016 A 
ATOM     15  C   UNL     1       6.888   7.279 -19.724  1.00  0.00     0.051 A 
ATOM     16  C   UNL     1       7.061   5.892 -19.694  1.00  0.00     0.157 A 
ATOM     17  C   UNL     1       7.337   5.992 -17.284  1.00  0.00     0.062 A 
ATOM     18  C   UNL     1       7.283   5.243 -18.468  1.00  0.00     0.158 A 
BRANCH  16  19
ATOM     19  O   UNL     1       7.004   5.175 -20.890  1.00  0.00    -0.504 OA
ATOM     20  H   UNL     1       6.653   4.227 -20.932  1.00  0.00     0.293 HD
ENDBRANCH  16  19
BRANCH  18  21
ATOM     21  O   UNL     1       7.448   3.859 -18.429  1.00  0.00    -0.504 OA
ATOM     22  H   UNL     1       6.928   3.244 -19.043  1.00  0.00     0.293 HD
ENDBRANCH  18  21
ENDBRANCH   3  13
BRANCH  10  23
ATOM     23  O   UNL     1       7.840  11.518 -12.255  1.00  0.00    -0.507 OA
ATOM     24  H   UNL     1       7.403  12.094 -11.544  1.00  0.00     0.293 HD
ENDBRANCH  10  23
BRANCH  11  25
ATOM     25  O   UNL     1       6.875   7.283 -10.152  1.00  0.00    -0.508 OA
ATOM     26  H   UNL     1       7.630   6.745  -9.744  1.00  0.00     0.293 HD
ENDBRANCH  11  25
ENDBRANCH   1   2
BRANCH   1  27
ATOM     27  C   UNL     1       8.462  11.444 -17.431  1.00  0.00     0.339 C 
ATOM     28  C   UNL     1       9.477  11.222 -18.569  1.00  0.00     0.214 C 
ATOM     29  O   UNL     1       7.686  12.618 -17.616  1.00  0.00    -0.332 OA
ATOM     30  C   UNL     1       8.768  11.052 -19.935  1.00  0.00     0.180 C 
ATOM     31  C   UNL     1       7.207  12.836 -18.944  1.00  0.00     0.179 C 
ATOM     32  C   UNL     1       7.332  11.621 -19.906  1.00  0.00     0.177 C 
BRANCH  28  33
ATOM     33  O   UNL     1      10.272  10.101 -18.285  1.00  0.00    -0.384 OA
ATOM     34  H   UNL     1       9.655   9.370 -18.021  1.00  0.00     0.211 HD
ENDBRANCH  28  33
BRANCH  30  35
ATOM     35  O   UNL     1       9.516  11.685 -20.944  1.00  0.00    -0.387 OA
ATOM     36  H   UNL     1       9.150  12.603 -21.038  1.00  0.00     0.211 HD
ENDBRANCH  30  35
BRANCH  31  37
ATOM     37  C   UNL     1       7.862  14.110 -19.513  1.00  0.00     0.191 C 
BRANCH  37  38
ATOM     38  O   UNL     1       7.045  14.684 -20.498  1.00  0.00    -0.394 OA
ATOM     39  H   UNL     1       7.277  15.649 -20.534  1.00  0.00     0.210 HD
ENDBRANCH  37  38
ENDBRANCH  31  37
BRANCH  32  40
ATOM     40  O   UNL     1       6.897  11.968 -21.197  1.00  0.00    -0.387 OA
ATOM     41  H   UNL     1       6.651  12.930 -21.167  1.00  0.00     0.211 HD
ENDBRANCH  32  40
ENDBRANCH   1  27
TORSDOF 12
ENDMDL
MODEL 8
REMARK VINA RESULT:    -5.039      1.562      4.683
REMARK INTER + INTRA:          -8.262
REMARK INTER:                  -7.300
REMARK INTRA:                  -0.962
REMARK UNBOUND:                -0.866
REMARK SMILES O=c1c(O[C@@H]2O[C@@H](CO)[C@@H](O)[C@@H](O)[C@@H]2O)c(-c2ccc(O)c(O)c2)oc2cc(O)cc(O)c12
REMARK SMILES IDX 4 1 3 2 16 3 25 4 2 5 26 6 1 7 33 8 27 9 31 10 28 11 30 12
REMARK SMILES IDX 17 13 18 14 19 15 20 16 24 17 22 18 21 19 23 21 32 23 29 25
REMARK SMILES IDX 5 27 14 28 6 29 12 30 7 31 10 32 15 33 13 35 8 37 9 38 11 40
REMARK H PARENT 21 20 23 22 32 24 29 26 15 34 13 36 9 39 11 41
REMARK Flexibility Score: inf
ROOT
ATOM      1  O   UNL     1       8.228   8.932 -15.127  1.00  0.00    -0.454 OA
ENDROOT
BRANCH   1   2
ATOM      2  C   UNL     1       8.077   7.905 -16.067  1.00  0.00     0.214 A 
ATOM      3  C   UNL     1       8.139   8.143 -17.457  1.00  0.00     0.180 A 
ATOM      4  O   UNL     1       7.909   7.145 -18.306  1.00  0.00    -0.452 OA
ATOM      5  C   UNL     1       7.858   6.599 -15.614  1.00  0.00     0.239 A 
ATOM      6  C   UNL     1       7.660   5.900 -17.919  1.00  0.00     0.146 A 
ATOM      7  O   UNL     1       7.849   6.373 -14.373  1.00  0.00    -0.285 OA
ATOM      8  C   UNL     1       7.636   5.564 -16.544  1.00  0.00     0.111 A 
ATOM      9  C   UNL     1       7.435   4.917 -18.887  1.00  0.00     0.094 A 
ATOM     10  C   UNL     1       7.385   4.223 -16.166  1.00  0.00     0.134 A 
ATOM     11  C   UNL     1       7.189   3.593 -18.507  1.00  0.00     0.123 A 
ATOM     12  C   UNL     1       7.163   3.252 -17.153  1.00  0.00     0.093 A 
BRANCH   3  13
ATOM     13  C   UNL     1       8.471   9.470 -18.022  1.00  0.00     0.025 A 
ATOM     14  C   UNL     1       9.761   9.993 -17.849  1.00  0.00     0.016 A 
ATOM     15  C   UNL     1      10.092  11.246 -18.372  1.00  0.00     0.051 A 
ATOM     16  C   UNL     1       9.137  11.999 -19.062  1.00  0.00     0.157 A 
ATOM     17  C   UNL     1       7.505  10.240 -18.694  1.00  0.00     0.062 A 
ATOM     18  C   UNL     1       7.835  11.496 -19.221  1.00  0.00     0.158 A 
BRANCH  16  19
ATOM     19  O   UNL     1       9.497  13.244 -19.577  1.00  0.00    -0.504 OA
ATOM     20  H   UNL     1      10.020  13.920 -19.034  1.00  0.00     0.293 HD
ENDBRANCH  16  19
BRANCH  18  21
ATOM     21  O   UNL     1       6.875  12.243 -19.902  1.00  0.00    -0.504 OA
ATOM     22  H   UNL     1       6.737  12.148 -20.901  1.00  0.00     0.293 HD
ENDBRANCH  18  21
ENDBRANCH   3  13
BRANCH  10  23
ATOM     23  O   UNL     1       7.354   3.851 -14.821  1.00  0.00    -0.507 OA
ATOM     24  H   UNL     1       6.608   3.278 -14.443  1.00  0.00     0.293 HD
ENDBRANCH  10  23
BRANCH  11  25
ATOM     25  O   UNL     1       6.973   2.608 -19.468  1.00  0.00    -0.508 OA
ATOM     26  H   UNL     1       7.176   1.633 -19.281  1.00  0.00     0.293 HD
ENDBRANCH  11  25
ENDBRANCH   1   2
BRANCH   1  27
ATOM     27  C   UNL     1       7.145   9.748 -14.667  1.00  0.00     0.339 C 
ATOM     28  C   UNL     1       7.424  10.321 -13.264  1.00  0.00     0.214 C 
ATOM     29  O   UNL     1       6.876  10.762 -15.624  1.00  0.00    -0.332 OA
ATOM     30  C   UNL     1       8.666  11.246 -13.265  1.00  0.00     0.180 C 
ATOM     31  C   UNL     1       7.728  11.908 -15.564  1.00  0.00     0.179 C 
ATOM     32  C   UNL     1       9.001  11.746 -14.688  1.00  0.00     0.177 C 
BRANCH  28  33
ATOM     33  O   UNL     1       7.593   9.271 -12.348  1.00  0.00    -0.384 OA
ATOM     34  H   UNL     1       6.894   8.596 -12.550  1.00  0.00     0.211 HD
ENDBRANCH  28  33
BRANCH  30  35
ATOM     35  O   UNL     1       8.447  12.340 -12.410  1.00  0.00    -0.387 OA
ATOM     36  H   UNL     1       9.074  13.056 -12.693  1.00  0.00     0.211 HD
ENDBRANCH  30  35
BRANCH  31  37
ATOM     37  C   UNL     1       6.889  13.138 -15.166  1.00  0.00     0.191 C 
BRANCH  37  38
ATOM     38  O   UNL     1       7.703  14.276 -15.066  1.00  0.00    -0.394 OA
ATOM     39  H   UNL     1       7.422  14.893 -15.791  1.00  0.00     0.210 HD
ENDBRANCH  37  38
ENDBRANCH  31  37
BRANCH  32  40
ATOM     40  O   UNL     1       9.725  12.951 -14.645  1.00  0.00    -0.387 OA
ATOM     41  H   UNL     1       9.438  13.485 -15.431  1.00  0.00     0.211 HD
ENDBRANCH  32  40
ENDBRANCH   1  27
TORSDOF 12
ENDMDL
MODEL 9
REMARK VINA RESULT:    -4.927      1.749      4.540
REMARK INTER + INTRA:          -8.098
REMARK INTER:                  -7.729
REMARK INTRA:                  -0.369
REMARK UNBOUND:                -0.866
REMARK SMILES O=c1c(O[C@@H]2O[C@@H](CO)[C@@H](O)[C@@H](O)[C@@H]2O)c(-c2ccc(O)c(O)c2)oc2cc(O)cc(O)c12
REMARK SMILES IDX 4 1 3 2 16 3 25 4 2 5 26 6 1 7 33 8 27 9 31 10 28 11 30 12
REMARK SMILES IDX 17 13 18 14 19 15 20 16 24 17 22 18 21 19 23 21 32 23 29 25
REMARK SMILES IDX 5 27 14 28 6 29 12 30 7 31 10 32 15 33 13 35 8 37 9 38 11 40
REMARK H PARENT 21 20 23 22 32 24 29 26 15 34 13 36 9 39 11 41
REMARK Flexibility Score: inf
ROOT
ATOM      1  O   UNL     1       8.411  11.474 -15.805  1.00  0.00    -0.454 OA
ENDROOT
BRANCH   1   2
ATOM      2  C   UNL     1       8.177  10.188 -16.310  1.00  0.00     0.214 A 
ATOM      3  C   UNL     1       7.875   9.959 -17.669  1.00  0.00     0.180 A 
ATOM      4  O   UNL     1       7.583   8.728 -18.080  1.00  0.00    -0.452 OA
ATOM      5  C   UNL     1       8.245   9.095 -15.438  1.00  0.00     0.239 A 
ATOM      6  C   UNL     1       7.598   7.669 -17.279  1.00  0.00     0.146 A 
ATOM      7  O   UNL     1       8.560   9.289 -14.233  1.00  0.00    -0.285 OA
ATOM      8  C   UNL     1       7.946   7.803 -15.914  1.00  0.00     0.111 A 
ATOM      9  C   UNL     1       7.280   6.413 -17.805  1.00  0.00     0.094 A 
ATOM     10  C   UNL     1       7.970   6.651 -15.092  1.00  0.00     0.134 A 
ATOM     11  C   UNL     1       7.307   5.278 -16.988  1.00  0.00     0.123 A 
ATOM     12  C   UNL     1       7.649   5.400 -15.638  1.00  0.00     0.093 A 
BRANCH   3  13
ATOM     13  C   UNL     1       7.887  11.041 -18.680  1.00  0.00     0.025 A 
ATOM     14  C   UNL     1       6.885  12.022 -18.658  1.00  0.00     0.016 A 
ATOM     15  C   UNL     1       6.878  13.048 -19.606  1.00  0.00     0.051 A 
ATOM     16  C   UNL     1       7.863  13.101 -20.597  1.00  0.00     0.157 A 
ATOM     17  C   UNL     1       8.862  11.081 -19.693  1.00  0.00     0.062 A 
ATOM     18  C   UNL     1       8.859  12.111 -20.644  1.00  0.00     0.158 A 
BRANCH  16  19
ATOM     19  O   UNL     1       7.834  14.140 -21.527  1.00  0.00    -0.504 OA
ATOM     20  H   UNL     1       7.249  14.106 -22.353  1.00  0.00     0.293 HD
ENDBRANCH  16  19
BRANCH  18  21
ATOM     21  O   UNL     1       9.840  12.153 -21.633  1.00  0.00    -0.504 OA
ATOM     22  H   UNL     1      10.827  12.128 -21.405  1.00  0.00     0.293 HD
ENDBRANCH  18  21
ENDBRANCH   3  13
BRANCH  10  23
ATOM     23  O   UNL     1       8.308   6.740 -13.741  1.00  0.00    -0.507 OA
ATOM     24  H   UNL     1       9.261   6.617 -13.420  1.00  0.00     0.293 HD
ENDBRANCH  10  23
BRANCH  11  25
ATOM     25  O   UNL     1       7.000   4.022 -17.508  1.00  0.00    -0.508 OA
ATOM     26  H   UNL     1       7.450   3.672 -18.345  1.00  0.00     0.293 HD
ENDBRANCH  11  25
ENDBRANCH   1   2
BRANCH   1  27
ATOM     27  C   UNL     1       9.675  11.901 -15.286  1.00  0.00     0.339 C 
ATOM     28  C   UNL     1      10.701  12.133 -16.412  1.00  0.00     0.214 C 
ATOM     29  O   UNL     1       9.490  13.051 -14.474  1.00  0.00    -0.332 OA
ATOM     30  C   UNL     1      10.245  13.261 -17.370  1.00  0.00     0.180 C 
ATOM     31  C   UNL     1       9.391  14.291 -15.177  1.00  0.00     0.179 C 
ATOM     32  C   UNL     1       9.185  14.172 -16.713  1.00  0.00     0.177 C 
BRANCH  28  33
ATOM     33  O   UNL     1      10.905  10.938 -17.121  1.00  0.00    -0.384 OA
ATOM     34  H   UNL     1      11.770  11.031 -17.598  1.00  0.00     0.211 HD
ENDBRANCH  28  33
BRANCH  30  35
ATOM     35  O   UNL     1      11.356  14.025 -17.769  1.00  0.00    -0.387 OA
ATOM     36  H   UNL     1      11.360  14.842 -17.206  1.00  0.00     0.211 HD
ENDBRANCH  30  35
BRANCH  31  37
ATOM     37  C   UNL     1      10.599  15.176 -14.809  1.00  0.00     0.191 C 
BRANCH  37  38
ATOM     38  O   UNL     1      11.784  14.427 -14.843  1.00  0.00    -0.394 OA
ATOM     39  H   UNL     1      12.533  15.073 -14.749  1.00  0.00     0.210 HD
ENDBRANCH  37  38
ENDBRANCH  31  37
BRANCH  32  40
ATOM     40  O   UNL     1       9.172  15.446 -17.308  1.00  0.00    -0.387 OA
ATOM     41  H   UNL     1       9.793  15.407 -18.082  1.00  0.00     0.211 HD
ENDBRANCH  32  40
ENDBRANCH   1  27
TORSDOF 12
ENDMDL
