MODEL 1
REMARK VINA RESULT:    -6.644      0.000      0.000
REMARK INTER + INTRA:          -7.186
REMARK INTER:                  -7.032
REMARK INTRA:                  -0.154
REMARK UNBOUND:                -0.154
REMARK SMILES C=C(C)[C@@H]1CC=C(C)CC1
REMARK SMILES IDX 8 1 7 2 6 3 5 4 4 5 10 6 9 7 2 8 1 9 3 10
REMARK H PARENT
REMARK Flexibility Score: inf
ROOT
ATOM      1  C   UNL     1      -1.269 -18.342  13.586  1.00  0.00     0.039 C 
ATOM      2  C   UNL     1       0.096 -18.175  14.192  1.00  0.00    -0.077 C 
ATOM      3  C   UNL     1       1.178 -18.671  13.569  1.00  0.00    -0.027 C 
ATOM      4  C   UNL     1       2.527 -18.539  14.218  1.00  0.00     0.035 C 
ATOM      5  C   UNL     1       2.443 -18.928  15.714  1.00  0.00     0.018 C 
ATOM      6  C   UNL     1       1.194 -18.333  16.443  1.00  0.00     0.013 C 
ATOM      7  C   UNL     1       0.282 -17.493  15.529  1.00  0.00     0.031 C 
ENDROOT
BRANCH   5   8
ATOM      8  C   UNL     1       3.739 -18.582  16.435  1.00  0.00    -0.077 C 
ATOM      9  C   UNL     1       3.972 -19.024  17.683  1.00  0.00     0.008 C 
ATOM     10  C   UNL     1       4.785 -17.734  15.760  1.00  0.00     0.039 C 
ENDBRANCH   5   8
TORSDOF 1
ENDMDL
MODEL 2
REMARK VINA RESULT:    -6.296      0.987      4.317
REMARK INTER + INTRA:          -6.818
REMARK INTER:                  -6.661
REMARK INTRA:                  -0.157
REMARK UNBOUND:                -0.154
REMARK SMILES C=C(C)[C@@H]1CC=C(C)CC1
REMARK SMILES IDX 8 1 7 2 6 3 5 4 4 5 10 6 9 7 2 8 1 9 3 10
REMARK H PARENT
REMARK Flexibility Score: inf
ROOT
ATOM      1  C   UNL     1       4.668 -18.800  15.715  1.00  0.00     0.039 C 
ATOM      2  C   UNL     1       3.210 -18.832  15.353  1.00  0.00    -0.077 C 
ATOM      3  C   UNL     1       2.829 -18.727  14.069  1.00  0.00    -0.027 C 
ATOM      4  C   UNL     1       1.364 -18.708  13.734  1.00  0.00     0.035 C 
ATOM      5  C   UNL     1       0.609 -17.747  14.683  1.00  0.00     0.018 C 
ATOM      6  C   UNL     1       1.039 -17.884  16.181  1.00  0.00     0.013 C 
ATOM      7  C   UNL     1       2.140 -18.935  16.417  1.00  0.00     0.031 C 
ENDROOT
BRANCH   5   8
ATOM      8  C   UNL     1      -0.898 -17.889  14.510  1.00  0.00    -0.077 C 
ATOM      9  C   UNL     1      -1.419 -18.325  13.350  1.00  0.00     0.008 C 
ATOM     10  C   UNL     1      -1.832 -17.542  15.640  1.00  0.00     0.039 C 
ENDBRANCH   5   8
TORSDOF 1
ENDMDL
MODEL 3
REMARK VINA RESULT:    -6.188      1.080      4.389
REMARK INTER + INTRA:          -6.704
REMARK INTER:                  -6.547
REMARK INTRA:                  -0.158
REMARK UNBOUND:                -0.154
REMARK SMILES C=C(C)[C@@H]1CC=C(C)CC1
REMARK SMILES IDX 8 1 7 2 6 3 5 4 4 5 10 6 9 7 2 8 1 9 3 10
REMARK H PARENT
REMARK Flexibility Score: inf
ROOT
ATOM      1  C   UNL     1       5.152 -18.774  15.494  1.00  0.00     0.039 C 
ATOM      2  C   UNL     1       3.742 -18.279  15.336  1.00  0.00    -0.077 C 
ATOM      3  C   UNL     1       3.009 -17.968  16.418  1.00  0.00    -0.027 C 
ATOM      4  C   UNL     1       1.584 -17.524  16.241  1.00  0.00     0.035 C 
ATOM      5  C   UNL     1       0.852 -18.457  15.246  1.00  0.00     0.018 C 
ATOM      6  C   UNL     1       1.698 -18.803  13.977  1.00  0.00     0.013 C 
ATOM      7  C   UNL     1       3.100 -18.164  13.972  1.00  0.00     0.031 C 
ENDROOT
BRANCH   5   8
ATOM      8  C   UNL     1      -0.514 -17.891  14.880  1.00  0.00    -0.077 C 
ATOM      9  C   UNL     1      -1.242 -17.211  15.783  1.00  0.00     0.008 C 
ATOM     10  C   UNL     1      -1.075 -18.087  13.496  1.00  0.00     0.039 C 
ENDBRANCH   5   8
TORSDOF 1
ENDMDL
MODEL 4
REMARK VINA RESULT:    -5.925      6.561     10.072
REMARK INTER + INTRA:          -6.425
REMARK INTER:                  -6.263
REMARK INTRA:                  -0.162
REMARK UNBOUND:                -0.154
REMARK SMILES C=C(C)[C@@H]1CC=C(C)CC1
REMARK SMILES IDX 8 1 7 2 6 3 5 4 4 5 10 6 9 7 2 8 1 9 3 10
REMARK H PARENT
REMARK Flexibility Score: inf
ROOT
ATOM      1  C   UNL     1      -2.292 -16.332  11.961  1.00  0.00     0.039 C 
ATOM      2  C   UNL     1      -3.108 -15.850  10.794  1.00  0.00    -0.077 C 
ATOM      3  C   UNL     1      -4.142 -16.580  10.344  1.00  0.00    -0.027 C 
ATOM      4  C   UNL     1      -4.914 -16.106   9.144  1.00  0.00     0.035 C 
ATOM      5  C   UNL     1      -3.942 -15.657   8.026  1.00  0.00     0.018 C 
ATOM      6  C   UNL     1      -2.749 -14.790   8.548  1.00  0.00     0.013 C 
ATOM      7  C   UNL     1      -2.763 -14.567  10.072  1.00  0.00     0.031 C 
ENDROOT
BRANCH   5   8
ATOM      8  C   UNL     1      -4.697 -14.964   6.900  1.00  0.00    -0.077 C 
ATOM      9  C   UNL     1      -5.063 -15.640   5.797  1.00  0.00     0.008 C 
ATOM     10  C   UNL     1      -5.049 -13.503   7.005  1.00  0.00     0.039 C 
ENDBRANCH   5   8
TORSDOF 1
ENDMDL
MODEL 5
REMARK VINA RESULT:    -5.911      7.434      9.185
REMARK INTER + INTRA:          -6.410
REMARK INTER:                  -6.246
REMARK INTRA:                  -0.164
REMARK UNBOUND:                -0.154
REMARK SMILES C=C(C)[C@@H]1CC=C(C)CC1
REMARK SMILES IDX 8 1 7 2 6 3 5 4 4 5 10 6 9 7 2 8 1 9 3 10
REMARK H PARENT
REMARK Flexibility Score: inf
ROOT
ATOM      1  C   UNL     1      -1.287 -12.680  10.493  1.00  0.00     0.039 C 
ATOM      2  C   UNL     1      -2.154 -13.823  10.046  1.00  0.00    -0.077 C 
ATOM      3  C   UNL     1      -2.342 -14.884  10.849  1.00  0.00    -0.027 C 
ATOM      4  C   UNL     1      -3.171 -16.039  10.362  1.00  0.00     0.035 C 
ATOM      5  C   UNL     1      -2.761 -16.422   8.919  1.00  0.00     0.018 C 
ATOM      6  C   UNL     1      -2.562 -15.187   7.979  1.00  0.00     0.013 C 
ATOM      7  C   UNL     1      -2.794 -13.833   8.676  1.00  0.00     0.031 C 
ENDROOT
BRANCH   5   8
ATOM      8  C   UNL     1      -3.738 -17.431   8.330  1.00  0.00    -0.077 C 
ATOM      9  C   UNL     1      -3.360 -18.700   8.095  1.00  0.00     0.008 C 
ATOM     10  C   UNL     1      -5.149 -17.022   7.998  1.00  0.00     0.039 C 
ENDBRANCH   5   8
TORSDOF 1
ENDMDL
MODEL 6
REMARK VINA RESULT:    -5.855      6.876      9.427
REMARK INTER + INTRA:          -6.352
REMARK INTER:                  -6.196
REMARK INTRA:                  -0.156
REMARK UNBOUND:                -0.154
REMARK SMILES C=C(C)[C@@H]1CC=C(C)CC1
REMARK SMILES IDX 8 1 7 2 6 3 5 4 4 5 10 6 9 7 2 8 1 9 3 10
REMARK H PARENT
REMARK Flexibility Score: inf
ROOT
ATOM      1  C   UNL     1      -5.402 -15.393   5.298  1.00  0.00     0.039 C 
ATOM      2  C   UNL     1      -4.896 -15.368   6.713  1.00  0.00    -0.077 C 
ATOM      3  C   UNL     1      -4.016 -14.429   7.099  1.00  0.00    -0.027 C 
ATOM      4  C   UNL     1      -3.482 -14.452   8.504  1.00  0.00     0.035 C 
ATOM      5  C   UNL     1      -3.063 -15.891   8.894  1.00  0.00     0.018 C 
ATOM      6  C   UNL     1      -4.098 -16.981   8.461  1.00  0.00     0.013 C 
ATOM      7  C   UNL     1      -5.322 -16.415   7.717  1.00  0.00     0.031 C 
ENDROOT
BRANCH   5   8
ATOM      8  C   UNL     1      -2.738 -15.974  10.380  1.00  0.00    -0.077 C 
ATOM      9  C   UNL     1      -2.815 -17.145  11.037  1.00  0.00     0.008 C 
ATOM     10  C   UNL     1      -2.325 -14.742  11.141  1.00  0.00     0.039 C 
ENDBRANCH   5   8
TORSDOF 1
ENDMDL
MODEL 7
REMARK VINA RESULT:    -5.807      6.912      9.426
REMARK INTER + INTRA:          -6.301
REMARK INTER:                  -6.142
REMARK INTRA:                  -0.159
REMARK UNBOUND:                -0.154
REMARK SMILES C=C(C)[C@@H]1CC=C(C)CC1
REMARK SMILES IDX 8 1 7 2 6 3 5 4 4 5 10 6 9 7 2 8 1 9 3 10
REMARK H PARENT
REMARK Flexibility Score: inf
ROOT
ATOM      1  C   UNL     1      -5.375 -15.367   5.369  1.00  0.00     0.039 C 
ATOM      2  C   UNL     1      -4.690 -15.724   6.658  1.00  0.00    -0.077 C 
ATOM      3  C   UNL     1      -5.374 -16.328   7.643  1.00  0.00    -0.027 C 
ATOM      4  C   UNL     1      -4.683 -16.630   8.944  1.00  0.00     0.035 C 
ATOM      5  C   UNL     1      -3.874 -15.398   9.418  1.00  0.00     0.018 C 
ATOM      6  C   UNL     1      -3.061 -14.707   8.274  1.00  0.00     0.013 C 
ATOM      7  C   UNL     1      -3.238 -15.374   6.897  1.00  0.00     0.031 C 
ENDROOT
BRANCH   5   8
ATOM      8  C   UNL     1      -2.989 -15.758  10.605  1.00  0.00    -0.077 C 
ATOM      9  C   UNL     1      -2.743 -17.043  10.916  1.00  0.00     0.008 C 
ATOM     10  C   UNL     1      -2.373 -14.676  11.453  1.00  0.00     0.039 C 
ENDBRANCH   5   8
TORSDOF 1
ENDMDL
MODEL 8
REMARK VINA RESULT:    -5.790      6.669      8.867
REMARK INTER + INTRA:          -6.282
REMARK INTER:                  -6.123
REMARK INTRA:                  -0.159
REMARK UNBOUND:                -0.154
REMARK SMILES C=C(C)[C@@H]1CC=C(C)CC1
REMARK SMILES IDX 8 1 7 2 6 3 5 4 4 5 10 6 9 7 2 8 1 9 3 10
REMARK H PARENT
REMARK Flexibility Score: inf
ROOT
ATOM      1  C   UNL     1      -2.391 -14.208  12.929  1.00  0.00     0.039 C 
ATOM      2  C   UNL     1      -2.498 -14.905  11.601  1.00  0.00    -0.077 C 
ATOM      3  C   UNL     1      -2.283 -14.226  10.462  1.00  0.00    -0.027 C 
ATOM      4  C   UNL     1      -2.446 -14.929   9.143  1.00  0.00     0.035 C 
ATOM      5  C   UNL     1      -3.756 -15.754   9.134  1.00  0.00     0.018 C 
ATOM      6  C   UNL     1      -3.995 -16.560  10.453  1.00  0.00     0.013 C 
ATOM      7  C   UNL     1      -2.892 -16.362  11.510  1.00  0.00     0.031 C 
ENDROOT
BRANCH   5   8
ATOM      8  C   UNL     1      -3.821 -16.648   7.903  1.00  0.00    -0.077 C 
ATOM      9  C   UNL     1      -3.601 -17.971   8.000  1.00  0.00     0.008 C 
ATOM     10  C   UNL     1      -4.134 -16.063   6.550  1.00  0.00     0.039 C 
ENDBRANCH   5   8
TORSDOF 1
ENDMDL
MODEL 9
REMARK VINA RESULT:    -5.692      5.455      7.920
REMARK INTER + INTRA:          -6.179
REMARK INTER:                  -6.013
REMARK INTRA:                  -0.166
REMARK UNBOUND:                -0.154
REMARK SMILES C=C(C)[C@@H]1CC=C(C)CC1
REMARK SMILES IDX 8 1 7 2 6 3 5 4 4 5 10 6 9 7 2 8 1 9 3 10
REMARK H PARENT
REMARK Flexibility Score: inf
ROOT
ATOM      1  C   UNL     1      -4.253 -16.335   6.694  1.00  0.00     0.039 C 
ATOM      2  C   UNL     1      -3.825 -16.472   8.129  1.00  0.00    -0.077 C 
ATOM      3  C   UNL     1      -4.742 -16.491   9.110  1.00  0.00    -0.027 C 
ATOM      4  C   UNL     1      -4.290 -16.577  10.541  1.00  0.00     0.035 C 
ATOM      5  C   UNL     1      -3.131 -15.583  10.797  1.00  0.00     0.018 C 
ATOM      6  C   UNL     1      -2.053 -15.576   9.664  1.00  0.00     0.013 C 
ATOM      7  C   UNL     1      -2.362 -16.545   8.507  1.00  0.00     0.031 C 
ENDROOT
BRANCH   5   8
ATOM      8  C   UNL     1      -2.512 -15.818  12.168  1.00  0.00    -0.077 C 
ATOM      9  C   UNL     1      -1.891 -16.975  12.454  1.00  0.00     0.008 C 
ATOM     10  C   UNL     1      -2.586 -14.753  13.232  1.00  0.00     0.039 C 
ENDBRANCH   5   8
TORSDOF 1
ENDMDL
