MODEL 1
REMARK VINA RESULT:    -7.019      0.000      0.000
REMARK INTER + INTRA:          -9.045
REMARK INTER:                  -8.661
REMARK INTRA:                  -0.384
REMARK UNBOUND:                -0.384
REMARK SMILES COc1cc(-c2oc3cc(O)cc(O)c3c(=O)c2O)ccc1O
REMARK SMILES IDX 6 1 18 2 16 3 17 4 15 5 13 6 12 7 10 8 9 9 8 10 7 11 5 12
REMARK SMILES IDX 3 13 22 14 4 15 21 16 20 17 2 18 1 19 23 20 19 22 14 24
REMARK SMILES IDX 11 26
REMARK H PARENT 23 21 19 23 14 25 11 27
REMARK Flexibility Score: inf
ROOT
ATOM      1  C   UNL     1      34.443  26.778  20.793  1.00  0.00     0.180 A 
ATOM      2  C   UNL     1      34.719  25.399  20.794  1.00  0.00     0.208 A 
ATOM      3  C   UNL     1      34.459  24.652  19.634  1.00  0.00     0.238 A 
ATOM      4  O   UNL     1      34.759  23.429  19.623  1.00  0.00    -0.285 OA
ATOM      5  C   UNL     1      33.910  25.287  18.495  1.00  0.00     0.111 A 
ATOM      6  C   UNL     1      33.568  24.621  17.280  1.00  0.00     0.134 A 
ATOM      7  C   UNL     1      33.154  25.371  16.173  1.00  0.00     0.093 A 
ATOM      8  C   UNL     1      33.006  26.754  16.255  1.00  0.00     0.123 A 
ATOM      9  C   UNL     1      33.279  27.410  17.456  1.00  0.00     0.094 A 
ATOM     10  C   UNL     1      33.730  26.693  18.567  1.00  0.00     0.146 A 
ATOM     11  O   UNL     1      33.989  27.357  19.687  1.00  0.00    -0.452 OA
ENDROOT
BRANCH   1  12
ATOM     12  C   UNL     1      34.667  27.628  21.985  1.00  0.00     0.025 A 
ATOM     13  C   UNL     1      36.029  29.288  23.154  1.00  0.00     0.161 A 
ATOM     14  C   UNL     1      35.101  29.302  24.203  1.00  0.00     0.157 A 
ATOM     15  C   UNL     1      35.803  28.452  22.042  1.00  0.00     0.062 A 
ATOM     16  C   UNL     1      33.956  28.496  24.139  1.00  0.00     0.051 A 
ATOM     17  C   UNL     1      33.737  27.670  23.036  1.00  0.00     0.016 A 
BRANCH  13  18
ATOM     18  O   UNL     1      37.159  30.115  23.250  1.00  0.00    -0.493 OA
ATOM     19  C   UNL     1      38.504  29.660  23.144  1.00  0.00     0.278 C 
ENDBRANCH  13  18
BRANCH  14  20
ATOM     20  O   UNL     1      35.319  30.125  25.306  1.00  0.00    -0.504 OA
ATOM     21  H   UNL     1      35.065  29.835  26.244  1.00  0.00     0.293 HD
ENDBRANCH  14  20
ENDBRANCH   1  12
BRANCH   2  22
ATOM     22  O   UNL     1      35.281  24.797  21.922  1.00  0.00    -0.502 OA
ATOM     23  H   UNL     1      35.806  23.931  21.872  1.00  0.00     0.293 HD
ENDBRANCH   2  22
BRANCH   6  24
ATOM     24  O   UNL     1      33.592  23.232  17.119  1.00  0.00    -0.507 OA
ATOM     25  H   UNL     1      32.942  22.708  16.553  1.00  0.00     0.293 HD
ENDBRANCH   6  24
BRANCH   8  26
ATOM     26  O   UNL     1      32.577  27.467  15.138  1.00  0.00    -0.508 OA
ATOM     27  H   UNL     1      32.508  28.478  15.148  1.00  0.00     0.293 HD
ENDBRANCH   8  26
TORSDOF 6
ENDMDL
MODEL 2
REMARK VINA RESULT:    -6.738      1.118      2.853
REMARK INTER + INTRA:          -8.698
REMARK INTER:                  -8.310
REMARK INTRA:                  -0.389
REMARK UNBOUND:                -0.384
REMARK SMILES COc1cc(-c2oc3cc(O)cc(O)c3c(=O)c2O)ccc1O
REMARK SMILES IDX 6 1 18 2 16 3 17 4 15 5 13 6 12 7 10 8 9 9 8 10 7 11 5 12
REMARK SMILES IDX 3 13 22 14 4 15 21 16 20 17 2 18 1 19 23 20 19 22 14 24
REMARK SMILES IDX 11 26
REMARK H PARENT 23 21 19 23 14 25 11 27
REMARK Flexibility Score: inf
ROOT
ATOM      1  C   UNL     1      34.003  27.891  20.351  1.00  0.00     0.180 A 
ATOM      2  C   UNL     1      33.420  28.749  19.402  1.00  0.00     0.208 A 
ATOM      3  C   UNL     1      33.069  28.235  18.144  1.00  0.00     0.238 A 
ATOM      4  O   UNL     1      32.498  28.996  17.319  1.00  0.00    -0.285 OA
ATOM      5  C   UNL     1      33.319  26.875  17.843  1.00  0.00     0.111 A 
ATOM      6  C   UNL     1      33.041  26.258  16.586  1.00  0.00     0.134 A 
ATOM      7  C   UNL     1      33.209  24.875  16.444  1.00  0.00     0.093 A 
ATOM      8  C   UNL     1      33.706  24.098  17.488  1.00  0.00     0.123 A 
ATOM      9  C   UNL     1      34.038  24.701  18.703  1.00  0.00     0.094 A 
ATOM     10  C   UNL     1      33.847  26.073  18.888  1.00  0.00     0.146 A 
ATOM     11  O   UNL     1      34.166  26.604  20.062  1.00  0.00    -0.452 OA
ENDROOT
BRANCH   1  12
ATOM     12  C   UNL     1      34.423  28.363  21.690  1.00  0.00     0.025 A 
ATOM     13  C   UNL     1      36.078  29.487  23.097  1.00  0.00     0.161 A 
ATOM     14  C   UNL     1      35.234  29.327  24.205  1.00  0.00     0.157 A 
ATOM     15  C   UNL     1      35.663  29.007  21.838  1.00  0.00     0.062 A 
ATOM     16  C   UNL     1      33.989  28.704  24.056  1.00  0.00     0.051 A 
ATOM     17  C   UNL     1      33.583  28.230  22.807  1.00  0.00     0.016 A 
BRANCH  13  18
ATOM     18  O   UNL     1      37.314  30.125  23.284  1.00  0.00    -0.493 OA
ATOM     19  C   UNL     1      38.579  29.477  23.186  1.00  0.00     0.278 C 
ENDBRANCH  13  18
BRANCH  14  20
ATOM     20  O   UNL     1      35.639  29.798  25.452  1.00  0.00    -0.504 OA
ATOM     21  H   UNL     1      36.557  29.586  25.827  1.00  0.00     0.293 HD
ENDBRANCH  14  20
ENDBRANCH   1  12
BRANCH   2  22
ATOM     22  O   UNL     1      33.162  30.083  19.728  1.00  0.00    -0.502 OA
ATOM     23  H   UNL     1      33.829  30.660  20.224  1.00  0.00     0.293 HD
ENDBRANCH   2  22
BRANCH   6  24
ATOM     24  O   UNL     1      32.628  26.957  15.448  1.00  0.00    -0.507 OA
ATOM     25  H   UNL     1      33.136  27.719  15.025  1.00  0.00     0.293 HD
ENDBRANCH   6  24
BRANCH   8  26
ATOM     26  O   UNL     1      33.875  22.728  17.306  1.00  0.00    -0.508 OA
ATOM     27  H   UNL     1      34.769  22.335  17.036  1.00  0.00     0.293 HD
ENDBRANCH   8  26
TORSDOF 6
ENDMDL
MODEL 3
REMARK VINA RESULT:    -6.557      1.597      2.313
REMARK INTER + INTRA:          -8.474
REMARK INTER:                  -8.796
REMARK INTRA:                   0.322
REMARK UNBOUND:                -0.384
REMARK SMILES COc1cc(-c2oc3cc(O)cc(O)c3c(=O)c2O)ccc1O
REMARK SMILES IDX 6 1 18 2 16 3 17 4 15 5 13 6 12 7 10 8 9 9 8 10 7 11 5 12
REMARK SMILES IDX 3 13 22 14 4 15 21 16 20 17 2 18 1 19 23 20 19 22 14 24
REMARK SMILES IDX 11 26
REMARK H PARENT 23 21 19 23 14 25 11 27
REMARK Flexibility Score: inf
ROOT
ATOM      1  C   UNL     1      33.881  26.666  20.275  1.00  0.00     0.180 A 
ATOM      2  C   UNL     1      34.294  25.545  19.533  1.00  0.00     0.208 A 
ATOM      3  C   UNL     1      34.070  25.527  18.147  1.00  0.00     0.238 A 
ATOM      4  O   UNL     1      34.491  24.545  17.481  1.00  0.00    -0.285 OA
ATOM      5  C   UNL     1      33.423  26.620  17.523  1.00  0.00     0.111 A 
ATOM      6  C   UNL     1      33.109  26.690  16.132  1.00  0.00     0.134 A 
ATOM      7  C   UNL     1      32.586  27.875  15.601  1.00  0.00     0.093 A 
ATOM      8  C   UNL     1      32.303  28.968  16.418  1.00  0.00     0.123 A 
ATOM      9  C   UNL     1      32.550  28.889  17.790  1.00  0.00     0.094 A 
ATOM     10  C   UNL     1      33.106  27.733  18.344  1.00  0.00     0.146 A 
ATOM     11  O   UNL     1      33.335  27.704  19.651  1.00  0.00    -0.452 OA
ENDROOT
BRANCH   1  12
ATOM     12  C   UNL     1      34.059  26.749  21.743  1.00  0.00     0.025 A 
ATOM     13  C   UNL     1      34.141  28.107  23.775  1.00  0.00     0.161 A 
ATOM     14  C   UNL     1      34.334  26.946  24.535  1.00  0.00     0.157 A 
ATOM     15  C   UNL     1      33.997  28.001  22.377  1.00  0.00     0.062 A 
ATOM     16  C   UNL     1      34.376  25.694  23.908  1.00  0.00     0.051 A 
ATOM     17  C   UNL     1      34.233  25.595  22.523  1.00  0.00     0.016 A 
BRANCH  13  18
ATOM     18  O   UNL     1      34.096  29.342  24.440  1.00  0.00    -0.493 OA
ATOM     19  C   UNL     1      35.241  30.124  24.767  1.00  0.00     0.278 C 
ENDBRANCH  13  18
BRANCH  14  20
ATOM     20  O   UNL     1      34.478  27.044  25.918  1.00  0.00    -0.504 OA
ATOM     21  H   UNL     1      34.104  27.830  26.436  1.00  0.00     0.293 HD
ENDBRANCH  14  20
ENDBRANCH   1  12
BRANCH   2  22
ATOM     22  O   UNL     1      34.951  24.487  20.166  1.00  0.00    -0.502 OA
ATOM     23  H   UNL     1      35.464  23.781  19.653  1.00  0.00     0.293 HD
ENDBRANCH   2  22
BRANCH   6  24
ATOM     24  O   UNL     1      33.266  25.623  15.242  1.00  0.00    -0.507 OA
ATOM     25  H   UNL     1      33.440  25.720  14.253  1.00  0.00     0.293 HD
ENDBRANCH   6  24
BRANCH   8  26
ATOM     26  O   UNL     1      31.768  30.125  15.858  1.00  0.00    -0.508 OA
ATOM     27  H   UNL     1      30.777  30.210  15.662  1.00  0.00     0.293 HD
ENDBRANCH   8  26
TORSDOF 6
ENDMDL
MODEL 4
REMARK VINA RESULT:    -6.469      1.519      6.729
REMARK INTER + INTRA:          -8.366
REMARK INTER:                  -8.736
REMARK INTRA:                   0.370
REMARK UNBOUND:                -0.384
REMARK SMILES COc1cc(-c2oc3cc(O)cc(O)c3c(=O)c2O)ccc1O
REMARK SMILES IDX 6 1 18 2 16 3 17 4 15 5 13 6 12 7 10 8 9 9 8 10 7 11 5 12
REMARK SMILES IDX 3 13 22 14 4 15 21 16 20 17 2 18 1 19 23 20 19 22 14 24
REMARK SMILES IDX 11 26
REMARK H PARENT 23 21 19 23 14 25 11 27
REMARK Flexibility Score: inf
ROOT
ATOM      1  C   UNL     1      33.980  26.382  19.564  1.00  0.00     0.180 A 
ATOM      2  C   UNL     1      34.335  25.152  20.145  1.00  0.00     0.208 A 
ATOM      3  C   UNL     1      34.690  25.117  21.502  1.00  0.00     0.238 A 
ATOM      4  O   UNL     1      34.954  24.005  22.029  1.00  0.00    -0.285 OA
ATOM      5  C   UNL     1      34.702  26.313  22.259  1.00  0.00     0.111 A 
ATOM      6  C   UNL     1      35.084  26.401  23.631  1.00  0.00     0.134 A 
ATOM      7  C   UNL     1      34.932  27.614  24.314  1.00  0.00     0.093 A 
ATOM      8  C   UNL     1      34.476  28.757  23.660  1.00  0.00     0.123 A 
ATOM      9  C   UNL     1      34.156  28.698  22.303  1.00  0.00     0.094 A 
ATOM     10  C   UNL     1      34.262  27.493  21.603  1.00  0.00     0.146 A 
ATOM     11  O   UNL     1      33.938  27.477  20.316  1.00  0.00    -0.452 OA
ENDROOT
BRANCH   1  12
ATOM     12  C   UNL     1      33.617  26.504  18.133  1.00  0.00     0.025 A 
ATOM     13  C   UNL     1      32.806  27.880  16.282  1.00  0.00     0.161 A 
ATOM     14  C   UNL     1      32.973  26.796  15.411  1.00  0.00     0.157 A 
ATOM     15  C   UNL     1      33.137  27.730  17.644  1.00  0.00     0.062 A 
ATOM     16  C   UNL     1      33.471  25.578  15.892  1.00  0.00     0.051 A 
ATOM     17  C   UNL     1      33.797  25.434  17.242  1.00  0.00     0.016 A 
BRANCH  13  18
ATOM     18  O   UNL     1      32.312  29.086  15.761  1.00  0.00    -0.493 OA
ATOM     19  C   UNL     1      31.198  29.798  16.290  1.00  0.00     0.278 C 
ENDBRANCH  13  18
BRANCH  14  20
ATOM     20  O   UNL     1      32.646  26.938  14.064  1.00  0.00    -0.504 OA
ATOM     21  H   UNL     1      31.683  26.972  13.752  1.00  0.00     0.293 HD
ENDBRANCH  14  20
ENDBRANCH   1  12
BRANCH   2  22
ATOM     22  O   UNL     1      34.295  23.980  19.385  1.00  0.00    -0.502 OA
ATOM     23  H   UNL     1      33.577  23.276  19.508  1.00  0.00     0.293 HD
ENDBRANCH   2  22
BRANCH   6  24
ATOM     24  O   UNL     1      35.639  25.342  24.356  1.00  0.00    -0.507 OA
ATOM     25  H   UNL     1      36.236  24.629  23.965  1.00  0.00     0.293 HD
ENDBRANCH   6  24
BRANCH   8  26
ATOM     26  O   UNL     1      34.352  29.951  24.367  1.00  0.00    -0.508 OA
ATOM     27  H   UNL     1      35.120  30.608  24.436  1.00  0.00     0.293 HD
ENDBRANCH   8  26
TORSDOF 6
ENDMDL
MODEL 5
REMARK VINA RESULT:    -6.249      1.202      2.894
REMARK INTER + INTRA:          -8.094
REMARK INTER:                  -7.725
REMARK INTRA:                  -0.369
REMARK UNBOUND:                -0.384
REMARK SMILES COc1cc(-c2oc3cc(O)cc(O)c3c(=O)c2O)ccc1O
REMARK SMILES IDX 6 1 18 2 16 3 17 4 15 5 13 6 12 7 10 8 9 9 8 10 7 11 5 12
REMARK SMILES IDX 3 13 22 14 4 15 21 16 20 17 2 18 1 19 23 20 19 22 14 24
REMARK SMILES IDX 11 26
REMARK H PARENT 23 21 19 23 14 25 11 27
REMARK Flexibility Score: inf
ROOT
ATOM      1  C   UNL     1      34.418  26.969  20.763  1.00  0.00     0.180 A 
ATOM      2  C   UNL     1      33.876  27.551  19.603  1.00  0.00     0.208 A 
ATOM      3  C   UNL     1      33.594  26.732  18.499  1.00  0.00     0.238 A 
ATOM      4  O   UNL     1      33.058  27.250  17.484  1.00  0.00    -0.285 OA
ATOM      5  C   UNL     1      33.872  25.345  18.560  1.00  0.00     0.111 A 
ATOM      6  C   UNL     1      33.664  24.428  17.486  1.00  0.00     0.134 A 
ATOM      7  C   UNL     1      33.852  23.058  17.702  1.00  0.00     0.093 A 
ATOM      8  C   UNL     1      34.303  22.577  18.930  1.00  0.00     0.123 A 
ATOM      9  C   UNL     1      34.568  23.470  19.969  1.00  0.00     0.094 A 
ATOM     10  C   UNL     1      34.354  24.841  19.796  1.00  0.00     0.146 A 
ATOM     11  O   UNL     1      34.608  25.655  20.813  1.00  0.00    -0.452 OA
ENDROOT
BRANCH   1  12
ATOM     12  C   UNL     1      34.766  27.770  21.959  1.00  0.00     0.025 A 
ATOM     13  C   UNL     1      36.324  29.264  23.106  1.00  0.00     0.161 A 
ATOM     14  C   UNL     1      35.437  29.349  24.188  1.00  0.00     0.157 A 
ATOM     15  C   UNL     1      35.979  28.477  21.989  1.00  0.00     0.062 A 
ATOM     16  C   UNL     1      34.217  28.661  24.151  1.00  0.00     0.051 A 
ATOM     17  C   UNL     1      33.880  27.883  23.044  1.00  0.00     0.016 A 
BRANCH  13  18
ATOM     18  O   UNL     1      37.533  29.975  23.176  1.00  0.00    -0.493 OA
ATOM     19  C   UNL     1      38.444  30.125  22.091  1.00  0.00     0.278 C 
ENDBRANCH  13  18
BRANCH  14  20
ATOM     20  O   UNL     1      35.773  30.125  25.295  1.00  0.00    -0.504 OA
ATOM     21  H   UNL     1      35.337  29.979  26.198  1.00  0.00     0.293 HD
ENDBRANCH  14  20
ENDBRANCH   1  12
BRANCH   2  22
ATOM     22  O   UNL     1      33.588  28.918  19.573  1.00  0.00    -0.502 OA
ATOM     23  H   UNL     1      32.734  29.302  19.956  1.00  0.00     0.293 HD
ENDBRANCH   2  22
BRANCH   6  24
ATOM     24  O   UNL     1      33.302  24.812  16.191  1.00  0.00    -0.507 OA
ATOM     25  H   UNL     1      33.843  25.427  15.601  1.00  0.00     0.293 HD
ENDBRANCH   6  24
BRANCH   8  26
ATOM     26  O   UNL     1      34.494  21.208  19.104  1.00  0.00    -0.508 OA
ATOM     27  H   UNL     1      35.318  20.843  19.567  1.00  0.00     0.293 HD
ENDBRANCH   8  26
TORSDOF 6
ENDMDL
MODEL 6
REMARK VINA RESULT:    -5.958      1.447      3.363
REMARK INTER + INTRA:          -7.735
REMARK INTER:                  -7.552
REMARK INTRA:                  -0.184
REMARK UNBOUND:                -0.384
REMARK SMILES COc1cc(-c2oc3cc(O)cc(O)c3c(=O)c2O)ccc1O
REMARK SMILES IDX 6 1 18 2 16 3 17 4 15 5 13 6 12 7 10 8 9 9 8 10 7 11 5 12
REMARK SMILES IDX 3 13 22 14 4 15 21 16 20 17 2 18 1 19 23 20 19 22 14 24
REMARK SMILES IDX 11 26
REMARK H PARENT 23 21 19 23 14 25 11 27
REMARK Flexibility Score: inf
ROOT
ATOM      1  C   UNL     1      34.680  27.108  20.696  1.00  0.00     0.180 A 
ATOM      2  C   UNL     1      33.839  27.684  19.728  1.00  0.00     0.208 A 
ATOM      3  C   UNL     1      33.303  26.868  18.719  1.00  0.00     0.238 A 
ATOM      4  O   UNL     1      32.508  27.379  17.887  1.00  0.00    -0.285 OA
ATOM      5  C   UNL     1      33.626  25.490  18.680  1.00  0.00     0.111 A 
ATOM      6  C   UNL     1      33.173  24.578  17.681  1.00  0.00     0.134 A 
ATOM      7  C   UNL     1      33.448  23.212  17.816  1.00  0.00     0.093 A 
ATOM      8  C   UNL     1      34.215  22.733  18.876  1.00  0.00     0.123 A 
ATOM      9  C   UNL     1      34.715  23.624  19.827  1.00  0.00     0.094 A 
ATOM     10  C   UNL     1      34.426  24.988  19.740  1.00  0.00     0.146 A 
ATOM     11  O   UNL     1      34.912  25.800  20.671  1.00  0.00    -0.452 OA
ENDROOT
BRANCH   1  12
ATOM     12  C   UNL     1      35.303  27.907  21.776  1.00  0.00     0.025 A 
ATOM     13  C   UNL     1      35.054  29.297  23.772  1.00  0.00     0.161 A 
ATOM     14  C   UNL     1      36.449  29.386  23.876  1.00  0.00     0.157 A 
ATOM     15  C   UNL     1      34.486  28.549  22.721  1.00  0.00     0.062 A 
ATOM     16  C   UNL     1      37.266  28.729  22.947  1.00  0.00     0.051 A 
ATOM     17  C   UNL     1      36.699  27.990  21.909  1.00  0.00     0.016 A 
BRANCH  13  18
ATOM     18  O   UNL     1      34.269  29.961  24.726  1.00  0.00    -0.493 OA
ATOM     19  C   UNL     1      33.698  29.341  25.874  1.00  0.00     0.278 C 
ENDBRANCH  13  18
BRANCH  14  20
ATOM     20  O   UNL     1      37.016  30.125  24.912  1.00  0.00    -0.504 OA
ATOM     21  H   UNL     1      36.756  29.970  25.880  1.00  0.00     0.293 HD
ENDBRANCH  14  20
ENDBRANCH   1  12
BRANCH   2  22
ATOM     22  O   UNL     1      33.516  29.041  19.797  1.00  0.00    -0.502 OA
ATOM     23  H   UNL     1      32.689  29.426  19.357  1.00  0.00     0.293 HD
ENDBRANCH   2  22
BRANCH   6  24
ATOM     24  O   UNL     1      32.476  24.964  16.531  1.00  0.00    -0.507 OA
ATOM     25  H   UNL     1      31.472  25.034  16.464  1.00  0.00     0.293 HD
ENDBRANCH   6  24
BRANCH   8  26
ATOM     26  O   UNL     1      34.483  21.370  18.970  1.00  0.00    -0.508 OA
ATOM     27  H   UNL     1      35.336  20.970  18.598  1.00  0.00     0.293 HD
ENDBRANCH   8  26
TORSDOF 6
ENDMDL
MODEL 7
REMARK VINA RESULT:    -5.835      2.351      7.273
REMARK INTER + INTRA:          -7.583
REMARK INTER:                  -7.726
REMARK INTRA:                   0.143
REMARK UNBOUND:                -0.384
REMARK SMILES COc1cc(-c2oc3cc(O)cc(O)c3c(=O)c2O)ccc1O
REMARK SMILES IDX 6 1 18 2 16 3 17 4 15 5 13 6 12 7 10 8 9 9 8 10 7 11 5 12
REMARK SMILES IDX 3 13 22 14 4 15 21 16 20 17 2 18 1 19 23 20 19 22 14 24
REMARK SMILES IDX 11 26
REMARK H PARENT 23 21 19 23 14 25 11 27
REMARK Flexibility Score: inf
ROOT
ATOM      1  C   UNL     1      34.550  25.238  20.143  1.00  0.00     0.180 A 
ATOM      2  C   UNL     1      33.648  26.274  19.843  1.00  0.00     0.208 A 
ATOM      3  C   UNL     1      33.872  27.550  20.383  1.00  0.00     0.238 A 
ATOM      4  O   UNL     1      33.091  28.485  20.066  1.00  0.00    -0.285 OA
ATOM      5  C   UNL     1      34.985  27.773  21.228  1.00  0.00     0.111 A 
ATOM      6  C   UNL     1      35.287  29.015  21.862  1.00  0.00     0.134 A 
ATOM      7  C   UNL     1      36.485  29.156  22.572  1.00  0.00     0.093 A 
ATOM      8  C   UNL     1      37.361  28.083  22.727  1.00  0.00     0.123 A 
ATOM      9  C   UNL     1      37.048  26.846  22.162  1.00  0.00     0.094 A 
ATOM     10  C   UNL     1      35.877  26.684  21.417  1.00  0.00     0.146 A 
ATOM     11  O   UNL     1      35.621  25.494  20.887  1.00  0.00    -0.452 OA
ENDROOT
BRANCH   1  12
ATOM     12  C   UNL     1      34.368  23.860  19.633  1.00  0.00     0.025 A 
ATOM     13  C   UNL     1      34.351  21.451  20.051  1.00  0.00     0.161 A 
ATOM     14  C   UNL     1      33.976  21.229  18.719  1.00  0.00     0.157 A 
ATOM     15  C   UNL     1      34.540  22.772  20.504  1.00  0.00     0.062 A 
ATOM     16  C   UNL     1      33.784  22.314  17.853  1.00  0.00     0.051 A 
ATOM     17  C   UNL     1      33.972  23.620  18.307  1.00  0.00     0.016 A 
BRANCH  13  18
ATOM     18  O   UNL     1      34.525  20.340  20.890  1.00  0.00    -0.493 OA
ATOM     19  C   UNL     1      33.463  19.630  21.520  1.00  0.00     0.278 C 
ENDBRANCH  13  18
BRANCH  14  20
ATOM     20  O   UNL     1      33.789  19.925  18.264  1.00  0.00    -0.504 OA
ATOM     21  H   UNL     1      33.828  19.697  17.277  1.00  0.00     0.293 HD
ENDBRANCH  14  20
ENDBRANCH   1  12
BRANCH   2  22
ATOM     22  O   UNL     1      32.568  26.038  18.989  1.00  0.00    -0.502 OA
ATOM     23  H   UNL     1      31.636  25.841  19.333  1.00  0.00     0.293 HD
ENDBRANCH   2  22
BRANCH   6  24
ATOM     24  O   UNL     1      34.436  30.125  21.848  1.00  0.00    -0.507 OA
ATOM     25  H   UNL     1      33.758  30.320  21.127  1.00  0.00     0.293 HD
ENDBRANCH   6  24
BRANCH   8  26
ATOM     26  O   UNL     1      38.537  28.254  23.453  1.00  0.00    -0.508 OA
ATOM     27  H   UNL     1      38.829  29.167  23.782  1.00  0.00     0.293 HD
ENDBRANCH   8  26
TORSDOF 6
ENDMDL
MODEL 8
REMARK VINA RESULT:    -5.802      2.539      4.552
REMARK INTER + INTRA:          -7.543
REMARK INTER:                  -7.599
REMARK INTRA:                   0.055
REMARK UNBOUND:                -0.384
REMARK SMILES COc1cc(-c2oc3cc(O)cc(O)c3c(=O)c2O)ccc1O
REMARK SMILES IDX 6 1 18 2 16 3 17 4 15 5 13 6 12 7 10 8 9 9 8 10 7 11 5 12
REMARK SMILES IDX 3 13 22 14 4 15 21 16 20 17 2 18 1 19 23 20 19 22 14 24
REMARK SMILES IDX 11 26
REMARK H PARENT 23 21 19 23 14 25 11 27
REMARK Flexibility Score: inf
ROOT
ATOM      1  C   UNL     1      34.807  24.958  20.332  1.00  0.00     0.180 A 
ATOM      2  C   UNL     1      34.351  24.872  19.005  1.00  0.00     0.208 A 
ATOM      3  C   UNL     1      33.980  23.619  18.493  1.00  0.00     0.238 A 
ATOM      4  O   UNL     1      33.522  23.557  17.321  1.00  0.00    -0.285 OA
ATOM      5  C   UNL     1      34.085  22.465  19.305  1.00  0.00     0.111 A 
ATOM      6  C   UNL     1      33.775  21.140  18.876  1.00  0.00     0.134 A 
ATOM      7  C   UNL     1      33.789  20.092  19.805  1.00  0.00     0.093 A 
ATOM      8  C   UNL     1      34.166  20.308  21.129  1.00  0.00     0.123 A 
ATOM      9  C   UNL     1      34.530  21.589  21.546  1.00  0.00     0.094 A 
ATOM     10  C   UNL     1      34.489  22.662  20.652  1.00  0.00     0.146 A 
ATOM     11  O   UNL     1      34.832  23.867  21.091  1.00  0.00    -0.452 OA
ENDROOT
BRANCH   1  12
ATOM     12  C   UNL     1      35.239  26.238  20.937  1.00  0.00     0.025 A 
ATOM     13  C   UNL     1      34.827  28.613  21.346  1.00  0.00     0.161 A 
ATOM     14  C   UNL     1      35.995  28.677  22.118  1.00  0.00     0.157 A 
ATOM     15  C   UNL     1      34.450  27.387  20.763  1.00  0.00     0.062 A 
ATOM     16  C   UNL     1      36.773  27.528  22.310  1.00  0.00     0.051 A 
ATOM     17  C   UNL     1      36.396  26.316  21.730  1.00  0.00     0.016 A 
BRANCH  13  18
ATOM     18  O   UNL     1      34.069  29.783  21.184  1.00  0.00    -0.493 OA
ATOM     19  C   UNL     1      33.356  30.124  19.999  1.00  0.00     0.278 C 
ENDBRANCH  13  18
BRANCH  14  20
ATOM     20  O   UNL     1      36.374  29.887  22.696  1.00  0.00    -0.504 OA
ATOM     21  H   UNL     1      35.687  30.564  23.008  1.00  0.00     0.293 HD
ENDBRANCH  14  20
ENDBRANCH   1  12
BRANCH   2  22
ATOM     22  O   UNL     1      34.235  26.026  18.227  1.00  0.00    -0.502 OA
ATOM     23  H   UNL     1      34.077  26.941  18.632  1.00  0.00     0.293 HD
ENDBRANCH   2  22
BRANCH   6  24
ATOM     24  O   UNL     1      33.475  20.798  17.554  1.00  0.00    -0.507 OA
ATOM     25  H   UNL     1      32.851  21.316  16.954  1.00  0.00     0.293 HD
ENDBRANCH   6  24
BRANCH   8  26
ATOM     26  O   UNL     1      34.185  19.239  22.022  1.00  0.00    -0.508 OA
ATOM     27  H   UNL     1      33.439  19.095  22.692  1.00  0.00     0.293 HD
ENDBRANCH   8  26
TORSDOF 6
ENDMDL
MODEL 9
REMARK VINA RESULT:    -5.731      2.539      6.921
REMARK INTER + INTRA:          -7.455
REMARK INTER:                  -8.145
REMARK INTRA:                   0.690
REMARK UNBOUND:                -0.384
REMARK SMILES COc1cc(-c2oc3cc(O)cc(O)c3c(=O)c2O)ccc1O
REMARK SMILES IDX 6 1 18 2 16 3 17 4 15 5 13 6 12 7 10 8 9 9 8 10 7 11 5 12
REMARK SMILES IDX 3 13 22 14 4 15 21 16 20 17 2 18 1 19 23 20 19 22 14 24
REMARK SMILES IDX 11 26
REMARK H PARENT 23 21 19 23 14 25 11 27
REMARK Flexibility Score: inf
ROOT
ATOM      1  C   UNL     1      33.765  25.053  18.764  1.00  0.00     0.180 A 
ATOM      2  C   UNL     1      33.350  25.785  17.638  1.00  0.00     0.208 A 
ATOM      3  C   UNL     1      33.231  27.180  17.739  1.00  0.00     0.238 A 
ATOM      4  O   UNL     1      32.911  27.835  16.712  1.00  0.00    -0.285 OA
ATOM      5  C   UNL     1      33.511  27.825  18.967  1.00  0.00     0.111 A 
ATOM      6  C   UNL     1      33.385  29.228  19.195  1.00  0.00     0.134 A 
ATOM      7  C   UNL     1      33.816  29.773  20.410  1.00  0.00     0.093 A 
ATOM      8  C   UNL     1      34.305  28.959  21.431  1.00  0.00     0.123 A 
ATOM      9  C   UNL     1      34.377  27.578  21.242  1.00  0.00     0.094 A 
ATOM     10  C   UNL     1      33.989  27.009  20.026  1.00  0.00     0.146 A 
ATOM     11  O   UNL     1      34.084  25.693  19.884  1.00  0.00    -0.452 OA
ENDROOT
BRANCH   1  12
ATOM     12  C   UNL     1      33.890  23.578  18.744  1.00  0.00     0.025 A 
ATOM     13  C   UNL     1      34.329  21.490  19.939  1.00  0.00     0.161 A 
ATOM     14  C   UNL     1      34.082  20.771  18.762  1.00  0.00     0.157 A 
ATOM     15  C   UNL     1      34.225  22.896  19.925  1.00  0.00     0.062 A 
ATOM     16  C   UNL     1      33.727  21.447  17.587  1.00  0.00     0.051 A 
ATOM     17  C   UNL     1      33.626  22.839  17.578  1.00  0.00     0.016 A 
BRANCH  13  18
ATOM     18  O   UNL     1      34.673  20.777  21.098  1.00  0.00    -0.493 OA
ATOM     19  C   UNL     1      33.823  19.837  21.748  1.00  0.00     0.278 C 
ENDBRANCH  13  18
BRANCH  14  20
ATOM     20  O   UNL     1      34.184  19.382  18.769  1.00  0.00    -0.504 OA
ATOM     21  H   UNL     1      33.414  18.794  19.067  1.00  0.00     0.293 HD
ENDBRANCH  14  20
ENDBRANCH   1  12
BRANCH   2  22
ATOM     22  O   UNL     1      33.099  25.132  16.429  1.00  0.00    -0.502 OA
ATOM     23  H   UNL     1      33.598  25.354  15.576  1.00  0.00     0.293 HD
ENDBRANCH   2  22
BRANCH   6  24
ATOM     24  O   UNL     1      32.823  30.120  18.276  1.00  0.00    -0.507 OA
ATOM     25  H   UNL     1      31.944  30.597  18.402  1.00  0.00     0.293 HD
ENDBRANCH   6  24
BRANCH   8  26
ATOM     26  O   UNL     1      34.710  29.533  22.634  1.00  0.00    -0.508 OA
ATOM     27  H   UNL     1      34.170  30.266  23.079  1.00  0.00     0.293 HD
ENDBRANCH   8  26
TORSDOF 6
ENDMDL
