MODEL 1
REMARK VINA RESULT:    -4.676      0.000      0.000
REMARK INTER + INTRA:         -17.085
REMARK INTER:                 -12.330
REMARK INTRA:                  -4.755
REMARK UNBOUND:                -4.755
REMARK SMILES CCCCCCCCCCCCCCCCCCCCCCCCCCCCCC(=O)[O-]
REMARK SMILES IDX 16 1 17 2 18 3 19 4 20 5 21 6 22 7 23 8 24 9 25 10 26 11
REMARK SMILES IDX 27 12 28 13 29 14 30 15 31 16 32 17 15 18 14 19 13 20 12 21
REMARK SMILES IDX 11 22 10 23 9 24 8 25 7 26 6 27 5 28 4 29 3 30 2 31 1 32
REMARK H PARENT
REMARK Flexibility Score: inf
ROOT
ATOM      1  C   UNL     1     -17.078 -31.323  21.202  1.00  0.00     0.000 C 
ENDROOT
BRANCH   1   2
ATOM      2  C   UNL     1     -18.086 -31.378  20.040  1.00  0.00     0.000 C 
BRANCH   2   3
ATOM      3  C   UNL     1     -19.342 -32.194  20.386  1.00  0.00     0.000 C 
BRANCH   3   4
ATOM      4  C   UNL     1     -19.585 -33.345  19.396  1.00  0.00     0.000 C 
BRANCH   4   5
ATOM      5  C   UNL     1     -18.597 -33.336  18.215  1.00  0.00     0.000 C 
BRANCH   5   6
ATOM      6  C   UNL     1     -19.138 -33.941  16.904  1.00  0.00     0.000 C 
BRANCH   6   7
ATOM      7  C   UNL     1     -19.219 -32.966  15.713  1.00  0.00     0.000 C 
BRANCH   7   8
ATOM      8  C   UNL     1     -18.420 -33.385  14.466  1.00  0.00     0.000 C 
BRANCH   8   9
ATOM      9  C   UNL     1     -17.309 -32.385  14.101  1.00  0.00     0.000 C 
BRANCH   9  10
ATOM     10  C   UNL     1     -16.264 -32.217  15.221  1.00  0.00     0.000 C 
BRANCH  10  11
ATOM     11  C   UNL     1     -15.974 -30.760  15.628  1.00  0.00     0.000 C 
BRANCH  11  12
ATOM     12  C   UNL     1     -16.791 -30.304  16.851  1.00  0.00     0.000 C 
BRANCH  12  13
ATOM     13  C   UNL     1     -16.065 -29.237  17.687  1.00  0.00     0.006 C 
BRANCH  13  14
ATOM     14  C   UNL     1     -16.781 -27.878  17.677  1.00  0.00     0.053 C 
BRANCH  14  15
ATOM     15  C   UNL     1     -17.278 -27.534  19.046  1.00  0.00     0.041 C 
ATOM     16  O   UNL     1     -18.408 -26.994  19.192  1.00  0.00    -0.550 OA
ATOM     17  O   UNL     1     -16.483 -27.783  20.161  1.00  0.00    -0.550 OA
ENDBRANCH  14  15
ENDBRANCH  13  14
ENDBRANCH  12  13
ENDBRANCH  11  12
ENDBRANCH  10  11
ENDBRANCH   9  10
ENDBRANCH   8   9
ENDBRANCH   7   8
ENDBRANCH   6   7
ENDBRANCH   5   6
ENDBRANCH   4   5
ENDBRANCH   3   4
ENDBRANCH   2   3
ENDBRANCH   1   2
BRANCH   1  18
ATOM     18  C   UNL     1     -16.779 -32.720  21.783  1.00  0.00     0.000 C 
BRANCH  18  19
ATOM     19  C   UNL     1     -15.979 -33.627  20.832  1.00  0.00     0.000 C 
BRANCH  19  20
ATOM     20  C   UNL     1     -14.695 -32.962  20.311  1.00  0.00     0.000 C 
BRANCH  20  21
ATOM     21  C   UNL     1     -14.801 -32.532  18.839  1.00  0.00     0.000 C 
BRANCH  21  22
ATOM     22  C   UNL     1     -13.909 -33.374  17.911  1.00  0.00     0.000 C 
BRANCH  22  23
ATOM     23  C   UNL     1     -12.552 -32.709  17.619  1.00  0.00     0.000 C 
BRANCH  23  24
ATOM     24  C   UNL     1     -12.624 -31.386  16.834  1.00  0.00    -0.000 C 
BRANCH  24  25
ATOM     25  C   UNL     1     -12.332 -30.154  17.708  1.00  0.00    -0.000 C 
BRANCH  25  26
ATOM     26  C   UNL     1     -11.388 -30.468  18.881  1.00  0.00    -0.000 C 
BRANCH  26  27
ATOM     27  C   UNL     1      -9.908 -30.480  18.467  1.00  0.00    -0.000 C 
BRANCH  27  28
ATOM     28  C   UNL     1      -9.352 -29.051  18.374  1.00  0.00    -0.000 C 
BRANCH  28  29
ATOM     29  C   UNL     1      -9.833 -28.153  19.527  1.00  0.00    -0.000 C 
BRANCH  29  30
ATOM     30  C   UNL     1     -10.277 -26.762  19.041  1.00  0.00    -0.000 C 
BRANCH  30  31
ATOM     31  C   UNL     1     -10.654 -26.750  17.551  1.00  0.00    -0.003 C 
ATOM     32  C   UNL     1     -10.899 -25.341  17.010  1.00  0.00     0.004 C 
ENDBRANCH  30  31
ENDBRANCH  29  30
ENDBRANCH  28  29
ENDBRANCH  27  28
ENDBRANCH  26  27
ENDBRANCH  25  26
ENDBRANCH  24  25
ENDBRANCH  23  24
ENDBRANCH  22  23
ENDBRANCH  21  22
ENDBRANCH  20  21
ENDBRANCH  19  20
ENDBRANCH  18  19
ENDBRANCH   1  18
TORSDOF 28
ENDMDL
MODEL 2
REMARK VINA RESULT:    -4.540      2.055      6.892
REMARK INTER + INTRA:         -16.726
REMARK INTER:                 -11.199
REMARK INTRA:                  -5.527
REMARK UNBOUND:                -4.755
REMARK SMILES CCCCCCCCCCCCCCCCCCCCCCCCCCCCCC(=O)[O-]
REMARK SMILES IDX 16 1 17 2 18 3 19 4 20 5 21 6 22 7 23 8 24 9 25 10 26 11
REMARK SMILES IDX 27 12 28 13 29 14 30 15 31 16 32 17 15 18 14 19 13 20 12 21
REMARK SMILES IDX 11 22 10 23 9 24 8 25 7 26 6 27 5 28 4 29 3 30 2 31 1 32
REMARK H PARENT
REMARK Flexibility Score: inf
ROOT
ATOM      1  C   UNL     1     -14.101 -30.844  16.016  1.00  0.00     0.000 C 
ENDROOT
BRANCH   1   2
ATOM      2  C   UNL     1     -14.368 -30.029  17.293  1.00  0.00     0.000 C 
BRANCH   2   3
ATOM      3  C   UNL     1     -14.035 -30.811  18.574  1.00  0.00     0.000 C 
BRANCH   3   4
ATOM      4  C   UNL     1     -15.256 -31.554  19.141  1.00  0.00     0.000 C 
BRANCH   4   5
ATOM      5  C   UNL     1     -14.953 -33.022  19.491  1.00  0.00     0.000 C 
BRANCH   5   6
ATOM      6  C   UNL     1     -14.040 -33.759  18.491  1.00  0.00     0.000 C 
BRANCH   6   7
ATOM      7  C   UNL     1     -12.611 -34.048  18.992  1.00  0.00     0.000 C 
BRANCH   7   8
ATOM      8  C   UNL     1     -11.480 -33.482  18.115  1.00  0.00     0.000 C 
BRANCH   8   9
ATOM      9  C   UNL     1     -10.124 -33.439  18.840  1.00  0.00     0.000 C 
BRANCH   9  10
ATOM     10  C   UNL     1     -10.251 -33.060  20.328  1.00  0.00     0.000 C 
BRANCH  10  11
ATOM     11  C   UNL     1      -9.765 -31.642  20.683  1.00  0.00     0.000 C 
BRANCH  11  12
ATOM     12  C   UNL     1     -10.613 -30.534  20.031  1.00  0.00     0.000 C 
BRANCH  12  13
ATOM     13  C   UNL     1      -9.855 -29.776  18.929  1.00  0.00     0.006 C 
BRANCH  13  14
ATOM     14  C   UNL     1     -10.788 -29.062  17.941  1.00  0.00     0.053 C 
BRANCH  14  15
ATOM     15  C   UNL     1     -11.055 -27.658  18.386  1.00  0.00     0.041 C 
ATOM     16  O   UNL     1     -10.254 -27.079  19.169  1.00  0.00    -0.550 OA
ATOM     17  O   UNL     1     -12.202 -26.996  17.959  1.00  0.00    -0.550 OA
ENDBRANCH  14  15
ENDBRANCH  13  14
ENDBRANCH  12  13
ENDBRANCH  11  12
ENDBRANCH  10  11
ENDBRANCH   9  10
ENDBRANCH   8   9
ENDBRANCH   7   8
ENDBRANCH   6   7
ENDBRANCH   5   6
ENDBRANCH   4   5
ENDBRANCH   3   4
ENDBRANCH   2   3
ENDBRANCH   1   2
BRANCH   1  18
ATOM     18  C   UNL     1     -15.324 -30.877  15.077  1.00  0.00     0.000 C 
BRANCH  18  19
ATOM     19  C   UNL     1     -16.048 -32.235  15.052  1.00  0.00     0.000 C 
BRANCH  19  20
ATOM     20  C   UNL     1     -17.186 -32.324  16.082  1.00  0.00     0.000 C 
BRANCH  20  21
ATOM     21  C   UNL     1     -18.329 -33.248  15.629  1.00  0.00     0.000 C 
BRANCH  21  22
ATOM     22  C   UNL     1     -19.141 -33.807  16.809  1.00  0.00     0.000 C 
BRANCH  22  23
ATOM     23  C   UNL     1     -18.411 -33.667  18.157  1.00  0.00     0.000 C 
BRANCH  23  24
ATOM     24  C   UNL     1     -19.318 -33.398  19.372  1.00  0.00    -0.000 C 
BRANCH  24  25
ATOM     25  C   UNL     1     -18.591 -32.659  20.509  1.00  0.00    -0.000 C 
BRANCH  25  26
ATOM     26  C   UNL     1     -18.722 -31.131  20.406  1.00  0.00    -0.000 C 
BRANCH  26  27
ATOM     27  C   UNL     1     -19.937 -30.693  19.572  1.00  0.00    -0.000 C 
BRANCH  27  28
ATOM     28  C   UNL     1     -19.493 -30.088  18.231  1.00  0.00    -0.000 C 
BRANCH  28  29
ATOM     29  C   UNL     1     -18.002 -29.713  18.216  1.00  0.00    -0.000 C 
BRANCH  29  30
ATOM     30  C   UNL     1     -17.758 -28.300  17.659  1.00  0.00    -0.000 C 
BRANCH  30  31
ATOM     31  C   UNL     1     -16.697 -27.525  18.457  1.00  0.00    -0.003 C 
ATOM     32  C   UNL     1     -16.624 -27.956  19.923  1.00  0.00     0.004 C 
ENDBRANCH  30  31
ENDBRANCH  29  30
ENDBRANCH  28  29
ENDBRANCH  27  28
ENDBRANCH  26  27
ENDBRANCH  25  26
ENDBRANCH  24  25
ENDBRANCH  23  24
ENDBRANCH  22  23
ENDBRANCH  21  22
ENDBRANCH  20  21
ENDBRANCH  19  20
ENDBRANCH  18  19
ENDBRANCH   1  18
TORSDOF 28
ENDMDL
MODEL 3
REMARK VINA RESULT:    -4.510      2.669      7.085
REMARK INTER + INTRA:         -16.647
REMARK INTER:                 -11.214
REMARK INTRA:                  -5.433
REMARK UNBOUND:                -4.755
REMARK SMILES CCCCCCCCCCCCCCCCCCCCCCCCCCCCCC(=O)[O-]
REMARK SMILES IDX 16 1 17 2 18 3 19 4 20 5 21 6 22 7 23 8 24 9 25 10 26 11
REMARK SMILES IDX 27 12 28 13 29 14 30 15 31 16 32 17 15 18 14 19 13 20 12 21
REMARK SMILES IDX 11 22 10 23 9 24 8 25 7 26 6 27 5 28 4 29 3 30 2 31 1 32
REMARK H PARENT
REMARK Flexibility Score: inf
ROOT
ATOM      1  C   UNL     1     -15.935 -30.865  14.703  1.00  0.00     0.000 C 
ENDROOT
BRANCH   1   2
ATOM      2  C   UNL     1     -14.908 -31.646  15.543  1.00  0.00     0.000 C 
BRANCH   2   3
ATOM      3  C   UNL     1     -15.537 -32.308  16.779  1.00  0.00     0.000 C 
BRANCH   3   4
ATOM      4  C   UNL     1     -15.063 -33.757  16.973  1.00  0.00     0.000 C 
BRANCH   4   5
ATOM      5  C   UNL     1     -14.820 -34.115  18.451  1.00  0.00     0.000 C 
BRANCH   5   6
ATOM      6  C   UNL     1     -13.564 -33.480  19.081  1.00  0.00     0.000 C 
BRANCH   6   7
ATOM      7  C   UNL     1     -12.358 -33.327  18.133  1.00  0.00     0.000 C 
BRANCH   7   8
ATOM      8  C   UNL     1     -11.896 -31.879  17.887  1.00  0.00     0.000 C 
BRANCH   8   9
ATOM      9  C   UNL     1     -12.799 -30.838  18.571  1.00  0.00     0.000 C 
BRANCH   9  10
ATOM     10  C   UNL     1     -12.971 -29.555  17.736  1.00  0.00     0.000 C 
BRANCH  10  11
ATOM     11  C   UNL     1     -12.774 -28.239  18.513  1.00  0.00     0.000 C 
BRANCH  11  12
ATOM     12  C   UNL     1     -11.437 -28.186  19.275  1.00  0.00     0.000 C 
BRANCH  12  13
ATOM     13  C   UNL     1     -10.218 -28.176  18.338  1.00  0.00     0.006 C 
BRANCH  13  14
ATOM     14  C   UNL     1      -9.244 -29.331  18.610  1.00  0.00     0.053 C 
BRANCH  14  15
ATOM     15  C   UNL     1      -8.638 -29.201  19.971  1.00  0.00     0.041 C 
ATOM     16  O   UNL     1      -8.403 -30.230  20.661  1.00  0.00    -0.550 OA
ATOM     17  O   UNL     1      -8.356 -27.942  20.494  1.00  0.00    -0.550 OA
ENDBRANCH  14  15
ENDBRANCH  13  14
ENDBRANCH  12  13
ENDBRANCH  11  12
ENDBRANCH  10  11
ENDBRANCH   9  10
ENDBRANCH   8   9
ENDBRANCH   7   8
ENDBRANCH   6   7
ENDBRANCH   5   6
ENDBRANCH   4   5
ENDBRANCH   3   4
ENDBRANCH   2   3
ENDBRANCH   1   2
BRANCH   1  18
ATOM     18  C   UNL     1     -16.054 -31.415  13.267  1.00  0.00     0.000 C 
BRANCH  18  19
ATOM     19  C   UNL     1     -17.318 -32.261  13.032  1.00  0.00     0.000 C 
BRANCH  19  20
ATOM     20  C   UNL     1     -17.136 -33.732  13.439  1.00  0.00     0.000 C 
BRANCH  20  21
ATOM     21  C   UNL     1     -17.948 -34.109  14.689  1.00  0.00     0.000 C 
BRANCH  21  22
ATOM     22  C   UNL     1     -19.040 -33.077  15.019  1.00  0.00     0.000 C 
BRANCH  22  23
ATOM     23  C   UNL     1     -18.992 -32.604  16.482  1.00  0.00     0.000 C 
BRANCH  23  24
ATOM     24  C   UNL     1     -19.244 -33.698  17.536  1.00  0.00    -0.000 C 
BRANCH  24  25
ATOM     25  C   UNL     1     -18.407 -33.503  18.813  1.00  0.00    -0.000 C 
BRANCH  25  26
ATOM     26  C   UNL     1     -19.262 -33.113  20.030  1.00  0.00    -0.000 C 
BRANCH  26  27
ATOM     27  C   UNL     1     -18.536 -32.147  20.981  1.00  0.00    -0.000 C 
BRANCH  27  28
ATOM     28  C   UNL     1     -17.232 -31.634  20.352  1.00  0.00    -0.000 C 
BRANCH  28  29
ATOM     29  C   UNL     1     -17.267 -30.123  20.069  1.00  0.00    -0.000 C 
BRANCH  29  30
ATOM     30  C   UNL     1     -16.550 -29.755  18.759  1.00  0.00    -0.000 C 
BRANCH  30  31
ATOM     31  C   UNL     1     -17.520 -29.263  17.672  1.00  0.00    -0.003 C 
ATOM     32  C   UNL     1     -17.276 -27.809  17.271  1.00  0.00     0.004 C 
ENDBRANCH  30  31
ENDBRANCH  29  30
ENDBRANCH  28  29
ENDBRANCH  27  28
ENDBRANCH  26  27
ENDBRANCH  25  26
ENDBRANCH  24  25
ENDBRANCH  23  24
ENDBRANCH  22  23
ENDBRANCH  21  22
ENDBRANCH  20  21
ENDBRANCH  19  20
ENDBRANCH  18  19
ENDBRANCH   1  18
TORSDOF 28
ENDMDL
MODEL 4
REMARK VINA RESULT:    -4.505      2.816      7.475
REMARK INTER + INTRA:         -16.633
REMARK INTER:                 -11.209
REMARK INTRA:                  -5.424
REMARK UNBOUND:                -4.755
REMARK SMILES CCCCCCCCCCCCCCCCCCCCCCCCCCCCCC(=O)[O-]
REMARK SMILES IDX 16 1 17 2 18 3 19 4 20 5 21 6 22 7 23 8 24 9 25 10 26 11
REMARK SMILES IDX 27 12 28 13 29 14 30 15 31 16 32 17 15 18 14 19 13 20 12 21
REMARK SMILES IDX 11 22 10 23 9 24 8 25 7 26 6 27 5 28 4 29 3 30 2 31 1 32
REMARK H PARENT
REMARK Flexibility Score: inf
ROOT
ATOM      1  C   UNL     1     -15.993 -30.406  14.746  1.00  0.00     0.000 C 
ENDROOT
BRANCH   1   2
ATOM      2  C   UNL     1     -15.038 -30.931  15.833  1.00  0.00     0.000 C 
BRANCH   2   3
ATOM      3  C   UNL     1     -15.778 -31.378  17.104  1.00  0.00     0.000 C 
BRANCH   3   4
ATOM      4  C   UNL     1     -15.155 -32.633  17.735  1.00  0.00     0.000 C 
BRANCH   4   5
ATOM      5  C   UNL     1     -14.790 -32.439  19.218  1.00  0.00     0.000 C 
BRANCH   5   6
ATOM      6  C   UNL     1     -13.287 -32.253  19.505  1.00  0.00     0.000 C 
BRANCH   6   7
ATOM      7  C   UNL     1     -12.354 -32.474  18.298  1.00  0.00     0.000 C 
BRANCH   7   8
ATOM      8  C   UNL     1     -11.700 -31.201  17.731  1.00  0.00     0.000 C 
BRANCH   8   9
ATOM      9  C   UNL     1     -12.374 -29.910  18.227  1.00  0.00     0.000 C 
BRANCH   9  10
ATOM     10  C   UNL     1     -11.367 -28.882  18.778  1.00  0.00     0.000 C 
BRANCH  10  11
ATOM     11  C   UNL     1      -9.938 -29.001  18.214  1.00  0.00     0.000 C 
BRANCH  11  12
ATOM     12  C   UNL     1      -8.869 -29.151  19.312  1.00  0.00     0.000 C 
BRANCH  12  13
ATOM     13  C   UNL     1      -9.414 -29.822  20.584  1.00  0.00     0.006 C 
BRANCH  13  14
ATOM     14  C   UNL     1      -8.628 -31.079  20.982  1.00  0.00     0.053 C 
BRANCH  14  15
ATOM     15  C   UNL     1      -9.254 -32.302  20.391  1.00  0.00     0.041 C 
ATOM     16  O   UNL     1     -10.116 -32.952  21.044  1.00  0.00    -0.550 OA
ATOM     17  O   UNL     1      -8.869 -32.744  19.129  1.00  0.00    -0.550 OA
ENDBRANCH  14  15
ENDBRANCH  13  14
ENDBRANCH  12  13
ENDBRANCH  11  12
ENDBRANCH  10  11
ENDBRANCH   9  10
ENDBRANCH   8   9
ENDBRANCH   7   8
ENDBRANCH   6   7
ENDBRANCH   5   6
ENDBRANCH   4   5
ENDBRANCH   3   4
ENDBRANCH   2   3
ENDBRANCH   1   2
BRANCH   1  18
ATOM     18  C   UNL     1     -15.876 -31.205  13.431  1.00  0.00     0.000 C 
BRANCH  18  19
ATOM     19  C   UNL     1     -17.011 -32.223  13.225  1.00  0.00     0.000 C 
BRANCH  19  20
ATOM     20  C   UNL     1     -16.689 -33.605  13.817  1.00  0.00     0.000 C 
BRANCH  20  21
ATOM     21  C   UNL     1     -17.604 -33.976  14.996  1.00  0.00     0.000 C 
BRANCH  21  22
ATOM     22  C   UNL     1     -18.865 -33.098  15.066  1.00  0.00     0.000 C 
BRANCH  22  23
ATOM     23  C   UNL     1     -19.156 -32.582  16.486  1.00  0.00     0.000 C 
BRANCH  23  24
ATOM     24  C   UNL     1     -19.319 -33.673  17.561  1.00  0.00    -0.000 C 
BRANCH  24  25
ATOM     25  C   UNL     1     -18.478 -33.401  18.821  1.00  0.00    -0.000 C 
BRANCH  25  26
ATOM     26  C   UNL     1     -19.339 -33.059  20.048  1.00  0.00    -0.000 C 
BRANCH  26  27
ATOM     27  C   UNL     1     -19.689 -31.565  20.131  1.00  0.00    -0.000 C 
BRANCH  27  28
ATOM     28  C   UNL     1     -18.500 -30.696  19.694  1.00  0.00    -0.000 C 
BRANCH  28  29
ATOM     29  C   UNL     1     -18.926 -29.510  18.813  1.00  0.00    -0.000 C 
BRANCH  29  30
ATOM     30  C   UNL     1     -17.729 -28.659  18.355  1.00  0.00    -0.000 C 
BRANCH  30  31
ATOM     31  C   UNL     1     -16.824 -28.235  19.524  1.00  0.00    -0.003 C 
ATOM     32  C   UNL     1     -15.353 -28.122  19.126  1.00  0.00     0.004 C 
ENDBRANCH  30  31
ENDBRANCH  29  30
ENDBRANCH  28  29
ENDBRANCH  27  28
ENDBRANCH  26  27
ENDBRANCH  25  26
ENDBRANCH  24  25
ENDBRANCH  23  24
ENDBRANCH  22  23
ENDBRANCH  21  22
ENDBRANCH  20  21
ENDBRANCH  19  20
ENDBRANCH  18  19
ENDBRANCH   1  18
TORSDOF 28
ENDMDL
MODEL 5
REMARK VINA RESULT:    -4.500      2.755      6.705
REMARK INTER + INTRA:         -16.622
REMARK INTER:                 -12.151
REMARK INTRA:                  -4.471
REMARK UNBOUND:                -4.755
REMARK SMILES CCCCCCCCCCCCCCCCCCCCCCCCCCCCCC(=O)[O-]
REMARK SMILES IDX 16 1 17 2 18 3 19 4 20 5 21 6 22 7 23 8 24 9 25 10 26 11
REMARK SMILES IDX 27 12 28 13 29 14 30 15 31 16 32 17 15 18 14 19 13 20 12 21
REMARK SMILES IDX 11 22 10 23 9 24 8 25 7 26 6 27 5 28 4 29 3 30 2 31 1 32
REMARK H PARENT
REMARK Flexibility Score: inf
ROOT
ATOM      1  C   UNL     1     -18.298 -31.105  20.018  1.00  0.00     0.000 C 
ENDROOT
BRANCH   1   2
ATOM      2  C   UNL     1     -18.316 -29.772  19.249  1.00  0.00     0.000 C 
BRANCH   2   3
ATOM      3  C   UNL     1     -17.930 -29.938  17.771  1.00  0.00     0.000 C 
BRANCH   3   4
ATOM      4  C   UNL     1     -17.212 -28.700  17.210  1.00  0.00     0.000 C 
BRANCH   4   5
ATOM      5  C   UNL     1     -16.934 -27.632  18.283  1.00  0.00     0.000 C 
BRANCH   5   6
ATOM      6  C   UNL     1     -15.443 -27.368  18.575  1.00  0.00     0.000 C 
BRANCH   6   7
ATOM      7  C   UNL     1     -14.503 -28.567  18.340  1.00  0.00     0.000 C 
BRANCH   7   8
ATOM      8  C   UNL     1     -13.027 -28.326  18.702  1.00  0.00     0.000 C 
BRANCH   8   9
ATOM      9  C   UNL     1     -12.052 -28.951  17.690  1.00  0.00     0.000 C 
BRANCH   9  10
ATOM     10  C   UNL     1     -10.662 -28.288  17.710  1.00  0.00     0.000 C 
BRANCH  10  11
ATOM     11  C   UNL     1     -10.648 -26.815  18.163  1.00  0.00     0.000 C 
BRANCH  11  12
ATOM     12  C   UNL     1     -11.100 -25.842  17.059  1.00  0.00     0.000 C 
BRANCH  12  13
ATOM     13  C   UNL     1     -10.211 -24.592  16.967  1.00  0.00     0.006 C 
BRANCH  13  14
ATOM     14  C   UNL     1      -9.651 -24.153  18.327  1.00  0.00     0.053 C 
BRANCH  14  15
ATOM     15  C   UNL     1      -9.312 -22.696  18.314  1.00  0.00     0.041 C 
ATOM     16  O   UNL     1     -10.188 -21.839  18.606  1.00  0.00    -0.550 OA
ATOM     17  O   UNL     1      -8.034 -22.279  17.952  1.00  0.00    -0.550 OA
ENDBRANCH  14  15
ENDBRANCH  13  14
ENDBRANCH  12  13
ENDBRANCH  11  12
ENDBRANCH  10  11
ENDBRANCH   9  10
ENDBRANCH   8   9
ENDBRANCH   7   8
ENDBRANCH   6   7
ENDBRANCH   5   6
ENDBRANCH   4   5
ENDBRANCH   3   4
ENDBRANCH   2   3
ENDBRANCH   1   2
BRANCH   1  18
ATOM     18  C   UNL     1     -19.664 -31.821  19.978  1.00  0.00     0.000 C 
BRANCH  18  19
ATOM     19  C   UNL     1     -19.578 -33.289  19.526  1.00  0.00     0.000 C 
BRANCH  19  20
ATOM     20  C   UNL     1     -18.671 -33.486  18.302  1.00  0.00     0.000 C 
BRANCH  20  21
ATOM     21  C   UNL     1     -19.432 -34.012  17.074  1.00  0.00     0.000 C 
BRANCH  21  22
ATOM     22  C   UNL     1     -19.409 -33.024  15.895  1.00  0.00     0.000 C 
BRANCH  22  23
ATOM     23  C   UNL     1     -17.983 -32.692  15.422  1.00  0.00     0.000 C 
BRANCH  23  24
ATOM     24  C   UNL     1     -17.717 -32.921  13.922  1.00  0.00    -0.000 C 
BRANCH  24  25
ATOM     25  C   UNL     1     -16.315 -32.462  13.486  1.00  0.00    -0.000 C 
BRANCH  25  26
ATOM     26  C   UNL     1     -16.074 -30.964  13.737  1.00  0.00    -0.000 C 
BRANCH  26  27
ATOM     27  C   UNL     1     -15.099 -30.705  14.897  1.00  0.00    -0.000 C 
BRANCH  27  28
ATOM     28  C   UNL     1     -14.436 -32.012  15.359  1.00  0.00    -0.000 C 
BRANCH  28  29
ATOM     29  C   UNL     1     -14.001 -31.965  16.834  1.00  0.00    -0.000 C 
BRANCH  29  30
ATOM     30  C   UNL     1     -15.180 -32.179  17.799  1.00  0.00    -0.000 C 
BRANCH  30  31
ATOM     31  C   UNL     1     -14.735 -32.239  19.269  1.00  0.00    -0.003 C 
ATOM     32  C   UNL     1     -13.216 -32.192  19.434  1.00  0.00     0.004 C 
ENDBRANCH  30  31
ENDBRANCH  29  30
ENDBRANCH  28  29
ENDBRANCH  27  28
ENDBRANCH  26  27
ENDBRANCH  25  26
ENDBRANCH  24  25
ENDBRANCH  23  24
ENDBRANCH  22  23
ENDBRANCH  21  22
ENDBRANCH  20  21
ENDBRANCH  19  20
ENDBRANCH  18  19
ENDBRANCH   1  18
TORSDOF 28
ENDMDL
MODEL 6
REMARK VINA RESULT:    -4.464      2.414      6.413
REMARK INTER + INTRA:         -16.525
REMARK INTER:                 -10.874
REMARK INTRA:                  -5.651
REMARK UNBOUND:                -4.755
REMARK SMILES CCCCCCCCCCCCCCCCCCCCCCCCCCCCCC(=O)[O-]
REMARK SMILES IDX 16 1 17 2 18 3 19 4 20 5 21 6 22 7 23 8 24 9 25 10 26 11
REMARK SMILES IDX 27 12 28 13 29 14 30 15 31 16 32 17 15 18 14 19 13 20 12 21
REMARK SMILES IDX 11 22 10 23 9 24 8 25 7 26 6 27 5 28 4 29 3 30 2 31 1 32
REMARK H PARENT
REMARK Flexibility Score: inf
ROOT
ATOM      1  C   UNL     1     -16.658 -31.877  21.464  1.00  0.00     0.000 C 
ENDROOT
BRANCH   1   2
ATOM      2  C   UNL     1     -15.644 -33.029  21.573  1.00  0.00     0.000 C 
BRANCH   2   3
ATOM      3  C   UNL     1     -14.743 -33.144  20.333  1.00  0.00     0.000 C 
BRANCH   3   4
ATOM      4  C   UNL     1     -15.483 -33.740  19.124  1.00  0.00     0.000 C 
BRANCH   4   5
ATOM      5  C   UNL     1     -14.722 -33.542  17.801  1.00  0.00     0.000 C 
BRANCH   5   6
ATOM      6  C   UNL     1     -13.332 -32.889  17.935  1.00  0.00     0.000 C 
BRANCH   6   7
ATOM      7  C   UNL     1     -12.745 -32.315  16.630  1.00  0.00     0.000 C 
BRANCH   7   8
ATOM      8  C   UNL     1     -12.504 -30.795  16.631  1.00  0.00     0.000 C 
BRANCH   8   9
ATOM      9  C   UNL     1     -12.429 -30.201  18.048  1.00  0.00     0.000 C 
BRANCH   9  10
ATOM     10  C   UNL     1     -12.405 -28.661  18.051  1.00  0.00     0.000 C 
BRANCH  10  11
ATOM     11  C   UNL     1     -11.174 -28.029  18.730  1.00  0.00     0.000 C 
BRANCH  11  12
ATOM     12  C   UNL     1      -9.867 -28.785  18.427  1.00  0.00     0.000 C 
BRANCH  12  13
ATOM     13  C   UNL     1      -9.049 -29.088  19.693  1.00  0.00     0.006 C 
BRANCH  13  14
ATOM     14  C   UNL     1      -9.816 -29.942  20.712  1.00  0.00     0.053 C 
BRANCH  14  15
ATOM     15  C   UNL     1      -9.515 -31.395  20.517  1.00  0.00     0.041 C 
ATOM     16  O   UNL     1      -8.354 -31.836  20.735  1.00  0.00    -0.550 OA
ATOM     17  O   UNL     1     -10.508 -32.260  20.067  1.00  0.00    -0.550 OA
ENDBRANCH  14  15
ENDBRANCH  13  14
ENDBRANCH  12  13
ENDBRANCH  11  12
ENDBRANCH  10  11
ENDBRANCH   9  10
ENDBRANCH   8   9
ENDBRANCH   7   8
ENDBRANCH   6   7
ENDBRANCH   5   6
ENDBRANCH   4   5
ENDBRANCH   3   4
ENDBRANCH   2   3
ENDBRANCH   1   2
BRANCH   1  18
ATOM     18  C   UNL     1     -18.081 -32.311  21.873  1.00  0.00     0.000 C 
BRANCH  18  19
ATOM     19  C   UNL     1     -18.994 -32.638  20.679  1.00  0.00     0.000 C 
BRANCH  19  20
ATOM     20  C   UNL     1     -18.989 -31.540  19.604  1.00  0.00     0.000 C 
BRANCH  20  21
ATOM     21  C   UNL     1     -19.297 -32.081  18.198  1.00  0.00     0.000 C 
BRANCH  21  22
ATOM     22  C   UNL     1     -19.017 -33.588  18.069  1.00  0.00     0.000 C 
BRANCH  22  23
ATOM     23  C   UNL     1     -18.392 -33.967  16.715  1.00  0.00     0.000 C 
BRANCH  23  24
ATOM     24  C   UNL     1     -19.182 -33.509  15.475  1.00  0.00    -0.000 C 
BRANCH  24  25
ATOM     25  C   UNL     1     -18.273 -33.035  14.328  1.00  0.00    -0.000 C 
BRANCH  25  26
ATOM     26  C   UNL     1     -16.823 -32.790  14.780  1.00  0.00    -0.000 C 
BRANCH  26  27
ATOM     27  C   UNL     1     -16.257 -31.458  14.263  1.00  0.00    -0.000 C 
BRANCH  27  28
ATOM     28  C   UNL     1     -15.736 -30.595  15.422  1.00  0.00    -0.000 C 
BRANCH  28  29
ATOM     29  C   UNL     1     -16.711 -30.553  16.612  1.00  0.00    -0.000 C 
BRANCH  29  30
ATOM     30  C   UNL     1     -16.010 -30.189  17.932  1.00  0.00    -0.000 C 
BRANCH  30  31
ATOM     31  C   UNL     1     -16.202 -28.713  18.316  1.00  0.00    -0.003 C 
ATOM     32  C   UNL     1     -16.658 -28.529  19.763  1.00  0.00     0.004 C 
ENDBRANCH  30  31
ENDBRANCH  29  30
ENDBRANCH  28  29
ENDBRANCH  27  28
ENDBRANCH  26  27
ENDBRANCH  25  26
ENDBRANCH  24  25
ENDBRANCH  23  24
ENDBRANCH  22  23
ENDBRANCH  21  22
ENDBRANCH  20  21
ENDBRANCH  19  20
ENDBRANCH  18  19
ENDBRANCH   1  18
TORSDOF 28
ENDMDL
MODEL 7
REMARK VINA RESULT:    -4.429      2.285      6.359
REMARK INTER + INTRA:         -16.434
REMARK INTER:                 -11.163
REMARK INTRA:                  -5.271
REMARK UNBOUND:                -4.755
REMARK SMILES CCCCCCCCCCCCCCCCCCCCCCCCCCCCCC(=O)[O-]
REMARK SMILES IDX 16 1 17 2 18 3 19 4 20 5 21 6 22 7 23 8 24 9 25 10 26 11
REMARK SMILES IDX 27 12 28 13 29 14 30 15 31 16 32 17 15 18 14 19 13 20 12 21
REMARK SMILES IDX 11 22 10 23 9 24 8 25 7 26 6 27 5 28 4 29 3 30 2 31 1 32
REMARK H PARENT
REMARK Flexibility Score: inf
ROOT
ATOM      1  C   UNL     1     -20.061 -31.555  20.005  1.00  0.00     0.000 C 
ENDROOT
BRANCH   1   2
ATOM      2  C   UNL     1     -18.674 -31.932  20.553  1.00  0.00     0.000 C 
BRANCH   2   3
ATOM      3  C   UNL     1     -18.348 -33.422  20.361  1.00  0.00     0.000 C 
BRANCH   3   4
ATOM      4  C   UNL     1     -16.859 -33.663  20.062  1.00  0.00     0.000 C 
BRANCH   4   5
ATOM      5  C   UNL     1     -16.575 -33.866  18.563  1.00  0.00     0.000 C 
BRANCH   5   6
ATOM      6  C   UNL     1     -15.098 -34.123  18.204  1.00  0.00     0.000 C 
BRANCH   6   7
ATOM      7  C   UNL     1     -14.070 -33.347  19.052  1.00  0.00     0.000 C 
BRANCH   7   8
ATOM      8  C   UNL     1     -12.682 -34.003  19.163  1.00  0.00     0.000 C 
BRANCH   8   9
ATOM      9  C   UNL     1     -11.651 -33.391  18.199  1.00  0.00     0.000 C 
BRANCH   9  10
ATOM     10  C   UNL     1     -10.373 -32.912  18.914  1.00  0.00     0.000 C 
BRANCH  10  11
ATOM     11  C   UNL     1     -10.478 -31.528  19.581  1.00  0.00     0.000 C 
BRANCH  11  12
ATOM     12  C   UNL     1     -11.151 -30.476  18.679  1.00  0.00     0.000 C 
BRANCH  12  13
ATOM     13  C   UNL     1     -11.294 -29.108  19.366  1.00  0.00     0.006 C 
BRANCH  13  14
ATOM     14  C   UNL     1     -12.001 -28.067  18.487  1.00  0.00     0.053 C 
BRANCH  14  15
ATOM     15  C   UNL     1     -11.004 -27.268  17.708  1.00  0.00     0.041 C 
ATOM     16  O   UNL     1     -10.425 -27.777  16.711  1.00  0.00    -0.550 OA
ATOM     17  O   UNL     1     -10.693 -25.969  18.098  1.00  0.00    -0.550 OA
ENDBRANCH  14  15
ENDBRANCH  13  14
ENDBRANCH  12  13
ENDBRANCH  11  12
ENDBRANCH  10  11
ENDBRANCH   9  10
ENDBRANCH   8   9
ENDBRANCH   7   8
ENDBRANCH   6   7
ENDBRANCH   5   6
ENDBRANCH   4   5
ENDBRANCH   3   4
ENDBRANCH   2   3
ENDBRANCH   1   2
BRANCH   1  18
ATOM     18  C   UNL     1     -20.003 -30.345  19.050  1.00  0.00     0.000 C 
BRANCH  18  19
ATOM     19  C   UNL     1     -18.684 -30.240  18.265  1.00  0.00     0.000 C 
BRANCH  19  20
ATOM     20  C   UNL     1     -18.017 -28.861  18.399  1.00  0.00     0.000 C 
BRANCH  20  21
ATOM     21  C   UNL     1     -16.663 -28.921  19.125  1.00  0.00     0.000 C 
BRANCH  21  22
ATOM     22  C   UNL     1     -15.874 -30.202  18.800  1.00  0.00     0.000 C 
BRANCH  22  23
ATOM     23  C   UNL     1     -14.802 -29.985  17.718  1.00  0.00     0.000 C 
BRANCH  23  24
ATOM     24  C   UNL     1     -14.967 -30.841  16.448  1.00  0.00    -0.000 C 
BRANCH  24  25
ATOM     25  C   UNL     1     -13.625 -31.178  15.776  1.00  0.00    -0.000 C 
BRANCH  25  26
ATOM     26  C   UNL     1     -13.612 -32.579  15.142  1.00  0.00    -0.000 C 
BRANCH  26  27
ATOM     27  C   UNL     1     -14.811 -32.822  14.211  1.00  0.00    -0.000 C 
BRANCH  27  28
ATOM     28  C   UNL     1     -15.568 -34.096  14.612  1.00  0.00    -0.000 C 
BRANCH  28  29
ATOM     29  C   UNL     1     -17.077 -34.002  14.328  1.00  0.00    -0.000 C 
BRANCH  29  30
ATOM     30  C   UNL     1     -17.707 -32.729  14.920  1.00  0.00    -0.000 C 
BRANCH  30  31
ATOM     31  C   UNL     1     -18.838 -33.036  15.914  1.00  0.00    -0.003 C 
ATOM     32  C   UNL     1     -19.953 -33.884  15.303  1.00  0.00     0.004 C 
ENDBRANCH  30  31
ENDBRANCH  29  30
ENDBRANCH  28  29
ENDBRANCH  27  28
ENDBRANCH  26  27
ENDBRANCH  25  26
ENDBRANCH  24  25
ENDBRANCH  23  24
ENDBRANCH  22  23
ENDBRANCH  21  22
ENDBRANCH  20  21
ENDBRANCH  19  20
ENDBRANCH  18  19
ENDBRANCH   1  18
TORSDOF 28
ENDMDL
MODEL 8
REMARK VINA RESULT:    -4.426      2.527      7.166
REMARK INTER + INTRA:         -16.424
REMARK INTER:                 -10.899
REMARK INTRA:                  -5.525
REMARK UNBOUND:                -4.755
REMARK SMILES CCCCCCCCCCCCCCCCCCCCCCCCCCCCCC(=O)[O-]
REMARK SMILES IDX 16 1 17 2 18 3 19 4 20 5 21 6 22 7 23 8 24 9 25 10 26 11
REMARK SMILES IDX 27 12 28 13 29 14 30 15 31 16 32 17 15 18 14 19 13 20 12 21
REMARK SMILES IDX 11 22 10 23 9 24 8 25 7 26 6 27 5 28 4 29 3 30 2 31 1 32
REMARK H PARENT
REMARK Flexibility Score: inf
ROOT
ATOM      1  C   UNL     1     -15.736 -32.109  18.259  1.00  0.00     0.000 C 
ENDROOT
BRANCH   1   2
ATOM      2  C   UNL     1     -15.836 -31.613  16.806  1.00  0.00     0.000 C 
BRANCH   2   3
ATOM      3  C   UNL     1     -14.984 -30.359  16.550  1.00  0.00     0.000 C 
BRANCH   3   4
ATOM      4  C   UNL     1     -13.914 -30.146  17.632  1.00  0.00     0.000 C 
BRANCH   4   5
ATOM      5  C   UNL     1     -12.493 -30.020  17.053  1.00  0.00     0.000 C 
BRANCH   5   6
ATOM      6  C   UNL     1     -11.512 -31.131  17.476  1.00  0.00     0.000 C 
BRANCH   6   7
ATOM      7  C   UNL     1     -12.161 -32.376  18.111  1.00  0.00     0.000 C 
BRANCH   7   8
ATOM      8  C   UNL     1     -11.308 -33.657  18.066  1.00  0.00     0.000 C 
BRANCH   8   9
ATOM      9  C   UNL     1     -10.735 -34.045  19.440  1.00  0.00     0.000 C 
BRANCH   9  10
ATOM     10  C   UNL     1     -10.778 -32.887  20.455  1.00  0.00     0.000 C 
BRANCH  10  11
ATOM     11  C   UNL     1      -9.463 -32.640  21.219  1.00  0.00     0.000 C 
BRANCH  11  12
ATOM     12  C   UNL     1      -9.409 -31.256  21.891  1.00  0.00     0.000 C 
BRANCH  12  13
ATOM     13  C   UNL     1     -10.059 -30.155  21.037  1.00  0.00     0.006 C 
BRANCH  13  14
ATOM     14  C   UNL     1      -9.068 -29.062  20.612  1.00  0.00     0.053 C 
BRANCH  14  15
ATOM     15  C   UNL     1      -9.478 -28.456  19.307  1.00  0.00     0.041 C 
ATOM     16  O   UNL     1      -9.144 -29.003  18.222  1.00  0.00    -0.550 OA
ATOM     17  O   UNL     1     -10.207 -27.271  19.286  1.00  0.00    -0.550 OA
ENDBRANCH  14  15
ENDBRANCH  13  14
ENDBRANCH  12  13
ENDBRANCH  11  12
ENDBRANCH  10  11
ENDBRANCH   9  10
ENDBRANCH   8   9
ENDBRANCH   7   8
ENDBRANCH   6   7
ENDBRANCH   5   6
ENDBRANCH   4   5
ENDBRANCH   3   4
ENDBRANCH   2   3
ENDBRANCH   1   2
BRANCH   1  18
ATOM     18  C   UNL     1     -15.578 -33.642  18.343  1.00  0.00     0.000 C 
BRANCH  18  19
ATOM     19  C   UNL     1     -14.917 -34.124  19.646  1.00  0.00     0.000 C 
BRANCH  19  20
ATOM     20  C   UNL     1     -14.713 -32.993  20.667  1.00  0.00     0.000 C 
BRANCH  20  21
ATOM     21  C   UNL     1     -15.684 -33.080  21.855  1.00  0.00     0.000 C 
BRANCH  21  22
ATOM     22  C   UNL     1     -16.708 -31.931  21.868  1.00  0.00     0.000 C 
BRANCH  22  23
ATOM     23  C   UNL     1     -18.163 -32.426  21.787  1.00  0.00     0.000 C 
BRANCH  23  24
ATOM     24  C   UNL     1     -18.438 -33.485  20.703  1.00  0.00    -0.000 C 
BRANCH  24  25
ATOM     25  C   UNL     1     -19.621 -33.113  19.791  1.00  0.00    -0.000 C 
BRANCH  25  26
ATOM     26  C   UNL     1     -19.242 -33.101  18.301  1.00  0.00    -0.000 C 
BRANCH  26  27
ATOM     27  C   UNL     1     -19.312 -31.697  17.681  1.00  0.00    -0.000 C 
BRANCH  27  28
ATOM     28  C   UNL     1     -19.405 -30.619  18.772  1.00  0.00    -0.000 C 
BRANCH  28  29
ATOM     29  C   UNL     1     -18.497 -29.410  18.488  1.00  0.00    -0.000 C 
BRANCH  29  30
ATOM     30  C   UNL     1     -17.420 -29.220  19.571  1.00  0.00    -0.000 C 
BRANCH  30  31
ATOM     31  C   UNL     1     -16.604 -27.932  19.372  1.00  0.00    -0.003 C 
ATOM     32  C   UNL     1     -16.625 -27.432  17.927  1.00  0.00     0.004 C 
ENDBRANCH  30  31
ENDBRANCH  29  30
ENDBRANCH  28  29
ENDBRANCH  27  28
ENDBRANCH  26  27
ENDBRANCH  25  26
ENDBRANCH  24  25
ENDBRANCH  23  24
ENDBRANCH  22  23
ENDBRANCH  21  22
ENDBRANCH  20  21
ENDBRANCH  19  20
ENDBRANCH  18  19
ENDBRANCH   1  18
TORSDOF 28
ENDMDL
MODEL 9
REMARK VINA RESULT:    -4.413      3.229      8.069
REMARK INTER + INTRA:         -16.391
REMARK INTER:                 -12.359
REMARK INTRA:                  -4.033
REMARK UNBOUND:                -4.755
REMARK SMILES CCCCCCCCCCCCCCCCCCCCCCCCCCCCCC(=O)[O-]
REMARK SMILES IDX 16 1 17 2 18 3 19 4 20 5 21 6 22 7 23 8 24 9 25 10 26 11
REMARK SMILES IDX 27 12 28 13 29 14 30 15 31 16 32 17 15 18 14 19 13 20 12 21
REMARK SMILES IDX 11 22 10 23 9 24 8 25 7 26 6 27 5 28 4 29 3 30 2 31 1 32
REMARK H PARENT
REMARK Flexibility Score: inf
ROOT
ATOM      1  C   UNL     1     -17.656 -29.203  17.759  1.00  0.00     0.000 C 
ENDROOT
BRANCH   1   2
ATOM      2  C   UNL     1     -17.154 -27.748  17.742  1.00  0.00     0.000 C 
BRANCH   2   3
ATOM      3  C   UNL     1     -15.933 -27.534  18.650  1.00  0.00     0.000 C 
BRANCH   3   4
ATOM      4  C   UNL     1     -14.914 -28.680  18.544  1.00  0.00     0.000 C 
BRANCH   4   5
ATOM      5  C   UNL     1     -13.501 -28.192  18.176  1.00  0.00     0.000 C 
BRANCH   5   6
ATOM      6  C   UNL     1     -12.364 -29.188  18.479  1.00  0.00     0.000 C 
BRANCH   6   7
ATOM      7  C   UNL     1     -10.947 -28.699  18.119  1.00  0.00     0.000 C 
BRANCH   7   8
ATOM      8  C   UNL     1     -10.840 -27.209  17.750  1.00  0.00     0.000 C 
BRANCH   8   9
ATOM      9  C   UNL     1     -10.277 -26.347  18.893  1.00  0.00     0.000 C 
BRANCH   9  10
ATOM     10  C   UNL     1      -9.902 -24.923  18.440  1.00  0.00     0.000 C 
BRANCH  10  11
ATOM     11  C   UNL     1     -10.748 -24.362  17.282  1.00  0.00     0.000 C 
BRANCH  11  12
ATOM     12  C   UNL     1     -10.530 -22.855  17.053  1.00  0.00     0.000 C 
BRANCH  12  13
ATOM     13  C   UNL     1     -10.683 -22.030  18.342  1.00  0.00     0.006 C 
BRANCH  13  14
ATOM     14  C   UNL     1     -10.599 -20.516  18.098  1.00  0.00     0.053 C 
BRANCH  14  15
ATOM     15  C   UNL     1     -10.784 -19.764  19.378  1.00  0.00     0.041 C 
ATOM     16  O   UNL     1     -11.538 -18.755  19.417  1.00  0.00    -0.550 OA
ATOM     17  O   UNL     1     -10.103 -20.161  20.526  1.00  0.00    -0.550 OA
ENDBRANCH  14  15
ENDBRANCH  13  14
ENDBRANCH  12  13
ENDBRANCH  11  12
ENDBRANCH  10  11
ENDBRANCH   9  10
ENDBRANCH   8   9
ENDBRANCH   7   8
ENDBRANCH   6   7
ENDBRANCH   5   6
ENDBRANCH   4   5
ENDBRANCH   3   4
ENDBRANCH   2   3
ENDBRANCH   1   2
BRANCH   1  18
ATOM     18  C   UNL     1     -18.530 -29.506  18.994  1.00  0.00     0.000 C 
BRANCH  18  19
ATOM     19  C   UNL     1     -19.412 -30.756  18.835  1.00  0.00     0.000 C 
BRANCH  19  20
ATOM     20  C   UNL     1     -19.637 -31.501  20.160  1.00  0.00     0.000 C 
BRANCH  20  21
ATOM     21  C   UNL     1     -19.603 -33.030  19.998  1.00  0.00     0.000 C 
BRANCH  21  22
ATOM     22  C   UNL     1     -18.295 -33.652  20.517  1.00  0.00     0.000 C 
BRANCH  22  23
ATOM     23  C   UNL     1     -17.757 -32.947  21.775  1.00  0.00     0.000 C 
BRANCH  23  24
ATOM     24  C   UNL     1     -16.308 -32.435  21.672  1.00  0.00    -0.000 C 
BRANCH  24  25
ATOM     25  C   UNL     1     -15.983 -31.834  20.293  1.00  0.00    -0.000 C 
BRANCH  25  26
ATOM     26  C   UNL     1     -14.796 -32.531  19.606  1.00  0.00    -0.000 C 
BRANCH  26  27
ATOM     27  C   UNL     1     -15.192 -33.220  18.290  1.00  0.00    -0.000 C 
BRANCH  27  28
ATOM     28  C   UNL     1     -15.606 -32.186  17.232  1.00  0.00    -0.000 C 
BRANCH  28  29
ATOM     29  C   UNL     1     -16.950 -32.527  16.566  1.00  0.00    -0.000 C 
BRANCH  29  30
ATOM     30  C   UNL     1     -17.418 -33.956  16.889  1.00  0.00    -0.000 C 
BRANCH  30  31
ATOM     31  C   UNL     1     -18.940 -34.125  16.749  1.00  0.00    -0.003 C 
ATOM     32  C   UNL     1     -19.579 -33.049  15.871  1.00  0.00     0.004 C 
ENDBRANCH  30  31
ENDBRANCH  29  30
ENDBRANCH  28  29
ENDBRANCH  27  28
ENDBRANCH  26  27
ENDBRANCH  25  26
ENDBRANCH  24  25
ENDBRANCH  23  24
ENDBRANCH  22  23
ENDBRANCH  21  22
ENDBRANCH  20  21
ENDBRANCH  19  20
ENDBRANCH  18  19
ENDBRANCH   1  18
TORSDOF 28
ENDMDL
