MODEL 1
REMARK VINA RESULT:    -3.654      0.000      0.000
REMARK INTER + INTRA:          -4.018
REMARK INTER:                  -3.867
REMARK INTRA:                  -0.151
REMARK UNBOUND:                -0.151
REMARK SMILES CC1=CC=C(C(C)C)CC1
REMARK SMILES IDX 1 1 2 2 3 3 4 4 5 5 9 6 10 7 6 8 7 9 8 10
REMARK H PARENT
REMARK Flexibility Score: inf
ROOT
ATOM      1  C   UNL     1       3.506   4.876  12.007  1.00  0.00     0.039 C 
ATOM      2  C   UNL     1       4.612   5.805  12.415  1.00  0.00    -0.073 C 
ATOM      3  C   UNL     1       5.760   5.306  12.898  1.00  0.00    -0.001 C 
ATOM      4  C   UNL     1       6.861   6.202  13.302  1.00  0.00    -0.001 C 
ATOM      5  C   UNL     1       6.844   7.509  12.982  1.00  0.00    -0.067 C 
ATOM      6  C   UNL     1       5.729   8.032  12.095  1.00  0.00     0.035 C 
ATOM      7  C   UNL     1       4.406   7.302  12.373  1.00  0.00     0.035 C 
ENDROOT
BRANCH   5   8
ATOM      8  C   UNL     1       7.952   8.428  13.463  1.00  0.00     0.009 C 
ATOM      9  C   UNL     1       7.869   8.653  14.978  1.00  0.00     0.012 C 
ATOM     10  C   UNL     1       9.325   7.879  13.063  1.00  0.00     0.012 C 
ENDBRANCH   5   8
TORSDOF 1
ENDMDL
MODEL 2
REMARK VINA RESULT:    -3.407      0.327      1.594
REMARK INTER + INTRA:          -3.757
REMARK INTER:                  -3.609
REMARK INTRA:                  -0.148
REMARK UNBOUND:                -0.151
REMARK SMILES CC1=CC=C(C(C)C)CC1
REMARK SMILES IDX 1 1 2 2 3 3 4 4 5 5 9 6 10 7 6 8 7 9 8 10
REMARK H PARENT
REMARK Flexibility Score: inf
ROOT
ATOM      1  C   UNL     1       3.351   4.876  12.253  1.00  0.00     0.039 C 
ATOM      2  C   UNL     1       4.536   5.758  12.514  1.00  0.00    -0.073 C 
ATOM      3  C   UNL     1       4.446   7.080  12.300  1.00  0.00    -0.001 C 
ATOM      4  C   UNL     1       5.598   7.966  12.553  1.00  0.00    -0.001 C 
ATOM      5  C   UNL     1       6.680   7.523  13.220  1.00  0.00    -0.067 C 
ATOM      6  C   UNL     1       6.653   6.126  13.815  1.00  0.00     0.035 C 
ATOM      7  C   UNL     1       5.861   5.157  12.926  1.00  0.00     0.035 C 
ENDROOT
BRANCH   5   8
ATOM      8  C   UNL     1       7.883   8.428  13.413  1.00  0.00     0.009 C 
ATOM      9  C   UNL     1       8.152   8.686  14.900  1.00  0.00     0.012 C 
ATOM     10  C   UNL     1       9.119   7.844  12.723  1.00  0.00     0.012 C 
ENDBRANCH   5   8
TORSDOF 1
ENDMDL
MODEL 3
REMARK VINA RESULT:    -3.106      1.049      4.464
REMARK INTER + INTRA:          -3.439
REMARK INTER:                  -3.291
REMARK INTRA:                  -0.148
REMARK UNBOUND:                -0.151
REMARK SMILES CC1=CC=C(C(C)C)CC1
REMARK SMILES IDX 1 1 2 2 3 3 4 4 5 5 9 6 10 7 6 8 7 9 8 10
REMARK H PARENT
REMARK Flexibility Score: inf
ROOT
ATOM      1  C   UNL     1       9.933   8.474  13.897  1.00  0.00     0.039 C 
ATOM      2  C   UNL     1       8.566   7.988  13.513  1.00  0.00    -0.073 C 
ATOM      3  C   UNL     1       8.270   7.778  12.221  1.00  0.00    -0.001 C 
ATOM      4  C   UNL     1       6.933   7.297  11.822  1.00  0.00    -0.001 C 
ATOM      5  C   UNL     1       6.062   6.834  12.736  1.00  0.00    -0.067 C 
ATOM      6  C   UNL     1       6.514   6.701  14.179  1.00  0.00     0.035 C 
ATOM      7  C   UNL     1       7.491   7.823  14.563  1.00  0.00     0.035 C 
ENDROOT
BRANCH   5   8
ATOM      8  C   UNL     1       4.667   6.406  12.316  1.00  0.00     0.009 C 
ATOM      9  C   UNL     1       4.463   4.900  12.519  1.00  0.00     0.012 C 
ATOM     10  C   UNL     1       3.602   7.212  13.065  1.00  0.00     0.012 C 
ENDBRANCH   5   8
TORSDOF 1
ENDMDL
MODEL 4
REMARK VINA RESULT:    -3.077      1.095      4.394
REMARK INTER + INTRA:          -3.408
REMARK INTER:                  -3.248
REMARK INTRA:                  -0.160
REMARK UNBOUND:                -0.151
REMARK SMILES CC1=CC=C(C(C)C)CC1
REMARK SMILES IDX 1 1 2 2 3 3 4 4 5 5 9 6 10 7 6 8 7 9 8 10
REMARK H PARENT
REMARK Flexibility Score: inf
ROOT
ATOM      1  C   UNL     1      10.002   8.417  13.801  1.00  0.00     0.039 C 
ATOM      2  C   UNL     1       8.630   7.918  13.455  1.00  0.00    -0.073 C 
ATOM      3  C   UNL     1       7.646   7.978  14.365  1.00  0.00    -0.001 C 
ATOM      4  C   UNL     1       6.290   7.495  14.044  1.00  0.00    -0.001 C 
ATOM      5  C   UNL     1       5.939   7.205  12.778  1.00  0.00    -0.067 C 
ATOM      6  C   UNL     1       6.925   7.493  11.660  1.00  0.00     0.035 C 
ATOM      7  C   UNL     1       8.372   7.260  12.118  1.00  0.00     0.035 C 
ENDROOT
BRANCH   5   8
ATOM      8  C   UNL     1       4.561   6.645  12.476  1.00  0.00     0.009 C 
ATOM      9  C   UNL     1       4.550   5.114  12.566  1.00  0.00     0.012 C 
ATOM     10  C   UNL     1       3.509   7.258  13.406  1.00  0.00     0.012 C 
ENDBRANCH   5   8
TORSDOF 1
ENDMDL
MODEL 5
REMARK VINA RESULT:    -0.799      1.051      4.238
REMARK INTER + INTRA:          -0.997
REMARK INTER:                  -0.824
REMARK INTRA:                  -0.173
REMARK UNBOUND:                -0.151
REMARK SMILES CC1=CC=C(C(C)C)CC1
REMARK SMILES IDX 1 1 2 2 3 3 4 4 5 5 9 6 10 7 6 8 7 9 8 10
REMARK H PARENT
REMARK Flexibility Score: inf
ROOT
ATOM      1  C   UNL     1       9.697   8.319  13.931  1.00  0.00     0.039 C 
ATOM      2  C   UNL     1       8.340   7.836  13.511  1.00  0.00    -0.073 C 
ATOM      3  C   UNL     1       7.943   6.595  13.832  1.00  0.00    -0.001 C 
ATOM      4  C   UNL     1       6.611   6.102  13.432  1.00  0.00    -0.001 C 
ATOM      5  C   UNL     1       5.677   6.941  12.951  1.00  0.00    -0.067 C 
ATOM      6  C   UNL     1       5.969   8.431  12.933  1.00  0.00     0.035 C 
ATOM      7  C   UNL     1       7.453   8.705  12.649  1.00  0.00     0.035 C 
ENDROOT
BRANCH   5   8
ATOM      8  C   UNL     1       4.336   6.405  12.482  1.00  0.00     0.009 C 
ATOM      9  C   UNL     1       3.933   7.017  11.135  1.00  0.00     0.012 C 
ATOM     10  C   UNL     1       4.359   4.875  12.407  1.00  0.00     0.012 C 
ENDBRANCH   5   8
TORSDOF 1
ENDMDL
