MODEL 1
REMARK VINA RESULT:    23.833      0.000      0.000
REMARK INTER + INTRA:          28.394
REMARK INTER:                  28.710
REMARK INTRA:                  -0.316
REMARK UNBOUND:                -0.316
REMARK SMILES O=c1c(O)c(-c2ccc(O)c(O)c2)oc2cc(O)cc(O)c12
REMARK SMILES IDX 5 1 3 2 2 3 1 4 22 5 20 6 19 7 17 8 16 9 15 10 14 11 6 12
REMARK SMILES IDX 7 13 8 14 9 15 13 16 11 17 10 18 12 20 4 22 21 24 18 26
REMARK H PARENT 10 19 12 21 4 23 21 25 18 27
REMARK Flexibility Score: inf
ROOT
ATOM      1  C   UNL     1      12.259  -2.898  10.245  1.00  0.00     0.180 A 
ATOM      2  C   UNL     1      10.939  -3.243  10.583  1.00  0.00     0.208 A 
ATOM      3  C   UNL     1      10.048  -3.609   9.561  1.00  0.00     0.238 A 
ATOM      4  O   UNL     1       8.884  -3.969   9.876  1.00  0.00    -0.285 OA
ATOM      5  C   UNL     1      10.483  -3.611   8.214  1.00  0.00     0.111 A 
ATOM      6  C   UNL     1       9.655  -3.927   7.096  1.00  0.00     0.134 A 
ATOM      7  C   UNL     1      10.224  -4.024   5.820  1.00  0.00     0.093 A 
ATOM      8  C   UNL     1      11.580  -3.751   5.614  1.00  0.00     0.123 A 
ATOM      9  C   UNL     1      12.383  -3.385   6.690  1.00  0.00     0.094 A 
ATOM     10  C   UNL     1      11.851  -3.315   7.980  1.00  0.00     0.146 A 
ATOM     11  O   UNL     1      12.655  -2.972   8.980  1.00  0.00    -0.452 OA
ENDROOT
BRANCH   1  12
ATOM     12  C   UNL     1      13.249  -2.476  11.264  1.00  0.00     0.025 A 
ATOM     13  C   UNL     1      13.493  -1.119  11.528  1.00  0.00     0.016 A 
ATOM     14  C   UNL     1      14.448  -0.746  12.476  1.00  0.00     0.051 A 
ATOM     15  C   UNL     1      15.185  -1.713  13.167  1.00  0.00     0.157 A 
ATOM     16  C   UNL     1      14.002  -3.448  11.939  1.00  0.00     0.062 A 
ATOM     17  C   UNL     1      14.962  -3.083  12.892  1.00  0.00     0.158 A 
BRANCH  15  18
ATOM     18  O   UNL     1      16.121  -1.273  14.105  1.00  0.00    -0.504 OA
ATOM     19  H   UNL     1      17.000  -1.737  14.286  1.00  0.00     0.293 HD
ENDBRANCH  15  18
BRANCH  17  20
ATOM     20  O   UNL     1      15.665  -4.106  13.533  1.00  0.00    -0.504 OA
ATOM     21  H   UNL     1      16.410  -4.634  13.103  1.00  0.00     0.293 HD
ENDBRANCH  17  20
ENDBRANCH   1  12
BRANCH   2  22
ATOM     22  O   UNL     1      10.537  -3.254  11.922  1.00  0.00    -0.502 OA
ATOM     23  H   UNL     1      10.867  -2.574  12.595  1.00  0.00     0.293 HD
ENDBRANCH   2  22
BRANCH   6  24
ATOM     24  O   UNL     1       8.274  -4.125   7.179  1.00  0.00    -0.507 OA
ATOM     25  H   UNL     1       7.793  -4.958   6.874  1.00  0.00     0.293 HD
ENDBRANCH   6  24
BRANCH   8  26
ATOM     26  O   UNL     1      12.135  -3.835   4.339  1.00  0.00    -0.508 OA
ATOM     27  H   UNL     1      12.339  -3.006   3.794  1.00  0.00     0.293 HD
ENDBRANCH   8  26
TORSDOF 6
ENDMDL
MODEL 2
REMARK VINA RESULT:    25.658     10.331     13.927
REMARK INTER + INTRA:          30.592
REMARK INTER:                  30.643
REMARK INTRA:                  -0.051
REMARK UNBOUND:                -0.316
REMARK SMILES O=c1c(O)c(-c2ccc(O)c(O)c2)oc2cc(O)cc(O)c12
REMARK SMILES IDX 5 1 3 2 2 3 1 4 22 5 20 6 19 7 17 8 16 9 15 10 14 11 6 12
REMARK SMILES IDX 7 13 8 14 9 15 13 16 11 17 10 18 12 20 4 22 21 24 18 26
REMARK H PARENT 10 19 12 21 4 23 21 25 18 27
REMARK Flexibility Score: inf
ROOT
ATOM      1  C   UNL     1       2.410  -1.617   0.868  1.00  0.00     0.180 A 
ATOM      2  C   UNL     1       1.487  -1.128   1.809  1.00  0.00     0.208 A 
ATOM      3  C   UNL     1       0.114  -1.290   1.565  1.00  0.00     0.238 A 
ATOM      4  O   UNL     1      -0.705  -0.899   2.437  1.00  0.00    -0.285 OA
ATOM      5  C   UNL     1      -0.320  -1.924   0.376  1.00  0.00     0.111 A 
ATOM      6  C   UNL     1      -1.687  -2.106   0.007  1.00  0.00     0.134 A 
ATOM      7  C   UNL     1      -2.001  -2.862  -1.128  1.00  0.00     0.093 A 
ATOM      8  C   UNL     1      -0.996  -3.386  -1.945  1.00  0.00     0.123 A 
ATOM      9  C   UNL     1       0.341  -3.164  -1.626  1.00  0.00     0.094 A 
ATOM     10  C   UNL     1       0.686  -2.444  -0.479  1.00  0.00     0.146 A 
ATOM     11  O   UNL     1       1.973  -2.264  -0.206  1.00  0.00    -0.452 OA
ENDROOT
BRANCH   1  12
ATOM     12  C   UNL     1       3.872  -1.461   1.043  1.00  0.00     0.025 A 
ATOM     13  C   UNL     1       4.665  -0.847   0.060  1.00  0.00     0.016 A 
ATOM     14  C   UNL     1       6.045  -0.733   0.238  1.00  0.00     0.051 A 
ATOM     15  C   UNL     1       6.662  -1.239   1.387  1.00  0.00     0.157 A 
ATOM     16  C   UNL     1       4.491  -1.989   2.186  1.00  0.00     0.062 A 
ATOM     17  C   UNL     1       5.875  -1.879   2.373  1.00  0.00     0.158 A 
BRANCH  15  18
ATOM     18  O   UNL     1       8.045  -1.088   1.505  1.00  0.00    -0.504 OA
ATOM     19  H   UNL     1       8.644  -0.766   0.758  1.00  0.00     0.293 HD
ENDBRANCH  15  18
BRANCH  17  20
ATOM     20  O   UNL     1       6.420  -2.417   3.541  1.00  0.00    -0.504 OA
ATOM     21  H   UNL     1       5.954  -3.104   4.116  1.00  0.00     0.293 HD
ENDBRANCH  17  20
ENDBRANCH   1  12
BRANCH   2  22
ATOM     22  O   UNL     1       1.938  -0.525   2.986  1.00  0.00    -0.502 OA
ATOM     23  H   UNL     1       2.921  -0.467   3.227  1.00  0.00     0.293 HD
ENDBRANCH   2  22
BRANCH   6  24
ATOM     24  O   UNL     1      -2.763  -1.546   0.701  1.00  0.00    -0.507 OA
ATOM     25  H   UNL     1      -3.355  -0.808   0.348  1.00  0.00     0.293 HD
ENDBRANCH   6  24
BRANCH   8  26
ATOM     26  O   UNL     1      -1.317  -4.125  -3.083  1.00  0.00    -0.508 OA
ATOM     27  H   UNL     1      -1.982  -3.782  -3.766  1.00  0.00     0.293 HD
ENDBRANCH   8  26
TORSDOF 6
ENDMDL
