MODEL 1
REMARK VINA RESULT:    -4.272      0.000      0.000
REMARK INTER + INTRA:          -5.106
REMARK INTER:                  -5.021
REMARK INTRA:                  -0.085
REMARK UNBOUND:                -0.085
REMARK SMILES O=C([O-])CCC(=O)[O-]
REMARK SMILES IDX 4 1 2 2 1 3 3 4 5 5 6 6 7 7 8 8
REMARK H PARENT
REMARK Flexibility Score: inf
ROOT
ATOM      1  C   UNL     1      -7.092  -5.170 -20.054  1.00  0.00     0.059 C 
ENDROOT
BRANCH   1   2
ATOM      2  C   UNL     1      -8.239  -6.058 -19.679  1.00  0.00     0.042 C 
ATOM      3  O   UNL     1      -9.349  -5.557 -19.356  1.00  0.00    -0.550 OA
ATOM      4  O   UNL     1      -8.093  -7.439 -19.724  1.00  0.00    -0.550 OA
ENDBRANCH   1   2
BRANCH   1   5
ATOM      5  C   UNL     1      -7.354  -3.713 -19.659  1.00  0.00     0.059 C 
BRANCH   5   6
ATOM      6  C   UNL     1      -7.312  -2.801 -20.848  1.00  0.00     0.042 C 
ATOM      7  O   UNL     1      -7.104  -3.270 -21.998  1.00  0.00    -0.550 OA
ATOM      8  O   UNL     1      -7.542  -1.441 -20.690  1.00  0.00    -0.550 OA
ENDBRANCH   5   6
ENDBRANCH   1   5
TORSDOF 3
ENDMDL
MODEL 2
REMARK VINA RESULT:    -4.263      0.070      4.158
REMARK INTER + INTRA:          -5.096
REMARK INTER:                  -5.008
REMARK INTRA:                  -0.088
REMARK UNBOUND:                -0.085
REMARK SMILES O=C([O-])CCC(=O)[O-]
REMARK SMILES IDX 4 1 2 2 1 3 3 4 5 5 6 6 7 7 8 8
REMARK H PARENT
REMARK Flexibility Score: inf
ROOT
ATOM      1  C   UNL     1      -7.226  -3.763 -19.652  1.00  0.00     0.059 C 
ENDROOT
BRANCH   1   2
ATOM      2  C   UNL     1      -7.288  -2.835 -20.826  1.00  0.00     0.042 C 
ATOM      3  O   UNL     1      -7.128  -3.279 -21.994  1.00  0.00    -0.550 OA
ATOM      4  O   UNL     1      -7.562  -1.487 -20.635  1.00  0.00    -0.550 OA
ENDBRANCH   1   2
BRANCH   1   5
ATOM      5  C   UNL     1      -7.047  -5.220 -20.092  1.00  0.00     0.059 C 
BRANCH   5   6
ATOM      6  C   UNL     1      -8.207  -6.071 -19.672  1.00  0.00     0.042 C 
ATOM      7  O   UNL     1      -9.300  -5.536 -19.345  1.00  0.00    -0.550 OA
ATOM      8  O   UNL     1      -8.094  -7.455 -19.681  1.00  0.00    -0.550 OA
ENDBRANCH   5   6
ENDBRANCH   1   5
TORSDOF 3
ENDMDL
MODEL 3
REMARK VINA RESULT:    -4.217      0.161      1.624
REMARK INTER + INTRA:          -5.041
REMARK INTER:                  -4.953
REMARK INTRA:                  -0.088
REMARK UNBOUND:                -0.085
REMARK SMILES O=C([O-])CCC(=O)[O-]
REMARK SMILES IDX 4 1 2 2 1 3 3 4 5 5 6 6 7 7 8 8
REMARK H PARENT
REMARK Flexibility Score: inf
ROOT
ATOM      1  C   UNL     1      -6.976  -5.240 -20.078  1.00  0.00     0.059 C 
ENDROOT
BRANCH   1   2
ATOM      2  C   UNL     1      -8.149  -6.097 -19.713  1.00  0.00     0.042 C 
ATOM      3  O   UNL     1      -8.039  -7.352 -19.704  1.00  0.00    -0.550 OA
ATOM      4  O   UNL     1      -9.352  -5.509 -19.345  1.00  0.00    -0.550 OA
ENDBRANCH   1   2
BRANCH   1   5
ATOM      5  C   UNL     1      -7.147  -3.804 -19.572  1.00  0.00     0.059 C 
BRANCH   5   6
ATOM      6  C   UNL     1      -7.302  -2.833 -20.703  1.00  0.00     0.042 C 
ATOM      7  O   UNL     1      -7.540  -1.619 -20.468  1.00  0.00    -0.550 OA
ATOM      8  O   UNL     1      -7.141  -3.262 -22.014  1.00  0.00    -0.550 OA
ENDBRANCH   5   6
ENDBRANCH   1   5
TORSDOF 3
ENDMDL
MODEL 4
REMARK VINA RESULT:    -4.044      2.218      2.831
REMARK INTER + INTRA:          -4.838
REMARK INTER:                  -4.721
REMARK INTRA:                  -0.117
REMARK UNBOUND:                -0.085
REMARK SMILES O=C([O-])CCC(=O)[O-]
REMARK SMILES IDX 4 1 2 2 1 3 3 4 5 5 6 6 7 7 8 8
REMARK H PARENT
REMARK Flexibility Score: inf
ROOT
ATOM      1  C   UNL     1      -7.796  -3.347 -19.436  1.00  0.00     0.059 C 
ENDROOT
BRANCH   1   2
ATOM      2  C   UNL     1      -6.712  -4.379 -19.355  1.00  0.00     0.042 C 
ATOM      3  O   UNL     1      -6.742  -5.390 -20.106  1.00  0.00    -0.550 OA
ATOM      4  O   UNL     1      -5.649  -4.205 -18.478  1.00  0.00    -0.550 OA
ENDBRANCH   1   2
BRANCH   1   5
ATOM      5  C   UNL     1      -7.377  -2.157 -20.305  1.00  0.00     0.059 C 
BRANCH   5   6
ATOM      6  C   UNL     1      -7.043  -0.956 -19.474  1.00  0.00     0.042 C 
ATOM      7  O   UNL     1      -5.968  -0.918 -18.818  1.00  0.00    -0.550 OA
ATOM      8  O   UNL     1      -7.897   0.139 -19.458  1.00  0.00    -0.550 OA
ENDBRANCH   5   6
ENDBRANCH   1   5
TORSDOF 3
ENDMDL
MODEL 5
REMARK VINA RESULT:    -4.042      2.367      3.981
REMARK INTER + INTRA:          -4.836
REMARK INTER:                  -4.657
REMARK INTRA:                  -0.179
REMARK UNBOUND:                -0.085
REMARK SMILES O=C([O-])CCC(=O)[O-]
REMARK SMILES IDX 4 1 2 2 1 3 3 4 5 5 6 6 7 7 8 8
REMARK H PARENT
REMARK Flexibility Score: inf
ROOT
ATOM      1  C   UNL     1      -6.582  -1.645 -19.421  1.00  0.00     0.059 C 
ENDROOT
BRANCH   1   2
ATOM      2  C   UNL     1      -5.166  -2.125 -19.325  1.00  0.00     0.042 C 
ATOM      3  O   UNL     1      -4.310  -1.746 -20.168  1.00  0.00    -0.550 OA
ATOM      4  O   UNL     1      -4.782  -2.959 -18.283  1.00  0.00    -0.550 OA
ENDBRANCH   1   2
BRANCH   1   5
ATOM      5  C   UNL     1      -7.565  -2.813 -19.554  1.00  0.00     0.059 C 
BRANCH   5   6
ATOM      6  C   UNL     1      -7.227  -3.690 -20.722  1.00  0.00     0.042 C 
ATOM      7  O   UNL     1      -7.232  -3.219 -21.890  1.00  0.00    -0.550 OA
ATOM      8  O   UNL     1      -6.868  -5.015 -20.516  1.00  0.00    -0.550 OA
ENDBRANCH   5   6
ENDBRANCH   1   5
TORSDOF 3
ENDMDL
MODEL 6
REMARK VINA RESULT:    -4.006      2.357      3.225
REMARK INTER + INTRA:          -4.794
REMARK INTER:                  -4.668
REMARK INTRA:                  -0.126
REMARK UNBOUND:                -0.085
REMARK SMILES O=C([O-])CCC(=O)[O-]
REMARK SMILES IDX 4 1 2 2 1 3 3 4 5 5 6 6 7 7 8 8
REMARK H PARENT
REMARK Flexibility Score: inf
ROOT
ATOM      1  C   UNL     1      -7.531  -2.861 -19.559  1.00  0.00     0.059 C 
ENDROOT
BRANCH   1   2
ATOM      2  C   UNL     1      -7.201  -3.706 -20.751  1.00  0.00     0.042 C 
ATOM      3  O   UNL     1      -7.213  -3.205 -21.906  1.00  0.00    -0.550 OA
ATOM      4  O   UNL     1      -6.844  -5.038 -20.582  1.00  0.00    -0.550 OA
ENDBRANCH   1   2
BRANCH   1   5
ATOM      5  C   UNL     1      -6.676  -1.590 -19.515  1.00  0.00     0.059 C 
BRANCH   5   6
ATOM      6  C   UNL     1      -5.246  -1.897 -19.189  1.00  0.00     0.042 C 
ATOM      7  O   UNL     1      -4.321  -1.182 -19.658  1.00  0.00    -0.550 OA
ATOM      8  O   UNL     1      -4.937  -2.948 -18.336  1.00  0.00    -0.550 OA
ENDBRANCH   5   6
ENDBRANCH   1   5
TORSDOF 3
ENDMDL
MODEL 7
REMARK VINA RESULT:    -3.925     10.137     10.953
REMARK INTER + INTRA:          -4.698
REMARK INTER:                  -4.612
REMARK INTRA:                  -0.086
REMARK UNBOUND:                -0.085
REMARK SMILES O=C([O-])CCC(=O)[O-]
REMARK SMILES IDX 4 1 2 2 1 3 3 4 5 5 6 6 7 7 8 8
REMARK H PARENT
REMARK Flexibility Score: inf
ROOT
ATOM      1  C   UNL     1     -16.518  -9.115 -20.802  1.00  0.00     0.059 C 
ENDROOT
BRANCH   1   2
ATOM      2  C   UNL     1     -17.694  -9.656 -21.557  1.00  0.00     0.042 C 
ATOM      3  O   UNL     1     -18.697 -10.098 -20.936  1.00  0.00    -0.550 OA
ATOM      4  O   UNL     1     -17.698  -9.637 -22.946  1.00  0.00    -0.550 OA
ENDBRANCH   1   2
BRANCH   1   5
ATOM      5  C   UNL     1     -16.851  -7.786 -20.116  1.00  0.00     0.059 C 
BRANCH   5   6
ATOM      6  C   UNL     1     -17.166  -7.977 -18.664  1.00  0.00     0.042 C 
ATOM      7  O   UNL     1     -18.087  -7.310 -18.122  1.00  0.00    -0.550 OA
ATOM      8  O   UNL     1     -16.470  -8.920 -17.919  1.00  0.00    -0.550 OA
ENDBRANCH   5   6
ENDBRANCH   1   5
TORSDOF 3
ENDMDL
MODEL 8
REMARK VINA RESULT:    -3.914     10.053     10.959
REMARK INTER + INTRA:          -4.686
REMARK INTER:                  -4.601
REMARK INTRA:                  -0.085
REMARK UNBOUND:                -0.085
REMARK SMILES O=C([O-])CCC(=O)[O-]
REMARK SMILES IDX 4 1 2 2 1 3 3 4 5 5 6 6 7 7 8 8
REMARK H PARENT
REMARK Flexibility Score: inf
ROOT
ATOM      1  C   UNL     1     -16.882  -7.745 -20.097  1.00  0.00     0.059 C 
ENDROOT
BRANCH   1   2
ATOM      2  C   UNL     1     -17.087  -7.968 -18.630  1.00  0.00     0.042 C 
ATOM      3  O   UNL     1     -18.011  -7.368 -18.020  1.00  0.00    -0.550 OA
ATOM      4  O   UNL     1     -16.282  -8.868 -17.944  1.00  0.00    -0.550 OA
ENDBRANCH   1   2
BRANCH   1   5
ATOM      5  C   UNL     1     -16.499  -9.042 -20.817  1.00  0.00     0.059 C 
BRANCH   5   6
ATOM      6  C   UNL     1     -17.660  -9.622 -21.566  1.00  0.00     0.042 C 
ATOM      7  O   UNL     1     -18.663 -10.058 -20.942  1.00  0.00    -0.550 OA
ATOM      8  O   UNL     1     -17.651  -9.643 -22.955  1.00  0.00    -0.550 OA
ENDBRANCH   5   6
ENDBRANCH   1   5
TORSDOF 3
ENDMDL
MODEL 9
REMARK VINA RESULT:    -3.880      1.190      3.819
REMARK INTER + INTRA:          -4.646
REMARK INTER:                  -4.538
REMARK INTRA:                  -0.108
REMARK UNBOUND:                -0.085
REMARK SMILES O=C([O-])CCC(=O)[O-]
REMARK SMILES IDX 4 1 2 2 1 3 3 4 5 5 6 6 7 7 8 8
REMARK H PARENT
REMARK Flexibility Score: inf
ROOT
ATOM      1  C   UNL     1      -6.244  -3.561 -19.325  1.00  0.00     0.059 C 
ENDROOT
BRANCH   1   2
ATOM      2  C   UNL     1      -6.924  -2.326 -19.834  1.00  0.00     0.042 C 
ATOM      3  O   UNL     1      -6.955  -1.283 -19.129  1.00  0.00    -0.550 OA
ATOM      4  O   UNL     1      -7.490  -2.317 -21.103  1.00  0.00    -0.550 OA
ENDBRANCH   1   2
BRANCH   1   5
ATOM      5  C   UNL     1      -7.215  -4.462 -18.553  1.00  0.00     0.059 C 
BRANCH   5   6
ATOM      6  C   UNL     1      -7.880  -5.457 -19.454  1.00  0.00     0.042 C 
ATOM      7  O   UNL     1      -7.186  -6.237 -20.160  1.00  0.00    -0.550 OA
ATOM      8  O   UNL     1      -9.265  -5.552 -19.484  1.00  0.00    -0.550 OA
ENDBRANCH   5   6
ENDBRANCH   1   5
TORSDOF 3
ENDMDL
