MODEL 1
REMARK VINA RESULT:    -6.320      0.000      0.000
REMARK INTER + INTRA:          -6.320
REMARK INTER:                  -6.320
REMARK INTRA:                   0.000
REMARK UNBOUND:                 0.000
REMARK SMILES C=C1CCC[C@]2(C)CC(=O)C(=C(C)C)C[C@@H]12
REMARK SMILES IDX 13 1 12 2 11 3 15 4 16 5 2 6 1 7 3 8 4 9 5 10 6 11 8 12 9 13
REMARK SMILES IDX 10 14 7 15 14 16
REMARK H PARENT
REMARK Flexibility Score: inf
ROOT
ATOM      1  C   UNL     1      18.375 -13.291  70.909  1.00  0.00     0.039 C 
ATOM      2  C   UNL     1      19.200 -12.896  69.706  1.00  0.00    -0.070 C 
ATOM      3  C   UNL     1      18.623 -12.440  68.554  1.00  0.00    -0.006 C 
ATOM      4  C   UNL     1      19.471 -11.989  67.373  1.00  0.00     0.047 C 
ATOM      5  C   UNL     1      18.789 -10.879  66.534  1.00  0.00     0.025 C 
ATOM      6  C   UNL     1      19.578 -10.413  65.310  1.00  0.00    -0.073 C 
ATOM      7  C   UNL     1      20.775 -10.914  64.948  1.00  0.00     0.008 C 
ATOM      8  C   UNL     1      18.962  -9.291  64.507  1.00  0.00     0.031 C 
ATOM      9  C   UNL     1      17.524  -9.641  64.116  1.00  0.00     0.005 C 
ATOM     10  C   UNL     1      16.694 -10.072  65.338  1.00  0.00     0.008 C 
ATOM     11  C   UNL     1      17.331 -11.257  66.124  1.00  0.00    -0.018 C 
ATOM     12  C   UNL     1      16.498 -11.485  67.409  1.00  0.00     0.088 C 
ATOM     13  C   UNL     1      17.147 -12.474  68.336  1.00  0.00     0.159 C 
ATOM     14  O   UNL     1      16.421 -13.331  68.907  1.00  0.00    -0.295 OA
ATOM     15  C   UNL     1      17.290 -12.542  65.251  1.00  0.00     0.012 C 
ATOM     16  C   UNL     1      20.703 -12.991  69.846  1.00  0.00     0.039 C 
ENDROOT
TORSDOF 0
ENDMDL
MODEL 2
REMARK VINA RESULT:    -6.314      2.164      5.237
REMARK INTER + INTRA:          -6.314
REMARK INTER:                  -6.314
REMARK INTRA:                   0.000
REMARK UNBOUND:                 0.000
REMARK SMILES C=C1CCC[C@]2(C)CC(=O)C(=C(C)C)C[C@@H]12
REMARK SMILES IDX 13 1 12 2 11 3 15 4 16 5 2 6 1 7 3 8 4 9 5 10 6 11 8 12 9 13
REMARK SMILES IDX 10 14 7 15 14 16
REMARK H PARENT
REMARK Flexibility Score: inf
ROOT
ATOM      1  C   UNL     1      15.382  -9.985  63.266  1.00  0.00     0.039 C 
ATOM      2  C   UNL     1      15.505 -10.873  64.483  1.00  0.00    -0.070 C 
ATOM      3  C   UNL     1      16.703 -11.074  65.109  1.00  0.00    -0.006 C 
ATOM      4  C   UNL     1      16.800 -11.923  66.371  1.00  0.00     0.047 C 
ATOM      5  C   UNL     1      17.940 -11.467  67.314  1.00  0.00     0.025 C 
ATOM      6  C   UNL     1      18.111 -12.307  68.579  1.00  0.00    -0.073 C 
ATOM      7  C   UNL     1      17.354 -13.379  68.881  1.00  0.00     0.008 C 
ATOM      8  C   UNL     1      19.178 -11.849  69.546  1.00  0.00     0.031 C 
ATOM      9  C   UNL     1      20.519 -11.689  68.824  1.00  0.00     0.005 C 
ATOM     10  C   UNL     1      20.385 -10.810  67.568  1.00  0.00     0.008 C 
ATOM     11  C   UNL     1      19.306 -11.328  66.571  1.00  0.00    -0.018 C 
ATOM     12  C   UNL     1      19.151 -10.279  65.442  1.00  0.00     0.088 C 
ATOM     13  C   UNL     1      17.992 -10.588  64.538  1.00  0.00     0.159 C 
ATOM     14  O   UNL     1      18.142 -10.441  63.295  1.00  0.00    -0.295 OA
ATOM     15  C   UNL     1      19.771 -12.678  65.957  1.00  0.00     0.012 C 
ATOM     16  C   UNL     1      14.232 -11.502  65.003  1.00  0.00     0.039 C 
ENDROOT
TORSDOF 0
ENDMDL
MODEL 3
REMARK VINA RESULT:    -6.264     15.793     17.834
REMARK INTER + INTRA:          -6.264
REMARK INTER:                  -6.264
REMARK INTRA:                   0.000
REMARK UNBOUND:                 0.000
REMARK SMILES C=C1CCC[C@]2(C)CC(=O)C(=C(C)C)C[C@@H]12
REMARK SMILES IDX 13 1 12 2 11 3 15 4 16 5 2 6 1 7 3 8 4 9 5 10 6 11 8 12 9 13
REMARK SMILES IDX 10 14 7 15 14 16
REMARK H PARENT
REMARK Flexibility Score: inf
ROOT
ATOM      1  C   UNL     1       4.883   2.696  66.866  1.00  0.00     0.039 C 
ATOM      2  C   UNL     1       5.229   1.445  66.091  1.00  0.00    -0.070 C 
ATOM      3  C   UNL     1       5.861   1.500  64.881  1.00  0.00    -0.006 C 
ATOM      4  C   UNL     1       6.258   0.229  64.141  1.00  0.00     0.047 C 
ATOM      5  C   UNL     1       7.526   0.413  63.271  1.00  0.00     0.025 C 
ATOM      6  C   UNL     1       7.949  -0.820  62.472  1.00  0.00    -0.073 C 
ATOM      7  C   UNL     1       7.288  -1.994  62.489  1.00  0.00     0.008 C 
ATOM      8  C   UNL     1       9.216  -0.687  61.661  1.00  0.00     0.031 C 
ATOM      9  C   UNL     1       9.139   0.541  60.749  1.00  0.00     0.005 C 
ATOM     10  C   UNL     1       8.758   1.807  61.535  1.00  0.00     0.008 C 
ATOM     11  C   UNL     1       7.427   1.655  62.331  1.00  0.00    -0.018 C 
ATOM     12  C   UNL     1       7.240   2.921  63.203  1.00  0.00     0.088 C 
ATOM     13  C   UNL     1       6.089   2.785  64.158  1.00  0.00     0.159 C 
ATOM     14  O   UNL     1       5.321   3.771  64.321  1.00  0.00    -0.295 OA
ATOM     15  C   UNL     1       6.237   1.535  61.337  1.00  0.00     0.012 C 
ATOM     16  C   UNL     1       4.877   0.123  66.734  1.00  0.00     0.039 C 
ENDROOT
TORSDOF 0
ENDMDL
MODEL 4
REMARK VINA RESULT:    -6.175      2.069      5.033
REMARK INTER + INTRA:          -6.175
REMARK INTER:                  -6.175
REMARK INTRA:                   0.000
REMARK UNBOUND:                 0.000
REMARK SMILES C=C1CCC[C@]2(C)CC(=O)C(=C(C)C)C[C@@H]12
REMARK SMILES IDX 13 1 12 2 11 3 15 4 16 5 2 6 1 7 3 8 4 9 5 10 6 11 8 12 9 13
REMARK SMILES IDX 10 14 7 15 14 16
REMARK H PARENT
REMARK Flexibility Score: inf
ROOT
ATOM      1  C   UNL     1      21.380  -9.893  63.273  1.00  0.00     0.039 C 
ATOM      2  C   UNL     1      21.735 -10.597  64.563  1.00  0.00    -0.070 C 
ATOM      3  C   UNL     1      20.798 -10.856  65.523  1.00  0.00    -0.006 C 
ATOM      4  C   UNL     1      21.159 -11.621  66.791  1.00  0.00     0.047 C 
ATOM      5  C   UNL     1      19.973 -12.443  67.353  1.00  0.00     0.025 C 
ATOM      6  C   UNL     1      20.265 -13.200  68.649  1.00  0.00    -0.073 C 
ATOM      7  C   UNL     1      21.450 -13.171  69.289  1.00  0.00     0.008 C 
ATOM      8  C   UNL     1      19.144 -14.057  69.188  1.00  0.00     0.031 C 
ATOM      9  C   UNL     1      17.862 -13.232  69.328  1.00  0.00     0.005 C 
ATOM     10  C   UNL     1      17.519 -12.493  68.023  1.00  0.00     0.008 C 
ATOM     11  C   UNL     1      18.678 -11.585  67.511  1.00  0.00    -0.018 C 
ATOM     12  C   UNL     1      18.278 -11.032  66.121  1.00  0.00     0.088 C 
ATOM     13  C   UNL     1      19.412 -10.308  65.453  1.00  0.00     0.159 C 
ATOM     14  O   UNL     1      19.166  -9.230  64.850  1.00  0.00    -0.295 OA
ATOM     15  C   UNL     1      18.885 -10.400  68.496  1.00  0.00     0.012 C 
ATOM     16  C   UNL     1      23.172 -11.037  64.729  1.00  0.00     0.039 C 
ENDROOT
TORSDOF 0
ENDMDL
MODEL 5
REMARK VINA RESULT:    -6.173      1.813      4.343
REMARK INTER + INTRA:          -6.173
REMARK INTER:                  -6.173
REMARK INTRA:                   0.000
REMARK UNBOUND:                 0.000
REMARK SMILES C=C1CCC[C@]2(C)CC(=O)C(=C(C)C)C[C@@H]12
REMARK SMILES IDX 13 1 12 2 11 3 15 4 16 5 2 6 1 7 3 8 4 9 5 10 6 11 8 12 9 13
REMARK SMILES IDX 10 14 7 15 14 16
REMARK H PARENT
REMARK Flexibility Score: inf
ROOT
ATOM      1  C   UNL     1      14.145 -11.856  65.139  1.00  0.00     0.039 C 
ATOM      2  C   UNL     1      15.370 -11.150  64.603  1.00  0.00    -0.070 C 
ATOM      3  C   UNL     1      16.542 -11.109  65.305  1.00  0.00    -0.006 C 
ATOM      4  C   UNL     1      17.785 -10.446  64.724  1.00  0.00     0.047 C 
ATOM      5  C   UNL     1      19.099 -11.095  65.225  1.00  0.00     0.025 C 
ATOM      6  C   UNL     1      20.382 -10.445  64.706  1.00  0.00    -0.073 C 
ATOM      7  C   UNL     1      20.408  -9.380  63.882  1.00  0.00     0.008 C 
ATOM      8  C   UNL     1      21.678 -11.094  65.132  1.00  0.00     0.031 C 
ATOM      9  C   UNL     1      21.728 -11.236  66.656  1.00  0.00     0.005 C 
ATOM     10  C   UNL     1      20.467 -11.928  67.202  1.00  0.00     0.008 C 
ATOM     11  C   UNL     1      19.147 -11.215  66.781  1.00  0.00    -0.018 C 
ATOM     12  C   UNL     1      17.957 -12.090  67.247  1.00  0.00     0.088 C 
ATOM     13  C   UNL     1      16.645 -11.591  66.713  1.00  0.00     0.159 C 
ATOM     14  O   UNL     1      15.647 -11.577  67.483  1.00  0.00    -0.295 OA
ATOM     15  C   UNL     1      19.063  -9.824  67.471  1.00  0.00     0.012 C 
ATOM     16  C   UNL     1      15.252 -10.521  63.233  1.00  0.00     0.039 C 
ENDROOT
TORSDOF 0
ENDMDL
MODEL 6
REMARK VINA RESULT:    -6.167      2.467      3.799
REMARK INTER + INTRA:          -6.167
REMARK INTER:                  -6.167
REMARK INTRA:                   0.000
REMARK UNBOUND:                 0.000
REMARK SMILES C=C1CCC[C@]2(C)CC(=O)C(=C(C)C)C[C@@H]12
REMARK SMILES IDX 13 1 12 2 11 3 15 4 16 5 2 6 1 7 3 8 4 9 5 10 6 11 8 12 9 13
REMARK SMILES IDX 10 14 7 15 14 16
REMARK H PARENT
REMARK Flexibility Score: inf
ROOT
ATOM      1  C   UNL     1      19.934 -10.539  67.565  1.00  0.00     0.039 C 
ATOM      2  C   UNL     1      19.377 -11.586  66.628  1.00  0.00    -0.070 C 
ATOM      3  C   UNL     1      18.231 -11.376  65.914  1.00  0.00    -0.006 C 
ATOM      4  C   UNL     1      17.716 -12.417  64.927  1.00  0.00     0.047 C 
ATOM      5  C   UNL     1      16.942 -11.788  63.742  1.00  0.00     0.025 C 
ATOM      6  C   UNL     1      16.366 -12.788  62.740  1.00  0.00    -0.073 C 
ATOM      7  C   UNL     1      16.492 -14.125  62.850  1.00  0.00     0.008 C 
ATOM      8  C   UNL     1      15.656 -12.200  61.543  1.00  0.00     0.031 C 
ATOM      9  C   UNL     1      14.577 -11.213  61.995  1.00  0.00     0.005 C 
ATOM     10  C   UNL     1      15.139 -10.166  62.972  1.00  0.00     0.008 C 
ATOM     11  C   UNL     1      15.829 -10.800  64.217  1.00  0.00    -0.018 C 
ATOM     12  C   UNL     1      16.493  -9.662  65.031  1.00  0.00     0.088 C 
ATOM     13  C   UNL     1      17.355 -10.190  66.142  1.00  0.00     0.159 C 
ATOM     14  O   UNL     1      17.310  -9.618  67.264  1.00  0.00    -0.295 OA
ATOM     15  C   UNL     1      14.764 -11.509  65.099  1.00  0.00     0.012 C 
ATOM     16  C   UNL     1      20.168 -12.866  66.485  1.00  0.00     0.039 C 
ENDROOT
TORSDOF 0
ENDMDL
MODEL 7
REMARK VINA RESULT:    -6.141      2.523      4.347
REMARK INTER + INTRA:          -6.141
REMARK INTER:                  -6.141
REMARK INTRA:                   0.000
REMARK UNBOUND:                 0.000
REMARK SMILES C=C1CCC[C@]2(C)CC(=O)C(=C(C)C)C[C@@H]12
REMARK SMILES IDX 13 1 12 2 11 3 15 4 16 5 2 6 1 7 3 8 4 9 5 10 6 11 8 12 9 13
REMARK SMILES IDX 10 14 7 15 14 16
REMARK H PARENT
REMARK Flexibility Score: inf
ROOT
ATOM      1  C   UNL     1      21.049 -10.528  66.128  1.00  0.00     0.039 C 
ATOM      2  C   UNL     1      20.086 -10.222  65.004  1.00  0.00    -0.070 C 
ATOM      3  C   UNL     1      18.826 -10.751  64.972  1.00  0.00    -0.006 C 
ATOM      4  C   UNL     1      17.846 -10.384  63.865  1.00  0.00     0.047 C 
ATOM      5  C   UNL     1      16.370 -10.424  64.333  1.00  0.00     0.025 C 
ATOM      6  C   UNL     1      15.337 -10.104  63.253  1.00  0.00    -0.073 C 
ATOM      7  C   UNL     1      15.648  -9.815  61.974  1.00  0.00     0.008 C 
ATOM      8  C   UNL     1      13.893 -10.078  63.696  1.00  0.00     0.031 C 
ATOM      9  C   UNL     1      13.532 -11.381  64.413  1.00  0.00     0.005 C 
ATOM     10  C   UNL     1      14.531 -11.706  65.537  1.00  0.00     0.008 C 
ATOM     11  C   UNL     1      16.008 -11.767  65.044  1.00  0.00    -0.018 C 
ATOM     12  C   UNL     1      16.923 -11.933  66.282  1.00  0.00     0.088 C 
ATOM     13  C   UNL     1      18.377 -11.801  65.933  1.00  0.00     0.159 C 
ATOM     14  O   UNL     1      19.199 -12.600  66.457  1.00  0.00    -0.295 OA
ATOM     15  C   UNL     1      16.192 -12.988  64.100  1.00  0.00     0.012 C 
ATOM     16  C   UNL     1      20.565  -9.271  63.931  1.00  0.00     0.039 C 
ENDROOT
TORSDOF 0
ENDMDL
MODEL 8
REMARK VINA RESULT:    -6.136      2.902      4.729
REMARK INTER + INTRA:          -6.136
REMARK INTER:                  -6.136
REMARK INTRA:                   0.000
REMARK UNBOUND:                 0.000
REMARK SMILES C=C1CCC[C@]2(C)CC(=O)C(=C(C)C)C[C@@H]12
REMARK SMILES IDX 13 1 12 2 11 3 15 4 16 5 2 6 1 7 3 8 4 9 5 10 6 11 8 12 9 13
REMARK SMILES IDX 10 14 7 15 14 16
REMARK H PARENT
REMARK Flexibility Score: inf
ROOT
ATOM      1  C   UNL     1      20.234 -11.414  65.789  1.00  0.00     0.039 C 
ATOM      2  C   UNL     1      19.610 -10.545  64.720  1.00  0.00    -0.070 C 
ATOM      3  C   UNL     1      18.302 -10.687  64.350  1.00  0.00    -0.006 C 
ATOM      4  C   UNL     1      17.672  -9.763  63.315  1.00  0.00     0.047 C 
ATOM      5  C   UNL     1      16.156  -9.547  63.549  1.00  0.00     0.025 C 
ATOM      6  C   UNL     1      15.461  -8.660  62.517  1.00  0.00    -0.073 C 
ATOM      7  C   UNL     1      16.083  -8.099  61.462  1.00  0.00     0.008 C 
ATOM      8  C   UNL     1      13.994  -8.384  62.753  1.00  0.00     0.031 C 
ATOM      9  C   UNL     1      13.227  -9.697  62.935  1.00  0.00     0.005 C 
ATOM     10  C   UNL     1      13.881 -10.592  64.002  1.00  0.00     0.008 C 
ATOM     11  C   UNL     1      15.382 -10.893  63.712  1.00  0.00    -0.018 C 
ATOM     12  C   UNL     1      15.964 -11.655  64.928  1.00  0.00     0.088 C 
ATOM     13  C   UNL     1      17.455 -11.815  64.834  1.00  0.00     0.159 C 
ATOM     14  O   UNL     1      17.963 -12.922  65.159  1.00  0.00    -0.295 OA
ATOM     15  C   UNL     1      15.498 -11.784  62.443  1.00  0.00     0.012 C 
ATOM     16  C   UNL     1      20.490  -9.482  64.103  1.00  0.00     0.039 C 
ENDROOT
TORSDOF 0
ENDMDL
MODEL 9
REMARK VINA RESULT:    -6.010      2.440      5.347
REMARK INTER + INTRA:          -6.010
REMARK INTER:                  -6.010
REMARK INTRA:                   0.000
REMARK UNBOUND:                 0.000
REMARK SMILES C=C1CCC[C@]2(C)CC(=O)C(=C(C)C)C[C@@H]12
REMARK SMILES IDX 13 1 12 2 11 3 15 4 16 5 2 6 1 7 3 8 4 9 5 10 6 11 8 12 9 13
REMARK SMILES IDX 10 14 7 15 14 16
REMARK H PARENT
REMARK Flexibility Score: inf
ROOT
ATOM      1  C   UNL     1      13.522  -9.472  62.559  1.00  0.00     0.039 C 
ATOM      2  C   UNL     1      14.836  -9.086  63.198  1.00  0.00    -0.070 C 
ATOM      3  C   UNL     1      15.529  -9.951  63.998  1.00  0.00    -0.006 C 
ATOM      4  C   UNL     1      16.882  -9.569  64.585  1.00  0.00     0.047 C 
ATOM      5  C   UNL     1      17.811 -10.790  64.792  1.00  0.00     0.025 C 
ATOM      6  C   UNL     1      19.170 -10.473  65.417  1.00  0.00    -0.073 C 
ATOM      7  C   UNL     1      19.562  -9.237  65.784  1.00  0.00     0.008 C 
ATOM      8  C   UNL     1      20.120 -11.637  65.576  1.00  0.00     0.031 C 
ATOM      9  C   UNL     1      19.438 -12.782  66.330  1.00  0.00     0.005 C 
ATOM     10  C   UNL     1      18.086 -13.153  65.696  1.00  0.00     0.008 C 
ATOM     11  C   UNL     1      17.112 -11.942  65.581  1.00  0.00    -0.018 C 
ATOM     12  C   UNL     1      15.866 -12.401  64.784  1.00  0.00     0.088 C 
ATOM     13  C   UNL     1      14.957 -11.254  64.445  1.00  0.00     0.159 C 
ATOM     14  O   UNL     1      13.713 -11.417  64.560  1.00  0.00    -0.295 OA
ATOM     15  C   UNL     1      16.675 -11.489  67.002  1.00  0.00     0.012 C 
ATOM     16  C   UNL     1      15.374  -7.709  62.880  1.00  0.00     0.039 C 
ENDROOT
TORSDOF 0
ENDMDL
