MODEL 1
REMARK VINA RESULT:    -5.364      0.000      0.000
REMARK INTER + INTRA:         -10.294
REMARK INTER:                  -8.186
REMARK INTRA:                  -2.108
REMARK UNBOUND:                -2.108
REMARK SMILES CC(=O)CCC=C(C)CCC=C(C)CCC=C(C)C
REMARK SMILES IDX 10 1 11 2 12 3 13 4 14 5 15 6 16 7 18 8 17 9 19 10 9 11 7 12
REMARK SMILES IDX 6 13 8 14 5 15 4 16 2 17 3 18 1 19
REMARK H PARENT
REMARK Flexibility Score: inf
ROOT
ATOM      1  C   UNL     1      24.154  28.062 -11.232  1.00  0.00     0.032 C 
ENDROOT
BRANCH   1   2
ATOM      2  C   UNL     1      22.665  28.274 -11.360  1.00  0.00    -0.028 C 
ATOM      3  C   UNL     1      22.076  29.471 -11.579  1.00  0.00    -0.077 C 
ATOM      4  C   UNL     1      22.880  30.733 -11.781  1.00  0.00     0.039 C 
BRANCH   3   5
ATOM      5  C   UNL     1      20.565  29.541 -11.659  1.00  0.00     0.034 C 
BRANCH   5   6
ATOM      6  C   UNL     1      19.956  28.205 -12.102  1.00  0.00     0.032 C 
BRANCH   6   7
ATOM      7  C   UNL     1      19.233  28.350 -13.422  1.00  0.00    -0.028 C 
ATOM      8  C   UNL     1      17.494  26.631 -12.874  1.00  0.00     0.039 C 
ATOM      9  C   UNL     1      18.148  27.635 -13.793  1.00  0.00    -0.080 C 
ATOM     10  C   UNL     1      17.581  27.857 -15.172  1.00  0.00     0.039 C 
ENDBRANCH   6   7
ENDBRANCH   5   6
ENDBRANCH   3   5
ENDBRANCH   1   2
BRANCH   1  11
ATOM     11  C   UNL     1      24.757  27.446 -12.504  1.00  0.00     0.034 C 
BRANCH  11  12
ATOM     12  C   UNL     1      25.171  28.506 -13.509  1.00  0.00    -0.077 C 
ATOM     13  C   UNL     1      24.646  28.580 -14.753  1.00  0.00    -0.028 C 
ATOM     14  C   UNL     1      26.228  29.507 -13.117  1.00  0.00     0.039 C 
BRANCH  13  15
ATOM     15  C   UNL     1      23.559  27.661 -15.263  1.00  0.00     0.035 C 
BRANCH  15  16
ATOM     16  C   UNL     1      22.180  28.333 -15.251  1.00  0.00     0.079 C 
BRANCH  16  17
ATOM     17  C   UNL     1      21.270  27.763 -16.309  1.00  0.00     0.130 C 
ATOM     18  O   UNL     1      20.763  26.664 -16.144  1.00  0.00    -0.300 OA
ATOM     19  C   UNL     1      20.998  28.513 -17.579  1.00  0.00     0.087 C 
ENDBRANCH  16  17
ENDBRANCH  15  16
ENDBRANCH  13  15
ENDBRANCH  11  12
ENDBRANCH   1  11
TORSDOF 9
ENDMDL
MODEL 2
REMARK VINA RESULT:    -5.237      9.808     11.704
REMARK INTER + INTRA:         -10.100
REMARK INTER:                  -8.532
REMARK INTRA:                  -1.568
REMARK UNBOUND:                -2.108
REMARK SMILES CC(=O)CCC=C(C)CCC=C(C)CCC=C(C)C
REMARK SMILES IDX 10 1 11 2 12 3 13 4 14 5 15 6 16 7 18 8 17 9 19 10 9 11 7 12
REMARK SMILES IDX 6 13 8 14 5 15 4 16 2 17 3 18 1 19
REMARK H PARENT
REMARK Flexibility Score: inf
ROOT
ATOM      1  C   UNL     1      33.834  29.636 -12.759  1.00  0.00     0.032 C 
ENDROOT
BRANCH   1   2
ATOM      2  C   UNL     1      33.749  29.644 -11.252  1.00  0.00    -0.028 C 
ATOM      3  C   UNL     1      34.452  30.473 -10.448  1.00  0.00    -0.077 C 
ATOM      4  C   UNL     1      35.368  31.538 -11.001  1.00  0.00     0.039 C 
BRANCH   3   5
ATOM      5  C   UNL     1      34.288  30.353  -8.947  1.00  0.00     0.034 C 
BRANCH   5   6
ATOM      6  C   UNL     1      32.810  30.318  -8.537  1.00  0.00     0.032 C 
BRANCH   6   7
ATOM      7  C   UNL     1      32.280  31.713  -8.297  1.00  0.00    -0.028 C 
ATOM      8  C   UNL     1      30.744  31.673 -10.277  1.00  0.00     0.039 C 
ATOM      9  C   UNL     1      31.377  32.343  -9.080  1.00  0.00    -0.080 C 
ATOM     10  C   UNL     1      30.998  33.761  -8.738  1.00  0.00     0.039 C 
ENDBRANCH   6   7
ENDBRANCH   5   6
ENDBRANCH   3   5
ENDBRANCH   1   2
BRANCH   1  11
ATOM     11  C   UNL     1      32.811  30.589 -13.396  1.00  0.00     0.034 C 
BRANCH  11  12
ATOM     12  C   UNL     1      33.445  31.485 -14.445  1.00  0.00    -0.077 C 
ATOM     13  C   UNL     1      32.720  32.269 -15.274  1.00  0.00    -0.028 C 
ATOM     14  C   UNL     1      34.946  31.487 -14.589  1.00  0.00     0.039 C 
BRANCH  13  15
ATOM     15  C   UNL     1      31.213  32.385 -15.217  1.00  0.00     0.035 C 
BRANCH  15  16
ATOM     16  C   UNL     1      30.517  31.306 -16.057  1.00  0.00     0.079 C 
BRANCH  16  17
ATOM     17  C   UNL     1      30.397  31.713 -17.503  1.00  0.00     0.130 C 
ATOM     18  O   UNL     1      31.210  31.304 -18.317  1.00  0.00    -0.300 OA
ATOM     19  C   UNL     1      29.307  32.638 -17.956  1.00  0.00     0.087 C 
ENDBRANCH  16  17
ENDBRANCH  15  16
ENDBRANCH  13  15
ENDBRANCH  11  12
ENDBRANCH   1  11
TORSDOF 9
ENDMDL
MODEL 3
REMARK VINA RESULT:    -5.228      2.724      6.928
REMARK INTER + INTRA:         -10.086
REMARK INTER:                  -8.955
REMARK INTRA:                  -1.131
REMARK UNBOUND:                -2.108
REMARK SMILES CC(=O)CCC=C(C)CCC=C(C)CCC=C(C)C
REMARK SMILES IDX 10 1 11 2 12 3 13 4 14 5 15 6 16 7 18 8 17 9 19 10 9 11 7 12
REMARK SMILES IDX 6 13 8 14 5 15 4 16 2 17 3 18 1 19
REMARK H PARENT
REMARK Flexibility Score: inf
ROOT
ATOM      1  C   UNL     1      20.027  27.411 -16.090  1.00  0.00     0.032 C 
ENDROOT
BRANCH   1   2
ATOM      2  C   UNL     1      20.590  28.015 -17.353  1.00  0.00    -0.028 C 
ATOM      3  C   UNL     1      21.748  28.710 -17.423  1.00  0.00    -0.077 C 
ATOM      4  C   UNL     1      22.641  28.898 -16.220  1.00  0.00     0.039 C 
BRANCH   3   5
ATOM      5  C   UNL     1      22.180  29.285 -18.756  1.00  0.00     0.034 C 
BRANCH   5   6
ATOM      6  C   UNL     1      21.261  28.830 -19.896  1.00  0.00     0.032 C 
BRANCH   6   7
ATOM      7  C   UNL     1      21.939  27.786 -20.755  1.00  0.00    -0.028 C 
ATOM      8  C   UNL     1      19.809  26.591 -21.315  1.00  0.00     0.039 C 
ATOM      9  C   UNL     1      21.308  26.764 -21.374  1.00  0.00    -0.080 C 
ATOM     10  C   UNL     1      22.138  25.770 -22.145  1.00  0.00     0.039 C 
ENDBRANCH   6   7
ENDBRANCH   5   6
ENDBRANCH   3   5
ENDBRANCH   1   2
BRANCH   1  11
ATOM     11  C   UNL     1      19.045  28.361 -15.388  1.00  0.00     0.034 C 
BRANCH  11  12
ATOM     12  C   UNL     1      18.601  27.825 -14.038  1.00  0.00    -0.077 C 
ATOM     13  C   UNL     1      19.289  28.054 -12.897  1.00  0.00    -0.028 C 
ATOM     14  C   UNL     1      17.353  26.981 -13.965  1.00  0.00     0.039 C 
BRANCH  13  15
ATOM     15  C   UNL     1      20.535  28.906 -12.823  1.00  0.00     0.035 C 
BRANCH  15  16
ATOM     16  C   UNL     1      20.792  29.435 -11.406  1.00  0.00     0.079 C 
BRANCH  16  17
ATOM     17  C   UNL     1      21.043  28.315 -10.428  1.00  0.00     0.130 C 
ATOM     18  O   UNL     1      21.989  27.562 -10.599  1.00  0.00    -0.300 OA
ATOM     19  C   UNL     1      20.131  28.093  -9.259  1.00  0.00     0.087 C 
ENDBRANCH  16  17
ENDBRANCH  15  16
ENDBRANCH  13  15
ENDBRANCH  11  12
ENDBRANCH   1  11
TORSDOF 9
ENDMDL
MODEL 4
REMARK VINA RESULT:    -5.221      8.519     11.081
REMARK INTER + INTRA:         -10.075
REMARK INTER:                  -7.669
REMARK INTRA:                  -2.406
REMARK UNBOUND:                -2.108
REMARK SMILES CC(=O)CCC=C(C)CCC=C(C)CCC=C(C)C
REMARK SMILES IDX 10 1 11 2 12 3 13 4 14 5 15 6 16 7 18 8 17 9 19 10 9 11 7 12
REMARK SMILES IDX 6 13 8 14 5 15 4 16 2 17 3 18 1 19
REMARK H PARENT
REMARK Flexibility Score: inf
ROOT
ATOM      1  C   UNL     1      29.682  31.186 -11.120  1.00  0.00     0.032 C 
ENDROOT
BRANCH   1   2
ATOM      2  C   UNL     1      30.975  31.395 -10.371  1.00  0.00    -0.028 C 
ATOM      3  C   UNL     1      31.583  30.456  -9.611  1.00  0.00    -0.077 C 
ATOM      4  C   UNL     1      31.039  29.053  -9.486  1.00  0.00     0.039 C 
BRANCH   3   5
ATOM      5  C   UNL     1      32.867  30.813  -8.892  1.00  0.00     0.034 C 
BRANCH   5   6
ATOM      6  C   UNL     1      34.084  30.129  -9.526  1.00  0.00     0.032 C 
BRANCH   6   7
ATOM      7  C   UNL     1      34.445  30.778 -10.843  1.00  0.00    -0.028 C 
ATOM      8  C   UNL     1      33.629  28.857 -12.229  1.00  0.00     0.039 C 
ATOM      9  C   UNL     1      34.273  30.212 -12.058  1.00  0.00    -0.080 C 
ATOM     10  C   UNL     1      34.744  30.968 -13.274  1.00  0.00     0.039 C 
ENDBRANCH   6   7
ENDBRANCH   5   6
ENDBRANCH   3   5
ENDBRANCH   1   2
BRANCH   1  11
ATOM     11  C   UNL     1      29.843  31.445 -12.626  1.00  0.00     0.034 C 
BRANCH  11  12
ATOM     12  C   UNL     1      30.224  30.185 -13.383  1.00  0.00    -0.077 C 
ATOM     13  C   UNL     1      31.029  30.198 -14.469  1.00  0.00    -0.028 C 
ATOM     14  C   UNL     1      29.667  28.862 -12.921  1.00  0.00     0.039 C 
BRANCH  13  15
ATOM     15  C   UNL     1      31.680  31.448 -15.019  1.00  0.00     0.035 C 
BRANCH  15  16
ATOM     16  C   UNL     1      31.307  31.697 -16.486  1.00  0.00     0.079 C 
BRANCH  16  17
ATOM     17  C   UNL     1      29.882  32.168 -16.629  1.00  0.00     0.130 C 
ATOM     18  O   UNL     1      29.448  33.024 -15.873  1.00  0.00    -0.300 OA
ATOM     19  C   UNL     1      28.977  31.582 -17.671  1.00  0.00     0.087 C 
ENDBRANCH  16  17
ENDBRANCH  15  16
ENDBRANCH  13  15
ENDBRANCH  11  12
ENDBRANCH   1  11
TORSDOF 9
ENDMDL
MODEL 5
REMARK VINA RESULT:    -5.213      9.202     11.271
REMARK INTER + INTRA:         -10.063
REMARK INTER:                  -7.957
REMARK INTRA:                  -2.106
REMARK UNBOUND:                -2.108
REMARK SMILES CC(=O)CCC=C(C)CCC=C(C)CCC=C(C)C
REMARK SMILES IDX 10 1 11 2 12 3 13 4 14 5 15 6 16 7 18 8 17 9 19 10 9 11 7 12
REMARK SMILES IDX 6 13 8 14 5 15 4 16 2 17 3 18 1 19
REMARK H PARENT
REMARK Flexibility Score: inf
ROOT
ATOM      1  C   UNL     1      33.914  29.634 -12.604  1.00  0.00     0.032 C 
ENDROOT
BRANCH   1   2
ATOM      2  C   UNL     1      32.918  29.521 -11.475  1.00  0.00    -0.028 C 
ATOM      3  C   UNL     1      31.828  28.721 -11.490  1.00  0.00    -0.077 C 
ATOM      4  C   UNL     1      31.530  27.796 -12.645  1.00  0.00     0.039 C 
BRANCH   3   5
ATOM      5  C   UNL     1      30.898  28.727 -10.295  1.00  0.00     0.034 C 
BRANCH   5   6
ATOM      6  C   UNL     1      31.446  29.590  -9.151  1.00  0.00     0.032 C 
BRANCH   6   7
ATOM      7  C   UNL     1      30.737  30.924  -9.090  1.00  0.00    -0.028 C 
ATOM      8  C   UNL     1      32.855  32.255  -8.934  1.00  0.00     0.039 C 
ATOM      9  C   UNL     1      31.351  32.122  -8.966  1.00  0.00    -0.080 C 
ATOM     10  C   UNL     1      30.495  33.357  -8.858  1.00  0.00     0.039 C 
ENDBRANCH   6   7
ENDBRANCH   5   6
ENDBRANCH   3   5
ENDBRANCH   1   2
BRANCH   1  11
ATOM     11  C   UNL     1      34.334  31.091 -12.854  1.00  0.00     0.034 C 
BRANCH  11  12
ATOM     12  C   UNL     1      34.669  31.344 -14.313  1.00  0.00    -0.077 C 
ATOM     13  C   UNL     1      33.753  31.772 -15.211  1.00  0.00    -0.028 C 
ATOM     14  C   UNL     1      36.076  31.088 -14.791  1.00  0.00     0.039 C 
BRANCH  13  15
ATOM     15  C   UNL     1      32.319  32.097 -14.860  1.00  0.00     0.035 C 
BRANCH  15  16
ATOM     16  C   UNL     1      31.386  30.897 -15.071  1.00  0.00     0.079 C 
BRANCH  16  17
ATOM     17  C   UNL     1      30.079  31.069 -14.338  1.00  0.00     0.130 C 
ATOM     18  O   UNL     1      29.026  30.873 -14.925  1.00  0.00    -0.300 OA
ATOM     19  C   UNL     1      30.051  31.505 -12.904  1.00  0.00     0.087 C 
ENDBRANCH  16  17
ENDBRANCH  15  16
ENDBRANCH  13  15
ENDBRANCH  11  12
ENDBRANCH   1  11
TORSDOF 9
ENDMDL
MODEL 6
REMARK VINA RESULT:    -5.213      8.925     11.839
REMARK INTER + INTRA:         -10.063
REMARK INTER:                  -7.684
REMARK INTRA:                  -2.379
REMARK UNBOUND:                -2.108
REMARK SMILES CC(=O)CCC=C(C)CCC=C(C)CCC=C(C)C
REMARK SMILES IDX 10 1 11 2 12 3 13 4 14 5 15 6 16 7 18 8 17 9 19 10 9 11 7 12
REMARK SMILES IDX 6 13 8 14 5 15 4 16 2 17 3 18 1 19
REMARK H PARENT
REMARK Flexibility Score: inf
ROOT
ATOM      1  C   UNL     1      29.830  30.163 -12.912  1.00  0.00     0.032 C 
ENDROOT
BRANCH   1   2
ATOM      2  C   UNL     1      30.061  31.346 -12.003  1.00  0.00    -0.028 C 
ATOM      3  C   UNL     1      29.430  31.543 -10.823  1.00  0.00    -0.077 C 
ATOM      4  C   UNL     1      28.454  30.538 -10.261  1.00  0.00     0.039 C 
BRANCH   3   5
ATOM      5  C   UNL     1      29.741  32.792 -10.026  1.00  0.00     0.034 C 
BRANCH   5   6
ATOM      6  C   UNL     1      30.383  32.459  -8.673  1.00  0.00     0.032 C 
BRANCH   6   7
ATOM      7  C   UNL     1      31.818  32.017  -8.849  1.00  0.00    -0.028 C 
ATOM      8  C   UNL     1      31.365  29.643  -8.185  1.00  0.00     0.039 C 
ATOM      9  C   UNL     1      32.278  30.769  -8.609  1.00  0.00    -0.080 C 
ATOM     10  C   UNL     1      33.753  30.505  -8.774  1.00  0.00     0.039 C 
ENDBRANCH   6   7
ENDBRANCH   5   6
ENDBRANCH   3   5
ENDBRANCH   1   2
BRANCH   1  11
ATOM     11  C   UNL     1      31.151  29.551 -13.403  1.00  0.00     0.034 C 
BRANCH  11  12
ATOM     12  C   UNL     1      31.875  28.798 -12.300  1.00  0.00    -0.077 C 
ATOM     13  C   UNL     1      33.211  28.881 -12.112  1.00  0.00    -0.028 C 
ATOM     14  C   UNL     1      31.077  27.901 -11.388  1.00  0.00     0.039 C 
BRANCH  13  15
ATOM     15  C   UNL     1      34.123  29.765 -12.932  1.00  0.00     0.035 C 
BRANCH  15  16
ATOM     16  C   UNL     1      34.410  31.103 -12.239  1.00  0.00     0.079 C 
BRANCH  16  17
ATOM     17  C   UNL     1      35.686  31.730 -12.739  1.00  0.00     0.130 C 
ATOM     18  O   UNL     1      36.467  32.230 -11.943  1.00  0.00    -0.300 OA
ATOM     19  C   UNL     1      36.002  31.774 -14.204  1.00  0.00     0.087 C 
ENDBRANCH  16  17
ENDBRANCH  15  16
ENDBRANCH  13  15
ENDBRANCH  11  12
ENDBRANCH   1  11
TORSDOF 9
ENDMDL
MODEL 7
REMARK VINA RESULT:    -5.212      4.066      7.022
REMARK INTER + INTRA:         -10.061
REMARK INTER:                  -8.552
REMARK INTRA:                  -1.509
REMARK UNBOUND:                -2.108
REMARK SMILES CC(=O)CCC=C(C)CCC=C(C)CCC=C(C)C
REMARK SMILES IDX 10 1 11 2 12 3 13 4 14 5 15 6 16 7 18 8 17 9 19 10 9 11 7 12
REMARK SMILES IDX 6 13 8 14 5 15 4 16 2 17 3 18 1 19
REMARK H PARENT
REMARK Flexibility Score: inf
ROOT
ATOM      1  C   UNL     1      21.742  29.244 -19.634  1.00  0.00     0.032 C 
ENDROOT
BRANCH   1   2
ATOM      2  C   UNL     1      22.090  29.269 -18.165  1.00  0.00    -0.028 C 
ATOM      3  C   UNL     1      23.237  28.783 -17.640  1.00  0.00    -0.077 C 
ATOM      4  C   UNL     1      24.332  28.207 -18.505  1.00  0.00     0.039 C 
BRANCH   3   5
ATOM      5  C   UNL     1      23.443  28.851 -16.141  1.00  0.00     0.034 C 
BRANCH   5   6
ATOM      6  C   UNL     1      22.776  27.672 -15.420  1.00  0.00     0.032 C 
BRANCH   6   7
ATOM      7  C   UNL     1      21.539  28.121 -14.678  1.00  0.00    -0.028 C 
ATOM      8  C   UNL     1      19.955  26.947 -16.225  1.00  0.00     0.039 C 
ATOM      9  C   UNL     1      20.270  27.829 -15.040  1.00  0.00    -0.080 C 
ATOM     10  C   UNL     1      19.141  28.406 -14.225  1.00  0.00     0.039 C 
ENDBRANCH   6   7
ENDBRANCH   5   6
ENDBRANCH   3   5
ENDBRANCH   1   2
BRANCH   1  11
ATOM     11  C   UNL     1      20.893  28.017 -20.000  1.00  0.00     0.034 C 
BRANCH  11  12
ATOM     12  C   UNL     1      21.161  27.542 -21.417  1.00  0.00    -0.077 C 
ATOM     13  C   UNL     1      20.484  28.015 -22.489  1.00  0.00    -0.028 C 
ATOM     14  C   UNL     1      22.210  26.482 -21.644  1.00  0.00     0.039 C 
BRANCH  13  15
ATOM     15  C   UNL     1      19.432  29.097 -22.408  1.00  0.00     0.035 C 
BRANCH  15  16
ATOM     16  C   UNL     1      20.002  30.484 -22.735  1.00  0.00     0.079 C 
BRANCH  16  17
ATOM     17  C   UNL     1      19.015  31.581 -22.426  1.00  0.00     0.130 C 
ATOM     18  O   UNL     1      19.194  32.701 -22.880  1.00  0.00    -0.300 OA
ATOM     19  C   UNL     1      17.829  31.327 -21.545  1.00  0.00     0.087 C 
ENDBRANCH  16  17
ENDBRANCH  15  16
ENDBRANCH  13  15
ENDBRANCH  11  12
ENDBRANCH   1  11
TORSDOF 9
ENDMDL
MODEL 8
REMARK VINA RESULT:    -5.185      1.721      2.439
REMARK INTER + INTRA:         -10.021
REMARK INTER:                  -7.672
REMARK INTRA:                  -2.349
REMARK UNBOUND:                -2.108
REMARK SMILES CC(=O)CCC=C(C)CCC=C(C)CCC=C(C)C
REMARK SMILES IDX 10 1 11 2 12 3 13 4 14 5 15 6 16 7 18 8 17 9 19 10 9 11 7 12
REMARK SMILES IDX 6 13 8 14 5 15 4 16 2 17 3 18 1 19
REMARK H PARENT
REMARK Flexibility Score: inf
ROOT
ATOM      1  C   UNL     1      24.684  27.737 -11.384  1.00  0.00     0.032 C 
ENDROOT
BRANCH   1   2
ATOM      2  C   UNL     1      23.370  27.343 -10.755  1.00  0.00    -0.028 C 
ATOM      3  C   UNL     1      22.763  28.022  -9.756  1.00  0.00    -0.077 C 
ATOM      4  C   UNL     1      23.329  29.307  -9.202  1.00  0.00     0.039 C 
BRANCH   3   5
ATOM      5  C   UNL     1      21.456  27.495  -9.200  1.00  0.00     0.034 C 
BRANCH   5   6
ATOM      6  C   UNL     1      20.261  28.344  -9.653  1.00  0.00     0.032 C 
BRANCH   6   7
ATOM      7  C   UNL     1      19.910  28.059 -11.095  1.00  0.00    -0.028 C 
ATOM      8  C   UNL     1      20.834  30.227 -11.946  1.00  0.00     0.039 C 
ATOM      9  C   UNL     1      20.134  28.901 -12.128  1.00  0.00    -0.080 C 
ATOM     10  C   UNL     1      19.667  28.492 -13.501  1.00  0.00     0.039 C 
ENDBRANCH   6   7
ENDBRANCH   5   6
ENDBRANCH   3   5
ENDBRANCH   1   2
BRANCH   1  11
ATOM     11  C   UNL     1      24.602  27.759 -12.918  1.00  0.00     0.034 C 
BRANCH  11  12
ATOM     12  C   UNL     1      24.067  29.081 -13.440  1.00  0.00    -0.077 C 
ATOM     13  C   UNL     1      23.273  29.171 -14.531  1.00  0.00    -0.028 C 
ATOM     14  C   UNL     1      24.454  30.354 -12.730  1.00  0.00     0.039 C 
BRANCH  13  15
ATOM     15  C   UNL     1      22.786  27.974 -15.317  1.00  0.00     0.035 C 
BRANCH  15  16
ATOM     16  C   UNL     1      23.122  28.086 -16.810  1.00  0.00     0.079 C 
BRANCH  16  17
ATOM     17  C   UNL     1      22.035  28.795 -17.576  1.00  0.00     0.130 C 
ATOM     18  O   UNL     1      22.330  29.667 -18.380  1.00  0.00    -0.300 OA
ATOM     19  C   UNL     1      20.590  28.467 -17.348  1.00  0.00     0.087 C 
ENDBRANCH  16  17
ENDBRANCH  15  16
ENDBRANCH  13  15
ENDBRANCH  11  12
ENDBRANCH   1  11
TORSDOF 9
ENDMDL
MODEL 9
REMARK VINA RESULT:    -5.168      7.348     12.008
REMARK INTER + INTRA:          -9.994
REMARK INTER:                  -7.876
REMARK INTRA:                  -2.118
REMARK UNBOUND:                -2.108
REMARK SMILES CC(=O)CCC=C(C)CCC=C(C)CCC=C(C)C
REMARK SMILES IDX 10 1 11 2 12 3 13 4 14 5 15 6 16 7 18 8 17 9 19 10 9 11 7 12
REMARK SMILES IDX 6 13 8 14 5 15 4 16 2 17 3 18 1 19
REMARK H PARENT
REMARK Flexibility Score: inf
ROOT
ATOM      1  C   UNL     1      29.992  29.628 -10.753  1.00  0.00     0.032 C 
ENDROOT
BRANCH   1   2
ATOM      2  C   UNL     1      31.481  29.681 -10.997  1.00  0.00    -0.028 C 
ATOM      3  C   UNL     1      32.154  28.846 -11.820  1.00  0.00    -0.077 C 
ATOM      4  C   UNL     1      31.450  27.792 -12.641  1.00  0.00     0.039 C 
BRANCH   3   5
ATOM      5  C   UNL     1      33.655  28.997 -11.950  1.00  0.00     0.034 C 
BRANCH   5   6
ATOM      6  C   UNL     1      34.034  29.988 -13.058  1.00  0.00     0.032 C 
BRANCH   6   7
ATOM      7  C   UNL     1      34.916  31.092 -12.519  1.00  0.00    -0.028 C 
ATOM      8  C   UNL     1      36.180  31.385 -14.663  1.00  0.00     0.039 C 
ATOM      9  C   UNL     1      35.897  31.708 -13.215  1.00  0.00    -0.080 C 
ATOM     10  C   UNL     1      36.728  32.750 -12.512  1.00  0.00     0.039 C 
ENDBRANCH   6   7
ENDBRANCH   5   6
ENDBRANCH   3   5
ENDBRANCH   1   2
BRANCH   1  11
ATOM     11  C   UNL     1      29.250  30.755 -11.488  1.00  0.00     0.034 C 
BRANCH  11  12
ATOM     12  C   UNL     1      28.658  30.282 -12.804  1.00  0.00    -0.077 C 
ATOM     13  C   UNL     1      29.225  30.553 -14.001  1.00  0.00    -0.028 C 
ATOM     14  C   UNL     1      27.371  29.497 -12.782  1.00  0.00     0.039 C 
BRANCH  13  15
ATOM     15  C   UNL     1      30.528  31.302 -14.164  1.00  0.00     0.035 C 
BRANCH  15  16
ATOM     16  C   UNL     1      31.375  30.746 -15.317  1.00  0.00     0.079 C 
BRANCH  16  17
ATOM     17  C   UNL     1      32.427  31.728 -15.763  1.00  0.00     0.130 C 
ATOM     18  O   UNL     1      32.694  32.691 -15.059  1.00  0.00    -0.300 OA
ATOM     19  C   UNL     1      33.135  31.558 -17.073  1.00  0.00     0.087 C 
ENDBRANCH  16  17
ENDBRANCH  15  16
ENDBRANCH  13  15
ENDBRANCH  11  12
ENDBRANCH   1  11
TORSDOF 9
ENDMDL
