MODEL 1
REMARK VINA RESULT:    -4.296      0.000      0.000
REMARK INTER + INTRA:          -5.361
REMARK INTER:                  -5.049
REMARK INTRA:                  -0.312
REMARK UNBOUND:                -0.312
REMARK SMILES O=c1cc(-c2ccc(O)c(O)c2)oc2cc(O)cc(O)c12
REMARK SMILES IDX 4 1 3 2 2 3 1 4 21 5 19 6 18 7 16 8 15 9 14 10 13 11 5 12
REMARK SMILES IDX 6 13 7 14 8 15 12 16 10 17 9 18 11 20 20 22 17 24
REMARK H PARENT 9 19 11 21 20 23 17 25
REMARK Flexibility Score: inf
ROOT
ATOM      1  C   UNL     1      -1.583  41.279  24.385  1.00  0.00     0.138 A 
ATOM      2  C   UNL     1      -2.207  40.553  25.408  1.00  0.00     0.100 A 
ATOM      3  C   UNL     1      -2.509  39.205  25.213  1.00  0.00     0.197 A 
ATOM      4  O   UNL     1      -3.125  38.595  26.125  1.00  0.00    -0.289 OA
ATOM      5  C   UNL     1      -2.153  38.573  23.997  1.00  0.00     0.107 A 
ATOM      6  C   UNL     1      -2.374  37.195  23.702  1.00  0.00     0.134 A 
ATOM      7  C   UNL     1      -2.085  36.708  22.420  1.00  0.00     0.093 A 
ATOM      8  C   UNL     1      -1.529  37.535  21.445  1.00  0.00     0.123 A 
ATOM      9  C   UNL     1      -1.260  38.872  21.739  1.00  0.00     0.094 A 
ATOM     10  C   UNL     1      -1.568  39.396  22.996  1.00  0.00     0.146 A 
ATOM     11  O   UNL     1      -1.309  40.678  23.232  1.00  0.00    -0.456 OA
ENDROOT
BRANCH   1  12
ATOM     12  C   UNL     1      -1.240  42.716  24.541  1.00  0.00     0.021 A 
ATOM     13  C   UNL     1      -1.077  43.304  25.809  1.00  0.00     0.016 A 
ATOM     14  C   UNL     1      -0.743  44.656  25.926  1.00  0.00     0.051 A 
ATOM     15  C   UNL     1      -0.559  45.441  24.784  1.00  0.00     0.157 A 
ATOM     16  C   UNL     1      -1.039  43.507  23.395  1.00  0.00     0.062 A 
ATOM     17  C   UNL     1      -0.705  44.864  23.512  1.00  0.00     0.158 A 
BRANCH  15  18
ATOM     18  O   UNL     1      -0.227  46.787  24.933  1.00  0.00    -0.504 OA
ATOM     19  H   UNL     1       0.510  47.095  25.555  1.00  0.00     0.293 HD
ENDBRANCH  15  18
BRANCH  17  20
ATOM     20  O   UNL     1      -0.517  45.641  22.369  1.00  0.00    -0.504 OA
ATOM     21  H   UNL     1      -1.183  46.355  22.098  1.00  0.00     0.293 HD
ENDBRANCH  17  20
ENDBRANCH   1  12
BRANCH   6  22
ATOM     22  O   UNL     1      -2.845  36.263  24.631  1.00  0.00    -0.507 OA
ATOM     23  H   UNL     1      -2.272  35.785  25.309  1.00  0.00     0.293 HD
ENDBRANCH   6  22
BRANCH   8  24
ATOM     24  O   UNL     1      -1.242  37.013  20.185  1.00  0.00    -0.508 OA
ATOM     25  H   UNL     1      -0.611  36.229  20.067  1.00  0.00     0.293 HD
ENDBRANCH   8  24
TORSDOF 5
ENDMDL
MODEL 2
REMARK VINA RESULT:    -3.390      1.706      2.687
REMARK INTER + INTRA:          -4.297
REMARK INTER:                  -4.031
REMARK INTRA:                  -0.266
REMARK UNBOUND:                -0.312
REMARK SMILES O=c1cc(-c2ccc(O)c(O)c2)oc2cc(O)cc(O)c12
REMARK SMILES IDX 4 1 3 2 2 3 1 4 21 5 19 6 18 7 16 8 15 9 14 10 13 11 5 12
REMARK SMILES IDX 6 13 7 14 8 15 12 16 10 17 9 18 11 20 20 22 17 24
REMARK H PARENT 9 19 11 21 20 23 17 25
REMARK Flexibility Score: inf
ROOT
ATOM      1  C   UNL     1      -2.007  41.223  24.179  1.00  0.00     0.138 A 
ATOM      2  C   UNL     1      -2.391  40.893  22.873  1.00  0.00     0.100 A 
ATOM      3  C   UNL     1      -2.318  39.567  22.445  1.00  0.00     0.197 A 
ATOM      4  O   UNL     1      -2.610  39.311  21.249  1.00  0.00    -0.289 OA
ATOM      5  C   UNL     1      -1.887  38.561  23.344  1.00  0.00     0.107 A 
ATOM      6  C   UNL     1      -1.811  37.172  23.032  1.00  0.00     0.134 A 
ATOM      7  C   UNL     1      -1.259  36.283  23.964  1.00  0.00     0.093 A 
ATOM      8  C   UNL     1      -0.837  36.726  25.217  1.00  0.00     0.123 A 
ATOM      9  C   UNL     1      -0.955  38.075  25.553  1.00  0.00     0.094 A 
ATOM     10  C   UNL     1      -1.470  38.991  24.633  1.00  0.00     0.146 A 
ATOM     11  O   UNL     1      -1.554  40.269  24.986  1.00  0.00    -0.456 OA
ENDROOT
BRANCH   1  12
ATOM     12  C   UNL     1      -2.066  42.618  24.685  1.00  0.00     0.021 A 
ATOM     13  C   UNL     1      -3.059  43.035  25.591  1.00  0.00     0.016 A 
ATOM     14  C   UNL     1      -3.085  44.351  26.060  1.00  0.00     0.051 A 
ATOM     15  C   UNL     1      -2.119  45.270  25.641  1.00  0.00     0.157 A 
ATOM     16  C   UNL     1      -1.088  43.544  24.279  1.00  0.00     0.062 A 
ATOM     17  C   UNL     1      -1.113  44.865  24.748  1.00  0.00     0.158 A 
BRANCH  15  18
ATOM     18  O   UNL     1      -2.171  46.577  26.125  1.00  0.00    -0.504 OA
ATOM     19  H   UNL     1      -2.815  46.856  26.854  1.00  0.00     0.293 HD
ENDBRANCH  15  18
BRANCH  17  20
ATOM     20  O   UNL     1      -0.143  45.776  24.330  1.00  0.00    -0.504 OA
ATOM     21  H   UNL     1      -0.308  46.776  24.358  1.00  0.00     0.293 HD
ENDBRANCH  17  20
ENDBRANCH   1  12
BRANCH   6  22
ATOM     22  O   UNL     1      -2.283  36.611  21.841  1.00  0.00    -0.507 OA
ATOM     23  H   UNL     1      -2.566  37.137  21.029  1.00  0.00     0.293 HD
ENDBRANCH   6  22
BRANCH   8  24
ATOM     24  O   UNL     1      -0.305  35.812  26.125  1.00  0.00    -0.508 OA
ATOM     25  H   UNL     1      -0.889  35.341  26.806  1.00  0.00     0.293 HD
ENDBRANCH   8  24
TORSDOF 5
ENDMDL
MODEL 3
REMARK VINA RESULT:    -2.543     20.999     23.022
REMARK INTER + INTRA:          -3.300
REMARK INTER:                  -3.030
REMARK INTRA:                  -0.270
REMARK UNBOUND:                -0.312
REMARK SMILES O=c1cc(-c2ccc(O)c(O)c2)oc2cc(O)cc(O)c12
REMARK SMILES IDX 4 1 3 2 2 3 1 4 21 5 19 6 18 7 16 8 15 9 14 10 13 11 5 12
REMARK SMILES IDX 6 13 7 14 8 15 12 16 10 17 9 18 11 20 20 22 17 24
REMARK H PARENT 9 19 11 21 20 23 17 25
REMARK Flexibility Score: inf
ROOT
ATOM      1  C   UNL     1      16.392  41.055  11.121  1.00  0.00     0.138 A 
ATOM      2  C   UNL     1      16.737  41.746  12.289  1.00  0.00     0.100 A 
ATOM      3  C   UNL     1      16.713  43.141  12.300  1.00  0.00     0.197 A 
ATOM      4  O   UNL     1      17.088  43.735  13.344  1.00  0.00    -0.289 OA
ATOM      5  C   UNL     1      16.309  43.846  11.141  1.00  0.00     0.107 A 
ATOM      6  C   UNL     1      16.207  45.266  11.047  1.00  0.00     0.134 A 
ATOM      7  C   UNL     1      15.909  45.857   9.812  1.00  0.00     0.093 A 
ATOM      8  C   UNL     1      15.651  45.078   8.685  1.00  0.00     0.123 A 
ATOM      9  C   UNL     1      15.696  43.687   8.777  1.00  0.00     0.094 A 
ATOM     10  C   UNL     1      16.024  43.068   9.986  1.00  0.00     0.146 A 
ATOM     11  O   UNL     1      16.069  41.741  10.029  1.00  0.00    -0.456 OA
ENDROOT
BRANCH   1  12
ATOM     12  C   UNL     1      16.401  39.571  11.056  1.00  0.00     0.021 A 
ATOM     13  C   UNL     1      17.125  38.879  10.067  1.00  0.00     0.016 A 
ATOM     14  C   UNL     1      17.125  37.481  10.036  1.00  0.00     0.051 A 
ATOM     15  C   UNL     1      16.411  36.753  10.990  1.00  0.00     0.157 A 
ATOM     16  C   UNL     1      15.695  38.831  12.022  1.00  0.00     0.062 A 
ATOM     17  C   UNL     1      15.694  37.429  11.991  1.00  0.00     0.158 A 
BRANCH  15  18
ATOM     18  O   UNL     1      16.428  35.359  10.932  1.00  0.00    -0.504 OA
ATOM     19  H   UNL     1      15.635  34.798  11.217  1.00  0.00     0.293 HD
ENDBRANCH  15  18
BRANCH  17  20
ATOM     20  O   UNL     1      14.983  36.707  12.949  1.00  0.00    -0.504 OA
ATOM     21  H   UNL     1      14.250  36.058  12.687  1.00  0.00     0.293 HD
ENDBRANCH  17  20
ENDBRANCH   1  12
BRANCH   6  22
ATOM     22  O   UNL     1      16.362  46.134  12.133  1.00  0.00    -0.507 OA
ATOM     23  H   UNL     1      17.040  46.018  12.870  1.00  0.00     0.293 HD
ENDBRANCH   6  22
BRANCH   8  24
ATOM     24  O   UNL     1      15.344  45.700   7.476  1.00  0.00    -0.508 OA
ATOM     25  H   UNL     1      14.668  46.454   7.425  1.00  0.00     0.293 HD
ENDBRANCH   8  24
TORSDOF 5
ENDMDL
MODEL 4
REMARK VINA RESULT:    -2.169     17.152     19.754
REMARK INTER + INTRA:          -2.861
REMARK INTER:                  -2.598
REMARK INTRA:                  -0.263
REMARK UNBOUND:                -0.312
REMARK SMILES O=c1cc(-c2ccc(O)c(O)c2)oc2cc(O)cc(O)c12
REMARK SMILES IDX 4 1 3 2 2 3 1 4 21 5 19 6 18 7 16 8 15 9 14 10 13 11 5 12
REMARK SMILES IDX 6 13 7 14 8 15 12 16 10 17 9 18 11 20 20 22 17 24
REMARK H PARENT 9 19 11 21 20 23 17 25
REMARK Flexibility Score: inf
ROOT
ATOM      1  C   UNL     1      12.754  35.127  13.478  1.00  0.00     0.138 A 
ATOM      2  C   UNL     1      13.312  36.297  12.949  1.00  0.00     0.100 A 
ATOM      3  C   UNL     1      14.553  36.243  12.312  1.00  0.00     0.197 A 
ATOM      4  O   UNL     1      15.058  37.320  11.903  1.00  0.00    -0.289 OA
ATOM      5  C   UNL     1      15.221  35.003  12.178  1.00  0.00     0.107 A 
ATOM      6  C   UNL     1      16.470  34.821  11.513  1.00  0.00     0.134 A 
ATOM      7  C   UNL     1      17.093  33.565  11.544  1.00  0.00     0.093 A 
ATOM      8  C   UNL     1      16.483  32.475  12.163  1.00  0.00     0.123 A 
ATOM      9  C   UNL     1      15.237  32.629  12.771  1.00  0.00     0.094 A 
ATOM     10  C   UNL     1      14.607  33.875  12.787  1.00  0.00     0.146 A 
ATOM     11  O   UNL     1      13.426  33.984  13.388  1.00  0.00    -0.456 OA
ENDROOT
BRANCH   1  12
ATOM     12  C   UNL     1      11.436  35.127  14.165  1.00  0.00     0.021 A 
ATOM     13  C   UNL     1      10.236  34.914  13.463  1.00  0.00     0.016 A 
ATOM     14  C   UNL     1       9.011  34.909  14.136  1.00  0.00     0.051 A 
ATOM     15  C   UNL     1       8.963  35.109  15.518  1.00  0.00     0.157 A 
ATOM     16  C   UNL     1      11.383  35.314  15.559  1.00  0.00     0.062 A 
ATOM     17  C   UNL     1      10.154  35.310  16.235  1.00  0.00     0.158 A 
BRANCH  15  18
ATOM     18  O   UNL     1       7.726  35.100  16.162  1.00  0.00    -0.504 OA
ATOM     19  H   UNL     1       7.636  34.912  17.152  1.00  0.00     0.293 HD
ENDBRANCH  15  18
BRANCH  17  20
ATOM     20  O   UNL     1      10.112  35.505  17.615  1.00  0.00    -0.504 OA
ATOM     21  H   UNL     1       9.242  35.693  18.098  1.00  0.00     0.293 HD
ENDBRANCH  17  20
ENDBRANCH   1  12
BRANCH   6  22
ATOM     22  O   UNL     1      17.125  35.823  10.791  1.00  0.00    -0.507 OA
ATOM     23  H   UNL     1      18.110  36.028  10.853  1.00  0.00     0.293 HD
ENDBRANCH   6  22
BRANCH   8  24
ATOM     24  O   UNL     1      17.125  31.238  12.162  1.00  0.00    -0.508 OA
ATOM     25  H   UNL     1      17.854  31.020  11.494  1.00  0.00     0.293 HD
ENDBRANCH   8  24
TORSDOF 5
ENDMDL
MODEL 5
REMARK VINA RESULT:    -1.968     16.857     19.454
REMARK INTER + INTRA:          -2.625
REMARK INTER:                  -2.362
REMARK INTRA:                  -0.263
REMARK UNBOUND:                -0.312
REMARK SMILES O=c1cc(-c2ccc(O)c(O)c2)oc2cc(O)cc(O)c12
REMARK SMILES IDX 4 1 3 2 2 3 1 4 21 5 19 6 18 7 16 8 15 9 14 10 13 11 5 12
REMARK SMILES IDX 6 13 7 14 8 15 12 16 10 17 9 18 11 20 20 22 17 24
REMARK H PARENT 9 19 11 21 20 23 17 25
REMARK Flexibility Score: inf
ROOT
ATOM      1  C   UNL     1      12.565  35.083  13.614  1.00  0.00     0.138 A 
ATOM      2  C   UNL     1      13.165  33.850  13.326  1.00  0.00     0.100 A 
ATOM      3  C   UNL     1      14.384  33.817  12.646  1.00  0.00     0.197 A 
ATOM      4  O   UNL     1      14.867  32.695  12.347  1.00  0.00    -0.289 OA
ATOM      5  C   UNL     1      15.019  35.028  12.283  1.00  0.00     0.107 A 
ATOM      6  C   UNL     1      16.282  35.118  11.624  1.00  0.00     0.134 A 
ATOM      7  C   UNL     1      16.757  36.369  11.210  1.00  0.00     0.093 A 
ATOM      8  C   UNL     1      16.046  37.536  11.484  1.00  0.00     0.123 A 
ATOM      9  C   UNL     1      14.836  37.466  12.174  1.00  0.00     0.094 A 
ATOM     10  C   UNL     1      14.318  36.231  12.570  1.00  0.00     0.146 A 
ATOM     11  O   UNL     1      13.155  36.205  13.213  1.00  0.00    -0.456 OA
ENDROOT
BRANCH   1  12
ATOM     12  C   UNL     1      11.270  35.175  14.334  1.00  0.00     0.021 A 
ATOM     13  C   UNL     1      10.040  35.170  13.649  1.00  0.00     0.016 A 
ATOM     14  C   UNL     1       8.835  35.247  14.352  1.00  0.00     0.051 A 
ATOM     15  C   UNL     1       8.835  35.323  15.747  1.00  0.00     0.157 A 
ATOM     16  C   UNL     1      11.262  35.237  15.739  1.00  0.00     0.062 A 
ATOM     17  C   UNL     1      10.053  35.316  16.446  1.00  0.00     0.158 A 
BRANCH  15  18
ATOM     18  O   UNL     1       7.616  35.400  16.422  1.00  0.00    -0.504 OA
ATOM     19  H   UNL     1       7.348  34.726  17.127  1.00  0.00     0.293 HD
ENDBRANCH  15  18
BRANCH  17  20
ATOM     20  O   UNL     1      10.058  35.386  17.839  1.00  0.00    -0.504 OA
ATOM     21  H   UNL     1      10.629  34.764  18.399  1.00  0.00     0.293 HD
ENDBRANCH  17  20
ENDBRANCH   1  12
BRANCH   6  22
ATOM     22  O   UNL     1      17.114  34.022  11.378  1.00  0.00    -0.507 OA
ATOM     23  H   UNL     1      17.825  33.685  12.009  1.00  0.00     0.293 HD
ENDBRANCH   6  22
BRANCH   8  24
ATOM     24  O   UNL     1      16.556  38.765  11.069  1.00  0.00    -0.508 OA
ATOM     25  H   UNL     1      17.554  38.930  11.004  1.00  0.00     0.293 HD
ENDBRANCH   8  24
TORSDOF 5
ENDMDL
MODEL 6
REMARK VINA RESULT:    -1.726     15.604     18.303
REMARK INTER + INTRA:          -2.341
REMARK INTER:                  -2.079
REMARK INTRA:                  -0.262
REMARK UNBOUND:                -0.312
REMARK SMILES O=c1cc(-c2ccc(O)c(O)c2)oc2cc(O)cc(O)c12
REMARK SMILES IDX 4 1 3 2 2 3 1 4 21 5 19 6 18 7 16 8 15 9 14 10 13 11 5 12
REMARK SMILES IDX 6 13 7 14 8 15 12 16 10 17 9 18 11 20 20 22 17 24
REMARK H PARENT 9 19 11 21 20 23 17 25
REMARK Flexibility Score: inf
ROOT
ATOM      1  C   UNL     1      11.836  34.269  13.351  1.00  0.00     0.138 A 
ATOM      2  C   UNL     1      11.314  33.012  13.020  1.00  0.00     0.100 A 
ATOM      3  C   UNL     1      10.012  32.683  13.401  1.00  0.00     0.197 A 
ATOM      4  O   UNL     1       9.592  31.525  13.144  1.00  0.00    -0.289 OA
ATOM      5  C   UNL     1       9.220  33.632  14.090  1.00  0.00     0.107 A 
ATOM      6  C   UNL     1       7.867  33.424  14.492  1.00  0.00     0.134 A 
ATOM      7  C   UNL     1       7.220  34.393  15.270  1.00  0.00     0.093 A 
ATOM      8  C   UNL     1       7.857  35.586  15.609  1.00  0.00     0.123 A 
ATOM      9  C   UNL     1       9.161  35.824  15.177  1.00  0.00     0.094 A 
ATOM     10  C   UNL     1       9.845  34.863  14.428  1.00  0.00     0.146 A 
ATOM     11  O   UNL     1      11.091  35.122  14.046  1.00  0.00    -0.456 OA
ENDROOT
BRANCH   1  12
ATOM     12  C   UNL     1      13.215  34.670  12.970  1.00  0.00     0.021 A 
ATOM     13  C   UNL     1      14.285  34.595  13.882  1.00  0.00     0.016 A 
ATOM     14  C   UNL     1      15.575  34.968  13.494  1.00  0.00     0.051 A 
ATOM     15  C   UNL     1      15.820  35.414  12.192  1.00  0.00     0.157 A 
ATOM     16  C   UNL     1      13.471  35.106  11.658  1.00  0.00     0.062 A 
ATOM     17  C   UNL     1      14.765  35.482  11.268  1.00  0.00     0.158 A 
BRANCH  15  18
ATOM     18  O   UNL     1      17.117  35.782  11.835  1.00  0.00    -0.504 OA
ATOM     19  H   UNL     1      17.930  35.446  12.338  1.00  0.00     0.293 HD
ENDBRANCH  15  18
BRANCH  17  20
ATOM     20  O   UNL     1      15.005  35.922   9.967  1.00  0.00    -0.504 OA
ATOM     21  H   UNL     1      14.580  36.768   9.606  1.00  0.00     0.293 HD
ENDBRANCH  17  20
ENDBRANCH   1  12
BRANCH   6  22
ATOM     22  O   UNL     1       7.109  32.304  14.135  1.00  0.00    -0.507 OA
ATOM     23  H   UNL     1       6.511  31.789  14.763  1.00  0.00     0.293 HD
ENDBRANCH   6  22
BRANCH   8  24
ATOM     24  O   UNL     1       7.178  36.533  16.373  1.00  0.00    -0.508 OA
ATOM     25  H   UNL     1       7.065  37.489  16.055  1.00  0.00     0.293 HD
ENDBRANCH   8  24
TORSDOF 5
ENDMDL
MODEL 7
REMARK VINA RESULT:    -1.538     15.307     17.960
REMARK INTER + INTRA:          -2.119
REMARK INTER:                  -1.841
REMARK INTRA:                  -0.278
REMARK UNBOUND:                -0.312
REMARK SMILES O=c1cc(-c2ccc(O)c(O)c2)oc2cc(O)cc(O)c12
REMARK SMILES IDX 4 1 3 2 2 3 1 4 21 5 19 6 18 7 16 8 15 9 14 10 13 11 5 12
REMARK SMILES IDX 6 13 7 14 8 15 12 16 10 17 9 18 11 20 20 22 17 24
REMARK H PARENT 9 19 11 21 20 23 17 25
REMARK Flexibility Score: inf
ROOT
ATOM      1  C   UNL     1      11.788  34.863  14.031  1.00  0.00     0.138 A 
ATOM      2  C   UNL     1      11.658  35.644  15.187  1.00  0.00     0.100 A 
ATOM      3  C   UNL     1      10.455  35.635  15.895  1.00  0.00     0.197 A 
ATOM      4  O   UNL     1      10.347  36.393  16.893  1.00  0.00    -0.289 OA
ATOM      5  C   UNL     1       9.388  34.814  15.458  1.00  0.00     0.107 A 
ATOM      6  C   UNL     1       8.132  34.693  16.122  1.00  0.00     0.134 A 
ATOM      7  C   UNL     1       7.109  33.938  15.532  1.00  0.00     0.093 A 
ATOM      8  C   UNL     1       7.317  33.253  14.336  1.00  0.00     0.123 A 
ATOM      9  C   UNL     1       8.559  33.322  13.704  1.00  0.00     0.094 A 
ATOM     10  C   UNL     1       9.589  34.093  14.249  1.00  0.00     0.146 A 
ATOM     11  O   UNL     1      10.753  34.143  13.610  1.00  0.00    -0.456 OA
ENDROOT
BRANCH   1  12
ATOM     12  C   UNL     1      13.045  34.836  13.241  1.00  0.00     0.021 A 
ATOM     13  C   UNL     1      13.036  34.886  11.834  1.00  0.00     0.016 A 
ATOM     14  C   UNL     1      14.234  34.870  11.115  1.00  0.00     0.051 A 
ATOM     15  C   UNL     1      15.459  34.811  11.785  1.00  0.00     0.157 A 
ATOM     16  C   UNL     1      14.282  34.792  13.909  1.00  0.00     0.062 A 
ATOM     17  C   UNL     1      15.485  34.774  13.189  1.00  0.00     0.158 A 
BRANCH  15  18
ATOM     18  O   UNL     1      16.639  34.795  11.040  1.00  0.00    -0.504 OA
ATOM     19  H   UNL     1      16.964  35.606  10.529  1.00  0.00     0.293 HD
ENDBRANCH  15  18
BRANCH  17  20
ATOM     20  O   UNL     1      16.705  34.720  13.862  1.00  0.00    -0.504 OA
ATOM     21  H   UNL     1      17.161  35.559  14.202  1.00  0.00     0.293 HD
ENDBRANCH  17  20
ENDBRANCH   1  12
BRANCH   6  22
ATOM     22  O   UNL     1       7.846  35.266  17.365  1.00  0.00    -0.507 OA
ATOM     23  H   UNL     1       8.361  35.088  18.213  1.00  0.00     0.293 HD
ENDBRANCH   6  22
BRANCH   8  24
ATOM     24  O   UNL     1       6.282  32.501  13.785  1.00  0.00    -0.508 OA
ATOM     25  H   UNL     1       5.703  31.897  14.357  1.00  0.00     0.293 HD
ENDBRANCH   8  24
TORSDOF 5
ENDMDL
