MODEL 1
REMARK VINA RESULT:    -8.081      0.000      0.000
REMARK INTER + INTRA:         -10.660
REMARK INTER:                 -10.207
REMARK INTRA:                  -0.453
REMARK UNBOUND:                -0.453
REMARK SMILES COc1cc(O)c2c(=O)c(OC)c(-c3ccc(O)c(O)c3)oc2c1
REMARK SMILES IDX 3 1 4 2 5 3 7 4 23 5 24 6 22 7 13 8 10 9 8 10 9 11 2 12 1 13
REMARK SMILES IDX 6 14 14 16 21 17 15 18 19 19 16 20 17 21 20 22 18 24 11 26
REMARK SMILES IDX 12 27
REMARK H PARENT 6 15 20 23 18 25
REMARK Flexibility Score: inf
ROOT
ATOM      1  C   UNL     1     -20.057 -50.156  50.493  1.00  0.00     0.126 A 
ATOM      2  C   UNL     1     -19.162 -49.814  49.478  1.00  0.00     0.093 A 
ATOM      3  C   UNL     1     -19.605 -49.276  48.265  1.00  0.00     0.134 A 
ATOM      4  C   UNL     1     -21.004 -49.141  48.022  1.00  0.00     0.111 A 
ATOM      5  C   UNL     1     -21.902 -49.463  49.069  1.00  0.00     0.146 A 
ATOM      6  C   UNL     1     -21.429 -49.960  50.287  1.00  0.00     0.094 A 
ATOM      7  O   UNL     1     -23.209 -49.305  48.916  1.00  0.00    -0.452 OA
ATOM      8  C   UNL     1     -23.768 -48.863  47.796  1.00  0.00     0.180 A 
ATOM      9  C   UNL     1     -22.971 -48.589  46.667  1.00  0.00     0.210 A 
ATOM     10  C   UNL     1     -21.570 -48.745  46.785  1.00  0.00     0.239 A 
ATOM     11  O   UNL     1     -20.838 -48.580  45.775  1.00  0.00    -0.285 OA
ENDROOT
BRANCH   1  12
ATOM     12  O   UNL     1     -19.541 -50.674  51.690  1.00  0.00    -0.496 OA
ATOM     13  C   UNL     1     -18.156 -50.877  51.949  1.00  0.00     0.278 C 
ENDBRANCH   1  12
BRANCH   3  14
ATOM     14  O   UNL     1     -18.616 -48.872  47.363  1.00  0.00    -0.507 OA
ATOM     15  H   UNL     1     -18.460 -49.292  46.459  1.00  0.00     0.293 HD
ENDBRANCH   3  14
BRANCH   8  16
ATOM     16  C   UNL     1     -25.240 -48.700  47.776  1.00  0.00     0.025 A 
ATOM     17  C   UNL     1     -26.040 -49.712  47.225  1.00  0.00     0.062 A 
ATOM     18  C   UNL     1     -25.858 -47.580  48.353  1.00  0.00     0.016 A 
ATOM     19  C   UNL     1     -27.436 -49.600  47.210  1.00  0.00     0.158 A 
ATOM     20  C   UNL     1     -27.248 -47.459  48.344  1.00  0.00     0.051 A 
ATOM     21  C   UNL     1     -28.048 -48.455  47.774  1.00  0.00     0.157 A 
BRANCH  19  22
ATOM     22  O   UNL     1     -28.168 -50.639  46.633  1.00  0.00    -0.504 OA
ATOM     23  H   UNL     1     -29.176 -50.684  46.625  1.00  0.00     0.293 HD
ENDBRANCH  19  22
BRANCH  21  24
ATOM     24  O   UNL     1     -29.433 -48.272  47.794  1.00  0.00    -0.504 OA
ATOM     25  H   UNL     1     -29.998 -48.331  48.628  1.00  0.00     0.293 HD
ENDBRANCH  21  24
ENDBRANCH   8  16
BRANCH   9  26
ATOM     26  O   UNL     1     -23.617 -48.210  45.473  1.00  0.00    -0.490 OA
ATOM     27  C   UNL     1     -23.777 -46.886  44.977  1.00  0.00     0.278 C 
ENDBRANCH   9  26
TORSDOF 6
ENDMDL
MODEL 2
REMARK VINA RESULT:    -7.301      5.622      9.461
REMARK INTER + INTRA:          -9.675
REMARK INTER:                  -9.315
REMARK INTRA:                  -0.360
REMARK UNBOUND:                -0.453
REMARK SMILES COc1cc(O)c2c(=O)c(OC)c(-c3ccc(O)c(O)c3)oc2c1
REMARK SMILES IDX 3 1 4 2 5 3 7 4 23 5 24 6 22 7 13 8 10 9 8 10 9 11 2 12 1 13
REMARK SMILES IDX 6 14 14 16 21 17 15 18 19 19 16 20 17 21 20 22 18 24 11 26
REMARK SMILES IDX 12 27
REMARK H PARENT 6 15 20 23 18 25
REMARK Flexibility Score: inf
ROOT
ATOM      1  C   UNL     1     -28.226 -47.422  39.241  1.00  0.00     0.126 A 
ATOM      2  C   UNL     1     -28.232 -46.106  38.779  1.00  0.00     0.093 A 
ATOM      3  C   UNL     1     -28.090 -45.024  39.654  1.00  0.00     0.134 A 
ATOM      4  C   UNL     1     -28.013 -45.259  41.059  1.00  0.00     0.111 A 
ATOM      5  C   UNL     1     -27.979 -46.599  41.516  1.00  0.00     0.146 A 
ATOM      6  C   UNL     1     -28.081 -47.663  40.614  1.00  0.00     0.094 A 
ATOM      7  O   UNL     1     -27.854 -46.875  42.806  1.00  0.00    -0.452 OA
ATOM      8  C   UNL     1     -27.773 -45.945  43.750  1.00  0.00     0.180 A 
ATOM      9  C   UNL     1     -27.876 -44.582  43.411  1.00  0.00     0.210 A 
ATOM     10  C   UNL     1     -28.012 -44.241  42.045  1.00  0.00     0.239 A 
ATOM     11  O   UNL     1     -28.181 -43.038  41.717  1.00  0.00    -0.285 OA
ENDROOT
BRANCH   1  12
ATOM     12  O   UNL     1     -28.355 -48.459  38.305  1.00  0.00    -0.496 OA
ATOM     13  C   UNL     1     -28.772 -49.783  38.621  1.00  0.00     0.278 C 
ENDBRANCH   1  12
BRANCH   3  14
ATOM     14  O   UNL     1     -28.002 -43.757  39.072  1.00  0.00    -0.507 OA
ATOM     15  H   UNL     1     -27.718 -42.920  39.560  1.00  0.00     0.293 HD
ENDBRANCH   3  14
BRANCH   8  16
ATOM     16  C   UNL     1     -27.600 -46.395  45.150  1.00  0.00     0.025 A 
ATOM     17  C   UNL     1     -28.642 -47.082  45.789  1.00  0.00     0.062 A 
ATOM     18  C   UNL     1     -26.389 -46.202  45.834  1.00  0.00     0.016 A 
ATOM     19  C   UNL     1     -28.503 -47.541  47.106  1.00  0.00     0.158 A 
ATOM     20  C   UNL     1     -26.240 -46.656  47.145  1.00  0.00     0.051 A 
ATOM     21  C   UNL     1     -27.286 -47.321  47.794  1.00  0.00     0.157 A 
BRANCH  19  22
ATOM     22  O   UNL     1     -29.586 -48.205  47.683  1.00  0.00    -0.504 OA
ATOM     23  H   UNL     1     -30.473 -48.346  47.222  1.00  0.00     0.293 HD
ENDBRANCH  19  22
BRANCH  21  24
ATOM     24  O   UNL     1     -27.074 -47.747  49.108  1.00  0.00    -0.504 OA
ATOM     25  H   UNL     1     -27.029 -47.125  49.901  1.00  0.00     0.293 HD
ENDBRANCH  21  24
ENDBRANCH   8  16
BRANCH   9  26
ATOM     26  O   UNL     1     -27.876 -43.635  44.455  1.00  0.00    -0.490 OA
ATOM     27  C   UNL     1     -26.866 -42.670  44.727  1.00  0.00     0.278 C 
ENDBRANCH   9  26
TORSDOF 6
ENDMDL
MODEL 3
REMARK VINA RESULT:    -7.219      2.615      4.347
REMARK INTER + INTRA:          -9.572
REMARK INTER:                  -9.107
REMARK INTRA:                  -0.464
REMARK UNBOUND:                -0.453
REMARK SMILES COc1cc(O)c2c(=O)c(OC)c(-c3ccc(O)c(O)c3)oc2c1
REMARK SMILES IDX 3 1 4 2 5 3 7 4 23 5 24 6 22 7 13 8 10 9 8 10 9 11 2 12 1 13
REMARK SMILES IDX 6 14 14 16 21 17 15 18 19 19 16 20 17 21 20 22 18 24 11 26
REMARK SMILES IDX 12 27
REMARK H PARENT 6 15 20 23 18 25
REMARK Flexibility Score: inf
ROOT
ATOM      1  C   UNL     1     -19.665 -51.303  48.578  1.00  0.00     0.126 A 
ATOM      2  C   UNL     1     -20.298 -51.257  49.819  1.00  0.00     0.093 A 
ATOM      3  C   UNL     1     -21.346 -50.365  50.073  1.00  0.00     0.134 A 
ATOM      4  C   UNL     1     -21.731 -49.427  49.068  1.00  0.00     0.111 A 
ATOM      5  C   UNL     1     -21.102 -49.502  47.802  1.00  0.00     0.146 A 
ATOM      6  C   UNL     1     -20.085 -50.431  47.564  1.00  0.00     0.094 A 
ATOM      7  O   UNL     1     -21.459 -48.690  46.817  1.00  0.00    -0.452 OA
ATOM      8  C   UNL     1     -22.394 -47.756  46.938  1.00  0.00     0.180 A 
ATOM      9  C   UNL     1     -23.026 -47.545  48.180  1.00  0.00     0.210 A 
ATOM     10  C   UNL     1     -22.675 -48.388  49.261  1.00  0.00     0.239 A 
ATOM     11  O   UNL     1     -23.167 -48.178  50.399  1.00  0.00    -0.285 OA
ENDROOT
BRANCH   1  12
ATOM     12  O   UNL     1     -18.633 -52.235  48.389  1.00  0.00    -0.496 OA
ATOM     13  C   UNL     1     -18.123 -53.089  49.408  1.00  0.00     0.278 C 
ENDBRANCH   1  12
BRANCH   3  14
ATOM     14  O   UNL     1     -21.977 -50.478  51.314  1.00  0.00    -0.507 OA
ATOM     15  H   UNL     1     -21.751 -49.921  52.124  1.00  0.00     0.293 HD
ENDBRANCH   3  14
BRANCH   8  16
ATOM     16  C   UNL     1     -22.717 -46.942  45.745  1.00  0.00     0.025 A 
ATOM     17  C   UNL     1     -23.831 -47.276  44.961  1.00  0.00     0.062 A 
ATOM     18  C   UNL     1     -21.967 -45.802  45.413  1.00  0.00     0.016 A 
ATOM     19  C   UNL     1     -24.178 -46.513  43.838  1.00  0.00     0.158 A 
ATOM     20  C   UNL     1     -22.305 -45.036  44.298  1.00  0.00     0.051 A 
ATOM     21  C   UNL     1     -23.401 -45.380  43.500  1.00  0.00     0.157 A 
BRANCH  19  22
ATOM     22  O   UNL     1     -25.292 -46.913  43.097  1.00  0.00    -0.504 OA
ATOM     23  H   UNL     1     -25.837 -46.292  42.518  1.00  0.00     0.293 HD
ENDBRANCH  19  22
BRANCH  21  24
ATOM     24  O   UNL     1     -23.684 -44.573  42.395  1.00  0.00    -0.504 OA
ATOM     25  H   UNL     1     -24.550 -44.070  42.271  1.00  0.00     0.293 HD
ENDBRANCH  21  24
ENDBRANCH   8  16
BRANCH   9  26
ATOM     26  O   UNL     1     -23.946 -46.483  48.286  1.00  0.00    -0.490 OA
ATOM     27  C   UNL     1     -25.363 -46.590  48.363  1.00  0.00     0.278 C 
ENDBRANCH   9  26
TORSDOF 6
ENDMDL
MODEL 4
REMARK VINA RESULT:    -7.216      2.937      4.007
REMARK INTER + INTRA:          -9.568
REMARK INTER:                  -9.121
REMARK INTRA:                  -0.447
REMARK UNBOUND:                -0.453
REMARK SMILES COc1cc(O)c2c(=O)c(OC)c(-c3ccc(O)c(O)c3)oc2c1
REMARK SMILES IDX 3 1 4 2 5 3 7 4 23 5 24 6 22 7 13 8 10 9 8 10 9 11 2 12 1 13
REMARK SMILES IDX 6 14 14 16 21 17 15 18 19 19 16 20 17 21 20 22 18 24 11 26
REMARK SMILES IDX 12 27
REMARK H PARENT 6 15 20 23 18 25
REMARK Flexibility Score: inf
ROOT
ATOM      1  C   UNL     1     -18.956 -48.877  49.142  1.00  0.00     0.126 A 
ATOM      2  C   UNL     1     -19.001 -50.208  48.729  1.00  0.00     0.093 A 
ATOM      3  C   UNL     1     -19.859 -50.627  47.706  1.00  0.00     0.134 A 
ATOM      4  C   UNL     1     -20.765 -49.694  47.119  1.00  0.00     0.111 A 
ATOM      5  C   UNL     1     -20.691 -48.339  47.525  1.00  0.00     0.146 A 
ATOM      6  C   UNL     1     -19.795 -47.941  48.522  1.00  0.00     0.094 A 
ATOM      7  O   UNL     1     -21.472 -47.421  46.974  1.00  0.00    -0.452 OA
ATOM      8  C   UNL     1     -22.373 -47.691  46.038  1.00  0.00     0.180 A 
ATOM      9  C   UNL     1     -22.583 -49.020  45.620  1.00  0.00     0.210 A 
ATOM     10  C   UNL     1     -21.772 -50.033  46.183  1.00  0.00     0.239 A 
ATOM     11  O   UNL     1     -21.984 -51.237  45.884  1.00  0.00    -0.285 OA
ENDROOT
BRANCH   1  12
ATOM     12  O   UNL     1     -18.059 -48.525  50.162  1.00  0.00    -0.496 OA
ATOM     13  C   UNL     1     -17.875 -49.265  51.364  1.00  0.00     0.278 C 
ENDBRANCH   1  12
BRANCH   3  14
ATOM     14  O   UNL     1     -19.745 -51.960  47.301  1.00  0.00    -0.507 OA
ATOM     15  H   UNL     1     -19.034 -52.598  47.627  1.00  0.00     0.293 HD
ENDBRANCH   3  14
BRANCH   8  16
ATOM     16  C   UNL     1     -23.154 -46.561  45.484  1.00  0.00     0.025 A 
ATOM     17  C   UNL     1     -22.812 -46.033  44.231  1.00  0.00     0.062 A 
ATOM     18  C   UNL     1     -24.272 -46.046  46.160  1.00  0.00     0.016 A 
ATOM     19  C   UNL     1     -23.544 -44.979  43.668  1.00  0.00     0.158 A 
ATOM     20  C   UNL     1     -25.008 -44.997  45.608  1.00  0.00     0.051 A 
ATOM     21  C   UNL     1     -24.655 -44.452  44.369  1.00  0.00     0.157 A 
BRANCH  19  22
ATOM     22  O   UNL     1     -23.138 -44.494  42.424  1.00  0.00    -0.504 OA
ATOM     23  H   UNL     1     -23.743 -43.999  41.786  1.00  0.00     0.293 HD
ENDBRANCH  19  22
BRANCH  21  24
ATOM     24  O   UNL     1     -25.430 -43.401  43.872  1.00  0.00    -0.504 OA
ATOM     25  H   UNL     1     -25.920 -42.738  44.455  1.00  0.00     0.293 HD
ENDBRANCH  21  24
ENDBRANCH   8  16
BRANCH   9  26
ATOM     26  O   UNL     1     -23.613 -49.270  44.691  1.00  0.00    -0.490 OA
ATOM     27  C   UNL     1     -24.960 -49.617  44.990  1.00  0.00     0.278 C 
ENDBRANCH   9  26
TORSDOF 6
ENDMDL
MODEL 5
REMARK VINA RESULT:    -7.164      2.003      6.990
REMARK INTER + INTRA:          -9.501
REMARK INTER:                  -9.256
REMARK INTRA:                  -0.245
REMARK UNBOUND:                -0.453
REMARK SMILES COc1cc(O)c2c(=O)c(OC)c(-c3ccc(O)c(O)c3)oc2c1
REMARK SMILES IDX 3 1 4 2 5 3 7 4 23 5 24 6 22 7 13 8 10 9 8 10 9 11 2 12 1 13
REMARK SMILES IDX 6 14 14 16 21 17 15 18 19 19 16 20 17 21 20 22 18 24 11 26
REMARK SMILES IDX 12 27
REMARK H PARENT 6 15 20 23 18 25
REMARK Flexibility Score: inf
ROOT
ATOM      1  C   UNL     1     -27.353 -48.440  47.288  1.00  0.00     0.126 A 
ATOM      2  C   UNL     1     -27.155 -47.112  46.910  1.00  0.00     0.093 A 
ATOM      3  C   UNL     1     -25.890 -46.516  46.969  1.00  0.00     0.134 A 
ATOM      4  C   UNL     1     -24.788 -47.252  47.498  1.00  0.00     0.111 A 
ATOM      5  C   UNL     1     -24.993 -48.608  47.852  1.00  0.00     0.146 A 
ATOM      6  C   UNL     1     -26.260 -49.190  47.743  1.00  0.00     0.094 A 
ATOM      7  O   UNL     1     -23.992 -49.353  48.297  1.00  0.00    -0.452 OA
ATOM      8  C   UNL     1     -22.756 -48.898  48.462  1.00  0.00     0.180 A 
ATOM      9  C   UNL     1     -22.462 -47.542  48.215  1.00  0.00     0.210 A 
ATOM     10  C   UNL     1     -23.502 -46.709  47.739  1.00  0.00     0.239 A 
ATOM     11  O   UNL     1     -23.290 -45.479  47.578  1.00  0.00    -0.285 OA
ENDROOT
BRANCH   1  12
ATOM     12  O   UNL     1     -28.644 -48.977  47.185  1.00  0.00    -0.496 OA
ATOM     13  C   UNL     1     -29.843 -48.236  47.387  1.00  0.00     0.278 C 
ENDBRANCH   1  12
BRANCH   3  14
ATOM     14  O   UNL     1     -25.788 -45.216  46.466  1.00  0.00    -0.507 OA
ATOM     15  H   UNL     1     -25.783 -44.981  45.484  1.00  0.00     0.293 HD
ENDBRANCH   3  14
BRANCH   8  16
ATOM     16  C   UNL     1     -21.726 -49.850  48.934  1.00  0.00     0.025 A 
ATOM     17  C   UNL     1     -20.955 -50.556  47.999  1.00  0.00     0.062 A 
ATOM     18  C   UNL     1     -21.460 -50.018  50.303  1.00  0.00     0.016 A 
ATOM     19  C   UNL     1     -19.957 -51.448  48.412  1.00  0.00     0.158 A 
ATOM     20  C   UNL     1     -20.467 -50.903  50.724  1.00  0.00     0.051 A 
ATOM     21  C   UNL     1     -19.712 -51.627  49.795  1.00  0.00     0.157 A 
BRANCH  19  22
ATOM     22  O   UNL     1     -19.238 -52.126  47.426  1.00  0.00    -0.504 OA
ATOM     23  H   UNL     1     -18.363 -52.600  47.590  1.00  0.00     0.293 HD
ENDBRANCH  19  22
BRANCH  21  24
ATOM     24  O   UNL     1     -18.737 -52.499  50.282  1.00  0.00    -0.504 OA
ATOM     25  H   UNL     1     -18.922 -53.241  50.941  1.00  0.00     0.293 HD
ENDBRANCH  21  24
ENDBRANCH   8  16
BRANCH   9  26
ATOM     26  O   UNL     1     -21.159 -47.083  48.490  1.00  0.00    -0.490 OA
ATOM     27  C   UNL     1     -20.628 -46.747  49.768  1.00  0.00     0.278 C 
ENDBRANCH   9  26
TORSDOF 6
ENDMDL
MODEL 6
REMARK VINA RESULT:    -6.975      2.012      2.772
REMARK INTER + INTRA:          -9.263
REMARK INTER:                  -8.787
REMARK INTRA:                  -0.475
REMARK UNBOUND:                -0.453
REMARK SMILES COc1cc(O)c2c(=O)c(OC)c(-c3ccc(O)c(O)c3)oc2c1
REMARK SMILES IDX 3 1 4 2 5 3 7 4 23 5 24 6 22 7 13 8 10 9 8 10 9 11 2 12 1 13
REMARK SMILES IDX 6 14 14 16 21 17 15 18 19 19 16 20 17 21 20 22 18 24 11 26
REMARK SMILES IDX 12 27
REMARK H PARENT 6 15 20 23 18 25
REMARK Flexibility Score: inf
ROOT
ATOM      1  C   UNL     1     -18.766 -50.993  49.422  1.00  0.00     0.126 A 
ATOM      2  C   UNL     1     -18.373 -49.855  50.127  1.00  0.00     0.093 A 
ATOM      3  C   UNL     1     -19.186 -48.718  50.191  1.00  0.00     0.134 A 
ATOM      4  C   UNL     1     -20.412 -48.686  49.461  1.00  0.00     0.111 A 
ATOM      5  C   UNL     1     -20.816 -49.856  48.773  1.00  0.00     0.146 A 
ATOM      6  C   UNL     1     -20.002 -50.993  48.760  1.00  0.00     0.094 A 
ATOM      7  O   UNL     1     -21.970 -49.898  48.124  1.00  0.00    -0.452 OA
ATOM      8  C   UNL     1     -22.808 -48.872  48.051  1.00  0.00     0.180 A 
ATOM      9  C   UNL     1     -22.466 -47.636  48.634  1.00  0.00     0.210 A 
ATOM     10  C   UNL     1     -21.242 -47.544  49.336  1.00  0.00     0.239 A 
ATOM     11  O   UNL     1     -20.874 -46.436  49.804  1.00  0.00    -0.285 OA
ENDROOT
BRANCH   1  12
ATOM     12  O   UNL     1     -17.909 -52.103  49.415  1.00  0.00    -0.496 OA
ATOM     13  C   UNL     1     -17.903 -53.122  50.409  1.00  0.00     0.278 C 
ENDBRANCH   1  12
BRANCH   3  14
ATOM     14  O   UNL     1     -18.742 -47.678  51.011  1.00  0.00    -0.507 OA
ATOM     15  H   UNL     1     -19.336 -47.137  51.623  1.00  0.00     0.293 HD
ENDBRANCH   3  14
BRANCH   8  16
ATOM     16  C   UNL     1     -24.081 -49.070  47.321  1.00  0.00     0.025 A 
ATOM     17  C   UNL     1     -24.099 -48.970  45.922  1.00  0.00     0.062 A 
ATOM     18  C   UNL     1     -25.263 -49.416  47.995  1.00  0.00     0.016 A 
ATOM     19  C   UNL     1     -25.282 -49.174  45.199  1.00  0.00     0.158 A 
ATOM     20  C   UNL     1     -26.446 -49.622  47.284  1.00  0.00     0.051 A 
ATOM     21  C   UNL     1     -26.473 -49.501  45.891  1.00  0.00     0.157 A 
BRANCH  19  22
ATOM     22  O   UNL     1     -25.228 -49.046  43.810  1.00  0.00    -0.504 OA
ATOM     23  H   UNL     1     -24.935 -48.207  43.332  1.00  0.00     0.293 HD
ENDBRANCH  19  22
BRANCH  21  24
ATOM     24  O   UNL     1     -27.689 -49.715  45.240  1.00  0.00    -0.504 OA
ATOM     25  H   UNL     1     -28.561 -49.292  45.519  1.00  0.00     0.293 HD
ENDBRANCH  21  24
ENDBRANCH   8  16
BRANCH   9  26
ATOM     26  O   UNL     1     -23.345 -46.549  48.452  1.00  0.00    -0.490 OA
ATOM     27  C   UNL     1     -24.347 -46.106  49.361  1.00  0.00     0.278 C 
ENDBRANCH   9  26
TORSDOF 6
ENDMDL
MODEL 7
REMARK VINA RESULT:    -6.897      2.098      7.038
REMARK INTER + INTRA:          -9.164
REMARK INTER:                  -8.705
REMARK INTRA:                  -0.460
REMARK UNBOUND:                -0.453
REMARK SMILES COc1cc(O)c2c(=O)c(OC)c(-c3ccc(O)c(O)c3)oc2c1
REMARK SMILES IDX 3 1 4 2 5 3 7 4 23 5 24 6 22 7 13 8 10 9 8 10 9 11 2 12 1 13
REMARK SMILES IDX 6 14 14 16 21 17 15 18 19 19 16 20 17 21 20 22 18 24 11 26
REMARK SMILES IDX 12 27
REMARK H PARENT 6 15 20 23 18 25
REMARK Flexibility Score: inf
ROOT
ATOM      1  C   UNL     1     -27.990 -47.341  46.007  1.00  0.00     0.126 A 
ATOM      2  C   UNL     1     -27.789 -47.243  44.630  1.00  0.00     0.093 A 
ATOM      3  C   UNL     1     -26.510 -47.333  44.070  1.00  0.00     0.134 A 
ATOM      4  C   UNL     1     -25.373 -47.454  44.924  1.00  0.00     0.111 A 
ATOM      5  C   UNL     1     -25.590 -47.582  46.318  1.00  0.00     0.146 A 
ATOM      6  C   UNL     1     -26.883 -47.529  46.847  1.00  0.00     0.094 A 
ATOM      7  O   UNL     1     -24.573 -47.750  47.151  1.00  0.00    -0.452 OA
ATOM      8  C   UNL     1     -23.305 -47.792  46.762  1.00  0.00     0.180 A 
ATOM      9  C   UNL     1     -22.974 -47.595  45.407  1.00  0.00     0.210 A 
ATOM     10  C   UNL     1     -24.028 -47.410  44.481  1.00  0.00     0.239 A 
ATOM     11  O   UNL     1     -23.763 -47.159  43.277  1.00  0.00    -0.285 OA
ENDROOT
BRANCH   1  12
ATOM     12  O   UNL     1     -29.301 -47.259  46.497  1.00  0.00    -0.496 OA
ATOM     13  C   UNL     1     -29.878 -48.183  47.414  1.00  0.00     0.278 C 
ENDBRANCH   1  12
BRANCH   3  14
ATOM     14  O   UNL     1     -26.437 -47.328  42.675  1.00  0.00    -0.507 OA
ATOM     15  H   UNL     1     -26.003 -48.053  42.121  1.00  0.00     0.293 HD
ENDBRANCH   3  14
BRANCH   8  16
ATOM     16  C   UNL     1     -22.271 -48.021  47.797  1.00  0.00     0.025 A 
ATOM     17  C   UNL     1     -21.945 -49.333  48.169  1.00  0.00     0.062 A 
ATOM     18  C   UNL     1     -21.564 -46.952  48.372  1.00  0.00     0.016 A 
ATOM     19  C   UNL     1     -20.955 -49.585  49.129  1.00  0.00     0.158 A 
ATOM     20  C   UNL     1     -20.577 -47.194  49.327  1.00  0.00     0.051 A 
ATOM     21  C   UNL     1     -20.265 -48.500  49.719  1.00  0.00     0.157 A 
BRANCH  19  22
ATOM     22  O   UNL     1     -20.692 -50.916  49.460  1.00  0.00    -0.504 OA
ATOM     23  H   UNL     1     -20.931 -51.701  48.873  1.00  0.00     0.293 HD
ENDBRANCH  19  22
BRANCH  21  24
ATOM     24  O   UNL     1     -19.269 -48.673  50.683  1.00  0.00    -0.504 OA
ATOM     25  H   UNL     1     -18.460 -49.263  50.558  1.00  0.00     0.293 HD
ENDBRANCH  21  24
ENDBRANCH   8  16
BRANCH   9  26
ATOM     26  O   UNL     1     -21.610 -47.556  45.054  1.00  0.00    -0.490 OA
ATOM     27  C   UNL     1     -20.854 -48.608  44.464  1.00  0.00     0.278 C 
ENDBRANCH   9  26
TORSDOF 6
ENDMDL
MODEL 8
REMARK VINA RESULT:    -6.884      3.293      4.750
REMARK INTER + INTRA:          -9.148
REMARK INTER:                  -8.722
REMARK INTRA:                  -0.426
REMARK UNBOUND:                -0.453
REMARK SMILES COc1cc(O)c2c(=O)c(OC)c(-c3ccc(O)c(O)c3)oc2c1
REMARK SMILES IDX 3 1 4 2 5 3 7 4 23 5 24 6 22 7 13 8 10 9 8 10 9 11 2 12 1 13
REMARK SMILES IDX 6 14 14 16 21 17 15 18 19 19 16 20 17 21 20 22 18 24 11 26
REMARK SMILES IDX 12 27
REMARK H PARENT 6 15 20 23 18 25
REMARK Flexibility Score: inf
ROOT
ATOM      1  C   UNL     1     -19.196 -53.991  46.496  1.00  0.00     0.126 A 
ATOM      2  C   UNL     1     -18.778 -53.662  47.785  1.00  0.00     0.093 A 
ATOM      3  C   UNL     1     -19.273 -52.533  48.447  1.00  0.00     0.134 A 
ATOM      4  C   UNL     1     -20.168 -51.653  47.768  1.00  0.00     0.111 A 
ATOM      5  C   UNL     1     -20.608 -52.012  46.471  1.00  0.00     0.146 A 
ATOM      6  C   UNL     1     -20.128 -53.168  45.849  1.00  0.00     0.094 A 
ATOM      7  O   UNL     1     -21.481 -51.259  45.817  1.00  0.00    -0.452 OA
ATOM      8  C   UNL     1     -21.983 -50.130  46.302  1.00  0.00     0.180 A 
ATOM      9  C   UNL     1     -21.551 -49.642  47.551  1.00  0.00     0.210 A 
ATOM     10  C   UNL     1     -20.618 -50.413  48.284  1.00  0.00     0.239 A 
ATOM     11  O   UNL     1     -20.158 -49.969  49.367  1.00  0.00    -0.285 OA
ENDROOT
BRANCH   1  12
ATOM     12  O   UNL     1     -18.671 -55.148  45.899  1.00  0.00    -0.496 OA
ATOM     13  C   UNL     1     -19.013 -56.476  46.279  1.00  0.00     0.278 C 
ENDBRANCH   1  12
BRANCH   3  14
ATOM     14  O   UNL     1     -18.867 -52.359  49.773  1.00  0.00    -0.507 OA
ATOM     15  H   UNL     1     -19.480 -52.422  50.573  1.00  0.00     0.293 HD
ENDBRANCH   3  14
BRANCH   8  16
ATOM     16  C   UNL     1     -22.977 -49.406  45.478  1.00  0.00     0.025 A 
ATOM     17  C   UNL     1     -22.568 -48.309  44.706  1.00  0.00     0.062 A 
ATOM     18  C   UNL     1     -24.313 -49.831  45.403  1.00  0.00     0.016 A 
ATOM     19  C   UNL     1     -23.478 -47.615  43.897  1.00  0.00     0.158 A 
ATOM     20  C   UNL     1     -25.227 -49.148  44.601  1.00  0.00     0.051 A 
ATOM     21  C   UNL     1     -24.827 -48.039  43.847  1.00  0.00     0.157 A 
BRANCH  19  22
ATOM     22  O   UNL     1     -23.002 -46.525  43.166  1.00  0.00    -0.504 OA
ATOM     23  H   UNL     1     -23.464 -46.145  42.353  1.00  0.00     0.293 HD
ENDBRANCH  19  22
BRANCH  21  24
ATOM     24  O   UNL     1     -25.792 -47.397  43.067  1.00  0.00    -0.504 OA
ATOM     25  H   UNL     1     -26.188 -47.788  42.225  1.00  0.00     0.293 HD
ENDBRANCH  21  24
ENDBRANCH   8  16
BRANCH   9  26
ATOM     26  O   UNL     1     -22.043 -48.394  47.983  1.00  0.00    -0.490 OA
ATOM     27  C   UNL     1     -23.158 -48.170  48.839  1.00  0.00     0.278 C 
ENDBRANCH   9  26
TORSDOF 6
ENDMDL
MODEL 9
REMARK VINA RESULT:    -6.807      2.663      3.822
REMARK INTER + INTRA:          -9.051
REMARK INTER:                  -8.725
REMARK INTRA:                  -0.326
REMARK UNBOUND:                -0.453
REMARK SMILES COc1cc(O)c2c(=O)c(OC)c(-c3ccc(O)c(O)c3)oc2c1
REMARK SMILES IDX 3 1 4 2 5 3 7 4 23 5 24 6 22 7 13 8 10 9 8 10 9 11 2 12 1 13
REMARK SMILES IDX 6 14 14 16 21 17 15 18 19 19 16 20 17 21 20 22 18 24 11 26
REMARK SMILES IDX 12 27
REMARK H PARENT 6 15 20 23 18 25
REMARK Flexibility Score: inf
ROOT
ATOM      1  C   UNL     1     -18.970 -51.165  49.263  1.00  0.00     0.126 A 
ATOM      2  C   UNL     1     -19.216 -52.252  48.425  1.00  0.00     0.093 A 
ATOM      3  C   UNL     1     -20.111 -52.161  47.353  1.00  0.00     0.134 A 
ATOM      4  C   UNL     1     -20.849 -50.956  47.152  1.00  0.00     0.111 A 
ATOM      5  C   UNL     1     -20.570 -49.849  47.990  1.00  0.00     0.146 A 
ATOM      6  C   UNL     1     -19.640 -49.956  49.028  1.00  0.00     0.094 A 
ATOM      7  O   UNL     1     -21.188 -48.690  47.812  1.00  0.00    -0.452 OA
ATOM      8  C   UNL     1     -22.104 -48.484  46.874  1.00  0.00     0.180 A 
ATOM      9  C   UNL     1     -22.512 -49.542  46.039  1.00  0.00     0.210 A 
ATOM     10  C   UNL     1     -21.881 -50.798  46.194  1.00  0.00     0.239 A 
ATOM     11  O   UNL     1     -22.274 -51.781  45.514  1.00  0.00    -0.285 OA
ENDROOT
BRANCH   1  12
ATOM     12  O   UNL     1     -18.046 -51.323  50.307  1.00  0.00    -0.496 OA
ATOM     13  C   UNL     1     -17.931 -52.492  51.110  1.00  0.00     0.278 C 
ENDBRANCH   1  12
BRANCH   3  14
ATOM     14  O   UNL     1     -20.201 -53.277  46.517  1.00  0.00    -0.507 OA
ATOM     15  H   UNL     1     -19.799 -54.180  46.722  1.00  0.00     0.293 HD
ENDBRANCH   3  14
BRANCH   8  16
ATOM     16  C   UNL     1     -22.688 -47.128  46.765  1.00  0.00     0.025 A 
ATOM     17  C   UNL     1     -23.414 -46.599  47.842  1.00  0.00     0.062 A 
ATOM     18  C   UNL     1     -22.479 -46.332  45.627  1.00  0.00     0.016 A 
ATOM     19  C   UNL     1     -23.961 -45.310  47.781  1.00  0.00     0.158 A 
ATOM     20  C   UNL     1     -23.018 -45.047  45.556  1.00  0.00     0.051 A 
ATOM     21  C   UNL     1     -23.763 -44.525  46.619  1.00  0.00     0.157 A 
BRANCH  19  22
ATOM     22  O   UNL     1     -24.682 -44.854  48.885  1.00  0.00    -0.504 OA
ATOM     23  H   UNL     1     -24.962 -43.894  49.019  1.00  0.00     0.293 HD
ENDBRANCH  19  22
BRANCH  21  24
ATOM     24  O   UNL     1     -24.278 -43.234  46.484  1.00  0.00    -0.504 OA
ATOM     25  H   UNL     1     -24.207 -42.521  47.194  1.00  0.00     0.293 HD
ENDBRANCH  21  24
ENDBRANCH   8  16
BRANCH   9  26
ATOM     26  O   UNL     1     -23.553 -49.300  45.119  1.00  0.00    -0.490 OA
ATOM     27  C   UNL     1     -24.912 -49.704  45.248  1.00  0.00     0.278 C 
ENDBRANCH   9  26
TORSDOF 6
ENDMDL
