MODEL 1
REMARK VINA RESULT:    -4.239      0.000      0.000
REMARK INTER + INTRA:          -4.738
REMARK INTER:                  -4.487
REMARK INTRA:                  -0.251
REMARK UNBOUND:                -0.251
REMARK SMILES O=c1cc(-c2ccccc2)oc2ccccc12
REMARK SMILES IDX 4 1 3 2 2 3 1 4 17 5 16 6 15 7 14 8 13 9 12 10 11 11 5 12
REMARK SMILES IDX 8 13 7 14 9 15 6 16 10 17
REMARK H PARENT
REMARK Flexibility Score: inf
ROOT
ATOM      1  C   UNL     1      12.143  14.704  20.127  1.00  0.00     0.138 A 
ATOM      2  C   UNL     1      13.092  15.367  19.321  1.00  0.00     0.100 A 
ATOM      3  C   UNL     1      14.093  16.130  19.923  1.00  0.00     0.193 A 
ATOM      4  O   UNL     1      14.942  16.723  19.203  1.00  0.00    -0.289 OA
ATOM      5  C   UNL     1      14.141  16.227  21.321  1.00  0.00     0.065 A 
ATOM      6  C   UNL     1      15.123  16.980  21.991  1.00  0.00     0.016 A 
ATOM      7  C   UNL     1      15.124  17.043  23.389  1.00  0.00     0.001 A 
ATOM      8  C   UNL     1      14.151  16.359  24.124  1.00  0.00     0.004 A 
ATOM      9  C   UNL     1      13.173  15.609  23.467  1.00  0.00     0.048 A 
ATOM     10  C   UNL     1      13.161  15.539  22.069  1.00  0.00     0.138 A 
ATOM     11  O   UNL     1      12.227  14.823  21.453  1.00  0.00    -0.456 OA
ENDROOT
BRANCH   1  12
ATOM     12  C   UNL     1      11.039  13.866  19.563  1.00  0.00     0.017 A 
ATOM     13  C   UNL     1       8.968  12.223  18.574  1.00  0.00     0.000 A 
ATOM     14  C   UNL     1       9.327  13.383  17.888  1.00  0.00     0.001 A 
ATOM     15  C   UNL     1       9.633  11.875  19.749  1.00  0.00     0.001 A 
ATOM     16  C   UNL     1      10.352  14.200  18.374  1.00  0.00     0.012 A 
ATOM     17  C   UNL     1      10.660  12.687  20.241  1.00  0.00     0.012 A 
ENDBRANCH   1  12
TORSDOF 1
ENDMDL
MODEL 2
REMARK VINA RESULT:    -4.027      1.303      6.299
REMARK INTER + INTRA:          -4.513
REMARK INTER:                  -4.251
REMARK INTRA:                  -0.262
REMARK UNBOUND:                -0.251
REMARK SMILES O=c1cc(-c2ccccc2)oc2ccccc12
REMARK SMILES IDX 4 1 3 2 2 3 1 4 17 5 16 6 15 7 14 8 13 9 12 10 11 11 5 12
REMARK SMILES IDX 8 13 7 14 9 15 6 16 10 17
REMARK H PARENT
REMARK Flexibility Score: inf
ROOT
ATOM      1  C   UNL     1      12.262  14.566  21.709  1.00  0.00     0.138 A 
ATOM      2  C   UNL     1      11.634  13.615  22.540  1.00  0.00     0.100 A 
ATOM      3  C   UNL     1      10.708  12.726  21.993  1.00  0.00     0.193 A 
ATOM      4  O   UNL     1      10.147  11.876  22.736  1.00  0.00    -0.289 OA
ATOM      5  C   UNL     1      10.415  12.791  20.623  1.00  0.00     0.065 A 
ATOM      6  C   UNL     1       9.492  11.926  20.008  1.00  0.00     0.016 A 
ATOM      7  C   UNL     1       9.236  12.034  18.637  1.00  0.00     0.001 A 
ATOM      8  C   UNL     1       9.896  13.002  17.874  1.00  0.00     0.004 A 
ATOM      9  C   UNL     1      10.815  13.866  18.476  1.00  0.00     0.048 A 
ATOM     10  C   UNL     1      11.078  13.766  19.848  1.00  0.00     0.138 A 
ATOM     11  O   UNL     1      11.953  14.592  20.411  1.00  0.00    -0.456 OA
ENDROOT
BRANCH   1  12
ATOM     12  C   UNL     1      13.265  15.554  22.215  1.00  0.00     0.017 A 
ATOM     13  C   UNL     1      15.125  17.402  23.260  1.00  0.00     0.000 A 
ATOM     14  C   UNL     1      15.091  17.145  21.889  1.00  0.00     0.001 A 
ATOM     15  C   UNL     1      14.239  16.745  24.113  1.00  0.00     0.001 A 
ATOM     16  C   UNL     1      14.172  16.230  21.366  1.00  0.00     0.012 A 
ATOM     17  C   UNL     1      13.317  15.830  23.598  1.00  0.00     0.012 A 
ENDBRANCH   1  12
TORSDOF 1
ENDMDL
MODEL 3
REMARK VINA RESULT:    -3.571      1.510      2.738
REMARK INTER + INTRA:          -4.031
REMARK INTER:                  -3.767
REMARK INTRA:                  -0.264
REMARK UNBOUND:                -0.251
REMARK SMILES O=c1cc(-c2ccccc2)oc2ccccc12
REMARK SMILES IDX 4 1 3 2 2 3 1 4 17 5 16 6 15 7 14 8 13 9 12 10 11 11 5 12
REMARK SMILES IDX 8 13 7 14 9 15 6 16 10 17
REMARK H PARENT
REMARK Flexibility Score: inf
ROOT
ATOM      1  C   UNL     1      11.906  13.712  21.278  1.00  0.00     0.138 A 
ATOM      2  C   UNL     1      12.347  12.805  22.264  1.00  0.00     0.100 A 
ATOM      3  C   UNL     1      13.271  13.224  23.222  1.00  0.00     0.193 A 
ATOM      4  O   UNL     1      13.665  12.413  24.104  1.00  0.00    -0.289 OA
ATOM      5  C   UNL     1      13.748  14.542  23.190  1.00  0.00     0.065 A 
ATOM      6  C   UNL     1      14.681  15.028  24.125  1.00  0.00     0.016 A 
ATOM      7  C   UNL     1      15.125  16.353  24.047  1.00  0.00     0.001 A 
ATOM      8  C   UNL     1      14.644  17.197  23.041  1.00  0.00     0.004 A 
ATOM      9  C   UNL     1      13.718  16.722  22.109  1.00  0.00     0.048 A 
ATOM     10  C   UNL     1      13.267  15.398  22.177  1.00  0.00     0.138 A 
ATOM     11  O   UNL     1      12.387  14.957  21.286  1.00  0.00    -0.456 OA
ENDROOT
BRANCH   1  12
ATOM     12  C   UNL     1      10.918  13.344  20.217  1.00  0.00     0.017 A 
ATOM     13  C   UNL     1       9.078  12.733  18.165  1.00  0.00     0.000 A 
ATOM     14  C   UNL     1       9.218  11.875  19.257  1.00  0.00     0.001 A 
ATOM     15  C   UNL     1       9.849  13.892  18.088  1.00  0.00     0.001 A 
ATOM     16  C   UNL     1      10.128  12.174  20.275  1.00  0.00     0.012 A 
ATOM     17  C   UNL     1      10.760  14.197  19.104  1.00  0.00     0.012 A 
ENDBRANCH   1  12
TORSDOF 1
ENDMDL
MODEL 4
REMARK VINA RESULT:    -2.779      1.305      5.780
REMARK INTER + INTRA:          -3.192
REMARK INTER:                  -2.950
REMARK INTRA:                  -0.242
REMARK UNBOUND:                -0.251
REMARK SMILES O=c1cc(-c2ccccc2)oc2ccccc12
REMARK SMILES IDX 4 1 3 2 2 3 1 4 17 5 16 6 15 7 14 8 13 9 12 10 11 11 5 12
REMARK SMILES IDX 8 13 7 14 9 15 6 16 10 17
REMARK H PARENT
REMARK Flexibility Score: inf
ROOT
ATOM      1  C   UNL     1      12.895  14.857  20.913  1.00  0.00     0.138 A 
ATOM      2  C   UNL     1      13.182  15.053  19.546  1.00  0.00     0.100 A 
ATOM      3  C   UNL     1      12.417  14.396  18.581  1.00  0.00     0.193 A 
ATOM      4  O   UNL     1      12.673  14.571  17.359  1.00  0.00    -0.289 OA
ATOM      5  C   UNL     1      11.375  13.550  18.985  1.00  0.00     0.065 A 
ATOM      6  C   UNL     1      10.567  12.857  18.064  1.00  0.00     0.016 A 
ATOM      7  C   UNL     1       9.539  12.025  18.522  1.00  0.00     0.001 A 
ATOM      8  C   UNL     1       9.312  11.878  19.893  1.00  0.00     0.004 A 
ATOM      9  C   UNL     1      10.110  12.561  20.814  1.00  0.00     0.048 A 
ATOM     10  C   UNL     1      11.141  13.397  20.368  1.00  0.00     0.138 A 
ATOM     11  O   UNL     1      11.893  14.043  21.252  1.00  0.00    -0.456 OA
ENDROOT
BRANCH   1  12
ATOM     12  C   UNL     1      13.664  15.522  22.010  1.00  0.00     0.017 A 
ATOM     13  C   UNL     1      15.125  16.691  24.124  1.00  0.00     0.000 A 
ATOM     14  C   UNL     1      14.656  17.484  23.077  1.00  0.00     0.001 A 
ATOM     15  C   UNL     1      14.872  15.320  24.125  1.00  0.00     0.001 A 
ATOM     16  C   UNL     1      13.932  16.910  22.028  1.00  0.00     0.012 A 
ATOM     17  C   UNL     1      14.148  14.739  23.079  1.00  0.00     0.012 A 
ENDBRANCH   1  12
TORSDOF 1
ENDMDL
