MODEL 1
REMARK VINA RESULT:    -3.992      0.000      0.000
REMARK INTER + INTRA:          -5.877
REMARK INTER:                  -5.392
REMARK INTRA:                  -0.485
REMARK UNBOUND:                -0.485
REMARK SMILES CCCCCCCC(=O)[O-]
REMARK SMILES IDX 5 1 6 2 7 3 8 4 9 5 10 6 4 7 3 8 2 9 1 10
REMARK H PARENT
REMARK Flexibility Score: inf
ROOT
ATOM      1  C   UNL     1       2.115  22.780  24.806  1.00  0.00     0.000 C 
ENDROOT
BRANCH   1   2
ATOM      2  C   UNL     1       1.920  23.955  25.780  1.00  0.00     0.006 C 
BRANCH   2   3
ATOM      3  C   UNL     1       1.015  25.047  25.195  1.00  0.00     0.053 C 
BRANCH   3   4
ATOM      4  C   UNL     1      -0.067  25.444  26.152  1.00  0.00     0.041 C 
ATOM      5  O   UNL     1      -0.135  26.627  26.578  1.00  0.00    -0.550 OA
ATOM      6  O   UNL     1      -0.986  24.500  26.595  1.00  0.00    -0.550 OA
ENDBRANCH   3   4
ENDBRANCH   2   3
ENDBRANCH   1   2
BRANCH   1   7
ATOM      7  C   UNL     1       1.120  22.812  23.633  1.00  0.00     0.000 C 
BRANCH   7   8
ATOM      8  C   UNL     1       1.819  22.739  22.264  1.00  0.00    -0.000 C 
BRANCH   8   9
ATOM      9  C   UNL     1       2.780  23.915  22.031  1.00  0.00    -0.003 C 
ATOM     10  C   UNL     1       2.052  25.230  21.748  1.00  0.00     0.004 C 
ENDBRANCH   8   9
ENDBRANCH   7   8
ENDBRANCH   1   7
TORSDOF 6
ENDMDL
MODEL 2
REMARK VINA RESULT:    -3.693      1.516      2.497
REMARK INTER + INTRA:          -5.473
REMARK INTER:                  -5.093
REMARK INTRA:                  -0.380
REMARK UNBOUND:                -0.485
REMARK SMILES CCCCCCCC(=O)[O-]
REMARK SMILES IDX 5 1 6 2 7 3 8 4 9 5 10 6 4 7 3 8 2 9 1 10
REMARK H PARENT
REMARK Flexibility Score: inf
ROOT
ATOM      1  C   UNL     1       1.520  25.310  24.208  1.00  0.00     0.000 C 
ENDROOT
BRANCH   1   2
ATOM      2  C   UNL     1       0.594  25.093  25.417  1.00  0.00     0.006 C 
BRANCH   2   3
ATOM      3  C   UNL     1       1.010  23.876  26.253  1.00  0.00     0.053 C 
BRANCH   3   4
ATOM      4  C   UNL     1      -0.177  23.108  26.747  1.00  0.00     0.041 C 
ATOM      5  O   UNL     1      -0.066  21.889  27.043  1.00  0.00    -0.550 OA
ATOM      6  O   UNL     1      -1.414  23.731  26.852  1.00  0.00    -0.550 OA
ENDBRANCH   3   4
ENDBRANCH   2   3
ENDBRANCH   1   2
BRANCH   1   7
ATOM      7  C   UNL     1       2.709  24.336  24.190  1.00  0.00     0.000 C 
BRANCH   7   8
ATOM      8  C   UNL     1       3.163  23.982  22.763  1.00  0.00    -0.000 C 
BRANCH   8   9
ATOM      9  C   UNL     1       2.023  23.404  21.910  1.00  0.00    -0.003 C 
ATOM     10  C   UNL     1       1.434  22.121  22.498  1.00  0.00     0.004 C 
ENDBRANCH   8   9
ENDBRANCH   7   8
ENDBRANCH   1   7
TORSDOF 6
ENDMDL
MODEL 3
REMARK VINA RESULT:    -3.652      2.631      4.490
REMARK INTER + INTRA:          -5.418
REMARK INTER:                  -5.004
REMARK INTRA:                  -0.414
REMARK UNBOUND:                -0.485
REMARK SMILES CCCCCCCC(=O)[O-]
REMARK SMILES IDX 5 1 6 2 7 3 8 4 9 5 10 6 4 7 3 8 2 9 1 10
REMARK H PARENT
REMARK Flexibility Score: inf
ROOT
ATOM      1  C   UNL     1       1.906  22.668  24.888  1.00  0.00     0.000 C 
ENDROOT
BRANCH   1   2
ATOM      2  C   UNL     1       1.120  22.903  23.587  1.00  0.00     0.006 C 
BRANCH   2   3
ATOM      3  C   UNL     1       2.044  23.039  22.370  1.00  0.00     0.053 C 
BRANCH   3   4
ATOM      4  C   UNL     1       2.874  24.285  22.437  1.00  0.00     0.041 C 
ATOM      5  O   UNL     1       4.051  24.240  22.882  1.00  0.00    -0.550 OA
ATOM      6  O   UNL     1       2.336  25.501  22.035  1.00  0.00    -0.550 OA
ENDBRANCH   3   4
ENDBRANCH   2   3
ENDBRANCH   1   2
BRANCH   1   7
ATOM      7  C   UNL     1       1.644  23.756  25.943  1.00  0.00     0.000 C 
BRANCH   7   8
ATOM      8  C   UNL     1       0.852  24.949  25.379  1.00  0.00    -0.000 C 
BRANCH   8   9
ATOM      9  C   UNL     1      -0.414  25.252  26.194  1.00  0.00    -0.003 C 
ATOM     10  C   UNL     1      -0.992  24.012  26.876  1.00  0.00     0.004 C 
ENDBRANCH   8   9
ENDBRANCH   7   8
ENDBRANCH   1   7
TORSDOF 6
ENDMDL
MODEL 4
REMARK VINA RESULT:    -3.477      1.542      1.980
REMARK INTER + INTRA:          -5.182
REMARK INTER:                  -4.874
REMARK INTRA:                  -0.308
REMARK UNBOUND:                -0.485
REMARK SMILES CCCCCCCC(=O)[O-]
REMARK SMILES IDX 5 1 6 2 7 3 8 4 9 5 10 6 4 7 3 8 2 9 1 10
REMARK H PARENT
REMARK Flexibility Score: inf
ROOT
ATOM      1  C   UNL     1       1.454  22.896  23.572  1.00  0.00     0.000 C 
ENDROOT
BRANCH   1   2
ATOM      2  C   UNL     1       0.839  23.192  24.951  1.00  0.00     0.006 C 
BRANCH   2   3
ATOM      3  C   UNL     1       0.999  24.665  25.351  1.00  0.00     0.053 C 
BRANCH   3   4
ATOM      4  C   UNL     1      -0.154  25.145  26.177  1.00  0.00     0.041 C 
ATOM      5  O   UNL     1      -0.195  26.338  26.577  1.00  0.00    -0.550 OA
ATOM      6  O   UNL     1      -1.171  24.266  26.530  1.00  0.00    -0.550 OA
ENDBRANCH   3   4
ENDBRANCH   2   3
ENDBRANCH   1   2
BRANCH   1   7
ATOM      7  C   UNL     1       2.032  24.152  22.899  1.00  0.00     0.000 C 
BRANCH   7   8
ATOM      8  C   UNL     1       3.554  24.061  22.687  1.00  0.00    -0.000 C 
BRANCH   8   9
ATOM      9  C   UNL     1       4.337  24.125  24.007  1.00  0.00    -0.003 C 
ATOM     10  C   UNL     1       5.852  24.120  23.799  1.00  0.00     0.004 C 
ENDBRANCH   8   9
ENDBRANCH   7   8
ENDBRANCH   1   7
TORSDOF 6
ENDMDL
MODEL 5
REMARK VINA RESULT:    -3.470      3.416      3.803
REMARK INTER + INTRA:          -5.172
REMARK INTER:                  -4.640
REMARK INTRA:                  -0.532
REMARK UNBOUND:                -0.485
REMARK SMILES CCCCCCCC(=O)[O-]
REMARK SMILES IDX 5 1 6 2 7 3 8 4 9 5 10 6 4 7 3 8 2 9 1 10
REMARK H PARENT
REMARK Flexibility Score: inf
ROOT
ATOM      1  C   UNL     1       1.879  22.597  25.399  1.00  0.00     0.000 C 
ENDROOT
BRANCH   1   2
ATOM      2  C   UNL     1       3.210  23.033  26.036  1.00  0.00     0.006 C 
BRANCH   2   3
ATOM      3  C   UNL     1       3.821  24.247  25.324  1.00  0.00     0.053 C 
BRANCH   3   4
ATOM      4  C   UNL     1       5.176  23.939  24.765  1.00  0.00     0.041 C 
ATOM      5  O   UNL     1       5.415  24.123  23.543  1.00  0.00    -0.550 OA
ATOM      6  O   UNL     1       6.168  23.422  25.590  1.00  0.00    -0.550 OA
ENDBRANCH   3   4
ENDBRANCH   2   3
ENDBRANCH   1   2
BRANCH   1   7
ATOM      7  C   UNL     1       1.478  23.477  24.204  1.00  0.00     0.000 C 
BRANCH   7   8
ATOM      8  C   UNL     1       1.643  22.753  22.855  1.00  0.00    -0.000 C 
BRANCH   8   9
ATOM      9  C   UNL     1       2.343  23.625  21.802  1.00  0.00    -0.003 C 
ATOM     10  C   UNL     1       2.258  25.119  22.117  1.00  0.00     0.004 C 
ENDBRANCH   8   9
ENDBRANCH   7   8
ENDBRANCH   1   7
TORSDOF 6
ENDMDL
MODEL 6
REMARK VINA RESULT:    -3.426      1.099      1.691
REMARK INTER + INTRA:          -5.112
REMARK INTER:                  -4.695
REMARK INTRA:                  -0.417
REMARK UNBOUND:                -0.485
REMARK SMILES CCCCCCCC(=O)[O-]
REMARK SMILES IDX 5 1 6 2 7 3 8 4 9 5 10 6 4 7 3 8 2 9 1 10
REMARK H PARENT
REMARK Flexibility Score: inf
ROOT
ATOM      1  C   UNL     1       3.247  23.716  25.343  1.00  0.00     0.000 C 
ENDROOT
BRANCH   1   2
ATOM      2  C   UNL     1       1.748  23.436  25.546  1.00  0.00     0.006 C 
BRANCH   2   3
ATOM      3  C   UNL     1       1.146  24.299  26.663  1.00  0.00     0.053 C 
BRANCH   3   4
ATOM      4  C   UNL     1       0.017  25.147  26.163  1.00  0.00     0.041 C 
ATOM      5  O   UNL     1       0.251  26.250  25.604  1.00  0.00    -0.550 OA
ATOM      6  O   UNL     1      -1.297  24.730  26.340  1.00  0.00    -0.550 OA
ENDBRANCH   3   4
ENDBRANCH   2   3
ENDBRANCH   1   2
BRANCH   1   7
ATOM      7  C   UNL     1       3.580  24.144  23.903  1.00  0.00     0.000 C 
BRANCH   7   8
ATOM      8  C   UNL     1       2.325  24.507  23.090  1.00  0.00    -0.000 C 
BRANCH   8   9
ATOM      9  C   UNL     1       2.170  23.641  21.830  1.00  0.00    -0.003 C 
ATOM     10  C   UNL     1       1.522  22.286  22.116  1.00  0.00     0.004 C 
ENDBRANCH   8   9
ENDBRANCH   7   8
ENDBRANCH   1   7
TORSDOF 6
ENDMDL
MODEL 7
REMARK VINA RESULT:    -3.366     18.405     19.462
REMARK INTER + INTRA:          -5.031
REMARK INTER:                  -4.660
REMARK INTRA:                  -0.372
REMARK UNBOUND:                -0.485
REMARK SMILES CCCCCCCC(=O)[O-]
REMARK SMILES IDX 5 1 6 2 7 3 8 4 9 5 10 6 4 7 3 8 2 9 1 10
REMARK H PARENT
REMARK Flexibility Score: inf
ROOT
ATOM      1  C   UNL     1     -10.853  24.001  10.748  1.00  0.00     0.000 C 
ENDROOT
BRANCH   1   2
ATOM      2  C   UNL     1     -12.311  23.782  10.309  1.00  0.00     0.006 C 
BRANCH   2   3
ATOM      3  C   UNL     1     -12.406  23.155   8.911  1.00  0.00     0.053 C 
BRANCH   3   4
ATOM      4  C   UNL     1     -11.831  24.053   7.859  1.00  0.00     0.041 C 
ATOM      5  O   UNL     1     -12.263  25.228   7.722  1.00  0.00    -0.550 OA
ATOM      6  O   UNL     1     -10.837  23.582   7.010  1.00  0.00    -0.550 OA
ENDBRANCH   3   4
ENDBRANCH   2   3
ENDBRANCH   1   2
BRANCH   1   7
ATOM      7  C   UNL     1     -10.603  23.581  12.206  1.00  0.00     0.000 C 
BRANCH   7   8
ATOM      8  C   UNL     1     -11.587  22.500  12.686  1.00  0.00    -0.000 C 
BRANCH   8   9
ATOM      9  C   UNL     1     -12.265  22.870  14.014  1.00  0.00    -0.003 C 
ATOM     10  C   UNL     1     -11.586  24.044  14.720  1.00  0.00     0.004 C 
ENDBRANCH   8   9
ENDBRANCH   7   8
ENDBRANCH   1   7
TORSDOF 6
ENDMDL
MODEL 8
REMARK VINA RESULT:    -3.122      3.789      4.842
REMARK INTER + INTRA:          -4.702
REMARK INTER:                  -4.376
REMARK INTRA:                  -0.326
REMARK UNBOUND:                -0.485
REMARK SMILES CCCCCCCC(=O)[O-]
REMARK SMILES IDX 5 1 6 2 7 3 8 4 9 5 10 6 4 7 3 8 2 9 1 10
REMARK H PARENT
REMARK Flexibility Score: inf
ROOT
ATOM      1  C   UNL     1       2.194  24.117  23.088  1.00  0.00     0.000 C 
ENDROOT
BRANCH   1   2
ATOM      2  C   UNL     1       3.723  24.263  23.006  1.00  0.00     0.006 C 
BRANCH   2   3
ATOM      3  C   UNL     1       4.400  24.016  24.361  1.00  0.00     0.053 C 
BRANCH   3   4
ATOM      4  C   UNL     1       5.889  24.150  24.271  1.00  0.00     0.041 C 
ATOM      5  O   UNL     1       6.404  25.126  23.666  1.00  0.00    -0.550 OA
ATOM      6  O   UNL     1       6.710  23.179  24.833  1.00  0.00    -0.550 OA
ENDBRANCH   3   4
ENDBRANCH   2   3
ENDBRANCH   1   2
BRANCH   1   7
ATOM      7  C   UNL     1       1.758  22.908  23.932  1.00  0.00     0.000 C 
BRANCH   7   8
ATOM      8  C   UNL     1       0.797  23.297  25.070  1.00  0.00    -0.000 C 
BRANCH   8   9
ATOM      9  C   UNL     1       1.145  24.658  25.693  1.00  0.00    -0.003 C 
ATOM     10  C   UNL     1      -0.059  25.598  25.774  1.00  0.00     0.004 C 
ENDBRANCH   8   9
ENDBRANCH   7   8
ENDBRANCH   1   7
TORSDOF 6
ENDMDL
MODEL 9
REMARK VINA RESULT:    -1.827     17.630     18.565
REMARK INTER + INTRA:          -2.953
REMARK INTER:                  -2.660
REMARK INTRA:                  -0.293
REMARK UNBOUND:                -0.485
REMARK SMILES CCCCCCCC(=O)[O-]
REMARK SMILES IDX 5 1 6 2 7 3 8 4 9 5 10 6 4 7 3 8 2 9 1 10
REMARK H PARENT
REMARK Flexibility Score: inf
ROOT
ATOM      1  C   UNL     1     -10.942  23.994  10.756  1.00  0.00     0.000 C 
ENDROOT
BRANCH   1   2
ATOM      2  C   UNL     1     -10.614  23.528  12.186  1.00  0.00     0.006 C 
BRANCH   2   3
ATOM      3  C   UNL     1     -11.632  22.506  12.709  1.00  0.00     0.053 C 
BRANCH   3   4
ATOM      4  C   UNL     1     -12.069  22.822  14.106  1.00  0.00     0.041 C 
ATOM      5  O   UNL     1     -12.807  22.021  14.737  1.00  0.00    -0.550 OA
ATOM      6  O   UNL     1     -11.682  24.016  14.703  1.00  0.00    -0.550 OA
ENDBRANCH   3   4
ENDBRANCH   2   3
ENDBRANCH   1   2
BRANCH   1   7
ATOM      7  C   UNL     1     -12.377  23.641  10.333  1.00  0.00     0.000 C 
BRANCH   7   8
ATOM      8  C   UNL     1     -12.522  23.482   8.809  1.00  0.00    -0.000 C 
BRANCH   8   9
ATOM      9  C   UNL     1     -11.538  24.367   8.030  1.00  0.00    -0.003 C 
ATOM     10  C   UNL     1     -10.861  23.628   6.875  1.00  0.00     0.004 C 
ENDBRANCH   8   9
ENDBRANCH   7   8
ENDBRANCH   1   7
TORSDOF 6
ENDMDL
