MODEL 1
REMARK VINA RESULT:    -3.752      0.000      0.000
REMARK INTER + INTRA:         -15.137
REMARK INTER:                  -9.893
REMARK INTRA:                  -5.243
REMARK UNBOUND:                -5.243
REMARK SMILES CCCCCCCCCCCCCCCCCCCCCCCCCCCCCC(=O)[O-]
REMARK SMILES IDX 16 1 17 2 18 3 19 4 20 5 21 6 22 7 23 8 24 9 25 10 26 11
REMARK SMILES IDX 27 12 28 13 29 14 30 15 31 16 32 17 15 18 14 19 13 20 12 21
REMARK SMILES IDX 11 22 10 23 9 24 8 25 7 26 6 27 5 28 4 29 3 30 2 31 1 32
REMARK H PARENT
REMARK Flexibility Score: inf
ROOT
ATOM      1  C   UNL     1       7.032   7.527  -1.828  1.00  0.00     0.000 C 
ENDROOT
BRANCH   1   2
ATOM      2  C   UNL     1       7.177   6.552  -3.009  1.00  0.00     0.000 C 
BRANCH   2   3
ATOM      3  C   UNL     1       7.447   5.103  -2.566  1.00  0.00     0.000 C 
BRANCH   3   4
ATOM      4  C   UNL     1       7.432   4.877  -1.042  1.00  0.00     0.000 C 
BRANCH   4   5
ATOM      5  C   UNL     1       8.816   4.700  -0.392  1.00  0.00     0.000 C 
BRANCH   5   6
ATOM      6  C   UNL     1       9.918   4.189  -1.336  1.00  0.00     0.000 C 
BRANCH   6   7
ATOM      7  C   UNL     1      11.067   5.195  -1.563  1.00  0.00     0.000 C 
BRANCH   7   8
ATOM      8  C   UNL     1      11.040   6.367  -0.563  1.00  0.00     0.000 C 
BRANCH   8   9
ATOM      9  C   UNL     1      10.634   7.698  -1.235  1.00  0.00     0.000 C 
BRANCH   9  10
ATOM     10  C   UNL     1      10.438   8.850  -0.231  1.00  0.00     0.000 C 
BRANCH  10  11
ATOM     11  C   UNL     1       9.365   8.583   0.840  1.00  0.00     0.000 C 
BRANCH  11  12
ATOM     12  C   UNL     1       9.968   8.398   2.242  1.00  0.00     0.000 C 
BRANCH  12  13
ATOM     13  C   UNL     1       9.203   7.345   3.066  1.00  0.00     0.006 C 
BRANCH  13  14
ATOM     14  C   UNL     1       9.772   5.924   2.917  1.00  0.00     0.053 C 
BRANCH  14  15
ATOM     15  C   UNL     1       9.786   5.197   4.229  1.00  0.00     0.041 C 
ATOM     16  O   UNL     1      10.388   4.096   4.341  1.00  0.00    -0.550 OA
ATOM     17  O   UNL     1       9.107   5.726   5.320  1.00  0.00    -0.550 OA
ENDBRANCH  14  15
ENDBRANCH  13  14
ENDBRANCH  12  13
ENDBRANCH  11  12
ENDBRANCH  10  11
ENDBRANCH   9  10
ENDBRANCH   8   9
ENDBRANCH   7   8
ENDBRANCH   6   7
ENDBRANCH   5   6
ENDBRANCH   4   5
ENDBRANCH   3   4
ENDBRANCH   2   3
ENDBRANCH   1   2
BRANCH   1  18
ATOM     18  C   UNL     1       5.797   8.434  -1.952  1.00  0.00     0.000 C 
BRANCH  18  19
ATOM     19  C   UNL     1       6.161   9.927  -2.061  1.00  0.00     0.000 C 
BRANCH  19  20
ATOM     20  C   UNL     1       7.683  10.178  -2.128  1.00  0.00     0.000 C 
BRANCH  20  21
ATOM     21  C   UNL     1       8.200  10.574  -3.527  1.00  0.00     0.000 C 
BRANCH  21  22
ATOM     22  C   UNL     1       9.160   9.570  -4.192  1.00  0.00     0.000 C 
BRANCH  22  23
ATOM     23  C   UNL     1       8.554   8.729  -5.334  1.00  0.00     0.000 C 
BRANCH  23  24
ATOM     24  C   UNL     1       9.214   9.018  -6.693  1.00  0.00    -0.000 C 
BRANCH  24  25
ATOM     25  C   UNL     1       8.225   8.956  -7.871  1.00  0.00    -0.000 C 
BRANCH  25  26
ATOM     26  C   UNL     1       8.756   8.255  -9.134  1.00  0.00    -0.000 C 
BRANCH  26  27
ATOM     27  C   UNL     1       7.943   7.007  -9.521  1.00  0.00    -0.000 C 
BRANCH  27  28
ATOM     28  C   UNL     1       7.152   6.419  -8.338  1.00  0.00    -0.000 C 
BRANCH  28  29
ATOM     29  C   UNL     1       7.727   5.113  -7.759  1.00  0.00    -0.000 C 
BRANCH  29  30
ATOM     30  C   UNL     1       8.233   5.271  -6.319  1.00  0.00    -0.000 C 
BRANCH  30  31
ATOM     31  C   UNL     1       9.730   4.955  -6.225  1.00  0.00    -0.003 C 
ATOM     32  C   UNL     1      10.319   5.464  -4.915  1.00  0.00     0.004 C 
ENDBRANCH  30  31
ENDBRANCH  29  30
ENDBRANCH  28  29
ENDBRANCH  27  28
ENDBRANCH  26  27
ENDBRANCH  25  26
ENDBRANCH  24  25
ENDBRANCH  23  24
ENDBRANCH  22  23
ENDBRANCH  21  22
ENDBRANCH  20  21
ENDBRANCH  19  20
ENDBRANCH  18  19
ENDBRANCH   1  18
TORSDOF 28
ENDMDL
MODEL 2
REMARK VINA RESULT:    -3.646     15.763     18.307
REMARK INTER + INTRA:         -14.859
REMARK INTER:                 -10.370
REMARK INTRA:                  -4.489
REMARK UNBOUND:                -5.243
REMARK SMILES CCCCCCCCCCCCCCCCCCCCCCCCCCCCCC(=O)[O-]
REMARK SMILES IDX 16 1 17 2 18 3 19 4 20 5 21 6 22 7 23 8 24 9 25 10 26 11
REMARK SMILES IDX 27 12 28 13 29 14 30 15 31 16 32 17 15 18 14 19 13 20 12 21
REMARK SMILES IDX 11 22 10 23 9 24 8 25 7 26 6 27 5 28 4 29 3 30 2 31 1 32
REMARK H PARENT
REMARK Flexibility Score: inf
ROOT
ATOM      1  C   UNL     1      -7.313  -0.022  -5.248  1.00  0.00     0.000 C 
ENDROOT
BRANCH   1   2
ATOM      2  C   UNL     1      -7.545  -1.486  -5.663  1.00  0.00     0.000 C 
BRANCH   2   3
ATOM      3  C   UNL     1      -8.541  -1.632  -6.827  1.00  0.00     0.000 C 
BRANCH   3   4
ATOM      4  C   UNL     1      -8.055  -2.517  -7.991  1.00  0.00     0.000 C 
BRANCH   4   5
ATOM      5  C   UNL     1      -7.595  -1.755  -9.247  1.00  0.00     0.000 C 
BRANCH   5   6
ATOM      6  C   UNL     1      -6.176  -2.099  -9.734  1.00  0.00     0.000 C 
BRANCH   6   7
ATOM      7  C   UNL     1      -5.121  -2.149  -8.608  1.00  0.00     0.000 C 
BRANCH   7   8
ATOM      8  C   UNL     1      -4.147  -3.332  -8.754  1.00  0.00     0.000 C 
BRANCH   8   9
ATOM      9  C   UNL     1      -4.493  -4.495  -7.798  1.00  0.00     0.000 C 
BRANCH   9  10
ATOM     10  C   UNL     1      -4.948  -4.022  -6.404  1.00  0.00     0.000 C 
BRANCH  10  11
ATOM     11  C   UNL     1      -6.110  -4.836  -5.805  1.00  0.00     0.000 C 
BRANCH  11  12
ATOM     12  C   UNL     1      -6.573  -5.969  -6.736  1.00  0.00     0.000 C 
BRANCH  12  13
ATOM     13  C   UNL     1      -6.875  -7.266  -5.962  1.00  0.00     0.006 C 
BRANCH  13  14
ATOM     14  C   UNL     1      -7.837  -7.061  -4.780  1.00  0.00     0.053 C 
BRANCH  14  15
ATOM     15  C   UNL     1      -7.497  -7.963  -3.631  1.00  0.00     0.041 C 
ATOM     16  O   UNL     1      -8.174  -7.926  -2.569  1.00  0.00    -0.550 OA
ATOM     17  O   UNL     1      -6.411  -8.824  -3.726  1.00  0.00    -0.550 OA
ENDBRANCH  14  15
ENDBRANCH  13  14
ENDBRANCH  12  13
ENDBRANCH  11  12
ENDBRANCH  10  11
ENDBRANCH   9  10
ENDBRANCH   8   9
ENDBRANCH   7   8
ENDBRANCH   6   7
ENDBRANCH   5   6
ENDBRANCH   4   5
ENDBRANCH   3   4
ENDBRANCH   2   3
ENDBRANCH   1   2
BRANCH   1  18
ATOM     18  C   UNL     1      -7.549   0.969  -6.399  1.00  0.00     0.000 C 
BRANCH  18  19
ATOM     19  C   UNL     1      -6.236   1.486  -7.019  1.00  0.00     0.000 C 
BRANCH  19  20
ATOM     20  C   UNL     1      -6.329   1.703  -8.545  1.00  0.00     0.000 C 
BRANCH  20  21
ATOM     21  C   UNL     1      -5.028   2.221  -9.193  1.00  0.00     0.000 C 
BRANCH  21  22
ATOM     22  C   UNL     1      -4.019   1.139  -9.620  1.00  0.00     0.000 C 
BRANCH  22  23
ATOM     23  C   UNL     1      -2.824   0.933  -8.667  1.00  0.00     0.000 C 
BRANCH  23  24
ATOM     24  C   UNL     1      -1.872  -0.176  -9.146  1.00  0.00    -0.000 C 
BRANCH  24  25
ATOM     25  C   UNL     1      -1.212  -0.948  -7.988  1.00  0.00    -0.000 C 
BRANCH  25  26
ATOM     26  C   UNL     1      -0.365  -2.162  -8.413  1.00  0.00    -0.000 C 
BRANCH  26  27
ATOM     27  C   UNL     1      -0.368  -3.294  -7.372  1.00  0.00    -0.000 C 
BRANCH  27  28
ATOM     28  C   UNL     1       0.818  -4.262  -7.536  1.00  0.00    -0.000 C 
BRANCH  28  29
ATOM     29  C   UNL     1       0.968  -5.302  -6.411  1.00  0.00    -0.000 C 
BRANCH  29  30
ATOM     30  C   UNL     1       0.114  -6.556  -6.641  1.00  0.00    -0.000 C 
BRANCH  30  31
ATOM     31  C   UNL     1      -0.124  -6.791  -8.137  1.00  0.00    -0.003 C 
ATOM     32  C   UNL     1      -1.608  -6.970  -8.437  1.00  0.00     0.004 C 
ENDBRANCH  30  31
ENDBRANCH  29  30
ENDBRANCH  28  29
ENDBRANCH  27  28
ENDBRANCH  26  27
ENDBRANCH  25  26
ENDBRANCH  24  25
ENDBRANCH  23  24
ENDBRANCH  22  23
ENDBRANCH  21  22
ENDBRANCH  20  21
ENDBRANCH  19  20
ENDBRANCH  18  19
ENDBRANCH   1  18
TORSDOF 28
ENDMDL
MODEL 3
REMARK VINA RESULT:    -3.552      2.173      3.417
REMARK INTER + INTRA:         -14.609
REMARK INTER:                 -10.883
REMARK INTRA:                  -3.725
REMARK UNBOUND:                -5.243
REMARK SMILES CCCCCCCCCCCCCCCCCCCCCCCCCCCCCC(=O)[O-]
REMARK SMILES IDX 16 1 17 2 18 3 19 4 20 5 21 6 22 7 23 8 24 9 25 10 26 11
REMARK SMILES IDX 27 12 28 13 29 14 30 15 31 16 32 17 15 18 14 19 13 20 12 21
REMARK SMILES IDX 11 22 10 23 9 24 8 25 7 26 6 27 5 28 4 29 3 30 2 31 1 32
REMARK H PARENT
REMARK Flexibility Score: inf
ROOT
ATOM      1  C   UNL     1       6.943   7.372  -1.808  1.00  0.00     0.000 C 
ENDROOT
BRANCH   1   2
ATOM      2  C   UNL     1       6.996   6.520  -3.088  1.00  0.00     0.000 C 
BRANCH   2   3
ATOM      3  C   UNL     1       7.314   5.039  -2.815  1.00  0.00     0.000 C 
BRANCH   3   4
ATOM      4  C   UNL     1       7.766   4.728  -1.375  1.00  0.00     0.000 C 
BRANCH   4   5
ATOM      5  C   UNL     1       9.256   4.370  -1.220  1.00  0.00     0.000 C 
BRANCH   5   6
ATOM      6  C   UNL     1      10.213   5.573  -1.175  1.00  0.00     0.000 C 
BRANCH   6   7
ATOM      7  C   UNL     1       9.812   6.656  -0.150  1.00  0.00     0.000 C 
BRANCH   7   8
ATOM      8  C   UNL     1       9.352   6.064   1.195  1.00  0.00     0.000 C 
BRANCH   8   9
ATOM      9  C   UNL     1       9.283   7.131   2.310  1.00  0.00     0.000 C 
BRANCH   9  10
ATOM     10  C   UNL     1       9.672   6.586   3.698  1.00  0.00     0.000 C 
BRANCH  10  11
ATOM     11  C   UNL     1       9.438   7.574   4.856  1.00  0.00     0.000 C 
BRANCH  11  12
ATOM     12  C   UNL     1       9.319   9.028   4.371  1.00  0.00     0.000 C 
BRANCH  12  13
ATOM     13  C   UNL     1       8.319   9.839   5.218  1.00  0.00     0.006 C 
BRANCH  13  14
ATOM     14  C   UNL     1       8.346   9.472   6.710  1.00  0.00     0.053 C 
BRANCH  14  15
ATOM     15  C   UNL     1       7.041   9.786   7.379  1.00  0.00     0.041 C 
ATOM     16  O   UNL     1       6.163  10.461   6.778  1.00  0.00    -0.550 OA
ATOM     17  O   UNL     1       6.809   9.353   8.679  1.00  0.00    -0.550 OA
ENDBRANCH  14  15
ENDBRANCH  13  14
ENDBRANCH  12  13
ENDBRANCH  11  12
ENDBRANCH  10  11
ENDBRANCH   9  10
ENDBRANCH   8   9
ENDBRANCH   7   8
ENDBRANCH   6   7
ENDBRANCH   5   6
ENDBRANCH   4   5
ENDBRANCH   3   4
ENDBRANCH   2   3
ENDBRANCH   1   2
BRANCH   1  18
ATOM     18  C   UNL     1       5.872   8.474  -1.869  1.00  0.00     0.000 C 
BRANCH  18  19
ATOM     19  C   UNL     1       6.439   9.875  -1.570  1.00  0.00     0.000 C 
BRANCH  19  20
ATOM     20  C   UNL     1       7.915   9.850  -1.121  1.00  0.00     0.000 C 
BRANCH  20  21
ATOM     21  C   UNL     1       8.908  10.382  -2.175  1.00  0.00     0.000 C 
BRANCH  21  22
ATOM     22  C   UNL     1       8.400  10.385  -3.629  1.00  0.00     0.000 C 
BRANCH  22  23
ATOM     23  C   UNL     1       9.306   9.665  -4.650  1.00  0.00     0.000 C 
BRANCH  23  24
ATOM     24  C   UNL     1       9.890   8.354  -4.098  1.00  0.00    -0.000 C 
BRANCH  24  25
ATOM     25  C   UNL     1      10.386   7.401  -5.202  1.00  0.00    -0.000 C 
BRANCH  25  26
ATOM     26  C   UNL     1      10.272   5.902  -4.870  1.00  0.00    -0.000 C 
BRANCH  26  27
ATOM     27  C   UNL     1       9.814   5.052  -6.067  1.00  0.00    -0.000 C 
BRANCH  27  28
ATOM     28  C   UNL     1       8.285   5.043  -6.244  1.00  0.00    -0.000 C 
BRANCH  28  29
ATOM     29  C   UNL     1       7.802   5.033  -7.707  1.00  0.00    -0.000 C 
BRANCH  29  30
ATOM     30  C   UNL     1       7.248   6.391  -8.160  1.00  0.00    -0.000 C 
BRANCH  30  31
ATOM     31  C   UNL     1       8.242   7.109  -9.080  1.00  0.00    -0.003 C 
ATOM     32  C   UNL     1       9.242   6.129  -9.683  1.00  0.00     0.004 C 
ENDBRANCH  30  31
ENDBRANCH  29  30
ENDBRANCH  28  29
ENDBRANCH  27  28
ENDBRANCH  26  27
ENDBRANCH  25  26
ENDBRANCH  24  25
ENDBRANCH  23  24
ENDBRANCH  22  23
ENDBRANCH  21  22
ENDBRANCH  20  21
ENDBRANCH  19  20
ENDBRANCH  18  19
ENDBRANCH   1  18
TORSDOF 28
ENDMDL
MODEL 4
REMARK VINA RESULT:    -3.469      2.664      3.412
REMARK INTER + INTRA:         -14.390
REMARK INTER:                 -11.091
REMARK INTRA:                  -3.299
REMARK UNBOUND:                -5.243
REMARK SMILES CCCCCCCCCCCCCCCCCCCCCCCCCCCCCC(=O)[O-]
REMARK SMILES IDX 16 1 17 2 18 3 19 4 20 5 21 6 22 7 23 8 24 9 25 10 26 11
REMARK SMILES IDX 27 12 28 13 29 14 30 15 31 16 32 17 15 18 14 19 13 20 12 21
REMARK SMILES IDX 11 22 10 23 9 24 8 25 7 26 6 27 5 28 4 29 3 30 2 31 1 32
REMARK H PARENT
REMARK Flexibility Score: inf
ROOT
ATOM      1  C   UNL     1       7.074   7.155  -2.701  1.00  0.00     0.000 C 
ENDROOT
BRANCH   1   2
ATOM      2  C   UNL     1       7.279   5.730  -3.246  1.00  0.00     0.000 C 
BRANCH   2   3
ATOM      3  C   UNL     1       8.330   4.928  -2.458  1.00  0.00     0.000 C 
BRANCH   3   4
ATOM      4  C   UNL     1       7.851   4.397  -1.093  1.00  0.00     0.000 C 
BRANCH   4   5
ATOM      5  C   UNL     1       8.421   5.133   0.133  1.00  0.00     0.000 C 
BRANCH   5   6
ATOM      6  C   UNL     1       9.938   5.390   0.091  1.00  0.00     0.000 C 
BRANCH   6   7
ATOM      7  C   UNL     1      10.381   6.654   0.858  1.00  0.00     0.000 C 
BRANCH   7   8
ATOM      8  C   UNL     1       9.198   7.550   1.268  1.00  0.00     0.000 C 
BRANCH   8   9
ATOM      9  C   UNL     1       9.200   7.864   2.781  1.00  0.00     0.000 C 
BRANCH   9  10
ATOM     10  C   UNL     1       9.832   9.228   3.119  1.00  0.00     0.000 C 
BRANCH  10  11
ATOM     11  C   UNL     1       8.821  10.383   3.237  1.00  0.00     0.000 C 
BRANCH  11  12
ATOM     12  C   UNL     1       8.799  11.002   4.644  1.00  0.00     0.000 C 
BRANCH  12  13
ATOM     13  C   UNL     1       7.988  10.148   5.638  1.00  0.00     0.006 C 
BRANCH  13  14
ATOM     14  C   UNL     1       6.755  10.874   6.200  1.00  0.00     0.053 C 
BRANCH  14  15
ATOM     15  C   UNL     1       6.246  10.211   7.446  1.00  0.00     0.041 C 
ATOM     16  O   UNL     1       5.104  10.491   7.896  1.00  0.00    -0.550 OA
ATOM     17  O   UNL     1       7.051   9.303   8.123  1.00  0.00    -0.550 OA
ENDBRANCH  14  15
ENDBRANCH  13  14
ENDBRANCH  12  13
ENDBRANCH  11  12
ENDBRANCH  10  11
ENDBRANCH   9  10
ENDBRANCH   8   9
ENDBRANCH   7   8
ENDBRANCH   6   7
ENDBRANCH   5   6
ENDBRANCH   4   5
ENDBRANCH   3   4
ENDBRANCH   2   3
ENDBRANCH   1   2
BRANCH   1  18
ATOM     18  C   UNL     1       8.397   7.856  -2.353  1.00  0.00     0.000 C 
BRANCH  18  19
ATOM     19  C   UNL     1       8.189   9.272  -1.780  1.00  0.00     0.000 C 
BRANCH  19  20
ATOM     20  C   UNL     1       7.245  10.141  -2.638  1.00  0.00     0.000 C 
BRANCH  20  21
ATOM     21  C   UNL     1       7.967  11.039  -3.664  1.00  0.00     0.000 C 
BRANCH  21  22
ATOM     22  C   UNL     1       8.030  10.492  -5.103  1.00  0.00     0.000 C 
BRANCH  22  23
ATOM     23  C   UNL     1       9.435  10.452  -5.737  1.00  0.00     0.000 C 
BRANCH  23  24
ATOM     24  C   UNL     1       9.942   9.016  -5.958  1.00  0.00    -0.000 C 
BRANCH  24  25
ATOM     25  C   UNL     1       8.826   7.960  -5.859  1.00  0.00    -0.000 C 
BRANCH  25  26
ATOM     26  C   UNL     1       8.219   7.523  -7.205  1.00  0.00    -0.000 C 
BRANCH  26  27
ATOM     27  C   UNL     1       7.365   6.248  -7.098  1.00  0.00    -0.000 C 
BRANCH  27  28
ATOM     28  C   UNL     1       8.077   5.002  -7.655  1.00  0.00    -0.000 C 
BRANCH  28  29
ATOM     29  C   UNL     1       9.172   5.293  -8.698  1.00  0.00    -0.000 C 
BRANCH  29  30
ATOM     30  C   UNL     1      10.131   4.113  -8.900  1.00  0.00    -0.000 C 
BRANCH  30  31
ATOM     31  C   UNL     1       9.613   2.856  -8.191  1.00  0.00    -0.003 C 
ATOM     32  C   UNL     1      10.732   2.148  -7.437  1.00  0.00     0.004 C 
ENDBRANCH  30  31
ENDBRANCH  29  30
ENDBRANCH  28  29
ENDBRANCH  27  28
ENDBRANCH  26  27
ENDBRANCH  25  26
ENDBRANCH  24  25
ENDBRANCH  23  24
ENDBRANCH  22  23
ENDBRANCH  21  22
ENDBRANCH  20  21
ENDBRANCH  19  20
ENDBRANCH  18  19
ENDBRANCH   1  18
TORSDOF 28
ENDMDL
MODEL 5
REMARK VINA RESULT:    -3.429     16.218     19.145
REMARK INTER + INTRA:         -14.286
REMARK INTER:                  -9.885
REMARK INTRA:                  -4.400
REMARK UNBOUND:                -5.243
REMARK SMILES CCCCCCCCCCCCCCCCCCCCCCCCCCCCCC(=O)[O-]
REMARK SMILES IDX 16 1 17 2 18 3 19 4 20 5 21 6 22 7 23 8 24 9 25 10 26 11
REMARK SMILES IDX 27 12 28 13 29 14 30 15 31 16 32 17 15 18 14 19 13 20 12 21
REMARK SMILES IDX 11 22 10 23 9 24 8 25 7 26 6 27 5 28 4 29 3 30 2 31 1 32
REMARK H PARENT
REMARK Flexibility Score: inf
ROOT
ATOM      1  C   UNL     1       0.169  -5.079  -6.139  1.00  0.00     0.000 C 
ENDROOT
BRANCH   1   2
ATOM      2  C   UNL     1       1.594  -5.262  -6.692  1.00  0.00     0.000 C 
BRANCH   2   3
ATOM      3  C   UNL     1       1.795  -4.608  -8.070  1.00  0.00     0.000 C 
BRANCH   3   4
ATOM      4  C   UNL     1       1.920  -5.596  -9.246  1.00  0.00     0.000 C 
BRANCH   4   5
ATOM      5  C   UNL     1       0.585  -6.128  -9.799  1.00  0.00     0.000 C 
BRANCH   5   6
ATOM      6  C   UNL     1       0.188  -7.529  -9.301  1.00  0.00     0.000 C 
BRANCH   6   7
ATOM      7  C   UNL     1      -1.150  -7.566  -8.532  1.00  0.00     0.000 C 
BRANCH   7   8
ATOM      8  C   UNL     1      -2.365  -7.273  -9.432  1.00  0.00     0.000 C 
BRANCH   8   9
ATOM      9  C   UNL     1      -3.620  -8.058  -8.993  1.00  0.00     0.000 C 
BRANCH   9  10
ATOM     10  C   UNL     1      -4.926  -7.257  -9.152  1.00  0.00     0.000 C 
BRANCH  10  11
ATOM     11  C   UNL     1      -5.418  -6.582  -7.858  1.00  0.00     0.000 C 
BRANCH  11  12
ATOM     12  C   UNL     1      -6.885  -6.919  -7.542  1.00  0.00     0.000 C 
BRANCH  12  13
ATOM     13  C   UNL     1      -7.012  -7.884  -6.347  1.00  0.00     0.006 C 
BRANCH  13  14
ATOM     14  C   UNL     1      -7.983  -7.387  -5.264  1.00  0.00     0.053 C 
BRANCH  14  15
ATOM     15  C   UNL     1      -7.428  -7.601  -3.887  1.00  0.00     0.041 C 
ATOM     16  O   UNL     1      -7.735  -6.821  -2.947  1.00  0.00    -0.550 OA
ATOM     17  O   UNL     1      -6.546  -8.650  -3.653  1.00  0.00    -0.550 OA
ENDBRANCH  14  15
ENDBRANCH  13  14
ENDBRANCH  12  13
ENDBRANCH  11  12
ENDBRANCH  10  11
ENDBRANCH   9  10
ENDBRANCH   8   9
ENDBRANCH   7   8
ENDBRANCH   6   7
ENDBRANCH   5   6
ENDBRANCH   4   5
ENDBRANCH   3   4
ENDBRANCH   2   3
ENDBRANCH   1   2
BRANCH   1  18
ATOM     18  C   UNL     1      -0.532  -3.830  -6.699  1.00  0.00     0.000 C 
BRANCH  18  19
ATOM     19  C   UNL     1      -1.887  -4.151  -7.357  1.00  0.00     0.000 C 
BRANCH  19  20
ATOM     20  C   UNL     1      -2.013  -3.595  -8.791  1.00  0.00     0.000 C 
BRANCH  20  21
ATOM     21  C   UNL     1      -3.441  -3.655  -9.372  1.00  0.00     0.000 C 
BRANCH  21  22
ATOM     22  C   UNL     1      -4.572  -3.255  -8.405  1.00  0.00     0.000 C 
BRANCH  22  23
ATOM     23  C   UNL     1      -5.668  -2.349  -9.003  1.00  0.00     0.000 C 
BRANCH  23  24
ATOM     24  C   UNL     1      -5.174  -0.915  -9.258  1.00  0.00    -0.000 C 
BRANCH  24  25
ATOM     25  C   UNL     1      -6.227   0.156  -8.918  1.00  0.00    -0.000 C 
BRANCH  25  26
ATOM     26  C   UNL     1      -5.916   1.005  -7.672  1.00  0.00    -0.000 C 
BRANCH  26  27
ATOM     27  C   UNL     1      -7.168   1.347  -6.846  1.00  0.00    -0.000 C 
BRANCH  27  28
ATOM     28  C   UNL     1      -7.421   0.347  -5.703  1.00  0.00    -0.000 C 
BRANCH  28  29
ATOM     29  C   UNL     1      -8.718  -0.474  -5.835  1.00  0.00    -0.000 C 
BRANCH  29  30
ATOM     30  C   UNL     1      -8.463  -1.987  -5.880  1.00  0.00    -0.000 C 
BRANCH  30  31
ATOM     31  C   UNL     1      -7.022  -2.313  -5.473  1.00  0.00    -0.003 C 
ATOM     32  C   UNL     1      -6.737  -3.805  -5.608  1.00  0.00     0.004 C 
ENDBRANCH  30  31
ENDBRANCH  29  30
ENDBRANCH  28  29
ENDBRANCH  27  28
ENDBRANCH  26  27
ENDBRANCH  25  26
ENDBRANCH  24  25
ENDBRANCH  23  24
ENDBRANCH  22  23
ENDBRANCH  21  22
ENDBRANCH  20  21
ENDBRANCH  19  20
ENDBRANCH  18  19
ENDBRANCH   1  18
TORSDOF 28
ENDMDL
MODEL 6
REMARK VINA RESULT:    -3.428      2.943      4.615
REMARK INTER + INTRA:         -14.282
REMARK INTER:                 -10.730
REMARK INTRA:                  -3.551
REMARK UNBOUND:                -5.243
REMARK SMILES CCCCCCCCCCCCCCCCCCCCCCCCCCCCCC(=O)[O-]
REMARK SMILES IDX 16 1 17 2 18 3 19 4 20 5 21 6 22 7 23 8 24 9 25 10 26 11
REMARK SMILES IDX 27 12 28 13 29 14 30 15 31 16 32 17 15 18 14 19 13 20 12 21
REMARK SMILES IDX 11 22 10 23 9 24 8 25 7 26 6 27 5 28 4 29 3 30 2 31 1 32
REMARK H PARENT
REMARK Flexibility Score: inf
ROOT
ATOM      1  C   UNL     1       7.396   4.811  -2.443  1.00  0.00     0.000 C 
ENDROOT
BRANCH   1   2
ATOM      2  C   UNL     1       7.297   6.215  -3.064  1.00  0.00     0.000 C 
BRANCH   2   3
ATOM      3  C   UNL     1       7.017   7.316  -2.026  1.00  0.00     0.000 C 
BRANCH   3   4
ATOM      4  C   UNL     1       8.223   8.217  -1.694  1.00  0.00     0.000 C 
BRANCH   4   5
ATOM      5  C   UNL     1       7.914   9.411  -0.773  1.00  0.00     0.000 C 
BRANCH   5   6
ATOM      6  C   UNL     1       8.725   9.451   0.534  1.00  0.00     0.000 C 
BRANCH   6   7
ATOM      7  C   UNL     1       9.164   8.061   1.042  1.00  0.00     0.000 C 
BRANCH   7   8
ATOM      8  C   UNL     1       9.168   7.961   2.579  1.00  0.00     0.000 C 
BRANCH   8   9
ATOM      9  C   UNL     1       8.836   9.311   3.254  1.00  0.00     0.000 C 
BRANCH   9  10
ATOM     10  C   UNL     1       9.826   9.693   4.370  1.00  0.00     0.000 C 
BRANCH  10  11
ATOM     11  C   UNL     1       9.432   9.184   5.769  1.00  0.00     0.000 C 
BRANCH  11  12
ATOM     12  C   UNL     1       8.208   9.920   6.338  1.00  0.00     0.000 C 
BRANCH  12  13
ATOM     13  C   UNL     1       8.134   9.818   7.874  1.00  0.00     0.006 C 
BRANCH  13  14
ATOM     14  C   UNL     1       7.376   8.573   8.365  1.00  0.00     0.053 C 
BRANCH  14  15
ATOM     15  C   UNL     1       6.390   8.919   9.441  1.00  0.00     0.041 C 
ATOM     16  O   UNL     1       5.766   8.010  10.050  1.00  0.00    -0.550 OA
ATOM     17  O   UNL     1       6.143  10.252   9.749  1.00  0.00    -0.550 OA
ENDBRANCH  14  15
ENDBRANCH  13  14
ENDBRANCH  12  13
ENDBRANCH  11  12
ENDBRANCH  10  11
ENDBRANCH   9  10
ENDBRANCH   8   9
ENDBRANCH   7   8
ENDBRANCH   6   7
ENDBRANCH   5   6
ENDBRANCH   4   5
ENDBRANCH   3   4
ENDBRANCH   2   3
ENDBRANCH   1   2
BRANCH   1  18
ATOM     18  C   UNL     1       7.525   4.844  -0.911  1.00  0.00     0.000 C 
BRANCH  18  19
ATOM     19  C   UNL     1       8.990   4.815  -0.435  1.00  0.00     0.000 C 
BRANCH  19  20
ATOM     20  C   UNL     1       9.943   4.138  -1.442  1.00  0.00     0.000 C 
BRANCH  20  21
ATOM     21  C   UNL     1      11.055   5.060  -1.983  1.00  0.00     0.000 C 
BRANCH  21  22
ATOM     22  C   UNL     1      11.006   5.349  -3.495  1.00  0.00     0.000 C 
BRANCH  22  23
ATOM     23  C   UNL     1      11.066   6.840  -3.888  1.00  0.00     0.000 C 
BRANCH  23  24
ATOM     24  C   UNL     1      10.410   7.117  -5.252  1.00  0.00    -0.000 C 
BRANCH  24  25
ATOM     25  C   UNL     1       9.509   8.366  -5.246  1.00  0.00    -0.000 C 
BRANCH  25  26
ATOM     26  C   UNL     1       8.585   8.509  -6.469  1.00  0.00    -0.000 C 
BRANCH  26  27
ATOM     27  C   UNL     1       8.682   7.321  -7.442  1.00  0.00    -0.000 C 
BRANCH  27  28
ATOM     28  C   UNL     1       7.454   6.395  -7.381  1.00  0.00    -0.000 C 
BRANCH  28  29
ATOM     29  C   UNL     1       7.743   4.913  -7.687  1.00  0.00    -0.000 C 
BRANCH  29  30
ATOM     30  C   UNL     1       8.955   4.372  -6.917  1.00  0.00    -0.000 C 
BRANCH  30  31
ATOM     31  C   UNL     1       9.744   3.372  -7.769  1.00  0.00    -0.003 C 
ATOM     32  C   UNL     1       9.944   3.893  -9.187  1.00  0.00     0.004 C 
ENDBRANCH  30  31
ENDBRANCH  29  30
ENDBRANCH  28  29
ENDBRANCH  27  28
ENDBRANCH  26  27
ENDBRANCH  25  26
ENDBRANCH  24  25
ENDBRANCH  23  24
ENDBRANCH  22  23
ENDBRANCH  21  22
ENDBRANCH  20  21
ENDBRANCH  19  20
ENDBRANCH  18  19
ENDBRANCH   1  18
TORSDOF 28
ENDMDL
MODEL 7
REMARK VINA RESULT:    -3.361     15.571     18.736
REMARK INTER + INTRA:         -14.106
REMARK INTER:                  -9.781
REMARK INTRA:                  -4.324
REMARK UNBOUND:                -5.243
REMARK SMILES CCCCCCCCCCCCCCCCCCCCCCCCCCCCCC(=O)[O-]
REMARK SMILES IDX 16 1 17 2 18 3 19 4 20 5 21 6 22 7 23 8 24 9 25 10 26 11
REMARK SMILES IDX 27 12 28 13 29 14 30 15 31 16 32 17 15 18 14 19 13 20 12 21
REMARK SMILES IDX 11 22 10 23 9 24 8 25 7 26 6 27 5 28 4 29 3 30 2 31 1 32
REMARK H PARENT
REMARK Flexibility Score: inf
ROOT
ATOM      1  C   UNL     1      -0.604  -3.982  -6.750  1.00  0.00     0.000 C 
ENDROOT
BRANCH   1   2
ATOM      2  C   UNL     1      -1.523  -3.173  -7.681  1.00  0.00     0.000 C 
BRANCH   2   3
ATOM      3  C   UNL     1      -3.006  -3.566  -7.557  1.00  0.00     0.000 C 
BRANCH   3   4
ATOM      4  C   UNL     1      -3.919  -3.017  -8.671  1.00  0.00     0.000 C 
BRANCH   4   5
ATOM      5  C   UNL     1      -3.200  -2.210  -9.768  1.00  0.00     0.000 C 
BRANCH   5   6
ATOM      6  C   UNL     1      -3.500  -0.701  -9.768  1.00  0.00     0.000 C 
BRANCH   6   7
ATOM      7  C   UNL     1      -2.326   0.171  -9.275  1.00  0.00     0.000 C 
BRANCH   7   8
ATOM      8  C   UNL     1      -2.768   1.258  -8.277  1.00  0.00     0.000 C 
BRANCH   8   9
ATOM      9  C   UNL     1      -4.032   2.009  -8.753  1.00  0.00     0.000 C 
BRANCH   9  10
ATOM     10  C   UNL     1      -5.294   1.648  -7.946  1.00  0.00     0.000 C 
BRANCH  10  11
ATOM     11  C   UNL     1      -6.595   1.651  -8.769  1.00  0.00     0.000 C 
BRANCH  11  12
ATOM     12  C   UNL     1      -7.211   0.248  -8.897  1.00  0.00     0.000 C 
BRANCH  12  13
ATOM     13  C   UNL     1      -6.856  -0.651  -7.698  1.00  0.00     0.006 C 
BRANCH  13  14
ATOM     14  C   UNL     1      -8.041  -0.900  -6.751  1.00  0.00     0.053 C 
BRANCH  14  15
ATOM     15  C   UNL     1      -7.614  -0.867  -5.313  1.00  0.00     0.041 C 
ATOM     16  O   UNL     1      -6.852  -1.758  -4.854  1.00  0.00    -0.550 OA
ATOM     17  O   UNL     1      -8.085   0.137  -4.476  1.00  0.00    -0.550 OA
ENDBRANCH  14  15
ENDBRANCH  13  14
ENDBRANCH  12  13
ENDBRANCH  11  12
ENDBRANCH  10  11
ENDBRANCH   9  10
ENDBRANCH   8   9
ENDBRANCH   7   8
ENDBRANCH   6   7
ENDBRANCH   5   6
ENDBRANCH   4   5
ENDBRANCH   3   4
ENDBRANCH   2   3
ENDBRANCH   1   2
BRANCH   1  18
ATOM     18  C   UNL     1       0.767  -4.282  -7.378  1.00  0.00     0.000 C 
BRANCH  18  19
ATOM     19  C   UNL     1       1.221  -5.737  -7.155  1.00  0.00     0.000 C 
BRANCH  19  20
ATOM     20  C   UNL     1       0.102  -6.644  -6.599  1.00  0.00     0.000 C 
BRANCH  20  21
ATOM     21  C   UNL     1      -0.413  -7.701  -7.597  1.00  0.00     0.000 C 
BRANCH  21  22
ATOM     22  C   UNL     1      -0.358  -7.299  -9.083  1.00  0.00     0.000 C 
BRANCH  22  23
ATOM     23  C   UNL     1      -1.558  -6.473  -9.591  1.00  0.00     0.000 C 
BRANCH  23  24
ATOM     24  C   UNL     1      -2.878  -6.871  -8.910  1.00  0.00    -0.000 C 
BRANCH  24  25
ATOM     25  C   UNL     1      -4.123  -6.464  -9.721  1.00  0.00    -0.000 C 
BRANCH  25  26
ATOM     26  C   UNL     1      -5.454  -7.038  -9.203  1.00  0.00    -0.000 C 
BRANCH  26  27
ATOM     27  C   UNL     1      -5.665  -6.812  -7.696  1.00  0.00    -0.000 C 
BRANCH  27  28
ATOM     28  C   UNL     1      -6.399  -5.495  -7.385  1.00  0.00    -0.000 C 
BRANCH  28  29
ATOM     29  C   UNL     1      -6.342  -5.053  -5.910  1.00  0.00    -0.000 C 
BRANCH  29  30
ATOM     30  C   UNL     1      -7.650  -5.324  -5.155  1.00  0.00    -0.000 C 
BRANCH  30  31
ATOM     31  C   UNL     1      -7.417  -6.279  -3.979  1.00  0.00    -0.003 C 
ATOM     32  C   UNL     1      -7.216  -7.710  -4.463  1.00  0.00     0.004 C 
ENDBRANCH  30  31
ENDBRANCH  29  30
ENDBRANCH  28  29
ENDBRANCH  27  28
ENDBRANCH  26  27
ENDBRANCH  25  26
ENDBRANCH  24  25
ENDBRANCH  23  24
ENDBRANCH  22  23
ENDBRANCH  21  22
ENDBRANCH  20  21
ENDBRANCH  19  20
ENDBRANCH  18  19
ENDBRANCH   1  18
TORSDOF 28
ENDMDL
MODEL 8
REMARK VINA RESULT:    -3.352     16.743     19.744
REMARK INTER + INTRA:         -14.082
REMARK INTER:                  -9.901
REMARK INTRA:                  -4.181
REMARK UNBOUND:                -5.243
REMARK SMILES CCCCCCCCCCCCCCCCCCCCCCCCCCCCCC(=O)[O-]
REMARK SMILES IDX 16 1 17 2 18 3 19 4 20 5 21 6 22 7 23 8 24 9 25 10 26 11
REMARK SMILES IDX 27 12 28 13 29 14 30 15 31 16 32 17 15 18 14 19 13 20 12 21
REMARK SMILES IDX 11 22 10 23 9 24 8 25 7 26 6 27 5 28 4 29 3 30 2 31 1 32
REMARK H PARENT
REMARK Flexibility Score: inf
ROOT
ATOM      1  C   UNL     1       0.271  -4.707  -6.047  1.00  0.00     0.000 C 
ENDROOT
BRANCH   1   2
ATOM      2  C   UNL     1       1.559  -5.367  -6.571  1.00  0.00     0.000 C 
BRANCH   2   3
ATOM      3  C   UNL     1       2.051  -4.759  -7.896  1.00  0.00     0.000 C 
BRANCH   3   4
ATOM      4  C   UNL     1       2.149  -5.754  -9.069  1.00  0.00     0.000 C 
BRANCH   4   5
ATOM      5  C   UNL     1       0.806  -6.130  -9.722  1.00  0.00     0.000 C 
BRANCH   5   6
ATOM      6  C   UNL     1       0.290  -7.540  -9.384  1.00  0.00     0.000 C 
BRANCH   6   7
ATOM      7  C   UNL     1      -0.835  -7.559  -8.328  1.00  0.00     0.000 C 
BRANCH   7   8
ATOM      8  C   UNL     1      -1.944  -8.576  -8.655  1.00  0.00     0.000 C 
BRANCH   8   9
ATOM      9  C   UNL     1      -3.219  -7.895  -9.199  1.00  0.00     0.000 C 
BRANCH   9  10
ATOM     10  C   UNL     1      -4.517  -8.611  -8.779  1.00  0.00     0.000 C 
BRANCH  10  11
ATOM     11  C   UNL     1      -5.779  -7.732  -8.855  1.00  0.00     0.000 C 
BRANCH  11  12
ATOM     12  C   UNL     1      -6.955  -8.324  -8.061  1.00  0.00     0.000 C 
BRANCH  12  13
ATOM     13  C   UNL     1      -6.600  -8.543  -6.578  1.00  0.00     0.006 C 
BRANCH  13  14
ATOM     14  C   UNL     1      -7.704  -8.082  -5.613  1.00  0.00     0.053 C 
BRANCH  14  15
ATOM     15  C   UNL     1      -7.177  -7.897  -4.221  1.00  0.00     0.041 C 
ATOM     16  O   UNL     1      -7.380  -6.821  -3.600  1.00  0.00    -0.550 OA
ATOM     17  O   UNL     1      -6.435  -8.909  -3.624  1.00  0.00    -0.550 OA
ENDBRANCH  14  15
ENDBRANCH  13  14
ENDBRANCH  12  13
ENDBRANCH  11  12
ENDBRANCH  10  11
ENDBRANCH   9  10
ENDBRANCH   8   9
ENDBRANCH   7   8
ENDBRANCH   6   7
ENDBRANCH   5   6
ENDBRANCH   4   5
ENDBRANCH   3   4
ENDBRANCH   2   3
ENDBRANCH   1   2
BRANCH   1  18
ATOM     18  C   UNL     1      -0.437  -3.852  -7.111  1.00  0.00     0.000 C 
BRANCH  18  19
ATOM     19  C   UNL     1      -1.972  -3.910  -6.999  1.00  0.00     0.000 C 
BRANCH  19  20
ATOM     20  C   UNL     1      -2.665  -4.274  -8.329  1.00  0.00     0.000 C 
BRANCH  20  21
ATOM     21  C   UNL     1      -4.192  -4.465  -8.217  1.00  0.00     0.000 C 
BRANCH  21  22
ATOM     22  C   UNL     1      -4.824  -4.024  -6.883  1.00  0.00     0.000 C 
BRANCH  22  23
ATOM     23  C   UNL     1      -6.092  -4.796  -6.463  1.00  0.00     0.000 C 
BRANCH  23  24
ATOM     24  C   UNL     1      -7.236  -4.648  -7.480  1.00  0.00    -0.000 C 
BRANCH  24  25
ATOM     25  C   UNL     1      -8.631  -4.653  -6.826  1.00  0.00    -0.000 C 
BRANCH  25  26
ATOM     26  C   UNL     1      -8.762  -3.782  -5.564  1.00  0.00    -0.000 C 
BRANCH  26  27
ATOM     27  C   UNL     1      -8.966  -2.290  -5.878  1.00  0.00    -0.000 C 
BRANCH  27  28
ATOM     28  C   UNL     1      -7.793  -1.412  -5.405  1.00  0.00    -0.000 C 
BRANCH  28  29
ATOM     29  C   UNL     1      -7.333  -0.345  -6.416  1.00  0.00    -0.000 C 
BRANCH  29  30
ATOM     30  C   UNL     1      -8.149   0.951  -6.327  1.00  0.00    -0.000 C 
BRANCH  30  31
ATOM     31  C   UNL     1      -7.457   2.089  -7.085  1.00  0.00    -0.003 C 
ATOM     32  C   UNL     1      -5.994   1.759  -7.359  1.00  0.00     0.004 C 
ENDBRANCH  30  31
ENDBRANCH  29  30
ENDBRANCH  28  29
ENDBRANCH  27  28
ENDBRANCH  26  27
ENDBRANCH  25  26
ENDBRANCH  24  25
ENDBRANCH  23  24
ENDBRANCH  22  23
ENDBRANCH  21  22
ENDBRANCH  20  21
ENDBRANCH  19  20
ENDBRANCH  18  19
ENDBRANCH   1  18
TORSDOF 28
ENDMDL
MODEL 9
REMARK VINA RESULT:    -3.302     15.676     18.765
REMARK INTER + INTRA:         -13.950
REMARK INTER:                  -9.664
REMARK INTRA:                  -4.285
REMARK UNBOUND:                -5.243
REMARK SMILES CCCCCCCCCCCCCCCCCCCCCCCCCCCCCC(=O)[O-]
REMARK SMILES IDX 16 1 17 2 18 3 19 4 20 5 21 6 22 7 23 8 24 9 25 10 26 11
REMARK SMILES IDX 27 12 28 13 29 14 30 15 31 16 32 17 15 18 14 19 13 20 12 21
REMARK SMILES IDX 11 22 10 23 9 24 8 25 7 26 6 27 5 28 4 29 3 30 2 31 1 32
REMARK H PARENT
REMARK Flexibility Score: inf
ROOT
ATOM      1  C   UNL     1      -4.324  -7.567  -9.316  1.00  0.00     0.000 C 
ENDROOT
BRANCH   1   2
ATOM      2  C   UNL     1      -3.115  -6.780  -8.780  1.00  0.00     0.000 C 
BRANCH   2   3
ATOM      3  C   UNL     1      -1.765  -7.386  -9.203  1.00  0.00     0.000 C 
BRANCH   3   4
ATOM      4  C   UNL     1      -0.805  -7.706  -8.042  1.00  0.00     0.000 C 
BRANCH   4   5
ATOM      5  C   UNL     1       0.319  -6.676  -7.818  1.00  0.00     0.000 C 
BRANCH   5   6
ATOM      6  C   UNL     1       0.336  -6.024  -6.425  1.00  0.00     0.000 C 
BRANCH   6   7
ATOM      7  C   UNL     1       0.110  -4.497  -6.445  1.00  0.00     0.000 C 
BRANCH   7   8
ATOM      8  C   UNL     1      -1.325  -4.110  -6.848  1.00  0.00     0.000 C 
BRANCH   8   9
ATOM      9  C   UNL     1      -1.376  -3.408  -8.223  1.00  0.00     0.000 C 
BRANCH   9  10
ATOM     10  C   UNL     1      -0.224  -2.409  -8.439  1.00  0.00     0.000 C 
BRANCH  10  11
ATOM     11  C   UNL     1      -0.674  -0.944  -8.591  1.00  0.00     0.000 C 
BRANCH  11  12
ATOM     12  C   UNL     1      -1.610  -0.740  -9.793  1.00  0.00     0.000 C 
BRANCH  12  13
ATOM     13  C   UNL     1      -2.991  -0.207  -9.366  1.00  0.00     0.006 C 
BRANCH  13  14
ATOM     14  C   UNL     1      -3.380   1.106 -10.066  1.00  0.00     0.053 C 
BRANCH  14  15
ATOM     15  C   UNL     1      -3.160   2.292  -9.174  1.00  0.00     0.041 C 
ATOM     16  O   UNL     1      -3.333   3.460  -9.612  1.00  0.00    -0.550 OA
ATOM     17  O   UNL     1      -2.734   2.102  -7.865  1.00  0.00    -0.550 OA
ENDBRANCH  14  15
ENDBRANCH  13  14
ENDBRANCH  12  13
ENDBRANCH  11  12
ENDBRANCH  10  11
ENDBRANCH   9  10
ENDBRANCH   8   9
ENDBRANCH   7   8
ENDBRANCH   6   7
ENDBRANCH   5   6
ENDBRANCH   4   5
ENDBRANCH   3   4
ENDBRANCH   2   3
ENDBRANCH   1   2
BRANCH   1  18
ATOM     18  C   UNL     1      -4.960  -8.479  -8.254  1.00  0.00     0.000 C 
BRANCH  18  19
ATOM     19  C   UNL     1      -6.327  -7.964  -7.766  1.00  0.00     0.000 C 
BRANCH  19  20
ATOM     20  C   UNL     1      -6.588  -8.253  -6.273  1.00  0.00     0.000 C 
BRANCH  20  21
ATOM     21  C   UNL     1      -7.765  -7.460  -5.668  1.00  0.00     0.000 C 
BRANCH  21  22
ATOM     22  C   UNL     1      -7.395  -6.120  -5.004  1.00  0.00     0.000 C 
BRANCH  22  23
ATOM     23  C   UNL     1      -7.455  -4.884  -5.926  1.00  0.00     0.000 C 
BRANCH  23  24
ATOM     24  C   UNL     1      -6.378  -3.841  -5.585  1.00  0.00    -0.000 C 
BRANCH  24  25
ATOM     25  C   UNL     1      -5.141  -3.928  -6.499  1.00  0.00    -0.000 C 
BRANCH  25  26
ATOM     26  C   UNL     1      -5.433  -4.343  -7.953  1.00  0.00    -0.000 C 
BRANCH  26  27
ATOM     27  C   UNL     1      -5.261  -3.190  -8.956  1.00  0.00    -0.000 C 
BRANCH  27  28
ATOM     28  C   UNL     1      -6.540  -2.348  -9.125  1.00  0.00    -0.000 C 
BRANCH  28  29
ATOM     29  C   UNL     1      -6.491  -0.957  -8.467  1.00  0.00    -0.000 C 
BRANCH  29  30
ATOM     30  C   UNL     1      -7.573  -0.767  -7.395  1.00  0.00    -0.000 C 
BRANCH  30  31
ATOM     31  C   UNL     1      -7.187   0.349  -6.418  1.00  0.00    -0.003 C 
ATOM     32  C   UNL     1      -7.465  -0.060  -4.976  1.00  0.00     0.004 C 
ENDBRANCH  30  31
ENDBRANCH  29  30
ENDBRANCH  28  29
ENDBRANCH  27  28
ENDBRANCH  26  27
ENDBRANCH  25  26
ENDBRANCH  24  25
ENDBRANCH  23  24
ENDBRANCH  22  23
ENDBRANCH  21  22
ENDBRANCH  20  21
ENDBRANCH  19  20
ENDBRANCH  18  19
ENDBRANCH   1  18
TORSDOF 28
ENDMDL
