MODEL 1
REMARK VINA RESULT:     4.915      0.000      0.000
REMARK INTER + INTRA:           6.266
REMARK INTER:                   5.777
REMARK INTRA:                   0.489
REMARK UNBOUND:                 0.489
REMARK SMILES C=C(C)[C@H]1CC[C@@]2(CO)CC[C@@]3(C)[C@@H](CC[C@@H]4[C@@]5(C)CC[C@@H](O)C(C)(C)[C@H]5CC[C@]43C)[C@H]12
REMARK SMILES IDX 4 1 5 2 6 3 7 4 32 5 14 6 15 7 16 8 17 9 18 10 20 11 21 12
REMARK SMILES IDX 22 13 24 14 27 15 28 16 29 17 30 18 12 19 11 20 10 21 13 22
REMARK SMILES IDX 31 23 25 24 26 25 19 26 2 27 3 28 1 29 8 30 9 31 23 33
REMARK H PARENT 9 32 23 34
REMARK Flexibility Score: inf
ROOT
ATOM      1  C   UNL     1     -10.842  13.010 -32.262  1.00  0.00     0.018 C 
ATOM      2  C   UNL     1      -9.881  14.105 -32.787  1.00  0.00     0.009 C 
ATOM      3  C   UNL     1     -10.711  15.397 -32.942  1.00  0.00     0.010 C 
ATOM      4  C   UNL     1     -11.997  15.150 -32.137  1.00  0.00    -0.003 C 
ATOM      5  C   UNL     1     -12.231  13.652 -32.398  1.00  0.00     0.008 C 
ATOM      6  C   UNL     1     -13.440  13.111 -31.590  1.00  0.00    -0.000 C 
ATOM      7  C   UNL     1     -13.631  11.578 -31.750  1.00  0.00     0.005 C 
ATOM      8  C   UNL     1     -14.988  11.063 -31.207  1.00  0.00     0.005 C 
ATOM      9  C   UNL     1     -15.584  12.051 -30.174  1.00  0.00     0.002 C 
ATOM     10  C   UNL     1     -16.590  11.447 -29.110  1.00  0.00    -0.026 C 
ATOM     11  C   UNL     1     -15.930  10.189 -28.445  1.00  0.00     0.010 C 
ATOM     12  C   UNL     1     -16.509   9.875 -27.070  1.00  0.00     0.033 C 
ATOM     13  C   UNL     1     -16.191  10.973 -26.039  1.00  0.00     0.120 C 
ATOM     14  C   UNL     1     -16.084  12.432 -26.639  1.00  0.00    -0.006 C 
ATOM     15  C   UNL     1     -16.924  12.534 -27.991  1.00  0.00     0.003 C 
ATOM     16  C   UNL     1     -17.088  13.984 -28.562  1.00  0.00     0.005 C 
ATOM     17  C   UNL     1     -16.098  14.427 -29.666  1.00  0.00     0.008 C 
ATOM     18  C   UNL     1     -15.955  13.437 -30.858  1.00  0.00    -0.024 C 
ATOM     19  C   UNL     1     -14.786  13.886 -31.931  1.00  0.00    -0.024 C 
ATOM     20  C   UNL     1     -14.528  15.449 -31.939  1.00  0.00     0.008 C 
ATOM     21  C   UNL     1     -13.238  15.904 -32.675  1.00  0.00     0.010 C 
ATOM     22  C   UNL     1     -15.200  13.541 -33.415  1.00  0.00     0.012 C 
ATOM     23  C   UNL     1     -17.337  13.409 -31.588  1.00  0.00     0.012 C 
ATOM     24  C   UNL     1     -16.670  13.390 -25.559  1.00  0.00     0.014 C 
ATOM     25  C   UNL     1     -14.600  12.850 -26.827  1.00  0.00     0.014 C 
ATOM     26  C   UNL     1     -17.908  10.949 -29.788  1.00  0.00     0.012 C 
ENDROOT
BRANCH   1  27
ATOM     27  C   UNL     1     -10.678  11.698 -33.026  1.00  0.00    -0.077 C 
ATOM     28  C   UNL     1     -10.256  10.423 -32.334  1.00  0.00     0.039 C 
ATOM     29  C   UNL     1     -10.939  11.651 -34.342  1.00  0.00     0.008 C 
ENDBRANCH   1  27
BRANCH   4  30
ATOM     30  C   UNL     1     -11.750  15.573 -30.637  1.00  0.00     0.163 C 
BRANCH  30  31
ATOM     31  O   UNL     1     -12.907  15.510 -29.845  1.00  0.00    -0.396 OA
ATOM     32  H   UNL     1     -13.034  14.562 -29.581  1.00  0.00     0.210 HD
ENDBRANCH  30  31
ENDBRANCH   4  30
BRANCH  13  33
ATOM     33  O   UNL     1     -15.022  10.632 -25.331  1.00  0.00    -0.393 OA
ATOM     34  H   UNL     1     -14.247  10.944 -25.869  1.00  0.00     0.210 HD
ENDBRANCH  13  33
TORSDOF 4
ENDMDL
MODEL 2
REMARK VINA RESULT:     7.915      2.424      3.121
REMARK INTER + INTRA:           9.791
REMARK INTER:                   9.074
REMARK INTRA:                   0.717
REMARK UNBOUND:                 0.489
REMARK SMILES C=C(C)[C@H]1CC[C@@]2(CO)CC[C@@]3(C)[C@@H](CC[C@@H]4[C@@]5(C)CC[C@@H](O)C(C)(C)[C@H]5CC[C@]43C)[C@H]12
REMARK SMILES IDX 4 1 5 2 6 3 7 4 32 5 14 6 15 7 16 8 17 9 18 10 20 11 21 12
REMARK SMILES IDX 22 13 24 14 27 15 28 16 29 17 30 18 12 19 11 20 10 21 13 22
REMARK SMILES IDX 31 23 25 24 26 25 19 26 2 27 3 28 1 29 8 30 9 31 23 33
REMARK H PARENT 9 32 23 34
REMARK Flexibility Score: inf
ROOT
ATOM      1  C   UNL     1     -10.335  12.617 -32.884  1.00  0.00     0.018 C 
ATOM      2  C   UNL     1     -10.126  13.704 -33.968  1.00  0.00     0.009 C 
ATOM      3  C   UNL     1     -11.299  14.699 -33.841  1.00  0.00     0.010 C 
ATOM      4  C   UNL     1     -11.920  14.417 -32.464  1.00  0.00    -0.003 C 
ATOM      5  C   UNL     1     -11.756  12.891 -32.367  1.00  0.00     0.008 C 
ATOM      6  C   UNL     1     -12.218  12.350 -30.988  1.00  0.00    -0.000 C 
ATOM      7  C   UNL     1     -11.960  10.827 -30.824  1.00  0.00     0.005 C 
ATOM      8  C   UNL     1     -12.675  10.208 -29.596  1.00  0.00     0.005 C 
ATOM      9  C   UNL     1     -13.013  11.292 -28.544  1.00  0.00     0.002 C 
ATOM     10  C   UNL     1     -13.170  10.805 -27.045  1.00  0.00    -0.026 C 
ATOM     11  C   UNL     1     -11.916   9.945 -26.658  1.00  0.00     0.010 C 
ATOM     12  C   UNL     1     -11.669   9.905 -25.154  1.00  0.00     0.033 C 
ATOM     13  C   UNL     1     -11.284  11.285 -24.589  1.00  0.00     0.120 C 
ATOM     14  C   UNL     1     -11.935  12.513 -25.344  1.00  0.00    -0.006 C 
ATOM     15  C   UNL     1     -13.282  12.062 -26.068  1.00  0.00     0.003 C 
ATOM     16  C   UNL     1     -14.142  13.232 -26.657  1.00  0.00     0.005 C 
ATOM     17  C   UNL     1     -13.966  13.554 -28.161  1.00  0.00     0.008 C 
ATOM     18  C   UNL     1     -14.076  12.327 -29.113  1.00  0.00    -0.024 C 
ATOM     19  C   UNL     1     -13.738  12.701 -30.684  1.00  0.00    -0.024 C 
ATOM     20  C   UNL     1     -14.027  14.220 -31.029  1.00  0.00     0.008 C 
ATOM     21  C   UNL     1     -13.436  14.717 -32.378  1.00  0.00     0.010 C 
ATOM     22  C   UNL     1     -14.650  11.884 -31.681  1.00  0.00     0.012 C 
ATOM     23  C   UNL     1     -15.547  11.812 -29.015  1.00  0.00     0.012 C 
ATOM     24  C   UNL     1     -12.234  13.584 -24.253  1.00  0.00     0.014 C 
ATOM     25  C   UNL     1     -10.922  13.165 -26.324  1.00  0.00     0.014 C 
ATOM     26  C   UNL     1     -14.415   9.875 -26.873  1.00  0.00     0.012 C 
ENDROOT
BRANCH   1  27
ATOM     27  C   UNL     1     -10.129  11.211 -33.443  1.00  0.00    -0.077 C 
ATOM     28  C   UNL     1      -9.944  10.015 -32.539  1.00  0.00     0.039 C 
ATOM     29  C   UNL     1     -10.138  11.009 -34.771  1.00  0.00     0.008 C 
ENDBRANCH   1  27
BRANCH   4  30
ATOM     30  C   UNL     1     -11.165  15.277 -31.377  1.00  0.00     0.163 C 
BRANCH  30  31
ATOM     31  O   UNL     1      -9.891  15.699 -31.790  1.00  0.00    -0.396 OA
ATOM     32  H   UNL     1      -9.481  14.950 -32.296  1.00  0.00     0.210 HD
ENDBRANCH  30  31
ENDBRANCH   4  30
BRANCH  13  33
ATOM     33  O   UNL     1      -9.881  11.405 -24.548  1.00  0.00    -0.393 OA
ATOM     34  H   UNL     1      -9.659  12.358 -24.716  1.00  0.00     0.210 HD
ENDBRANCH  13  33
TORSDOF 4
ENDMDL
