MODEL 1
REMARK VINA RESULT:    -2.537      0.000      0.000
REMARK INTER + INTRA:          -3.099
REMARK INTER:                  -2.981
REMARK INTRA:                  -0.117
REMARK UNBOUND:                -0.117
REMARK SMILES O=C([O-])CCC(=O)[O-]
REMARK SMILES IDX 4 1 2 2 1 3 3 4 5 5 6 6 7 7 8 8
REMARK H PARENT
REMARK Flexibility Score: inf
ROOT
ATOM      1  C   UNL     1      62.099  31.597  60.169  1.00  0.00     0.059 C 
ENDROOT
BRANCH   1   2
ATOM      2  C   UNL     1      61.653  30.813  61.365  1.00  0.00     0.042 C 
ATOM      3  O   UNL     1      60.511  31.008  61.860  1.00  0.00    -0.550 OA
ATOM      4  O   UNL     1      62.482  29.840  61.909  1.00  0.00    -0.550 OA
ENDBRANCH   1   2
BRANCH   1   5
ATOM      5  C   UNL     1      62.563  33.005  60.557  1.00  0.00     0.059 C 
BRANCH   5   6
ATOM      6  C   UNL     1      64.055  33.080  60.677  1.00  0.00     0.042 C 
ATOM      7  O   UNL     1      64.600  34.110  61.156  1.00  0.00    -0.550 OA
ATOM      8  O   UNL     1      64.840  31.999  60.297  1.00  0.00    -0.550 OA
ENDBRANCH   5   6
ENDBRANCH   1   5
TORSDOF 3
ENDMDL
MODEL 2
REMARK VINA RESULT:    -2.526      0.132      3.856
REMARK INTER + INTRA:          -3.086
REMARK INTER:                  -2.969
REMARK INTRA:                  -0.117
REMARK UNBOUND:                -0.117
REMARK SMILES O=C([O-])CCC(=O)[O-]
REMARK SMILES IDX 4 1 2 2 1 3 3 4 5 5 6 6 7 7 8 8
REMARK H PARENT
REMARK Flexibility Score: inf
ROOT
ATOM      1  C   UNL     1      62.585  32.962  60.495  1.00  0.00     0.059 C 
ENDROOT
BRANCH   1   2
ATOM      2  C   UNL     1      64.059  33.106  60.718  1.00  0.00     0.042 C 
ATOM      3  O   UNL     1      64.848  32.200  60.340  1.00  0.00    -0.550 OA
ATOM      4  O   UNL     1      64.566  34.258  61.306  1.00  0.00    -0.550 OA
ENDBRANCH   1   2
BRANCH   1   5
ATOM      5  C   UNL     1      62.204  31.521  60.140  1.00  0.00     0.059 C 
BRANCH   5   6
ATOM      6  C   UNL     1      61.759  30.755  61.348  1.00  0.00     0.042 C 
ATOM      7  O   UNL     1      62.517  29.892  61.865  1.00  0.00    -0.550 OA
ATOM      8  O   UNL     1      60.524  31.021  61.926  1.00  0.00    -0.550 OA
ENDBRANCH   5   6
ENDBRANCH   1   5
TORSDOF 3
ENDMDL
MODEL 3
REMARK VINA RESULT:    -2.508      1.900      3.967
REMARK INTER + INTRA:          -3.066
REMARK INTER:                  -2.945
REMARK INTRA:                  -0.121
REMARK UNBOUND:                -0.117
REMARK SMILES O=C([O-])CCC(=O)[O-]
REMARK SMILES IDX 4 1 2 2 1 3 3 4 5 5 6 6 7 7 8 8
REMARK H PARENT
REMARK Flexibility Score: inf
ROOT
ATOM      1  C   UNL     1      63.281  29.947  60.485  1.00  0.00     0.059 C 
ENDROOT
BRANCH   1   2
ATOM      2  C   UNL     1      64.548  30.727  60.657  1.00  0.00     0.042 C 
ATOM      3  O   UNL     1      65.664  30.163  60.514  1.00  0.00    -0.550 OA
ATOM      4  O   UNL     1      64.496  32.088  60.936  1.00  0.00    -0.550 OA
ENDBRANCH   1   2
BRANCH   1   5
ATOM      5  C   UNL     1      62.319  30.166  61.657  1.00  0.00     0.059 C 
BRANCH   5   6
ATOM      6  C   UNL     1      61.074  30.877  61.223  1.00  0.00     0.042 C 
ATOM      7  O   UNL     1      59.965  30.280  61.244  1.00  0.00    -0.550 OA
ATOM      8  O   UNL     1      61.132  32.209  60.834  1.00  0.00    -0.550 OA
ENDBRANCH   5   6
ENDBRANCH   1   5
TORSDOF 3
ENDMDL
MODEL 4
REMARK VINA RESULT:    -2.504      1.928      2.497
REMARK INTER + INTRA:          -3.061
REMARK INTER:                  -2.954
REMARK INTRA:                  -0.107
REMARK UNBOUND:                -0.117
REMARK SMILES O=C([O-])CCC(=O)[O-]
REMARK SMILES IDX 4 1 2 2 1 3 3 4 5 5 6 6 7 7 8 8
REMARK H PARENT
REMARK Flexibility Score: inf
ROOT
ATOM      1  C   UNL     1      62.354  30.066  61.684  1.00  0.00     0.059 C 
ENDROOT
BRANCH   1   2
ATOM      2  C   UNL     1      61.135  30.816  61.241  1.00  0.00     0.042 C 
ATOM      3  O   UNL     1      60.010  30.253  61.245  1.00  0.00    -0.550 OA
ATOM      4  O   UNL     1      61.237  32.149  60.862  1.00  0.00    -0.550 OA
ENDBRANCH   1   2
BRANCH   1   5
ATOM      5  C   UNL     1      63.315  29.809  60.518  1.00  0.00     0.059 C 
BRANCH   5   6
ATOM      6  C   UNL     1      64.573  30.611  60.652  1.00  0.00     0.042 C 
ATOM      7  O   UNL     1      65.693  30.068  60.462  1.00  0.00    -0.550 OA
ATOM      8  O   UNL     1      64.506  31.967  60.947  1.00  0.00    -0.550 OA
ENDBRANCH   5   6
ENDBRANCH   1   5
TORSDOF 3
ENDMDL
MODEL 5
REMARK VINA RESULT:    -2.498      2.359      3.458
REMARK INTER + INTRA:          -3.053
REMARK INTER:                  -2.970
REMARK INTRA:                  -0.084
REMARK UNBOUND:                -0.117
REMARK SMILES O=C([O-])CCC(=O)[O-]
REMARK SMILES IDX 4 1 2 2 1 3 3 4 5 5 6 6 7 7 8 8
REMARK H PARENT
REMARK Flexibility Score: inf
ROOT
ATOM      1  C   UNL     1      61.131  31.740  60.650  1.00  0.00     0.059 C 
ENDROOT
BRANCH   1   2
ATOM      2  C   UNL     1      60.079  31.356  59.655  1.00  0.00     0.042 C 
ATOM      3  O   UNL     1      59.600  30.192  59.658  1.00  0.00    -0.550 OA
ATOM      4  O   UNL     1      59.599  32.296  58.751  1.00  0.00    -0.550 OA
ENDBRANCH   1   2
BRANCH   1   5
ATOM      5  C   UNL     1      61.217  30.731  61.800  1.00  0.00     0.059 C 
BRANCH   5   6
ATOM      6  C   UNL     1      62.438  29.870  61.689  1.00  0.00     0.042 C 
ATOM      7  O   UNL     1      63.581  30.397  61.638  1.00  0.00    -0.550 OA
ATOM      8  O   UNL     1      62.317  28.487  61.681  1.00  0.00    -0.550 OA
ENDBRANCH   5   6
ENDBRANCH   1   5
TORSDOF 3
ENDMDL
MODEL 6
REMARK VINA RESULT:    -2.498     11.923     12.529
REMARK INTER + INTRA:          -3.053
REMARK INTER:                  -2.942
REMARK INTRA:                  -0.111
REMARK UNBOUND:                -0.117
REMARK SMILES O=C([O-])CCC(=O)[O-]
REMARK SMILES IDX 4 1 2 2 1 3 3 4 5 5 6 6 7 7 8 8
REMARK H PARENT
REMARK Flexibility Score: inf
ROOT
ATOM      1  C   UNL     1      58.155  29.197  50.670  1.00  0.00     0.059 C 
ENDROOT
BRANCH   1   2
ATOM      2  C   UNL     1      56.727  28.748  50.632  1.00  0.00     0.042 C 
ATOM      3  O   UNL     1      55.797  29.581  50.793  1.00  0.00    -0.550 OA
ATOM      4  O   UNL     1      56.422  27.416  50.379  1.00  0.00    -0.550 OA
ENDBRANCH   1   2
BRANCH   1   5
ATOM      5  C   UNL     1      58.893  28.843  49.374  1.00  0.00     0.059 C 
BRANCH   5   6
ATOM      6  C   UNL     1      59.880  27.736  49.586  1.00  0.00     0.042 C 
ATOM      7  O   UNL     1      61.084  28.002  49.843  1.00  0.00    -0.550 OA
ATOM      8  O   UNL     1      59.463  26.412  49.540  1.00  0.00    -0.550 OA
ENDBRANCH   5   6
ENDBRANCH   1   5
TORSDOF 3
ENDMDL
MODEL 7
REMARK VINA RESULT:    -2.486     12.014     12.824
REMARK INTER + INTRA:          -3.039
REMARK INTER:                  -2.926
REMARK INTRA:                  -0.113
REMARK UNBOUND:                -0.117
REMARK SMILES O=C([O-])CCC(=O)[O-]
REMARK SMILES IDX 4 1 2 2 1 3 3 4 5 5 6 6 7 7 8 8
REMARK H PARENT
REMARK Flexibility Score: inf
ROOT
ATOM      1  C   UNL     1      59.048  28.544  49.226  1.00  0.00     0.059 C 
ENDROOT
BRANCH   1   2
ATOM      2  C   UNL     1      60.009  27.438  49.539  1.00  0.00     0.042 C 
ATOM      3  O   UNL     1      59.606  26.247  49.601  1.00  0.00    -0.550 OA
ATOM      4  O   UNL     1      61.358  27.719  49.721  1.00  0.00    -0.550 OA
ENDBRANCH   1   2
BRANCH   1   5
ATOM      5  C   UNL     1      58.384  29.091  50.494  1.00  0.00     0.059 C 
BRANCH   5   6
ATOM      6  C   UNL     1      56.941  28.698  50.574  1.00  0.00     0.042 C 
ATOM      7  O   UNL     1      56.057  29.571  50.782  1.00  0.00    -0.550 OA
ATOM      8  O   UNL     1      56.568  27.374  50.381  1.00  0.00    -0.550 OA
ENDBRANCH   5   6
ENDBRANCH   1   5
TORSDOF 3
ENDMDL
MODEL 8
REMARK VINA RESULT:    -2.469      2.374      3.635
REMARK INTER + INTRA:          -3.020
REMARK INTER:                  -2.933
REMARK INTRA:                  -0.086
REMARK UNBOUND:                -0.117
REMARK SMILES O=C([O-])CCC(=O)[O-]
REMARK SMILES IDX 4 1 2 2 1 3 3 4 5 5 6 6 7 7 8 8
REMARK H PARENT
REMARK Flexibility Score: inf
ROOT
ATOM      1  C   UNL     1      61.196  30.773  61.730  1.00  0.00     0.059 C 
ENDROOT
BRANCH   1   2
ATOM      2  C   UNL     1      62.399  29.884  61.644  1.00  0.00     0.042 C 
ATOM      3  O   UNL     1      63.552  30.384  61.583  1.00  0.00    -0.550 OA
ATOM      4  O   UNL     1      62.247  28.503  61.672  1.00  0.00    -0.550 OA
ENDBRANCH   1   2
BRANCH   1   5
ATOM      5  C   UNL     1      61.145  31.769  60.566  1.00  0.00     0.059 C 
BRANCH   5   6
ATOM      6  C   UNL     1      60.070  31.415  59.584  1.00  0.00     0.042 C 
ATOM      7  O   UNL     1      59.589  32.298  58.826  1.00  0.00    -0.550 OA
ATOM      8  O   UNL     1      59.628  30.102  59.479  1.00  0.00    -0.550 OA
ENDBRANCH   5   6
ENDBRANCH   1   5
TORSDOF 3
ENDMDL
MODEL 9
REMARK VINA RESULT:    -2.443      1.157      1.435
REMARK INTER + INTRA:          -2.989
REMARK INTER:                  -2.933
REMARK INTRA:                  -0.055
REMARK UNBOUND:                -0.117
REMARK SMILES O=C([O-])CCC(=O)[O-]
REMARK SMILES IDX 4 1 2 2 1 3 3 4 5 5 6 6 7 7 8 8
REMARK H PARENT
REMARK Flexibility Score: inf
ROOT
ATOM      1  C   UNL     1      61.692  32.423  60.515  1.00  0.00     0.059 C 
ENDROOT
BRANCH   1   2
ATOM      2  C   UNL     1      61.489  31.164  61.300  1.00  0.00     0.042 C 
ATOM      3  O   UNL     1      60.333  30.825  61.666  1.00  0.00    -0.550 OA
ATOM      4  O   UNL     1      62.572  30.343  61.592  1.00  0.00    -0.550 OA
ENDBRANCH   1   2
BRANCH   1   5
ATOM      5  C   UNL     1      63.177  32.785  60.401  1.00  0.00     0.059 C 
BRANCH   5   6
ATOM      6  C   UNL     1      63.441  34.184  60.869  1.00  0.00     0.042 C 
ATOM      7  O   UNL     1      62.511  35.033  60.884  1.00  0.00    -0.550 OA
ATOM      8  O   UNL     1      64.704  34.539  61.325  1.00  0.00    -0.550 OA
ENDBRANCH   5   6
ENDBRANCH   1   5
TORSDOF 3
ENDMDL
