MODEL 1
REMARK VINA RESULT:    -3.968      0.000      0.000
REMARK INTER + INTRA:          -9.186
REMARK INTER:                  -6.983
REMARK INTRA:                  -2.202
REMARK UNBOUND:                -2.202
REMARK SMILES CCCCCCCCCCCCCCC(=O)[O-]
REMARK SMILES IDX 9 1 10 2 11 3 12 4 13 5 14 6 15 7 16 8 17 9 8 10 7 11 6 12
REMARK SMILES IDX 5 13 4 14 3 15 2 16 1 17
REMARK H PARENT
REMARK Flexibility Score: inf
ROOT
ATOM      1  C   UNL     1      38.104  24.012 223.193  1.00  0.00     0.000 C 
ENDROOT
BRANCH   1   2
ATOM      2  C   UNL     1      38.360  25.387 223.846  1.00  0.00     0.000 C 
BRANCH   2   3
ATOM      3  C   UNL     1      37.875  25.480 225.305  1.00  0.00     0.000 C 
BRANCH   3   4
ATOM      4  C   UNL     1      37.304  24.173 225.885  1.00  0.00     0.000 C 
BRANCH   4   5
ATOM      5  C   UNL     1      38.318  23.309 226.658  1.00  0.00     0.006 C 
BRANCH   5   6
ATOM      6  C   UNL     1      38.292  21.835 226.234  1.00  0.00     0.053 C 
BRANCH   6   7
ATOM      7  C   UNL     1      36.884  21.381 226.009  1.00  0.00     0.041 C 
ATOM      8  O   UNL     1      36.145  21.098 226.989  1.00  0.00    -0.550 OA
ATOM      9  O   UNL     1      36.404  21.221 224.716  1.00  0.00    -0.550 OA
ENDBRANCH   6   7
ENDBRANCH   5   6
ENDBRANCH   4   5
ENDBRANCH   3   4
ENDBRANCH   2   3
ENDBRANCH   1   2
BRANCH   1  10
ATOM     10  C   UNL     1      39.389  23.392 222.613  1.00  0.00     0.000 C 
BRANCH  10  11
ATOM     11  C   UNL     1      40.667  23.989 223.225  1.00  0.00    -0.000 C 
BRANCH  11  12
ATOM     12  C   UNL     1      41.490  22.950 224.005  1.00  0.00    -0.000 C 
BRANCH  12  13
ATOM     13  C   UNL     1      41.931  23.452 225.393  1.00  0.00    -0.000 C 
BRANCH  13  14
ATOM     14  C   UNL     1      42.204  24.965 225.489  1.00  0.00    -0.000 C 
BRANCH  14  15
ATOM     15  C   UNL     1      41.389  25.654 226.597  1.00  0.00    -0.000 C 
BRANCH  15  16
ATOM     16  C   UNL     1      41.106  27.132 226.287  1.00  0.00    -0.003 C 
ATOM     17  C   UNL     1      40.002  27.722 227.166  1.00  0.00     0.004 C 
ENDBRANCH  15  16
ENDBRANCH  14  15
ENDBRANCH  13  14
ENDBRANCH  12  13
ENDBRANCH  11  12
ENDBRANCH  10  11
ENDBRANCH   1  10
TORSDOF 13
ENDMDL
MODEL 2
REMARK VINA RESULT:    -3.880      1.737      4.212
REMARK INTER + INTRA:          -9.032
REMARK INTER:                  -6.809
REMARK INTRA:                  -2.223
REMARK UNBOUND:                -2.202
REMARK SMILES CCCCCCCCCCCCCCC(=O)[O-]
REMARK SMILES IDX 9 1 10 2 11 3 12 4 13 5 14 6 15 7 16 8 17 9 8 10 7 11 6 12
REMARK SMILES IDX 5 13 4 14 3 15 2 16 1 17
REMARK H PARENT
REMARK Flexibility Score: inf
ROOT
ATOM      1  C   UNL     1      40.201  24.141 223.456  1.00  0.00     0.000 C 
ENDROOT
BRANCH   1   2
ATOM      2  C   UNL     1      39.782  22.675 223.212  1.00  0.00     0.000 C 
BRANCH   2   3
ATOM      3  C   UNL     1      39.644  21.847 224.505  1.00  0.00     0.000 C 
BRANCH   3   4
ATOM      4  C   UNL     1      38.196  21.589 224.961  1.00  0.00     0.000 C 
BRANCH   4   5
ATOM      5  C   UNL     1      38.041  21.222 226.449  1.00  0.00     0.006 C 
BRANCH   5   6
ATOM      6  C   UNL     1      36.579  21.011 226.862  1.00  0.00     0.053 C 
BRANCH   6   7
ATOM      7  C   UNL     1      36.182  19.582 226.667  1.00  0.00     0.041 C 
ATOM      8  O   UNL     1      36.804  18.664 227.264  1.00  0.00    -0.550 OA
ATOM      9  O   UNL     1      35.158  19.259 225.786  1.00  0.00    -0.550 OA
ENDBRANCH   6   7
ENDBRANCH   5   6
ENDBRANCH   4   5
ENDBRANCH   3   4
ENDBRANCH   2   3
ENDBRANCH   1   2
BRANCH   1  10
ATOM     10  C   UNL     1      40.896  24.331 224.816  1.00  0.00     0.000 C 
BRANCH  10  11
ATOM     11  C   UNL     1      40.029  25.105 225.824  1.00  0.00    -0.000 C 
BRANCH  11  12
ATOM     12  C   UNL     1      38.739  25.655 225.194  1.00  0.00    -0.000 C 
BRANCH  12  13
ATOM     13  C   UNL     1      37.469  25.229 225.957  1.00  0.00    -0.000 C 
BRANCH  13  14
ATOM     14  C   UNL     1      36.300  24.756 225.074  1.00  0.00    -0.000 C 
BRANCH  14  15
ATOM     15  C   UNL     1      36.577  24.922 223.569  1.00  0.00    -0.000 C 
BRANCH  15  16
ATOM     16  C   UNL     1      35.946  23.801 222.728  1.00  0.00    -0.003 C 
ATOM     17  C   UNL     1      36.585  23.666 221.346  1.00  0.00     0.004 C 
ENDBRANCH  15  16
ENDBRANCH  14  15
ENDBRANCH  13  14
ENDBRANCH  12  13
ENDBRANCH  11  12
ENDBRANCH  10  11
ENDBRANCH   1  10
TORSDOF 13
ENDMDL
MODEL 3
REMARK VINA RESULT:    -3.879      1.676      3.699
REMARK INTER + INTRA:          -9.029
REMARK INTER:                  -6.819
REMARK INTRA:                  -2.210
REMARK UNBOUND:                -2.202
REMARK SMILES CCCCCCCCCCCCCCC(=O)[O-]
REMARK SMILES IDX 9 1 10 2 11 3 12 4 13 5 14 6 15 7 16 8 17 9 8 10 7 11 6 12
REMARK SMILES IDX 5 13 4 14 3 15 2 16 1 17
REMARK H PARENT
REMARK Flexibility Score: inf
ROOT
ATOM      1  C   UNL     1      37.821  24.087 226.386  1.00  0.00     0.000 C 
ENDROOT
BRANCH   1   2
ATOM      2  C   UNL     1      38.980  23.280 227.010  1.00  0.00     0.000 C 
BRANCH   2   3
ATOM      3  C   UNL     1      38.785  21.753 226.930  1.00  0.00     0.000 C 
BRANCH   3   4
ATOM      4  C   UNL     1      38.312  21.228 225.562  1.00  0.00     0.000 C 
BRANCH   4   5
ATOM      5  C   UNL     1      36.926  20.557 225.568  1.00  0.00     0.006 C 
BRANCH   5   6
ATOM      6  C   UNL     1      36.530  20.018 226.949  1.00  0.00     0.053 C 
BRANCH   6   7
ATOM      7  C   UNL     1      36.170  18.569 226.860  1.00  0.00     0.041 C 
ATOM      8  O   UNL     1      35.614  18.116 225.824  1.00  0.00    -0.550 OA
ATOM      9  O   UNL     1      36.401  17.728 227.940  1.00  0.00    -0.550 OA
ENDBRANCH   6   7
ENDBRANCH   5   6
ENDBRANCH   4   5
ENDBRANCH   3   4
ENDBRANCH   2   3
ENDBRANCH   1   2
BRANCH   1  10
ATOM     10  C   UNL     1      38.257  25.501 225.961  1.00  0.00     0.000 C 
BRANCH  10  11
ATOM     11  C   UNL     1      38.369  25.657 224.436  1.00  0.00    -0.000 C 
BRANCH  11  12
ATOM     12  C   UNL     1      37.738  24.480 223.673  1.00  0.00    -0.000 C 
BRANCH  12  13
ATOM     13  C   UNL     1      38.760  23.699 222.823  1.00  0.00    -0.000 C 
BRANCH  13  14
ATOM     14  C   UNL     1      40.238  24.017 223.114  1.00  0.00    -0.000 C 
BRANCH  14  15
ATOM     15  C   UNL     1      40.995  22.833 223.741  1.00  0.00    -0.000 C 
BRANCH  15  16
ATOM     16  C   UNL     1      42.059  23.285 224.753  1.00  0.00    -0.003 C 
ATOM     17  C   UNL     1      41.811  24.697 225.284  1.00  0.00     0.004 C 
ENDBRANCH  15  16
ENDBRANCH  14  15
ENDBRANCH  13  14
ENDBRANCH  12  13
ENDBRANCH  11  12
ENDBRANCH  10  11
ENDBRANCH   1  10
TORSDOF 13
ENDMDL
MODEL 4
REMARK VINA RESULT:    -3.878      2.272      3.922
REMARK INTER + INTRA:          -9.028
REMARK INTER:                  -6.906
REMARK INTRA:                  -2.122
REMARK UNBOUND:                -2.202
REMARK SMILES CCCCCCCCCCCCCCC(=O)[O-]
REMARK SMILES IDX 9 1 10 2 11 3 12 4 13 5 14 6 15 7 16 8 17 9 8 10 7 11 6 12
REMARK SMILES IDX 5 13 4 14 3 15 2 16 1 17
REMARK H PARENT
REMARK Flexibility Score: inf
ROOT
ATOM      1  C   UNL     1      36.361  24.461 224.526  1.00  0.00     0.000 C 
ENDROOT
BRANCH   1   2
ATOM      2  C   UNL     1      36.701  23.079 225.125  1.00  0.00     0.000 C 
BRANCH   2   3
ATOM      3  C   UNL     1      37.828  23.120 226.176  1.00  0.00     0.000 C 
BRANCH   3   4
ATOM      4  C   UNL     1      38.635  21.816 226.316  1.00  0.00     0.000 C 
BRANCH   4   5
ATOM      5  C   UNL     1      38.251  20.706 225.319  1.00  0.00     0.006 C 
BRANCH   5   6
ATOM      6  C   UNL     1      37.835  19.401 226.010  1.00  0.00     0.053 C 
BRANCH   6   7
ATOM      7  C   UNL     1      36.370  19.158 225.827  1.00  0.00     0.041 C 
ATOM      8  O   UNL     1      35.970  18.177 225.147  1.00  0.00    -0.550 OA
ATOM      9  O   UNL     1      35.446  20.044 226.365  1.00  0.00    -0.550 OA
ENDBRANCH   6   7
ENDBRANCH   5   6
ENDBRANCH   4   5
ENDBRANCH   3   4
ENDBRANCH   2   3
ENDBRANCH   1   2
BRANCH   1  10
ATOM     10  C   UNL     1      37.305  24.846 223.373  1.00  0.00     0.000 C 
BRANCH  10  11
ATOM     11  C   UNL     1      37.594  23.672 222.422  1.00  0.00    -0.000 C 
BRANCH  11  12
ATOM     12  C   UNL     1      39.097  23.378 222.284  1.00  0.00    -0.000 C 
BRANCH  12  13
ATOM     13  C   UNL     1      39.954  24.140 223.314  1.00  0.00    -0.000 C 
BRANCH  13  14
ATOM     14  C   UNL     1      41.203  23.389 223.813  1.00  0.00    -0.000 C 
BRANCH  14  15
ATOM     15  C   UNL     1      41.528  22.140 222.975  1.00  0.00    -0.000 C 
BRANCH  15  16
ATOM     16  C   UNL     1      41.618  20.866 223.830  1.00  0.00    -0.003 C 
ATOM     17  C   UNL     1      41.166  19.614 223.077  1.00  0.00     0.004 C 
ENDBRANCH  15  16
ENDBRANCH  14  15
ENDBRANCH  13  14
ENDBRANCH  12  13
ENDBRANCH  11  12
ENDBRANCH  10  11
ENDBRANCH   1  10
TORSDOF 13
ENDMDL
MODEL 5
REMARK VINA RESULT:    -3.849      1.310      3.619
REMARK INTER + INTRA:          -8.977
REMARK INTER:                  -7.126
REMARK INTRA:                  -1.851
REMARK UNBOUND:                -2.202
REMARK SMILES CCCCCCCCCCCCCCC(=O)[O-]
REMARK SMILES IDX 9 1 10 2 11 3 12 4 13 5 14 6 15 7 16 8 17 9 8 10 7 11 6 12
REMARK SMILES IDX 5 13 4 14 3 15 2 16 1 17
REMARK H PARENT
REMARK Flexibility Score: inf
ROOT
ATOM      1  C   UNL     1      39.065  26.122 227.008  1.00  0.00     0.000 C 
ENDROOT
BRANCH   1   2
ATOM      2  C   UNL     1      37.935  25.667 226.059  1.00  0.00     0.000 C 
BRANCH   2   3
ATOM      3  C   UNL     1      38.190  26.018 224.580  1.00  0.00     0.000 C 
BRANCH   3   4
ATOM      4  C   UNL     1      37.195  25.395 223.583  1.00  0.00     0.000 C 
BRANCH   4   5
ATOM      5  C   UNL     1      37.546  23.968 223.124  1.00  0.00     0.006 C 
BRANCH   5   6
ATOM      6  C   UNL     1      36.571  22.912 223.661  1.00  0.00     0.053 C 
BRANCH   6   7
ATOM      7  C   UNL     1      37.139  22.248 224.876  1.00  0.00     0.041 C 
ATOM      8  O   UNL     1      36.574  22.380 225.993  1.00  0.00    -0.550 OA
ATOM      9  O   UNL     1      38.321  21.524 224.783  1.00  0.00    -0.550 OA
ENDBRANCH   6   7
ENDBRANCH   5   6
ENDBRANCH   4   5
ENDBRANCH   3   4
ENDBRANCH   2   3
ENDBRANCH   1   2
BRANCH   1  10
ATOM     10  C   UNL     1      39.826  27.345 226.467  1.00  0.00     0.000 C 
BRANCH  10  11
ATOM     11  C   UNL     1      41.341  27.102 226.355  1.00  0.00    -0.000 C 
BRANCH  11  12
ATOM     12  C   UNL     1      41.851  26.073 227.377  1.00  0.00    -0.000 C 
BRANCH  12  13
ATOM     13  C   UNL     1      42.458  24.820 226.716  1.00  0.00    -0.000 C 
BRANCH  13  14
ATOM     14  C   UNL     1      42.269  24.725 225.191  1.00  0.00    -0.000 C 
BRANCH  14  15
ATOM     15  C   UNL     1      41.145  23.754 224.785  1.00  0.00    -0.000 C 
BRANCH  15  16
ATOM     16  C   UNL     1      41.068  23.547 223.264  1.00  0.00    -0.003 C 
ATOM     17  C   UNL     1      41.335  22.100 222.849  1.00  0.00     0.004 C 
ENDBRANCH  15  16
ENDBRANCH  14  15
ENDBRANCH  13  14
ENDBRANCH  12  13
ENDBRANCH  11  12
ENDBRANCH  10  11
ENDBRANCH   1  10
TORSDOF 13
ENDMDL
MODEL 6
REMARK VINA RESULT:    -3.823      1.357      3.293
REMARK INTER + INTRA:          -8.931
REMARK INTER:                  -6.815
REMARK INTRA:                  -2.117
REMARK UNBOUND:                -2.202
REMARK SMILES CCCCCCCCCCCCCCC(=O)[O-]
REMARK SMILES IDX 9 1 10 2 11 3 12 4 13 5 14 6 15 7 16 8 17 9 8 10 7 11 6 12
REMARK SMILES IDX 5 13 4 14 3 15 2 16 1 17
REMARK H PARENT
REMARK Flexibility Score: inf
ROOT
ATOM      1  C   UNL     1      41.696  23.155 226.417  1.00  0.00     0.000 C 
ENDROOT
BRANCH   1   2
ATOM      2  C   UNL     1      40.236  23.239 226.911  1.00  0.00     0.000 C 
BRANCH   2   3
ATOM      3  C   UNL     1      39.596  21.865 227.189  1.00  0.00     0.000 C 
BRANCH   3   4
ATOM      4  C   UNL     1      39.452  20.954 225.956  1.00  0.00     0.000 C 
BRANCH   4   5
ATOM      5  C   UNL     1      38.016  20.813 225.418  1.00  0.00     0.006 C 
BRANCH   5   6
ATOM      6  C   UNL     1      37.390  19.450 225.737  1.00  0.00     0.053 C 
BRANCH   6   7
ATOM      7  C   UNL     1      36.049  19.628 226.376  1.00  0.00     0.041 C 
ATOM      8  O   UNL     1      35.178  18.723 226.285  1.00  0.00    -0.550 OA
ATOM      9  O   UNL     1      35.743  20.816 227.028  1.00  0.00    -0.550 OA
ENDBRANCH   6   7
ENDBRANCH   5   6
ENDBRANCH   4   5
ENDBRANCH   3   4
ENDBRANCH   2   3
ENDBRANCH   1   2
BRANCH   1  10
ATOM     10  C   UNL     1      41.922  23.954 225.120  1.00  0.00     0.000 C 
BRANCH  10  11
ATOM     11  C   UNL     1      41.450  23.199 223.867  1.00  0.00    -0.000 C 
BRANCH  11  12
ATOM     12  C   UNL     1      40.484  24.029 223.005  1.00  0.00    -0.000 C 
BRANCH  12  13
ATOM     13  C   UNL     1      39.044  23.479 223.018  1.00  0.00    -0.000 C 
BRANCH  13  14
ATOM     14  C   UNL     1      38.073  24.202 223.969  1.00  0.00    -0.000 C 
BRANCH  14  15
ATOM     15  C   UNL     1      38.433  25.683 224.183  1.00  0.00    -0.000 C 
BRANCH  15  16
ATOM     16  C   UNL     1      38.506  26.062 225.671  1.00  0.00    -0.003 C 
ATOM     17  C   UNL     1      39.743  26.893 226.010  1.00  0.00     0.004 C 
ENDBRANCH  15  16
ENDBRANCH  14  15
ENDBRANCH  13  14
ENDBRANCH  12  13
ENDBRANCH  11  12
ENDBRANCH  10  11
ENDBRANCH   1  10
TORSDOF 13
ENDMDL
MODEL 7
REMARK VINA RESULT:    -3.761      2.307      4.421
REMARK INTER + INTRA:          -8.822
REMARK INTER:                  -7.106
REMARK INTRA:                  -1.715
REMARK UNBOUND:                -2.202
REMARK SMILES CCCCCCCCCCCCCCC(=O)[O-]
REMARK SMILES IDX 9 1 10 2 11 3 12 4 13 5 14 6 15 7 16 8 17 9 8 10 7 11 6 12
REMARK SMILES IDX 5 13 4 14 3 15 2 16 1 17
REMARK H PARENT
REMARK Flexibility Score: inf
ROOT
ATOM      1  C   UNL     1      39.484  22.054 224.500  1.00  0.00     0.000 C 
ENDROOT
BRANCH   1   2
ATOM      2  C   UNL     1      38.635  21.836 225.771  1.00  0.00     0.000 C 
BRANCH   2   3
ATOM      3  C   UNL     1      37.244  21.235 225.491  1.00  0.00     0.000 C 
BRANCH   3   4
ATOM      4  C   UNL     1      36.516  20.674 226.727  1.00  0.00     0.000 C 
BRANCH   4   5
ATOM      5  C   UNL     1      35.558  19.503 226.440  1.00  0.00     0.006 C 
BRANCH   5   6
ATOM      6  C   UNL     1      36.293  18.208 226.071  1.00  0.00     0.053 C 
BRANCH   6   7
ATOM      7  C   UNL     1      37.117  17.729 227.224  1.00  0.00     0.041 C 
ATOM      8  O   UNL     1      36.562  17.384 228.300  1.00  0.00    -0.550 OA
ATOM      9  O   UNL     1      38.503  17.711 227.127  1.00  0.00    -0.550 OA
ENDBRANCH   6   7
ENDBRANCH   5   6
ENDBRANCH   4   5
ENDBRANCH   3   4
ENDBRANCH   2   3
ENDBRANCH   1   2
BRANCH   1  10
ATOM     10  C   UNL     1      39.848  23.535 224.288  1.00  0.00     0.000 C 
BRANCH  10  11
ATOM     11  C   UNL     1      40.373  24.208 225.568  1.00  0.00    -0.000 C 
BRANCH  11  12
ATOM     12  C   UNL     1      39.791  25.617 225.776  1.00  0.00    -0.000 C 
BRANCH  12  13
ATOM     13  C   UNL     1      38.445  25.823 225.056  1.00  0.00    -0.000 C 
BRANCH  13  14
ATOM     14  C   UNL     1      37.214  25.260 225.790  1.00  0.00    -0.000 C 
BRANCH  14  15
ATOM     15  C   UNL     1      36.017  25.013 224.854  1.00  0.00    -0.000 C 
BRANCH  15  16
ATOM     16  C   UNL     1      36.443  24.847 223.386  1.00  0.00    -0.003 C 
ATOM     17  C   UNL     1      36.175  23.442 222.847  1.00  0.00     0.004 C 
ENDBRANCH  15  16
ENDBRANCH  14  15
ENDBRANCH  13  14
ENDBRANCH  12  13
ENDBRANCH  11  12
ENDBRANCH  10  11
ENDBRANCH   1  10
TORSDOF 13
ENDMDL
MODEL 8
REMARK VINA RESULT:    -3.727      2.100      5.021
REMARK INTER + INTRA:          -8.762
REMARK INTER:                  -7.254
REMARK INTRA:                  -1.507
REMARK UNBOUND:                -2.202
REMARK SMILES CCCCCCCCCCCCCCC(=O)[O-]
REMARK SMILES IDX 9 1 10 2 11 3 12 4 13 5 14 6 15 7 16 8 17 9 8 10 7 11 6 12
REMARK SMILES IDX 5 13 4 14 3 15 2 16 1 17
REMARK H PARENT
REMARK Flexibility Score: inf
ROOT
ATOM      1  C   UNL     1      39.535  25.563 225.303  1.00  0.00     0.000 C 
ENDROOT
BRANCH   1   2
ATOM      2  C   UNL     1      39.490  24.124 225.861  1.00  0.00     0.000 C 
BRANCH   2   3
ATOM      3  C   UNL     1      40.156  23.082 224.941  1.00  0.00     0.000 C 
BRANCH   3   4
ATOM      4  C   UNL     1      39.450  21.715 224.887  1.00  0.00     0.000 C 
BRANCH   4   5
ATOM      5  C   UNL     1      38.350  21.512 225.946  1.00  0.00     0.006 C 
BRANCH   5   6
ATOM      6  C   UNL     1      37.207  20.615 225.455  1.00  0.00     0.053 C 
BRANCH   6   7
ATOM      7  C   UNL     1      36.498  19.990 226.615  1.00  0.00     0.041 C 
ATOM      8  O   UNL     1      35.360  20.404 226.961  1.00  0.00    -0.550 OA
ATOM      9  O   UNL     1      37.116  18.984 227.346  1.00  0.00    -0.550 OA
ENDBRANCH   6   7
ENDBRANCH   5   6
ENDBRANCH   4   5
ENDBRANCH   3   4
ENDBRANCH   2   3
ENDBRANCH   1   2
BRANCH   1  10
ATOM     10  C   UNL     1      38.192  25.993 224.687  1.00  0.00     0.000 C 
BRANCH  10  11
ATOM     11  C   UNL     1      36.988  25.283 225.329  1.00  0.00    -0.000 C 
BRANCH  11  12
ATOM     12  C   UNL     1      35.905  24.910 224.302  1.00  0.00    -0.000 C 
BRANCH  12  13
ATOM     13  C   UNL     1      36.111  23.509 223.695  1.00  0.00    -0.000 C 
BRANCH  13  14
ATOM     14  C   UNL     1      35.950  23.426 222.166  1.00  0.00    -0.000 C 
BRANCH  14  15
ATOM     15  C   UNL     1      37.257  23.718 221.408  1.00  0.00    -0.000 C 
BRANCH  15  16
ATOM     16  C   UNL     1      37.133  23.455 219.898  1.00  0.00    -0.003 C 
ATOM     17  C   UNL     1      35.862  24.052 219.295  1.00  0.00     0.004 C 
ENDBRANCH  15  16
ENDBRANCH  14  15
ENDBRANCH  13  14
ENDBRANCH  12  13
ENDBRANCH  11  12
ENDBRANCH  10  11
ENDBRANCH   1  10
TORSDOF 13
ENDMDL
MODEL 9
REMARK VINA RESULT:    -3.712      2.118      4.028
REMARK INTER + INTRA:          -8.736
REMARK INTER:                  -6.509
REMARK INTRA:                  -2.227
REMARK UNBOUND:                -2.202
REMARK SMILES CCCCCCCCCCCCCCC(=O)[O-]
REMARK SMILES IDX 9 1 10 2 11 3 12 4 13 5 14 6 15 7 16 8 17 9 8 10 7 11 6 12
REMARK SMILES IDX 5 13 4 14 3 15 2 16 1 17
REMARK H PARENT
REMARK Flexibility Score: inf
ROOT
ATOM      1  C   UNL     1      41.931  20.515 224.461  1.00  0.00     0.000 C 
ENDROOT
BRANCH   1   2
ATOM      2  C   UNL     1      40.775  19.690 223.856  1.00  0.00     0.000 C 
BRANCH   2   3
ATOM      3  C   UNL     1      39.937  18.934 224.906  1.00  0.00     0.000 C 
BRANCH   3   4
ATOM      4  C   UNL     1      39.878  19.601 226.293  1.00  0.00     0.000 C 
BRANCH   4   5
ATOM      5  C   UNL     1      38.473  19.670 226.920  1.00  0.00     0.006 C 
BRANCH   5   6
ATOM      6  C   UNL     1      37.412  18.939 226.088  1.00  0.00     0.053 C 
BRANCH   6   7
ATOM      7  C   UNL     1      36.087  19.623 226.213  1.00  0.00     0.041 C 
ATOM      8  O   UNL     1      35.053  19.097 225.725  1.00  0.00    -0.550 OA
ATOM      9  O   UNL     1      36.004  20.868 226.824  1.00  0.00    -0.550 OA
ENDBRANCH   6   7
ENDBRANCH   5   6
ENDBRANCH   4   5
ENDBRANCH   3   4
ENDBRANCH   2   3
ENDBRANCH   1   2
BRANCH   1  10
ATOM     10  C   UNL     1      42.154  21.843 223.714  1.00  0.00     0.000 C 
BRANCH  10  11
ATOM     11  C   UNL     1      40.974  22.219 222.803  1.00  0.00    -0.000 C 
BRANCH  11  12
ATOM     12  C   UNL     1      40.583  23.701 222.923  1.00  0.00    -0.000 C 
BRANCH  12  13
ATOM     13  C   UNL     1      39.183  23.905 223.534  1.00  0.00    -0.000 C 
BRANCH  13  14
ATOM     14  C   UNL     1      38.676  22.750 224.417  1.00  0.00    -0.000 C 
BRANCH  14  15
ATOM     15  C   UNL     1      38.597  23.124 225.908  1.00  0.00    -0.000 C 
BRANCH  15  16
ATOM     16  C   UNL     1      39.826  23.915 226.382  1.00  0.00    -0.003 C 
ATOM     17  C   UNL     1      40.866  23.034 227.076  1.00  0.00     0.004 C 
ENDBRANCH  15  16
ENDBRANCH  14  15
ENDBRANCH  13  14
ENDBRANCH  12  13
ENDBRANCH  11  12
ENDBRANCH  10  11
ENDBRANCH   1  10
TORSDOF 13
ENDMDL
