MODEL 1
REMARK VINA RESULT:    -8.281      0.000      0.000
REMARK INTER + INTRA:         -10.309
REMARK INTER:                  -9.975
REMARK INTRA:                  -0.334
REMARK UNBOUND:                -0.334
REMARK SMILES O=c1c(O)c(-c2ccc(O)cc2O)oc2cc(O)cc(O)c12
REMARK SMILES IDX 5 1 3 2 2 3 1 4 22 5 20 6 19 7 17 8 16 9 15 10 14 11 6 12
REMARK SMILES IDX 8 13 7 14 9 15 11 16 12 17 10 18 13 20 4 22 21 24 18 26
REMARK H PARENT 10 19 13 21 4 23 21 25 18 27
REMARK Flexibility Score: inf
ROOT
ATOM      1  C   UNL     1      41.364  56.267  60.047  1.00  0.00     0.184 A 
ATOM      2  C   UNL     1      41.451  55.013  60.671  1.00  0.00     0.208 A 
ATOM      3  C   UNL     1      40.281  54.254  60.843  1.00  0.00     0.238 A 
ATOM      4  O   UNL     1      40.357  53.156  61.453  1.00  0.00    -0.285 OA
ATOM      5  C   UNL     1      39.043  54.753  60.369  1.00  0.00     0.111 A 
ATOM      6  C   UNL     1      37.802  54.053  60.454  1.00  0.00     0.134 A 
ATOM      7  C   UNL     1      36.619  54.697  60.069  1.00  0.00     0.093 A 
ATOM      8  C   UNL     1      36.639  55.987  59.542  1.00  0.00     0.123 A 
ATOM      9  C   UNL     1      37.855  56.658  59.401  1.00  0.00     0.094 A 
ATOM     10  C   UNL     1      39.047  56.057  59.810  1.00  0.00     0.146 A 
ATOM     11  O   UNL     1      40.180  56.735  59.668  1.00  0.00    -0.451 OA
ENDROOT
BRANCH   1  12
ATOM     12  C   UNL     1      42.561  57.109  59.812  1.00  0.00     0.063 A 
ATOM     13  C   UNL     1      44.498  58.307  60.671  1.00  0.00     0.047 A 
ATOM     14  C   UNL     1      43.354  57.537  60.893  1.00  0.00     0.020 A 
ATOM     15  C   UNL     1      44.872  58.652  59.368  1.00  0.00     0.119 A 
ATOM     16  C   UNL     1      44.099  58.221  58.287  1.00  0.00     0.093 A 
ATOM     17  C   UNL     1      42.947  57.448  58.500  1.00  0.00     0.130 A 
BRANCH  15  18
ATOM     18  O   UNL     1      46.010  59.421  59.136  1.00  0.00    -0.508 OA
ATOM     19  H   UNL     1      46.881  59.000  58.830  1.00  0.00     0.293 HD
ENDBRANCH  15  18
BRANCH  17  20
ATOM     20  O   UNL     1      42.181  57.030  57.411  1.00  0.00    -0.507 OA
ATOM     21  H   UNL     1      42.207  56.073  57.080  1.00  0.00     0.293 HD
ENDBRANCH  17  20
ENDBRANCH   1  12
BRANCH   2  22
ATOM     22  O   UNL     1      42.681  54.547  61.142  1.00  0.00    -0.502 OA
ATOM     23  H   UNL     1      43.234  53.864  60.638  1.00  0.00     0.293 HD
ENDBRANCH   2  22
BRANCH   6  24
ATOM     24  O   UNL     1      37.681  52.727  60.879  1.00  0.00    -0.507 OA
ATOM     25  H   UNL     1      36.853  52.162  60.772  1.00  0.00     0.293 HD
ENDBRANCH   6  24
BRANCH   8  26
ATOM     26  O   UNL     1      35.446  56.590  59.155  1.00  0.00    -0.508 OA
ATOM     27  H   UNL     1      35.435  57.455  58.627  1.00  0.00     0.293 HD
ENDBRANCH   8  26
TORSDOF 6
ENDMDL
MODEL 2
REMARK VINA RESULT:    -7.657      3.309      6.392
REMARK INTER + INTRA:          -9.558
REMARK INTER:                  -9.374
REMARK INTRA:                  -0.184
REMARK UNBOUND:                -0.334
REMARK SMILES O=c1c(O)c(-c2ccc(O)cc2O)oc2cc(O)cc(O)c12
REMARK SMILES IDX 5 1 3 2 2 3 1 4 22 5 20 6 19 7 17 8 16 9 15 10 14 11 6 12
REMARK SMILES IDX 8 13 7 14 9 15 11 16 12 17 10 18 13 20 4 22 21 24 18 26
REMARK H PARENT 10 19 13 21 4 23 21 25 18 27
REMARK Flexibility Score: inf
ROOT
ATOM      1  C   UNL     1      41.673  58.279  58.846  1.00  0.00     0.184 A 
ATOM      2  C   UNL     1      42.772  59.087  59.179  1.00  0.00     0.208 A 
ATOM      3  C   UNL     1      42.885  60.359  58.595  1.00  0.00     0.238 A 
ATOM      4  O   UNL     1      43.902  61.054  58.854  1.00  0.00    -0.285 OA
ATOM      5  C   UNL     1      41.887  60.814  57.700  1.00  0.00     0.111 A 
ATOM      6  C   UNL     1      41.879  62.100  57.080  1.00  0.00     0.134 A 
ATOM      7  C   UNL     1      40.909  62.394  56.113  1.00  0.00     0.093 A 
ATOM      8  C   UNL     1      39.910  61.476  55.792  1.00  0.00     0.123 A 
ATOM      9  C   UNL     1      39.874  60.239  56.435  1.00  0.00     0.094 A 
ATOM     10  C   UNL     1      40.849  59.902  57.377  1.00  0.00     0.146 A 
ATOM     11  O   UNL     1      40.784  58.709  57.958  1.00  0.00    -0.451 OA
ENDROOT
BRANCH   1  12
ATOM     12  C   UNL     1      41.478  56.937  59.444  1.00  0.00     0.063 A 
ATOM     13  C   UNL     1      40.131  55.386  60.748  1.00  0.00     0.047 A 
ATOM     14  C   UNL     1      40.329  56.657  60.207  1.00  0.00     0.020 A 
ATOM     15  C   UNL     1      41.070  54.372  60.527  1.00  0.00     0.119 A 
ATOM     16  C   UNL     1      42.208  54.636  59.760  1.00  0.00     0.093 A 
ATOM     17  C   UNL     1      42.416  55.912  59.213  1.00  0.00     0.130 A 
BRANCH  15  18
ATOM     18  O   UNL     1      40.882  53.100  61.063  1.00  0.00    -0.508 OA
ATOM     19  H   UNL     1      40.807  52.281  60.470  1.00  0.00     0.293 HD
ENDBRANCH  15  18
BRANCH  17  20
ATOM     20  O   UNL     1      43.560  56.163  58.455  1.00  0.00    -0.507 OA
ATOM     21  H   UNL     1      43.912  55.489  57.785  1.00  0.00     0.293 HD
ENDBRANCH  17  20
ENDBRANCH   1  12
BRANCH   2  22
ATOM     22  O   UNL     1      43.752  58.611  60.054  1.00  0.00    -0.502 OA
ATOM     23  H   UNL     1      43.549  57.939  60.785  1.00  0.00     0.293 HD
ENDBRANCH   2  22
BRANCH   6  24
ATOM     24  O   UNL     1      42.777  63.124  57.395  1.00  0.00    -0.507 OA
ATOM     25  H   UNL     1      42.516  64.079  57.584  1.00  0.00     0.293 HD
ENDBRANCH   6  24
BRANCH   8  26
ATOM     26  O   UNL     1      38.953  61.809  54.837  1.00  0.00    -0.508 OA
ATOM     27  H   UNL     1      39.209  62.005  53.876  1.00  0.00     0.293 HD
ENDBRANCH   8  26
TORSDOF 6
ENDMDL
MODEL 3
REMARK VINA RESULT:    -7.602      1.409      2.948
REMARK INTER + INTRA:          -9.491
REMARK INTER:                  -9.021
REMARK INTRA:                  -0.470
REMARK UNBOUND:                -0.334
REMARK SMILES O=c1c(O)c(-c2ccc(O)cc2O)oc2cc(O)cc(O)c12
REMARK SMILES IDX 5 1 3 2 2 3 1 4 22 5 20 6 19 7 17 8 16 9 15 10 14 11 6 12
REMARK SMILES IDX 8 13 7 14 9 15 11 16 12 17 10 18 13 20 4 22 21 24 18 26
REMARK H PARENT 10 19 13 21 4 23 21 25 18 27
REMARK Flexibility Score: inf
ROOT
ATOM      1  C   UNL     1      41.510  57.196  59.862  1.00  0.00     0.184 A 
ATOM      2  C   UNL     1      40.619  57.915  59.049  1.00  0.00     0.208 A 
ATOM      3  C   UNL     1      39.305  57.443  58.894  1.00  0.00     0.238 A 
ATOM      4  O   UNL     1      38.529  58.060  58.119  1.00  0.00    -0.285 OA
ATOM      5  C   UNL     1      38.895  56.269  59.572  1.00  0.00     0.111 A 
ATOM      6  C   UNL     1      37.577  55.722  59.519  1.00  0.00     0.134 A 
ATOM      7  C   UNL     1      37.318  54.487  60.126  1.00  0.00     0.093 A 
ATOM      8  C   UNL     1      38.309  53.811  60.837  1.00  0.00     0.123 A 
ATOM      9  C   UNL     1      39.585  54.366  60.944  1.00  0.00     0.094 A 
ATOM     10  C   UNL     1      39.884  55.579  60.319  1.00  0.00     0.146 A 
ATOM     11  O   UNL     1      41.114  56.066  60.437  1.00  0.00    -0.451 OA
ENDROOT
BRANCH   1  12
ATOM     12  C   UNL     1      42.902  57.650  60.089  1.00  0.00     0.063 A 
ATOM     13  C   UNL     1      44.500  59.026  61.305  1.00  0.00     0.047 A 
ATOM     14  C   UNL     1      43.185  58.617  61.071  1.00  0.00     0.020 A 
ATOM     15  C   UNL     1      45.551  58.469  60.569  1.00  0.00     0.119 A 
ATOM     16  C   UNL     1      45.282  57.498  59.601  1.00  0.00     0.093 A 
ATOM     17  C   UNL     1      43.964  57.082  59.358  1.00  0.00     0.130 A 
BRANCH  15  18
ATOM     18  O   UNL     1      46.866  58.870  60.794  1.00  0.00    -0.508 OA
ATOM     19  H   UNL     1      47.607  58.195  60.949  1.00  0.00     0.293 HD
ENDBRANCH  15  18
BRANCH  17  20
ATOM     20  O   UNL     1      43.710  56.118  58.382  1.00  0.00    -0.507 OA
ATOM     21  H   UNL     1      44.292  55.294  58.286  1.00  0.00     0.293 HD
ENDBRANCH  17  20
ENDBRANCH   1  12
BRANCH   2  22
ATOM     22  O   UNL     1      41.051  59.063  58.379  1.00  0.00    -0.502 OA
ATOM     23  H   UNL     1      42.024  59.225  58.149  1.00  0.00     0.293 HD
ENDBRANCH   2  22
BRANCH   6  24
ATOM     24  O   UNL     1      36.490  56.360  58.913  1.00  0.00    -0.507 OA
ATOM     25  H   UNL     1      35.597  56.517  59.354  1.00  0.00     0.293 HD
ENDBRANCH   6  24
BRANCH   8  26
ATOM     26  O   UNL     1      38.011  52.592  61.441  1.00  0.00    -0.508 OA
ATOM     27  H   UNL     1      38.124  51.714  60.947  1.00  0.00     0.293 HD
ENDBRANCH   8  26
TORSDOF 6
ENDMDL
MODEL 4
REMARK VINA RESULT:    -7.518      3.184      6.402
REMARK INTER + INTRA:          -9.390
REMARK INTER:                  -9.253
REMARK INTRA:                  -0.138
REMARK UNBOUND:                -0.334
REMARK SMILES O=c1c(O)c(-c2ccc(O)cc2O)oc2cc(O)cc(O)c12
REMARK SMILES IDX 5 1 3 2 2 3 1 4 22 5 20 6 19 7 17 8 16 9 15 10 14 11 6 12
REMARK SMILES IDX 8 13 7 14 9 15 11 16 12 17 10 18 13 20 4 22 21 24 18 26
REMARK H PARENT 10 19 13 21 4 23 21 25 18 27
REMARK Flexibility Score: inf
ROOT
ATOM      1  C   UNL     1      41.686  58.176  59.048  1.00  0.00     0.184 A 
ATOM      2  C   UNL     1      42.752  58.978  59.487  1.00  0.00     0.208 A 
ATOM      3  C   UNL     1      42.900  60.268  58.951  1.00  0.00     0.238 A 
ATOM      4  O   UNL     1      43.888  60.961  59.306  1.00  0.00    -0.285 OA
ATOM      5  C   UNL     1      41.967  60.745  57.997  1.00  0.00     0.111 A 
ATOM      6  C   UNL     1      41.997  62.050  57.417  1.00  0.00     0.134 A 
ATOM      7  C   UNL     1      41.100  62.368  56.390  1.00  0.00     0.093 A 
ATOM      8  C   UNL     1      40.134  61.456  55.967  1.00  0.00     0.123 A 
ATOM      9  C   UNL     1      40.059  60.199  56.569  1.00  0.00     0.094 A 
ATOM     10  C   UNL     1      40.963  59.838  57.571  1.00  0.00     0.146 A 
ATOM     11  O   UNL     1      40.863  58.628  58.109  1.00  0.00    -0.451 OA
ENDROOT
BRANCH   1  12
ATOM     12  C   UNL     1      41.457  56.816  59.589  1.00  0.00     0.063 A 
ATOM     13  C   UNL     1      42.320  54.644  60.270  1.00  0.00     0.047 A 
ATOM     14  C   UNL     1      42.530  55.917  59.735  1.00  0.00     0.020 A 
ATOM     15  C   UNL     1      41.040  54.254  60.677  1.00  0.00     0.119 A 
ATOM     16  C   UNL     1      39.970  55.144  60.548  1.00  0.00     0.093 A 
ATOM     17  C   UNL     1      40.171  56.424  60.010  1.00  0.00     0.130 A 
BRANCH  15  18
ATOM     18  O   UNL     1      40.819  52.987  61.211  1.00  0.00    -0.508 OA
ATOM     19  H   UNL     1      41.454  52.580  61.889  1.00  0.00     0.293 HD
ENDBRANCH  15  18
BRANCH  17  20
ATOM     20  O   UNL     1      39.092  57.300  59.882  1.00  0.00    -0.507 OA
ATOM     21  H   UNL     1      38.509  57.306  59.053  1.00  0.00     0.293 HD
ENDBRANCH  17  20
ENDBRANCH   1  12
BRANCH   2  22
ATOM     22  O   UNL     1      43.667  58.481  60.418  1.00  0.00    -0.502 OA
ATOM     23  H   UNL     1      43.483  57.655  60.975  1.00  0.00     0.293 HD
ENDBRANCH   2  22
BRANCH   6  24
ATOM     24  O   UNL     1      42.862  63.068  57.830  1.00  0.00    -0.507 OA
ATOM     25  H   UNL     1      43.678  62.931  58.404  1.00  0.00     0.293 HD
ENDBRANCH   6  24
BRANCH   8  26
ATOM     26  O   UNL     1      39.249  61.813  54.954  1.00  0.00    -0.508 OA
ATOM     27  H   UNL     1      39.398  61.525  53.994  1.00  0.00     0.293 HD
ENDBRANCH   8  26
TORSDOF 6
ENDMDL
MODEL 5
REMARK VINA RESULT:    -7.376      1.604      3.272
REMARK INTER + INTRA:          -9.219
REMARK INTER:                  -8.956
REMARK INTRA:                  -0.262
REMARK UNBOUND:                -0.334
REMARK SMILES O=c1c(O)c(-c2ccc(O)cc2O)oc2cc(O)cc(O)c12
REMARK SMILES IDX 5 1 3 2 2 3 1 4 22 5 20 6 19 7 17 8 16 9 15 10 14 11 6 12
REMARK SMILES IDX 8 13 7 14 9 15 11 16 12 17 10 18 13 20 4 22 21 24 18 26
REMARK H PARENT 10 19 13 21 4 23 21 25 18 27
REMARK Flexibility Score: inf
ROOT
ATOM      1  C   UNL     1      41.592  57.590  59.221  1.00  0.00     0.184 A 
ATOM      2  C   UNL     1      40.333  57.942  58.709  1.00  0.00     0.208 A 
ATOM      3  C   UNL     1      39.220  57.149  59.031  1.00  0.00     0.238 A 
ATOM      4  O   UNL     1      38.105  57.437  58.524  1.00  0.00    -0.285 OA
ATOM      5  C   UNL     1      39.378  56.024  59.876  1.00  0.00     0.111 A 
ATOM      6  C   UNL     1      38.314  55.172  60.300  1.00  0.00     0.134 A 
ATOM      7  C   UNL     1      38.606  54.014  61.032  1.00  0.00     0.093 A 
ATOM      8  C   UNL     1      39.913  53.712  61.411  1.00  0.00     0.123 A 
ATOM      9  C   UNL     1      40.954  54.569  61.052  1.00  0.00     0.094 A 
ATOM     10  C   UNL     1      40.699  55.712  60.291  1.00  0.00     0.146 A 
ATOM     11  O   UNL     1      41.720  56.495  59.961  1.00  0.00    -0.451 OA
ENDROOT
BRANCH   1  12
ATOM     12  C   UNL     1      42.804  58.396  58.941  1.00  0.00     0.063 A 
ATOM     13  C   UNL     1      43.952  60.542  58.932  1.00  0.00     0.047 A 
ATOM     14  C   UNL     1      42.803  59.784  59.168  1.00  0.00     0.020 A 
ATOM     15  C   UNL     1      45.121  59.923  58.476  1.00  0.00     0.119 A 
ATOM     16  C   UNL     1      45.136  58.542  58.260  1.00  0.00     0.093 A 
ATOM     17  C   UNL     1      43.986  57.773  58.493  1.00  0.00     0.130 A 
BRANCH  15  18
ATOM     18  O   UNL     1      46.273  60.669  58.236  1.00  0.00    -0.508 OA
ATOM     19  H   UNL     1      47.097  60.573  58.819  1.00  0.00     0.293 HD
ENDBRANCH  15  18
BRANCH  17  20
ATOM     20  O   UNL     1      44.013  56.397  58.267  1.00  0.00    -0.507 OA
ATOM     21  H   UNL     1      44.399  55.754  58.949  1.00  0.00     0.293 HD
ENDBRANCH  17  20
ENDBRANCH   1  12
BRANCH   2  22
ATOM     22  O   UNL     1      40.203  59.049  57.866  1.00  0.00    -0.502 OA
ATOM     23  H   UNL     1      39.448  59.718  57.957  1.00  0.00     0.293 HD
ENDBRANCH   2  22
BRANCH   6  24
ATOM     24  O   UNL     1      36.962  55.430  60.054  1.00  0.00    -0.507 OA
ATOM     25  H   UNL     1      36.390  56.062  60.593  1.00  0.00     0.293 HD
ENDBRANCH   6  24
BRANCH   8  26
ATOM     26  O   UNL     1      40.164  52.560  62.152  1.00  0.00    -0.508 OA
ATOM     27  H   UNL     1      41.071  52.108  62.138  1.00  0.00     0.293 HD
ENDBRANCH   8  26
TORSDOF 6
ENDMDL
MODEL 6
REMARK VINA RESULT:    -7.373      2.925      4.186
REMARK INTER + INTRA:          -9.216
REMARK INTER:                  -9.390
REMARK INTRA:                   0.174
REMARK UNBOUND:                -0.334
REMARK SMILES O=c1c(O)c(-c2ccc(O)cc2O)oc2cc(O)cc(O)c12
REMARK SMILES IDX 5 1 3 2 2 3 1 4 22 5 20 6 19 7 17 8 16 9 15 10 14 11 6 12
REMARK SMILES IDX 8 13 7 14 9 15 11 16 12 17 10 18 13 20 4 22 21 24 18 26
REMARK H PARENT 10 19 13 21 4 23 21 25 18 27
REMARK Flexibility Score: inf
ROOT
ATOM      1  C   UNL     1      41.180  58.279  58.649  1.00  0.00     0.184 A 
ATOM      2  C   UNL     1      42.464  57.817  58.978  1.00  0.00     0.208 A 
ATOM      3  C   UNL     1      42.595  56.604  59.673  1.00  0.00     0.238 A 
ATOM      4  O   UNL     1      43.745  56.224  60.013  1.00  0.00    -0.285 OA
ATOM      5  C   UNL     1      41.440  55.859  60.013  1.00  0.00     0.111 A 
ATOM      6  C   UNL     1      41.456  54.598  60.682  1.00  0.00     0.134 A 
ATOM      7  C   UNL     1      40.248  54.013  61.081  1.00  0.00     0.093 A 
ATOM      8  C   UNL     1      39.024  54.609  60.780  1.00  0.00     0.123 A 
ATOM      9  C   UNL     1      38.995  55.813  60.074  1.00  0.00     0.094 A 
ATOM     10  C   UNL     1      40.184  56.439  59.694  1.00  0.00     0.146 A 
ATOM     11  O   UNL     1      40.112  57.590  59.034  1.00  0.00    -0.451 OA
ENDROOT
BRANCH   1  12
ATOM     12  C   UNL     1      40.970  59.538  57.895  1.00  0.00     0.063 A 
ATOM     13  C   UNL     1      41.709  61.772  57.275  1.00  0.00     0.047 A 
ATOM     14  C   UNL     1      41.891  60.596  58.006  1.00  0.00     0.020 A 
ATOM     15  C   UNL     1      40.613  61.905  56.417  1.00  0.00     0.119 A 
ATOM     16  C   UNL     1      39.700  60.855  56.289  1.00  0.00     0.093 A 
ATOM     17  C   UNL     1      39.873  59.670  57.021  1.00  0.00     0.130 A 
BRANCH  15  18
ATOM     18  O   UNL     1      40.422  63.074  55.684  1.00  0.00    -0.508 OA
ATOM     19  H   UNL     1      39.673  63.158  55.006  1.00  0.00     0.293 HD
ENDBRANCH  15  18
BRANCH  17  20
ATOM     20  O   UNL     1      38.950  58.632  56.889  1.00  0.00    -0.507 OA
ATOM     21  H   UNL     1      38.177  58.688  56.236  1.00  0.00     0.293 HD
ENDBRANCH  17  20
ENDBRANCH   1  12
BRANCH   2  22
ATOM     22  O   UNL     1      43.589  58.576  58.643  1.00  0.00    -0.502 OA
ATOM     23  H   UNL     1      43.521  59.487  58.205  1.00  0.00     0.293 HD
ENDBRANCH   2  22
BRANCH   6  24
ATOM     24  O   UNL     1      42.620  53.872  60.951  1.00  0.00    -0.507 OA
ATOM     25  H   UNL     1      42.655  52.875  61.096  1.00  0.00     0.293 HD
ENDBRANCH   6  24
BRANCH   8  26
ATOM     26  O   UNL     1      37.842  53.991  61.179  1.00  0.00    -0.508 OA
ATOM     27  H   UNL     1      37.836  53.047  61.549  1.00  0.00     0.293 HD
ENDBRANCH   8  26
TORSDOF 6
ENDMDL
MODEL 7
REMARK VINA RESULT:    -7.262      2.066      2.635
REMARK INTER + INTRA:          -9.082
REMARK INTER:                  -8.786
REMARK INTRA:                  -0.296
REMARK UNBOUND:                -0.334
REMARK SMILES O=c1c(O)c(-c2ccc(O)cc2O)oc2cc(O)cc(O)c12
REMARK SMILES IDX 5 1 3 2 2 3 1 4 22 5 20 6 19 7 17 8 16 9 15 10 14 11 6 12
REMARK SMILES IDX 8 13 7 14 9 15 11 16 12 17 10 18 13 20 4 22 21 24 18 26
REMARK H PARENT 10 19 13 21 4 23 21 25 18 27
REMARK Flexibility Score: inf
ROOT
ATOM      1  C   UNL     1      42.028  58.020  59.770  1.00  0.00     0.184 A 
ATOM      2  C   UNL     1      42.890  56.996  60.193  1.00  0.00     0.208 A 
ATOM      3  C   UNL     1      42.350  55.741  60.517  1.00  0.00     0.238 A 
ATOM      4  O   UNL     1      43.121  54.845  60.950  1.00  0.00    -0.285 OA
ATOM      5  C   UNL     1      40.957  55.521  60.394  1.00  0.00     0.111 A 
ATOM      6  C   UNL     1      40.306  54.278  60.658  1.00  0.00     0.134 A 
ATOM      7  C   UNL     1      38.907  54.211  60.627  1.00  0.00     0.093 A 
ATOM      8  C   UNL     1      38.140  55.321  60.279  1.00  0.00     0.123 A 
ATOM      9  C   UNL     1      38.769  56.526  59.962  1.00  0.00     0.094 A 
ATOM     10  C   UNL     1      40.161  56.634  60.020  1.00  0.00     0.146 A 
ATOM     11  O   UNL     1      40.719  57.802  59.722  1.00  0.00    -0.451 OA
ENDROOT
BRANCH   1  12
ATOM     12  C   UNL     1      42.532  59.360  59.388  1.00  0.00     0.063 A 
ATOM     13  C   UNL     1      43.803  61.366  59.925  1.00  0.00     0.047 A 
ATOM     14  C   UNL     1      43.304  60.114  60.292  1.00  0.00     0.020 A 
ATOM     15  C   UNL     1      43.549  61.877  58.648  1.00  0.00     0.119 A 
ATOM     16  C   UNL     1      42.795  61.131  57.738  1.00  0.00     0.093 A 
ATOM     17  C   UNL     1      42.288  59.873  58.099  1.00  0.00     0.130 A 
BRANCH  15  18
ATOM     18  O   UNL     1      44.041  63.125  58.272  1.00  0.00    -0.508 OA
ATOM     19  H   UNL     1      44.627  63.238  57.452  1.00  0.00     0.293 HD
ENDBRANCH  15  18
BRANCH  17  20
ATOM     20  O   UNL     1      41.531  59.142  57.183  1.00  0.00    -0.507 OA
ATOM     21  H   UNL     1      40.626  59.465  56.864  1.00  0.00     0.293 HD
ENDBRANCH  17  20
ENDBRANCH   1  12
BRANCH   2  22
ATOM     22  O   UNL     1      44.260  57.240  60.320  1.00  0.00    -0.502 OA
ATOM     23  H   UNL     1      44.842  57.501  59.532  1.00  0.00     0.293 HD
ENDBRANCH   2  22
BRANCH   6  24
ATOM     24  O   UNL     1      40.982  53.084  60.925  1.00  0.00    -0.507 OA
ATOM     25  H   UNL     1      41.692  52.971  61.632  1.00  0.00     0.293 HD
ENDBRANCH   6  24
BRANCH   8  26
ATOM     26  O   UNL     1      36.752  55.214  60.243  1.00  0.00    -0.508 OA
ATOM     27  H   UNL     1      36.273  54.789  59.457  1.00  0.00     0.293 HD
ENDBRANCH   8  26
TORSDOF 6
ENDMDL
MODEL 8
REMARK VINA RESULT:    -7.172      1.695      7.117
REMARK INTER + INTRA:          -8.973
REMARK INTER:                  -9.376
REMARK INTRA:                   0.403
REMARK UNBOUND:                -0.334
REMARK SMILES O=c1c(O)c(-c2ccc(O)cc2O)oc2cc(O)cc(O)c12
REMARK SMILES IDX 5 1 3 2 2 3 1 4 22 5 20 6 19 7 17 8 16 9 15 10 14 11 6 12
REMARK SMILES IDX 8 13 7 14 9 15 11 16 12 17 10 18 13 20 4 22 21 24 18 26
REMARK H PARENT 10 19 13 21 4 23 21 25 18 27
REMARK Flexibility Score: inf
ROOT
ATOM      1  C   UNL     1      41.373  56.806  59.862  1.00  0.00     0.184 A 
ATOM      2  C   UNL     1      40.968  57.871  59.041  1.00  0.00     0.208 A 
ATOM      3  C   UNL     1      41.914  58.836  58.661  1.00  0.00     0.238 A 
ATOM      4  O   UNL     1      41.533  59.818  57.972  1.00  0.00    -0.285 OA
ATOM      5  C   UNL     1      43.258  58.712  59.091  1.00  0.00     0.111 A 
ATOM      6  C   UNL     1      44.309  59.610  58.734  1.00  0.00     0.134 A 
ATOM      7  C   UNL     1      45.572  59.463  59.321  1.00  0.00     0.093 A 
ATOM      8  C   UNL     1      45.840  58.414  60.200  1.00  0.00     0.123 A 
ATOM      9  C   UNL     1      44.835  57.497  60.510  1.00  0.00     0.094 A 
ATOM     10  C   UNL     1      43.556  57.638  59.969  1.00  0.00     0.146 A 
ATOM     11  O   UNL     1      42.626  56.749  60.299  1.00  0.00    -0.451 OA
ENDROOT
BRANCH   1  12
ATOM     12  C   UNL     1      40.433  55.739  60.280  1.00  0.00     0.063 A 
ATOM     13  C   UNL     1      38.156  54.938  60.589  1.00  0.00     0.047 A 
ATOM     14  C   UNL     1      39.043  55.951  60.221  1.00  0.00     0.020 A 
ATOM     15  C   UNL     1      38.642  53.696  61.011  1.00  0.00     0.119 A 
ATOM     16  C   UNL     1      40.020  53.470  61.061  1.00  0.00     0.093 A 
ATOM     17  C   UNL     1      40.920  54.483  60.695  1.00  0.00     0.130 A 
BRANCH  15  18
ATOM     18  O   UNL     1      37.765  52.678  61.382  1.00  0.00    -0.508 OA
ATOM     19  H   UNL     1      37.633  51.856  60.803  1.00  0.00     0.293 HD
ENDBRANCH  15  18
BRANCH  17  20
ATOM     20  O   UNL     1      42.293  54.247  60.756  1.00  0.00    -0.507 OA
ATOM     21  H   UNL     1      42.718  53.459  60.280  1.00  0.00     0.293 HD
ENDBRANCH  17  20
ENDBRANCH   1  12
BRANCH   2  22
ATOM     22  O   UNL     1      39.634  57.979  58.640  1.00  0.00    -0.502 OA
ATOM     23  H   UNL     1      39.007  57.184  58.614  1.00  0.00     0.293 HD
ENDBRANCH   2  22
BRANCH   6  24
ATOM     24  O   UNL     1      44.173  60.638  57.795  1.00  0.00    -0.507 OA
ATOM     25  H   UNL     1      43.836  60.514  56.853  1.00  0.00     0.293 HD
ENDBRANCH   6  24
BRANCH   8  26
ATOM     26  O   UNL     1      47.112  58.290  60.753  1.00  0.00    -0.508 OA
ATOM     27  H   UNL     1      47.939  58.603  60.257  1.00  0.00     0.293 HD
ENDBRANCH   8  26
TORSDOF 6
ENDMDL
