MODEL 1
REMARK VINA RESULT:    -7.872      0.000      0.000
REMARK INTER + INTRA:         -15.256
REMARK INTER:                 -13.164
REMARK INTRA:                  -2.092
REMARK UNBOUND:                -2.092
REMARK SMILES COc1cc(-c2oc3cc(O)cc(O)c3c(=O)c2O[C@@H]2O[C@H](CO[C@H]3O[C@H](C)[C@H](O)[C@@H](O)[C@@H]3O)[C@H](O)[C@@H](O)[C@H]2O)ccc1O
REMARK SMILES IDX 22 1 35 2 37 3 39 4 20 5 21 6 23 7 24 8 25 9 28 10 27 11
REMARK SMILES IDX 29 12 26 13 31 14 33 15 30 16 32 18 34 20 36 22 38 24 19 26
REMARK SMILES IDX 18 27 6 28 16 29 7 30 15 31 17 32 8 33 13 34 9 35 12 36
REMARK SMILES IDX 10 37 5 38 4 39 41 40 3 41 42 42 43 43 2 44 1 45 44 46 14 48
REMARK SMILES IDX 11 50 40 52
REMARK H PARENT 30 17 32 19 34 21 36 23 38 25 44 47 14 49 11 51 40 53
REMARK Flexibility Score: inf
ROOT
ATOM      1  C   UNL     1      -0.673 -15.307  26.668  1.00  0.00     0.180 C 
ATOM      2  C   UNL     1      -0.444 -15.193  25.126  1.00  0.00     0.177 C 
ATOM      3  C   UNL     1      -0.146 -16.550  24.472  1.00  0.00     0.180 C 
ATOM      4  C   UNL     1       0.979 -17.233  25.257  1.00  0.00     0.214 C 
ATOM      5  C   UNL     1       0.552 -17.406  26.718  1.00  0.00     0.339 C 
ATOM      6  O   UNL     1       0.233 -16.168  27.357  1.00  0.00    -0.332 OA
ENDROOT
BRANCH   1   7
ATOM      7  C   UNL     1      -2.122 -15.565  27.110  1.00  0.00     0.198 C 
BRANCH   7   8
ATOM      8  O   UNL     1      -2.729 -14.358  27.527  1.00  0.00    -0.347 OA
BRANCH   8   9
ATOM      9  C   UNL     1      -3.267 -14.441  28.840  1.00  0.00     0.281 C 
ATOM     10  C   UNL     1      -0.166 -13.545  30.603  1.00  0.00     0.041 C 
ATOM     11  C   UNL     1      -1.415 -13.328  29.743  1.00  0.00     0.150 C 
ATOM     12  C   UNL     1      -2.223 -12.104  30.226  1.00  0.00     0.174 C 
ATOM     13  O   UNL     1      -2.209 -14.503  29.785  1.00  0.00    -0.344 OA
ATOM     14  C   UNL     1      -3.485 -11.930  29.355  1.00  0.00     0.179 C 
ATOM     15  C   UNL     1      -4.240 -13.266  29.178  1.00  0.00     0.202 C 
BRANCH  12  16
ATOM     16  O   UNL     1      -2.577 -12.266  31.576  1.00  0.00    -0.388 OA
ATOM     17  H   UNL     1      -3.442 -11.799  31.701  1.00  0.00     0.211 HD
ENDBRANCH  12  16
BRANCH  14  18
ATOM     18  O   UNL     1      -3.106 -11.422  28.099  1.00  0.00    -0.387 OA
ATOM     19  H   UNL     1      -2.116 -11.358  28.096  1.00  0.00     0.211 HD
ENDBRANCH  14  18
BRANCH  15  20
ATOM     20  O   UNL     1      -5.011 -13.554  30.319  1.00  0.00    -0.385 OA
ATOM     21  H   UNL     1      -5.570 -14.348  30.131  1.00  0.00     0.211 HD
ENDBRANCH  15  20
ENDBRANCH   8   9
ENDBRANCH   7   8
ENDBRANCH   1   7
BRANCH   2  22
ATOM     22  O   UNL     1      -1.500 -14.531  24.475  1.00  0.00    -0.387 OA
ATOM     23  H   UNL     1      -1.578 -13.625  24.864  1.00  0.00     0.211 HD
ENDBRANCH   2  22
BRANCH   3  24
ATOM     24  O   UNL     1       0.261 -16.371  23.136  1.00  0.00    -0.387 OA
ATOM     25  H   UNL     1      -0.539 -16.063  22.632  1.00  0.00     0.211 HD
ENDBRANCH   3  24
BRANCH   5  26
ATOM     26  O   UNL     1      -0.501 -18.376  26.777  1.00  0.00    -0.454 OA
BRANCH  26  27
ATOM     27  C   UNL     1      -0.643 -19.473  27.643  1.00  0.00     0.214 A 
ATOM     28  C   UNL     1       0.091 -20.677  27.549  1.00  0.00     0.180 A 
ATOM     29  C   UNL     1      -1.534 -19.317  28.714  1.00  0.00     0.239 A 
ATOM     30  O   UNL     1       0.018 -21.563  28.537  1.00  0.00    -0.452 OA
ATOM     31  C   UNL     1      -1.573 -20.268  29.759  1.00  0.00     0.111 A 
ATOM     32  O   UNL     1      -2.263 -18.292  28.728  1.00  0.00    -0.285 OA
ATOM     33  C   UNL     1      -0.740 -21.407  29.615  1.00  0.00     0.146 A 
ATOM     34  C   UNL     1      -2.362 -20.147  30.949  1.00  0.00     0.134 A 
ATOM     35  C   UNL     1      -0.702 -22.393  30.605  1.00  0.00     0.094 A 
ATOM     36  C   UNL     1      -2.316 -21.164  31.910  1.00  0.00     0.093 A 
ATOM     37  C   UNL     1      -1.498 -22.281  31.746  1.00  0.00     0.123 A 
BRANCH  28  38
ATOM     38  C   UNL     1       0.925 -21.042  26.388  1.00  0.00     0.025 A 
ATOM     39  C   UNL     1       0.368 -21.799  25.345  1.00  0.00     0.062 A 
ATOM     40  C   UNL     1       2.234 -20.547  26.255  1.00  0.00     0.016 A 
ATOM     41  C   UNL     1       1.128 -22.109  24.194  1.00  0.00     0.161 A 
ATOM     42  C   UNL     1       3.000 -20.874  25.132  1.00  0.00     0.051 A 
ATOM     43  C   UNL     1       2.455 -21.654  24.108  1.00  0.00     0.157 A 
BRANCH  41  44
ATOM     44  O   UNL     1       0.595 -22.858  23.133  1.00  0.00    -0.493 OA
ATOM     45  C   UNL     1       0.422 -24.273  23.152  1.00  0.00     0.278 C 
ENDBRANCH  41  44
BRANCH  43  46
ATOM     46  O   UNL     1       3.249 -21.961  23.002  1.00  0.00    -0.504 OA
ATOM     47  H   UNL     1       3.888 -21.287  22.594  1.00  0.00     0.293 HD
ENDBRANCH  43  46
ENDBRANCH  28  38
BRANCH  34  48
ATOM     48  O   UNL     1      -3.177 -19.053  31.249  1.00  0.00    -0.507 OA
ATOM     49  H   UNL     1      -2.863 -18.161  31.596  1.00  0.00     0.293 HD
ENDBRANCH  34  48
BRANCH  37  50
ATOM     50  O   UNL     1      -1.478 -23.271  32.723  1.00  0.00    -0.508 OA
ATOM     51  H   UNL     1      -2.098 -23.228  33.523  1.00  0.00     0.293 HD
ENDBRANCH  37  50
ENDBRANCH  26  27
ENDBRANCH   5  26
BRANCH   4  52
ATOM     52  O   UNL     1       2.160 -16.471  25.200  1.00  0.00    -0.384 OA
ATOM     53  H   UNL     1       2.449 -16.307  26.138  1.00  0.00     0.211 HD
ENDBRANCH   4  52
TORSDOF 16
ENDMDL
MODEL 2
REMARK VINA RESULT:    -7.830      2.030      3.388
REMARK INTER + INTRA:         -15.186
REMARK INTER:                 -13.253
REMARK INTRA:                  -1.933
REMARK UNBOUND:                -2.092
REMARK SMILES COc1cc(-c2oc3cc(O)cc(O)c3c(=O)c2O[C@@H]2O[C@H](CO[C@H]3O[C@H](C)[C@H](O)[C@@H](O)[C@@H]3O)[C@H](O)[C@@H](O)[C@H]2O)ccc1O
REMARK SMILES IDX 22 1 35 2 37 3 39 4 20 5 21 6 23 7 24 8 25 9 28 10 27 11
REMARK SMILES IDX 29 12 26 13 31 14 33 15 30 16 32 18 34 20 36 22 38 24 19 26
REMARK SMILES IDX 18 27 6 28 16 29 7 30 15 31 17 32 8 33 13 34 9 35 12 36
REMARK SMILES IDX 10 37 5 38 4 39 41 40 3 41 42 42 43 43 2 44 1 45 44 46 14 48
REMARK SMILES IDX 11 50 40 52
REMARK H PARENT 30 17 32 19 34 21 36 23 38 25 44 47 14 49 11 51 40 53
REMARK Flexibility Score: inf
ROOT
ATOM      1  C   UNL     1      -0.299 -16.881  29.143  1.00  0.00     0.180 C 
ATOM      2  C   UNL     1       0.739 -17.119  27.998  1.00  0.00     0.177 C 
ATOM      3  C   UNL     1       0.966 -18.609  27.708  1.00  0.00     0.180 C 
ATOM      4  C   UNL     1       1.267 -19.323  29.029  1.00  0.00     0.214 C 
ATOM      5  C   UNL     1       0.098 -19.121  29.999  1.00  0.00     0.339 C 
ATOM      6  O   UNL     1      -0.169 -17.745  30.272  1.00  0.00    -0.332 OA
ENDROOT
BRANCH   1   7
ATOM      7  C   UNL     1      -1.767 -16.771  28.700  1.00  0.00     0.198 C 
BRANCH   7   8
ATOM      8  O   UNL     1      -2.344 -15.586  29.213  1.00  0.00    -0.347 OA
BRANCH   8   9
ATOM      9  C   UNL     1      -2.746 -14.685  28.190  1.00  0.00     0.281 C 
ATOM     10  C   UNL     1      -6.228 -14.327  29.318  1.00  0.00     0.041 C 
ATOM     11  C   UNL     1      -4.708 -14.141  29.347  1.00  0.00     0.150 C 
ATOM     12  C   UNL     1      -4.328 -12.659  29.558  1.00  0.00     0.174 C 
ATOM     13  O   UNL     1      -4.164 -14.633  28.133  1.00  0.00    -0.344 OA
ATOM     14  C   UNL     1      -2.792 -12.506  29.557  1.00  0.00     0.179 C 
ATOM     15  C   UNL     1      -2.149 -13.252  28.367  1.00  0.00     0.202 C 
BRANCH  12  16
ATOM     16  O   UNL     1      -4.900 -11.869  28.547  1.00  0.00    -0.388 OA
ATOM     17  H   UNL     1      -4.209 -11.216  28.270  1.00  0.00     0.211 HD
ENDBRANCH  12  16
BRANCH  14  18
ATOM     18  O   UNL     1      -2.283 -13.005  30.770  1.00  0.00    -0.387 OA
ATOM     19  H   UNL     1      -3.028 -12.998  31.425  1.00  0.00     0.211 HD
ENDBRANCH  14  18
BRANCH  15  20
ATOM     20  O   UNL     1      -2.271 -12.499  27.186  1.00  0.00    -0.385 OA
ATOM     21  H   UNL     1      -2.568 -13.099  26.458  1.00  0.00     0.211 HD
ENDBRANCH  15  20
ENDBRANCH   8   9
ENDBRANCH   7   8
ENDBRANCH   1   7
BRANCH   2  22
ATOM     22  O   UNL     1       0.416 -16.412  26.827  1.00  0.00    -0.387 OA
ATOM     23  H   UNL     1       0.513 -17.029  26.060  1.00  0.00     0.211 HD
ENDBRANCH   2  22
BRANCH   3  24
ATOM     24  O   UNL     1       2.054 -18.777  26.830  1.00  0.00    -0.387 OA
ATOM     25  H   UNL     1       2.498 -17.890  26.752  1.00  0.00     0.211 HD
ENDBRANCH   3  24
BRANCH   5  26
ATOM     26  O   UNL     1      -1.037 -19.845  29.507  1.00  0.00    -0.454 OA
BRANCH  26  27
ATOM     27  C   UNL     1      -1.270 -21.230  29.511  1.00  0.00     0.214 A 
ATOM     28  C   UNL     1      -0.992 -22.101  28.434  1.00  0.00     0.180 A 
ATOM     29  C   UNL     1      -1.750 -21.782  30.707  1.00  0.00     0.239 A 
ATOM     30  O   UNL     1      -1.065 -23.414  28.622  1.00  0.00    -0.452 OA
ATOM     31  C   UNL     1      -1.797 -23.184  30.882  1.00  0.00     0.111 A 
ATOM     32  O   UNL     1      -2.101 -20.992  31.621  1.00  0.00    -0.285 OA
ATOM     33  C   UNL     1      -1.423 -23.977  29.768  1.00  0.00     0.146 A 
ATOM     34  C   UNL     1      -2.164 -23.847  32.098  1.00  0.00     0.134 A 
ATOM     35  C   UNL     1      -1.424 -25.373  29.853  1.00  0.00     0.094 A 
ATOM     36  C   UNL     1      -2.176 -25.246  32.142  1.00  0.00     0.093 A 
ATOM     37  C   UNL     1      -1.813 -26.010  31.033  1.00  0.00     0.123 A 
BRANCH  28  38
ATOM     38  C   UNL     1      -0.650 -21.641  27.073  1.00  0.00     0.025 A 
ATOM     39  C   UNL     1       0.487 -22.158  26.433  1.00  0.00     0.062 A 
ATOM     40  C   UNL     1      -1.509 -20.783  26.364  1.00  0.00     0.016 A 
ATOM     41  C   UNL     1       0.801 -21.781  25.107  1.00  0.00     0.161 A 
ATOM     42  C   UNL     1      -1.188 -20.384  25.063  1.00  0.00     0.051 A 
ATOM     43  C   UNL     1      -0.038 -20.874  24.437  1.00  0.00     0.157 A 
BRANCH  41  44
ATOM     44  O   UNL     1       1.928 -22.286  24.440  1.00  0.00    -0.493 OA
ATOM     45  C   UNL     1       3.250 -21.771  24.586  1.00  0.00     0.278 C 
ENDBRANCH  41  44
BRANCH  43  46
ATOM     46  O   UNL     1       0.250 -20.454  23.137  1.00  0.00    -0.504 OA
ATOM     47  H   UNL     1       1.170 -20.573  22.724  1.00  0.00     0.293 HD
ENDBRANCH  43  46
ENDBRANCH  28  38
BRANCH  34  48
ATOM     48  O   UNL     1      -2.496 -23.191  33.287  1.00  0.00    -0.507 OA
ATOM     49  H   UNL     1      -2.229 -23.481  34.214  1.00  0.00     0.293 HD
ENDBRANCH  34  48
BRANCH  37  50
ATOM     50  O   UNL     1      -1.836 -27.398  31.114  1.00  0.00    -0.508 OA
ATOM     51  H   UNL     1      -2.620 -27.884  31.531  1.00  0.00     0.293 HD
ENDBRANCH  37  50
ENDBRANCH  26  27
ENDBRANCH   5  26
BRANCH   4  52
ATOM     52  O   UNL     1       2.448 -18.823  29.608  1.00  0.00    -0.384 OA
ATOM     53  H   UNL     1       3.005 -18.456  28.870  1.00  0.00     0.211 HD
ENDBRANCH   4  52
TORSDOF 16
ENDMDL
MODEL 3
REMARK VINA RESULT:    -7.741      1.122      1.871
REMARK INTER + INTRA:         -15.037
REMARK INTER:                 -13.004
REMARK INTRA:                  -2.033
REMARK UNBOUND:                -2.092
REMARK SMILES COc1cc(-c2oc3cc(O)cc(O)c3c(=O)c2O[C@@H]2O[C@H](CO[C@H]3O[C@H](C)[C@H](O)[C@@H](O)[C@@H]3O)[C@H](O)[C@@H](O)[C@H]2O)ccc1O
REMARK SMILES IDX 22 1 35 2 37 3 39 4 20 5 21 6 23 7 24 8 25 9 28 10 27 11
REMARK SMILES IDX 29 12 26 13 31 14 33 15 30 16 32 18 34 20 36 22 38 24 19 26
REMARK SMILES IDX 18 27 6 28 16 29 7 30 15 31 17 32 8 33 13 34 9 35 12 36
REMARK SMILES IDX 10 37 5 38 4 39 41 40 3 41 42 42 43 43 2 44 1 45 44 46 14 48
REMARK SMILES IDX 11 50 40 52
REMARK H PARENT 30 17 32 19 34 21 36 23 38 25 44 47 14 49 11 51 40 53
REMARK Flexibility Score: inf
ROOT
ATOM      1  C   UNL     1      -0.100 -16.183  26.334  1.00  0.00     0.180 C 
ATOM      2  C   UNL     1       0.015 -16.285  24.778  1.00  0.00     0.177 C 
ATOM      3  C   UNL     1       0.084 -17.737  24.285  1.00  0.00     0.180 C 
ATOM      4  C   UNL     1       1.173 -18.469  25.076  1.00  0.00     0.214 C 
ATOM      5  C   UNL     1       0.849 -18.408  26.572  1.00  0.00     0.339 C 
ATOM      6  O   UNL     1       0.743 -17.072  27.066  1.00  0.00    -0.332 OA
ENDROOT
BRANCH   1   7
ATOM      7  C   UNL     1      -1.530 -16.188  26.899  1.00  0.00     0.198 C 
BRANCH   7   8
ATOM      8  O   UNL     1      -1.687 -15.143  27.838  1.00  0.00    -0.347 OA
BRANCH   8   9
ATOM      9  C   UNL     1      -2.228 -13.963  27.259  1.00  0.00     0.281 C 
ATOM     10  C   UNL     1      -5.736 -14.677  28.101  1.00  0.00     0.041 C 
ATOM     11  C   UNL     1      -4.276 -14.287  28.348  1.00  0.00     0.150 C 
ATOM     12  C   UNL     1      -4.174 -13.002  29.200  1.00  0.00     0.174 C 
ATOM     13  O   UNL     1      -3.630 -14.114  27.097  1.00  0.00    -0.344 OA
ATOM     14  C   UNL     1      -2.692 -12.626  29.407  1.00  0.00     0.179 C 
ATOM     15  C   UNL     1      -1.904 -12.674  28.080  1.00  0.00     0.202 C 
BRANCH  12  16
ATOM     16  O   UNL     1      -4.863 -11.953  28.568  1.00  0.00    -0.388 OA
ATOM     17  H   UNL     1      -5.829 -12.118  28.715  1.00  0.00     0.211 HD
ENDBRANCH  12  16
BRANCH  14  18
ATOM     18  O   UNL     1      -2.122 -13.514  30.338  1.00  0.00    -0.387 OA
ATOM     19  H   UNL     1      -2.794 -14.221  30.517  1.00  0.00     0.211 HD
ENDBRANCH  14  18
BRANCH  15  20
ATOM     20  O   UNL     1      -2.141 -11.513  27.321  1.00  0.00    -0.385 OA
ATOM     21  H   UNL     1      -3.118 -11.388  27.231  1.00  0.00     0.211 HD
ENDBRANCH  15  20
ENDBRANCH   8   9
ENDBRANCH   7   8
ENDBRANCH   1   7
BRANCH   2  22
ATOM     22  O   UNL     1      -0.998 -15.567  24.118  1.00  0.00    -0.387 OA
ATOM     23  H   UNL     1      -0.570 -14.836  23.606  1.00  0.00     0.211 HD
ENDBRANCH   2  22
BRANCH   3  24
ATOM     24  O   UNL     1       0.400 -17.774  22.914  1.00  0.00    -0.387 OA
ATOM     25  H   UNL     1       1.040 -18.525  22.788  1.00  0.00     0.211 HD
ENDBRANCH   3  24
BRANCH   5  26
ATOM     26  O   UNL     1      -0.311 -19.212  26.823  1.00  0.00    -0.454 OA
BRANCH  26  27
ATOM     27  C   UNL     1      -0.482 -20.246  27.759  1.00  0.00     0.214 A 
ATOM     28  C   UNL     1       0.251 -21.454  27.772  1.00  0.00     0.180 A 
ATOM     29  C   UNL     1      -1.405 -20.015  28.788  1.00  0.00     0.239 A 
ATOM     30  O   UNL     1       0.145 -22.269  28.816  1.00  0.00    -0.452 OA
ATOM     31  C   UNL     1      -1.479 -20.891  29.895  1.00  0.00     0.111 A 
ATOM     32  O   UNL     1      -2.133 -18.992  28.708  1.00  0.00    -0.285 OA
ATOM     33  C   UNL     1      -0.645 -22.038  29.856  1.00  0.00     0.146 A 
ATOM     34  C   UNL     1      -2.304 -20.688  31.048  1.00  0.00     0.134 A 
ATOM     35  C   UNL     1      -0.640 -22.953  30.913  1.00  0.00     0.094 A 
ATOM     36  C   UNL     1      -2.291 -21.635  32.079  1.00  0.00     0.093 A 
ATOM     37  C   UNL     1      -1.471 -22.761  32.019  1.00  0.00     0.123 A 
BRANCH  28  38
ATOM     38  C   UNL     1       1.121 -21.900  26.665  1.00  0.00     0.025 A 
ATOM     39  C   UNL     1       0.542 -22.355  25.470  1.00  0.00     0.062 A 
ATOM     40  C   UNL     1       2.517 -21.765  26.746  1.00  0.00     0.016 A 
ATOM     41  C   UNL     1       1.352 -22.729  24.374  1.00  0.00     0.161 A 
ATOM     42  C   UNL     1       3.325 -22.160  25.675  1.00  0.00     0.051 A 
ATOM     43  C   UNL     1       2.750 -22.644  24.496  1.00  0.00     0.157 A 
BRANCH  41  44
ATOM     44  O   UNL     1       0.801 -23.182  23.165  1.00  0.00    -0.493 OA
ATOM     45  C   UNL     1       0.384 -24.524  22.922  1.00  0.00     0.278 C 
ENDBRANCH  41  44
BRANCH  43  46
ATOM     46  O   UNL     1       3.587 -23.029  23.448  1.00  0.00    -0.504 OA
ATOM     47  H   UNL     1       4.538 -23.346  23.607  1.00  0.00     0.293 HD
ENDBRANCH  43  46
ENDBRANCH  28  38
BRANCH  34  48
ATOM     48  O   UNL     1      -3.126 -19.576  31.245  1.00  0.00    -0.507 OA
ATOM     49  H   UNL     1      -3.818 -19.475  31.971  1.00  0.00     0.293 HD
ENDBRANCH  34  48
BRANCH  37  50
ATOM     50  O   UNL     1      -1.483 -23.681  33.063  1.00  0.00    -0.508 OA
ATOM     51  H   UNL     1      -1.874 -24.607  32.938  1.00  0.00     0.293 HD
ENDBRANCH  37  50
ENDBRANCH  26  27
ENDBRANCH   5  26
BRANCH   4  52
ATOM     52  O   UNL     1       2.433 -17.887  24.845  1.00  0.00    -0.384 OA
ATOM     53  H   UNL     1       3.117 -18.586  25.029  1.00  0.00     0.211 HD
ENDBRANCH   4  52
TORSDOF 16
ENDMDL
MODEL 4
REMARK VINA RESULT:    -7.687      2.806      4.955
REMARK INTER + INTRA:         -14.946
REMARK INTER:                 -12.410
REMARK INTRA:                  -2.537
REMARK UNBOUND:                -2.092
REMARK SMILES COc1cc(-c2oc3cc(O)cc(O)c3c(=O)c2O[C@@H]2O[C@H](CO[C@H]3O[C@H](C)[C@H](O)[C@@H](O)[C@@H]3O)[C@H](O)[C@@H](O)[C@H]2O)ccc1O
REMARK SMILES IDX 22 1 35 2 37 3 39 4 20 5 21 6 23 7 24 8 25 9 28 10 27 11
REMARK SMILES IDX 29 12 26 13 31 14 33 15 30 16 32 18 34 20 36 22 38 24 19 26
REMARK SMILES IDX 18 27 6 28 16 29 7 30 15 31 17 32 8 33 13 34 9 35 12 36
REMARK SMILES IDX 10 37 5 38 4 39 41 40 3 41 42 42 43 43 2 44 1 45 44 46 14 48
REMARK SMILES IDX 11 50 40 52
REMARK H PARENT 30 17 32 19 34 21 36 23 38 25 44 47 14 49 11 51 40 53
REMARK Flexibility Score: inf
ROOT
ATOM      1  C   UNL     1       0.681 -17.739  29.129  1.00  0.00     0.180 C 
ATOM      2  C   UNL     1       1.943 -18.655  29.015  1.00  0.00     0.177 C 
ATOM      3  C   UNL     1       1.671 -20.096  29.469  1.00  0.00     0.180 C 
ATOM      4  C   UNL     1       1.009 -20.055  30.851  1.00  0.00     0.214 C 
ATOM      5  C   UNL     1      -0.289 -19.245  30.773  1.00  0.00     0.339 C 
ATOM      6  O   UNL     1      -0.085 -17.905  30.322  1.00  0.00    -0.332 OA
ENDROOT
BRANCH   1   7
ATOM      7  C   UNL     1      -0.229 -17.701  27.891  1.00  0.00     0.198 C 
BRANCH   7   8
ATOM      8  O   UNL     1      -0.363 -16.373  27.424  1.00  0.00    -0.347 OA
BRANCH   8   9
ATOM      9  C   UNL     1      -0.527 -16.302  26.014  1.00  0.00     0.281 C 
ATOM     10  C   UNL     1      -0.155 -12.653  25.751  1.00  0.00     0.041 C 
ATOM     11  C   UNL     1       0.282 -14.105  25.963  1.00  0.00     0.150 C 
ATOM     12  C   UNL     1       1.527 -14.446  25.114  1.00  0.00     0.174 C 
ATOM     13  O   UNL     1      -0.800 -14.962  25.634  1.00  0.00    -0.344 OA
ATOM     14  C   UNL     1       1.924 -15.921  25.333  1.00  0.00     0.179 C 
ATOM     15  C   UNL     1       0.701 -16.859  25.226  1.00  0.00     0.202 C 
BRANCH  12  16
ATOM     16  O   UNL     1       1.261 -14.206  23.756  1.00  0.00    -0.388 OA
ATOM     17  H   UNL     1       2.138 -14.084  23.312  1.00  0.00     0.211 HD
ENDBRANCH  12  16
BRANCH  14  18
ATOM     18  O   UNL     1       2.520 -16.050  26.602  1.00  0.00    -0.387 OA
ATOM     19  H   UNL     1       2.367 -15.197  27.084  1.00  0.00     0.211 HD
ENDBRANCH  14  18
BRANCH  15  20
ATOM     20  O   UNL     1       0.377 -17.098  23.878  1.00  0.00    -0.385 OA
ATOM     21  H   UNL     1       1.120 -16.772  23.312  1.00  0.00     0.211 HD
ENDBRANCH  15  20
ENDBRANCH   8   9
ENDBRANCH   7   8
ENDBRANCH   1   7
BRANCH   2  22
ATOM     22  O   UNL     1       2.515 -18.622  27.731  1.00  0.00    -0.387 OA
ATOM     23  H   UNL     1       3.269 -17.982  27.748  1.00  0.00     0.211 HD
ENDBRANCH   2  22
BRANCH   3  24
ATOM     24  O   UNL     1       2.875 -20.820  29.552  1.00  0.00    -0.387 OA
ATOM     25  H   UNL     1       2.682 -21.735  29.214  1.00  0.00     0.211 HD
ENDBRANCH   3  24
BRANCH   5  26
ATOM     26  O   UNL     1      -1.242 -19.978  29.995  1.00  0.00    -0.454 OA
BRANCH  26  27
ATOM     27  C   UNL     1      -1.431 -21.368  29.911  1.00  0.00     0.214 A 
ATOM     28  C   UNL     1      -1.161 -22.153  28.768  1.00  0.00     0.180 A 
ATOM     29  C   UNL     1      -1.854 -22.016  31.080  1.00  0.00     0.239 A 
ATOM     30  O   UNL     1      -1.186 -23.478  28.867  1.00  0.00    -0.452 OA
ATOM     31  C   UNL     1      -1.851 -23.427  31.159  1.00  0.00     0.111 A 
ATOM     32  O   UNL     1      -2.200 -21.301  32.056  1.00  0.00    -0.285 OA
ATOM     33  C   UNL     1      -1.488 -24.130  29.982  1.00  0.00     0.146 A 
ATOM     34  C   UNL     1      -2.157 -24.183  32.337  1.00  0.00     0.134 A 
ATOM     35  C   UNL     1      -1.442 -25.527  29.970  1.00  0.00     0.094 A 
ATOM     36  C   UNL     1      -2.122 -25.581  32.285  1.00  0.00     0.093 A 
ATOM     37  C   UNL     1      -1.772 -26.255  31.115  1.00  0.00     0.123 A 
BRANCH  28  38
ATOM     38  C   UNL     1      -0.879 -21.591  27.432  1.00  0.00     0.025 A 
ATOM     39  C   UNL     1       0.279 -21.987  26.745  1.00  0.00     0.062 A 
ATOM     40  C   UNL     1      -1.809 -20.756  26.789  1.00  0.00     0.016 A 
ATOM     41  C   UNL     1       0.540 -21.511  25.439  1.00  0.00     0.161 A 
ATOM     42  C   UNL     1      -1.542 -20.259  25.510  1.00  0.00     0.051 A 
ATOM     43  C   UNL     1      -0.373 -20.628  24.838  1.00  0.00     0.157 A 
BRANCH  41  44
ATOM     44  O   UNL     1       1.687 -21.895  24.726  1.00  0.00    -0.493 OA
ATOM     45  C   UNL     1       1.798 -23.095  23.963  1.00  0.00     0.278 C 
ENDBRANCH  41  44
BRANCH  43  46
ATOM     46  O   UNL     1      -0.140 -20.113  23.562  1.00  0.00    -0.504 OA
ATOM     47  H   UNL     1       0.533 -20.530  22.927  1.00  0.00     0.293 HD
ENDBRANCH  43  46
ENDBRANCH  28  38
BRANCH  34  48
ATOM     48  O   UNL     1      -2.470 -23.621  33.577  1.00  0.00    -0.507 OA
ATOM     49  H   UNL     1      -3.267 -23.038  33.776  1.00  0.00     0.293 HD
ENDBRANCH  34  48
BRANCH  37  50
ATOM     50  O   UNL     1      -1.748 -27.646  31.101  1.00  0.00    -0.508 OA
ATOM     51  H   UNL     1      -0.948 -28.150  30.740  1.00  0.00     0.293 HD
ENDBRANCH  37  50
ENDBRANCH  26  27
ENDBRANCH   5  26
BRANCH   4  52
ATOM     52  O   UNL     1       1.870 -19.471  31.798  1.00  0.00    -0.384 OA
ATOM     53  H   UNL     1       2.476 -18.855  31.305  1.00  0.00     0.211 HD
ENDBRANCH   4  52
TORSDOF 16
ENDMDL
MODEL 5
REMARK VINA RESULT:    -7.498      2.955      9.085
REMARK INTER + INTRA:         -14.631
REMARK INTER:                 -11.890
REMARK INTRA:                  -2.741
REMARK UNBOUND:                -2.092
REMARK SMILES COc1cc(-c2oc3cc(O)cc(O)c3c(=O)c2O[C@@H]2O[C@H](CO[C@H]3O[C@H](C)[C@H](O)[C@@H](O)[C@@H]3O)[C@H](O)[C@@H](O)[C@H]2O)ccc1O
REMARK SMILES IDX 22 1 35 2 37 3 39 4 20 5 21 6 23 7 24 8 25 9 28 10 27 11
REMARK SMILES IDX 29 12 26 13 31 14 33 15 30 16 32 18 34 20 36 22 38 24 19 26
REMARK SMILES IDX 18 27 6 28 16 29 7 30 15 31 17 32 8 33 13 34 9 35 12 36
REMARK SMILES IDX 10 37 5 38 4 39 41 40 3 41 42 42 43 43 2 44 1 45 44 46 14 48
REMARK SMILES IDX 11 50 40 52
REMARK H PARENT 30 17 32 19 34 21 36 23 38 25 44 47 14 49 11 51 40 53
REMARK Flexibility Score: inf
ROOT
ATOM      1  C   UNL     1       1.006 -23.066  25.787  1.00  0.00     0.180 C 
ATOM      2  C   UNL     1       2.423 -22.946  25.139  1.00  0.00     0.177 C 
ATOM      3  C   UNL     1       2.836 -21.489  24.886  1.00  0.00     0.180 C 
ATOM      4  C   UNL     1       1.704 -20.786  24.130  1.00  0.00     0.214 C 
ATOM      5  C   UNL     1       0.414 -20.860  24.953  1.00  0.00     0.339 C 
ATOM      6  O   UNL     1       0.011 -22.200  25.240  1.00  0.00    -0.332 OA
ENDROOT
BRANCH   1   7
ATOM      7  C   UNL     1       0.971 -23.043  27.324  1.00  0.00     0.198 C 
BRANCH   7   8
ATOM      8  O   UNL     1       1.104 -24.355  27.835  1.00  0.00    -0.347 OA
BRANCH   8   9
ATOM      9  C   UNL     1       1.821 -24.394  29.062  1.00  0.00     0.281 C 
ATOM     10  C   UNL     1       0.219 -27.438  30.363  1.00  0.00     0.041 C 
ATOM     11  C   UNL     1       1.134 -26.595  29.470  1.00  0.00     0.150 C 
ATOM     12  C   UNL     1       2.559 -27.189  29.408  1.00  0.00     0.174 C 
ATOM     13  O   UNL     1       1.164 -25.267  29.968  1.00  0.00    -0.344 OA
ATOM     14  C   UNL     1       3.459 -26.302  28.521  1.00  0.00     0.179 C 
ATOM     15  C   UNL     1       3.317 -24.808  28.885  1.00  0.00     0.202 C 
BRANCH  12  16
ATOM     16  O   UNL     1       3.093 -27.289  30.704  1.00  0.00    -0.388 OA
ATOM     17  H   UNL     1       2.850 -28.187  31.043  1.00  0.00     0.211 HD
ENDBRANCH  12  16
BRANCH  14  18
ATOM     18  O   UNL     1       3.112 -26.505  27.173  1.00  0.00    -0.387 OA
ATOM     19  H   UNL     1       2.867 -25.619  26.798  1.00  0.00     0.211 HD
ENDBRANCH  14  18
BRANCH  15  20
ATOM     20  O   UNL     1       4.070 -24.503  30.033  1.00  0.00    -0.385 OA
ATOM     21  H   UNL     1       5.030 -24.525  29.796  1.00  0.00     0.211 HD
ENDBRANCH  15  20
ENDBRANCH   8   9
ENDBRANCH   7   8
ENDBRANCH   1   7
BRANCH   2  22
ATOM     22  O   UNL     1       3.406 -23.638  25.869  1.00  0.00    -0.387 OA
ATOM     23  H   UNL     1       3.665 -24.439  25.350  1.00  0.00     0.211 HD
ENDBRANCH   2  22
BRANCH   3  24
ATOM     24  O   UNL     1       4.012 -21.440  24.115  1.00  0.00    -0.387 OA
ATOM     25  H   UNL     1       4.319 -20.493  24.120  1.00  0.00     0.211 HD
ENDBRANCH   3  24
BRANCH   5  26
ATOM     26  O   UNL     1       0.565 -20.040  26.118  1.00  0.00    -0.454 OA
BRANCH  26  27
ATOM     27  C   UNL     1      -0.314 -19.075  26.638  1.00  0.00     0.214 A 
ATOM     28  C   UNL     1      -0.902 -19.124  27.922  1.00  0.00     0.180 A 
ATOM     29  C   UNL     1      -0.560 -17.952  25.835  1.00  0.00     0.239 A 
ATOM     30  O   UNL     1      -1.554 -18.062  28.381  1.00  0.00    -0.452 OA
ATOM     31  C   UNL     1      -1.240 -16.830  26.360  1.00  0.00     0.111 A 
ATOM     32  O   UNL     1      -0.126 -17.967  24.654  1.00  0.00    -0.285 OA
ATOM     33  C   UNL     1      -1.725 -16.944  27.688  1.00  0.00     0.146 A 
ATOM     34  C   UNL     1      -1.445 -15.596  25.663  1.00  0.00     0.134 A 
ATOM     35  C   UNL     1      -2.398 -15.880  28.296  1.00  0.00     0.094 A 
ATOM     36  C   UNL     1      -2.142 -14.557  26.294  1.00  0.00     0.093 A 
ATOM     37  C   UNL     1      -2.619 -14.691  27.597  1.00  0.00     0.123 A 
BRANCH  28  38
ATOM     38  C   UNL     1      -0.869 -20.314  28.795  1.00  0.00     0.025 A 
ATOM     39  C   UNL     1       0.127 -20.424  29.779  1.00  0.00     0.062 A 
ATOM     40  C   UNL     1      -1.886 -21.282  28.736  1.00  0.00     0.016 A 
ATOM     41  C   UNL     1       0.143 -21.522  30.669  1.00  0.00     0.161 A 
ATOM     42  C   UNL     1      -1.859 -22.386  29.593  1.00  0.00     0.051 A 
ATOM     43  C   UNL     1      -0.849 -22.511  30.553  1.00  0.00     0.157 A 
BRANCH  41  44
ATOM     44  O   UNL     1       1.122 -21.655  31.666  1.00  0.00    -0.493 OA
ATOM     45  C   UNL     1       2.501 -21.335  31.489  1.00  0.00     0.278 C 
ENDBRANCH  41  44
BRANCH  43  46
ATOM     46  O   UNL     1      -0.854 -23.626  31.392  1.00  0.00    -0.504 OA
ATOM     47  H   UNL     1      -1.416 -23.662  32.236  1.00  0.00     0.293 HD
ENDBRANCH  43  46
ENDBRANCH  28  38
BRANCH  34  48
ATOM     48  O   UNL     1      -0.970 -15.325  24.378  1.00  0.00    -0.507 OA
ATOM     49  H   UNL     1      -0.122 -14.827  24.155  1.00  0.00     0.293 HD
ENDBRANCH  34  48
BRANCH  37  50
ATOM     50  O   UNL     1      -3.307 -13.638  28.192  1.00  0.00    -0.508 OA
ATOM     51  H   UNL     1      -3.935 -13.055  27.653  1.00  0.00     0.293 HD
ENDBRANCH  37  50
ENDBRANCH  26  27
ENDBRANCH   5  26
BRANCH   4  52
ATOM     52  O   UNL     1       1.495 -21.387  22.875  1.00  0.00    -0.384 OA
ATOM     53  H   UNL     1       2.317 -21.903  22.656  1.00  0.00     0.211 HD
ENDBRANCH   4  52
TORSDOF 16
ENDMDL
MODEL 6
REMARK VINA RESULT:    -7.303      3.012      4.640
REMARK INTER + INTRA:         -14.304
REMARK INTER:                 -12.416
REMARK INTRA:                  -1.888
REMARK UNBOUND:                -2.092
REMARK SMILES COc1cc(-c2oc3cc(O)cc(O)c3c(=O)c2O[C@@H]2O[C@H](CO[C@H]3O[C@H](C)[C@H](O)[C@@H](O)[C@@H]3O)[C@H](O)[C@@H](O)[C@H]2O)ccc1O
REMARK SMILES IDX 22 1 35 2 37 3 39 4 20 5 21 6 23 7 24 8 25 9 28 10 27 11
REMARK SMILES IDX 29 12 26 13 31 14 33 15 30 16 32 18 34 20 36 22 38 24 19 26
REMARK SMILES IDX 18 27 6 28 16 29 7 30 15 31 17 32 8 33 13 34 9 35 12 36
REMARK SMILES IDX 10 37 5 38 4 39 41 40 3 41 42 42 43 43 2 44 1 45 44 46 14 48
REMARK SMILES IDX 11 50 40 52
REMARK H PARENT 30 17 32 19 34 21 36 23 38 25 44 47 14 49 11 51 40 53
REMARK Flexibility Score: inf
ROOT
ATOM      1  C   UNL     1       1.050 -16.720  28.436  1.00  0.00     0.180 C 
ATOM      2  C   UNL     1      -0.324 -16.191  28.961  1.00  0.00     0.177 C 
ATOM      3  C   UNL     1      -1.334 -17.319  29.215  1.00  0.00     0.180 C 
ATOM      4  C   UNL     1      -1.402 -18.203  27.965  1.00  0.00     0.214 C 
ATOM      5  C   UNL     1      -0.010 -18.765  27.658  1.00  0.00     0.339 C 
ATOM      6  O   UNL     1       0.969 -17.747  27.448  1.00  0.00    -0.332 OA
ENDROOT
BRANCH   1   7
ATOM      7  C   UNL     1       2.084 -17.076  29.516  1.00  0.00     0.198 C 
BRANCH   7   8
ATOM      8  O   UNL     1       1.978 -16.182  30.607  1.00  0.00    -0.347 OA
BRANCH   8   9
ATOM      9  C   UNL     1       2.902 -16.474  31.647  1.00  0.00     0.281 C 
ATOM     10  C   UNL     1       1.301 -14.375  34.207  1.00  0.00     0.041 C 
ATOM     11  C   UNL     1       1.471 -15.571  33.265  1.00  0.00     0.150 C 
ATOM     12  C   UNL     1       1.258 -16.907  34.009  1.00  0.00     0.174 C 
ATOM     13  O   UNL     1       2.765 -15.518  32.687  1.00  0.00    -0.344 OA
ATOM     14  C   UNL     1       1.460 -18.088  33.037  1.00  0.00     0.179 C 
ATOM     15  C   UNL     1       2.754 -17.924  32.208  1.00  0.00     0.202 C 
BRANCH  12  16
ATOM     16  O   UNL     1       2.151 -17.002  35.089  1.00  0.00    -0.388 OA
ATOM     17  H   UNL     1       3.012 -16.619  34.781  1.00  0.00     0.211 HD
ENDBRANCH  12  16
BRANCH  14  18
ATOM     18  O   UNL     1       0.347 -18.170  32.180  1.00  0.00    -0.387 OA
ATOM     19  H   UNL     1       0.164 -19.134  32.031  1.00  0.00     0.211 HD
ENDBRANCH  14  18
BRANCH  15  20
ATOM     20  O   UNL     1       3.879 -18.295  32.967  1.00  0.00    -0.385 OA
ATOM     21  H   UNL     1       4.554 -18.687  32.359  1.00  0.00     0.211 HD
ENDBRANCH  15  20
ENDBRANCH   8   9
ENDBRANCH   7   8
ENDBRANCH   1   7
BRANCH   2  22
ATOM     22  O   UNL     1      -0.184 -15.365  30.090  1.00  0.00    -0.387 OA
ATOM     23  H   UNL     1       0.575 -14.751  29.927  1.00  0.00     0.211 HD
ENDBRANCH   2  22
BRANCH   3  24
ATOM     24  O   UNL     1      -2.609 -16.785  29.477  1.00  0.00    -0.387 OA
ATOM     25  H   UNL     1      -3.254 -17.296  28.917  1.00  0.00     0.211 HD
ENDBRANCH   3  24
BRANCH   5  26
ATOM     26  O   UNL     1       0.342 -19.703  28.683  1.00  0.00    -0.454 OA
BRANCH  26  27
ATOM     27  C   UNL     1      -0.151 -21.002  28.898  1.00  0.00     0.214 A 
ATOM     28  C   UNL     1       0.084 -22.107  28.050  1.00  0.00     0.180 A 
ATOM     29  C   UNL     1      -0.870 -21.211  30.083  1.00  0.00     0.239 A 
ATOM     30  O   UNL     1      -0.262 -23.324  28.455  1.00  0.00    -0.452 OA
ATOM     31  C   UNL     1      -1.205 -22.521  30.496  1.00  0.00     0.111 A 
ATOM     32  O   UNL     1      -1.171 -20.205  30.775  1.00  0.00    -0.285 OA
ATOM     33  C   UNL     1      -0.857 -23.575  29.614  1.00  0.00     0.146 A 
ATOM     34  C   UNL     1      -1.837 -22.853  31.738  1.00  0.00     0.134 A 
ATOM     35  C   UNL     1      -1.135 -24.905  29.945  1.00  0.00     0.094 A 
ATOM     36  C   UNL     1      -2.121 -24.192  32.029  1.00  0.00     0.093 A 
ATOM     37  C   UNL     1      -1.780 -25.215  31.145  1.00  0.00     0.123 A 
BRANCH  28  38
ATOM     38  C   UNL     1       0.670 -21.996  26.699  1.00  0.00     0.025 A 
ATOM     39  C   UNL     1      -0.006 -21.266  25.709  1.00  0.00     0.062 A 
ATOM     40  C   UNL     1       1.947 -22.512  26.422  1.00  0.00     0.016 A 
ATOM     41  C   UNL     1       0.563 -21.093  24.427  1.00  0.00     0.161 A 
ATOM     42  C   UNL     1       2.503 -22.369  25.147  1.00  0.00     0.051 A 
ATOM     43  C   UNL     1       1.816 -21.668  24.151  1.00  0.00     0.157 A 
BRANCH  41  44
ATOM     44  O   UNL     1      -0.086 -20.362  23.420  1.00  0.00    -0.493 OA
ATOM     45  C   UNL     1      -0.463 -18.991  23.533  1.00  0.00     0.278 C 
ENDBRANCH  41  44
BRANCH  43  46
ATOM     46  O   UNL     1       2.401 -21.545  22.890  1.00  0.00    -0.504 OA
ATOM     47  H   UNL     1       3.402 -21.429  22.770  1.00  0.00     0.293 HD
ENDBRANCH  43  46
ENDBRANCH  28  38
BRANCH  34  48
ATOM     48  O   UNL     1      -2.178 -21.923  32.724  1.00  0.00    -0.507 OA
ATOM     49  H   UNL     1      -3.112 -21.620  32.951  1.00  0.00     0.293 HD
ENDBRANCH  34  48
BRANCH  37  50
ATOM     50  O   UNL     1      -2.077 -26.535  31.468  1.00  0.00    -0.508 OA
ATOM     51  H   UNL     1      -1.341 -27.210  31.635  1.00  0.00     0.293 HD
ENDBRANCH  37  50
ENDBRANCH  26  27
ENDBRANCH   5  26
BRANCH   4  52
ATOM     52  O   UNL     1      -1.864 -17.466  26.858  1.00  0.00    -0.384 OA
ATOM     53  H   UNL     1      -2.837 -17.653  26.768  1.00  0.00     0.211 HD
ENDBRANCH   4  52
TORSDOF 16
ENDMDL
MODEL 7
REMARK VINA RESULT:    -7.273      1.790      2.476
REMARK INTER + INTRA:         -14.255
REMARK INTER:                 -11.889
REMARK INTRA:                  -2.366
REMARK UNBOUND:                -2.092
REMARK SMILES COc1cc(-c2oc3cc(O)cc(O)c3c(=O)c2O[C@@H]2O[C@H](CO[C@H]3O[C@H](C)[C@H](O)[C@@H](O)[C@@H]3O)[C@H](O)[C@@H](O)[C@H]2O)ccc1O
REMARK SMILES IDX 22 1 35 2 37 3 39 4 20 5 21 6 23 7 24 8 25 9 28 10 27 11
REMARK SMILES IDX 29 12 26 13 31 14 33 15 30 16 32 18 34 20 36 22 38 24 19 26
REMARK SMILES IDX 18 27 6 28 16 29 7 30 15 31 17 32 8 33 13 34 9 35 12 36
REMARK SMILES IDX 10 37 5 38 4 39 41 40 3 41 42 42 43 43 2 44 1 45 44 46 14 48
REMARK SMILES IDX 11 50 40 52
REMARK H PARENT 30 17 32 19 34 21 36 23 38 25 44 47 14 49 11 51 40 53
REMARK Flexibility Score: inf
ROOT
ATOM      1  C   UNL     1       0.943 -16.651  28.710  1.00  0.00     0.180 C 
ATOM      2  C   UNL     1       1.452 -16.416  27.250  1.00  0.00     0.177 C 
ATOM      3  C   UNL     1       1.431 -17.696  26.404  1.00  0.00     0.180 C 
ATOM      4  C   UNL     1       2.148 -18.805  27.181  1.00  0.00     0.214 C 
ATOM      5  C   UNL     1       1.451 -19.021  28.527  1.00  0.00     0.339 C 
ATOM      6  O   UNL     1       1.418 -17.843  29.334  1.00  0.00    -0.332 OA
ENDROOT
BRANCH   1   7
ATOM      7  C   UNL     1      -0.569 -16.480  28.925  1.00  0.00     0.198 C 
BRANCH   7   8
ATOM      8  O   UNL     1      -0.866 -15.140  29.264  1.00  0.00    -0.347 OA
BRANCH   8   9
ATOM      9  C   UNL     1      -2.188 -14.763  28.900  1.00  0.00     0.281 C 
ATOM     10  C   UNL     1      -2.390 -11.830  31.109  1.00  0.00     0.041 C 
ATOM     11  C   UNL     1      -1.938 -12.664  29.907  1.00  0.00     0.150 C 
ATOM     12  C   UNL     1      -2.082 -11.871  28.589  1.00  0.00     0.174 C 
ATOM     13  O   UNL     1      -2.705 -13.856  29.862  1.00  0.00    -0.344 OA
ATOM     14  C   UNL     1      -1.642 -12.748  27.398  1.00  0.00     0.179 C 
ATOM     15  C   UNL     1      -2.278 -14.154  27.464  1.00  0.00     0.202 C 
BRANCH  12  16
ATOM     16  O   UNL     1      -3.413 -11.452  28.425  1.00  0.00    -0.388 OA
ATOM     17  H   UNL     1      -3.379 -10.530  28.062  1.00  0.00     0.211 HD
ENDBRANCH  12  16
BRANCH  14  18
ATOM     18  O   UNL     1      -0.239 -12.853  27.402  1.00  0.00    -0.387 OA
ATOM     19  H   UNL     1       0.122 -11.935  27.506  1.00  0.00     0.211 HD
ENDBRANCH  14  18
BRANCH  15  20
ATOM     20  O   UNL     1      -3.608 -14.119  27.007  1.00  0.00    -0.385 OA
ATOM     21  H   UNL     1      -3.952 -15.045  26.966  1.00  0.00     0.211 HD
ENDBRANCH  15  20
ENDBRANCH   8   9
ENDBRANCH   7   8
ENDBRANCH   1   7
BRANCH   2  22
ATOM     22  O   UNL     1       0.770 -15.366  26.609  1.00  0.00    -0.387 OA
ATOM     23  H   UNL     1       0.089 -15.015  27.235  1.00  0.00     0.211 HD
ENDBRANCH   2  22
BRANCH   3  24
ATOM     24  O   UNL     1       2.091 -17.484  25.179  1.00  0.00    -0.387 OA
ATOM     25  H   UNL     1       1.584 -17.990  24.489  1.00  0.00     0.211 HD
ENDBRANCH   3  24
BRANCH   5  26
ATOM     26  O   UNL     1       0.159 -19.595  28.288  1.00  0.00    -0.454 OA
BRANCH  26  27
ATOM     27  C   UNL     1      -0.349 -20.834  28.715  1.00  0.00     0.214 A 
ATOM     28  C   UNL     1      -0.126 -22.067  28.063  1.00  0.00     0.180 A 
ATOM     29  C   UNL     1      -1.072 -20.835  29.916  1.00  0.00     0.239 A 
ATOM     30  O   UNL     1      -0.487 -23.195  28.663  1.00  0.00    -0.452 OA
ATOM     31  C   UNL     1      -1.423 -22.054  30.540  1.00  0.00     0.111 A 
ATOM     32  O   UNL     1      -1.362 -19.724  30.430  1.00  0.00    -0.285 OA
ATOM     33  C   UNL     1      -1.086 -23.244  29.846  1.00  0.00     0.146 A 
ATOM     34  C   UNL     1      -2.060 -22.168  31.818  1.00  0.00     0.134 A 
ATOM     35  C   UNL     1      -1.381 -24.497  30.392  1.00  0.00     0.094 A 
ATOM     36  C   UNL     1      -2.361 -23.437  32.326  1.00  0.00     0.093 A 
ATOM     37  C   UNL     1      -2.030 -24.596  31.625  1.00  0.00     0.123 A 
BRANCH  28  38
ATOM     38  C   UNL     1       0.462 -22.189  26.714  1.00  0.00     0.025 A 
ATOM     39  C   UNL     1       0.032 -21.330  25.691  1.00  0.00     0.062 A 
ATOM     40  C   UNL     1       1.528 -23.072  26.469  1.00  0.00     0.016 A 
ATOM     41  C   UNL     1       0.624 -21.385  24.408  1.00  0.00     0.161 A 
ATOM     42  C   UNL     1       2.097 -23.151  25.195  1.00  0.00     0.051 A 
ATOM     43  C   UNL     1       1.648 -22.318  24.166  1.00  0.00     0.157 A 
BRANCH  41  44
ATOM     44  O   UNL     1       0.219 -20.534  23.368  1.00  0.00    -0.493 OA
ATOM     45  C   UNL     1      -0.528 -19.334  23.552  1.00  0.00     0.278 C 
ENDBRANCH  41  44
BRANCH  43  46
ATOM     46  O   UNL     1       2.240 -22.424  22.907  1.00  0.00    -0.504 OA
ATOM     47  H   UNL     1       1.833 -22.986  22.166  1.00  0.00     0.293 HD
ENDBRANCH  43  46
ENDBRANCH  28  38
BRANCH  34  48
ATOM     48  O   UNL     1      -2.392 -21.084  32.634  1.00  0.00    -0.507 OA
ATOM     49  H   UNL     1      -1.741 -20.430  33.040  1.00  0.00     0.293 HD
ENDBRANCH  34  48
BRANCH  37  50
ATOM     50  O   UNL     1      -2.344 -25.841  32.162  1.00  0.00    -0.508 OA
ATOM     51  H   UNL     1      -1.734 -26.286  32.837  1.00  0.00     0.293 HD
ENDBRANCH  37  50
ENDBRANCH  26  27
ENDBRANCH   5  26
BRANCH   4  52
ATOM     52  O   UNL     1       3.497 -18.468  27.400  1.00  0.00    -0.384 OA
ATOM     53  H   UNL     1       3.613 -17.522  27.116  1.00  0.00     0.211 HD
ENDBRANCH   4  52
TORSDOF 16
ENDMDL
MODEL 8
REMARK VINA RESULT:    -7.251      2.529      8.568
REMARK INTER + INTRA:         -14.217
REMARK INTER:                 -11.273
REMARK INTRA:                  -2.944
REMARK UNBOUND:                -2.092
REMARK SMILES COc1cc(-c2oc3cc(O)cc(O)c3c(=O)c2O[C@@H]2O[C@H](CO[C@H]3O[C@H](C)[C@H](O)[C@@H](O)[C@@H]3O)[C@H](O)[C@@H](O)[C@H]2O)ccc1O
REMARK SMILES IDX 22 1 35 2 37 3 39 4 20 5 21 6 23 7 24 8 25 9 28 10 27 11
REMARK SMILES IDX 29 12 26 13 31 14 33 15 30 16 32 18 34 20 36 22 38 24 19 26
REMARK SMILES IDX 18 27 6 28 16 29 7 30 15 31 17 32 8 33 13 34 9 35 12 36
REMARK SMILES IDX 10 37 5 38 4 39 41 40 3 41 42 42 43 43 2 44 1 45 44 46 14 48
REMARK SMILES IDX 11 50 40 52
REMARK H PARENT 30 17 32 19 34 21 36 23 38 25 44 47 14 49 11 51 40 53
REMARK Flexibility Score: inf
ROOT
ATOM      1  C   UNL     1      -0.410 -21.472  25.739  1.00  0.00     0.180 C 
ATOM      2  C   UNL     1       0.582 -21.501  24.531  1.00  0.00     0.177 C 
ATOM      3  C   UNL     1       1.022 -20.097  24.094  1.00  0.00     0.180 C 
ATOM      4  C   UNL     1      -0.229 -19.234  23.898  1.00  0.00     0.214 C 
ATOM      5  C   UNL     1      -1.025 -19.181  25.205  1.00  0.00     0.339 C 
ATOM      6  O   UNL     1      -1.427 -20.472  25.667  1.00  0.00    -0.332 OA
ENDROOT
BRANCH   1   7
ATOM      7  C   UNL     1       0.235 -21.503  27.133  1.00  0.00     0.198 C 
BRANCH   7   8
ATOM      8  O   UNL     1      -0.017 -22.745  27.761  1.00  0.00    -0.347 OA
BRANCH   8   9
ATOM      9  C   UNL     1       1.041 -23.148  28.621  1.00  0.00     0.281 C 
ATOM     10  C   UNL     1      -0.662 -26.108  29.987  1.00  0.00     0.041 C 
ATOM     11  C   UNL     1       0.064 -25.252  28.945  1.00  0.00     0.150 C 
ATOM     12  C   UNL     1       1.220 -26.034  28.283  1.00  0.00     0.174 C 
ATOM     13  O   UNL     1       0.548 -24.076  29.575  1.00  0.00    -0.344 OA
ATOM     14  C   UNL     1       1.943 -25.135  27.259  1.00  0.00     0.179 C 
ATOM     15  C   UNL     1       2.262 -23.744  27.851  1.00  0.00     0.202 C 
BRANCH  12  16
ATOM     16  O   UNL     1       2.119 -26.482  29.265  1.00  0.00    -0.388 OA
ATOM     17  H   UNL     1       1.653 -27.191  29.776  1.00  0.00     0.211 HD
ENDBRANCH  12  16
BRANCH  14  18
ATOM     18  O   UNL     1       1.131 -24.997  26.118  1.00  0.00    -0.387 OA
ATOM     19  H   UNL     1       0.614 -25.838  26.024  1.00  0.00     0.211 HD
ENDBRANCH  14  18
BRANCH  15  20
ATOM     20  O   UNL     1       3.403 -23.805  28.673  1.00  0.00    -0.385 OA
ATOM     21  H   UNL     1       3.154 -23.504  29.581  1.00  0.00     0.211 HD
ENDBRANCH  15  20
ENDBRANCH   8   9
ENDBRANCH   7   8
ENDBRANCH   1   7
BRANCH   2  22
ATOM     22  O   UNL     1       1.690 -22.335  24.769  1.00  0.00    -0.387 OA
ATOM     23  H   UNL     1       1.351 -23.217  25.060  1.00  0.00     0.211 HD
ENDBRANCH   2  22
BRANCH   3  24
ATOM     24  O   UNL     1       1.736 -20.163  22.882  1.00  0.00    -0.387 OA
ATOM     25  H   UNL     1       1.989 -19.229  22.649  1.00  0.00     0.211 HD
ENDBRANCH   3  24
BRANCH   5  26
ATOM     26  O   UNL     1      -0.277 -18.429  26.169  1.00  0.00    -0.454 OA
BRANCH  26  27
ATOM     27  C   UNL     1      -0.696 -17.351  26.966  1.00  0.00     0.214 A 
ATOM     28  C   UNL     1      -0.815 -17.384  28.373  1.00  0.00     0.180 A 
ATOM     29  C   UNL     1      -0.944 -16.140  26.304  1.00  0.00     0.239 A 
ATOM     30  O   UNL     1      -1.026 -16.252  29.036  1.00  0.00    -0.452 OA
ATOM     31  C   UNL     1      -1.146 -14.950  27.039  1.00  0.00     0.111 A 
ATOM     32  O   UNL     1      -0.946 -16.147  25.046  1.00  0.00    -0.285 OA
ATOM     33  C   UNL     1      -1.170 -15.070  28.452  1.00  0.00     0.146 A 
ATOM     34  C   UNL     1      -1.296 -13.647  26.463  1.00  0.00     0.134 A 
ATOM     35  C   UNL     1      -1.349 -13.944  29.261  1.00  0.00     0.094 A 
ATOM     36  C   UNL     1      -1.495 -12.543  27.302  1.00  0.00     0.093 A 
ATOM     37  C   UNL     1      -1.526 -12.683  28.689  1.00  0.00     0.123 A 
BRANCH  28  38
ATOM     38  C   UNL     1      -0.753 -18.623  29.175  1.00  0.00     0.025 A 
ATOM     39  C   UNL     1       0.424 -18.939  29.871  1.00  0.00     0.062 A 
ATOM     40  C   UNL     1      -1.891 -19.430  29.345  1.00  0.00     0.016 A 
ATOM     41  C   UNL     1       0.488 -20.086  30.695  1.00  0.00     0.161 A 
ATOM     42  C   UNL     1      -1.825 -20.582  30.135  1.00  0.00     0.051 A 
ATOM     43  C   UNL     1      -0.643 -20.914  30.804  1.00  0.00     0.157 A 
BRANCH  41  44
ATOM     44  O   UNL     1       1.649 -20.423  31.408  1.00  0.00    -0.493 OA
ATOM     45  C   UNL     1       2.872 -20.843  30.806  1.00  0.00     0.278 C 
ENDBRANCH  41  44
BRANCH  43  46
ATOM     46  O   UNL     1      -0.614 -22.070  31.584  1.00  0.00    -0.504 OA
ATOM     47  H   UNL     1       0.249 -22.436  31.974  1.00  0.00     0.293 HD
ENDBRANCH  43  46
ENDBRANCH  28  38
BRANCH  34  48
ATOM     48  O   UNL     1      -1.232 -13.375  25.094  1.00  0.00    -0.507 OA
ATOM     49  H   UNL     1      -1.992 -13.041  24.523  1.00  0.00     0.293 HD
ENDBRANCH  34  48
BRANCH  37  50
ATOM     50  O   UNL     1      -1.725 -11.563  29.491  1.00  0.00    -0.508 OA
ATOM     51  H   UNL     1      -2.579 -11.023  29.430  1.00  0.00     0.293 HD
ENDBRANCH  37  50
ENDBRANCH  26  27
ENDBRANCH   5  26
BRANCH   4  52
ATOM     52  O   UNL     1      -1.041 -19.758  22.875  1.00  0.00    -0.384 OA
ATOM     53  H   UNL     1      -1.183 -19.030  22.211  1.00  0.00     0.211 HD
ENDBRANCH   4  52
TORSDOF 16
ENDMDL
MODEL 9
REMARK VINA RESULT:    -7.216      2.857      8.673
REMARK INTER + INTRA:         -14.159
REMARK INTER:                 -11.163
REMARK INTRA:                  -2.997
REMARK UNBOUND:                -2.092
REMARK SMILES COc1cc(-c2oc3cc(O)cc(O)c3c(=O)c2O[C@@H]2O[C@H](CO[C@H]3O[C@H](C)[C@H](O)[C@@H](O)[C@@H]3O)[C@H](O)[C@@H](O)[C@H]2O)ccc1O
REMARK SMILES IDX 22 1 35 2 37 3 39 4 20 5 21 6 23 7 24 8 25 9 28 10 27 11
REMARK SMILES IDX 29 12 26 13 31 14 33 15 30 16 32 18 34 20 36 22 38 24 19 26
REMARK SMILES IDX 18 27 6 28 16 29 7 30 15 31 17 32 8 33 13 34 9 35 12 36
REMARK SMILES IDX 10 37 5 38 4 39 41 40 3 41 42 42 43 43 2 44 1 45 44 46 14 48
REMARK SMILES IDX 11 50 40 52
REMARK H PARENT 30 17 32 19 34 21 36 23 38 25 44 47 14 49 11 51 40 53
REMARK Flexibility Score: inf
ROOT
ATOM      1  C   UNL     1       1.019 -21.369  30.663  1.00  0.00     0.180 C 
ATOM      2  C   UNL     1      -0.484 -21.714  30.405  1.00  0.00     0.177 C 
ATOM      3  C   UNL     1      -1.241 -20.575  29.708  1.00  0.00     0.180 C 
ATOM      4  C   UNL     1      -0.987 -19.277  30.481  1.00  0.00     0.214 C 
ATOM      5  C   UNL     1       0.518 -18.993  30.526  1.00  0.00     0.339 C 
ATOM      6  O   UNL     1       1.265 -20.045  31.139  1.00  0.00    -0.332 OA
ENDROOT
BRANCH   1   7
ATOM      7  C   UNL     1       1.992 -21.738  29.532  1.00  0.00     0.198 C 
BRANCH   7   8
ATOM      8  O   UNL     1       2.163 -23.141  29.474  1.00  0.00    -0.347 OA
BRANCH   8   9
ATOM      9  C   UNL     1       2.842 -23.561  28.298  1.00  0.00     0.281 C 
ATOM     10  C   UNL     1       4.125 -26.717  29.684  1.00  0.00     0.041 C 
ATOM     11  C   UNL     1       3.086 -25.734  29.135  1.00  0.00     0.150 C 
ATOM     12  C   UNL     1       2.213 -26.392  28.044  1.00  0.00     0.174 C 
ATOM     13  O   UNL     1       3.758 -24.595  28.623  1.00  0.00    -0.344 OA
ATOM     14  C   UNL     1       1.196 -25.369  27.497  1.00  0.00     0.179 C 
ATOM     15  C   UNL     1       1.872 -24.021  27.163  1.00  0.00     0.202 C 
BRANCH  12  16
ATOM     16  O   UNL     1       3.027 -26.876  27.006  1.00  0.00    -0.388 OA
ATOM     17  H   UNL     1       2.794 -27.831  26.884  1.00  0.00     0.211 HD
ENDBRANCH  12  16
BRANCH  14  18
ATOM     18  O   UNL     1       0.184 -25.175  28.456  1.00  0.00    -0.387 OA
ATOM     19  H   UNL     1       0.599 -24.715  29.230  1.00  0.00     0.211 HD
ENDBRANCH  14  18
BRANCH  15  20
ATOM     20  O   UNL     1       2.534 -24.093  25.924  1.00  0.00    -0.385 OA
ATOM     21  H   UNL     1       3.154 -23.326  25.852  1.00  0.00     0.211 HD
ENDBRANCH  15  20
ENDBRANCH   8   9
ENDBRANCH   7   8
ENDBRANCH   1   7
BRANCH   2  22
ATOM     22  O   UNL     1      -0.643 -22.931  29.718  1.00  0.00    -0.387 OA
ATOM     23  H   UNL     1      -1.526 -22.917  29.272  1.00  0.00     0.211 HD
ENDBRANCH   2  22
BRANCH   3  24
ATOM     24  O   UNL     1      -2.623 -20.844  29.691  1.00  0.00    -0.387 OA
ATOM     25  H   UNL     1      -2.721 -21.833  29.651  1.00  0.00     0.211 HD
ENDBRANCH   3  24
BRANCH   5  26
ATOM     26  O   UNL     1       0.963 -18.661  29.205  1.00  0.00    -0.454 OA
BRANCH  26  27
ATOM     27  C   UNL     1       0.545 -17.609  28.372  1.00  0.00     0.214 A 
ATOM     28  C   UNL     1      -0.015 -17.772  27.085  1.00  0.00     0.180 A 
ATOM     29  C   UNL     1       0.635 -16.314  28.901  1.00  0.00     0.239 A 
ATOM     30  O   UNL     1      -0.556 -16.724  26.474  1.00  0.00    -0.452 OA
ATOM     31  C   UNL     1       0.032 -15.224  28.235  1.00  0.00     0.111 A 
ATOM     32  O   UNL     1       1.236 -16.167  29.997  1.00  0.00    -0.285 OA
ATOM     33  C   UNL     1      -0.577 -15.499  26.985  1.00  0.00     0.146 A 
ATOM     34  C   UNL     1      -0.030 -13.886  28.743  1.00  0.00     0.134 A 
ATOM     35  C   UNL     1      -1.212 -14.486  26.260  1.00  0.00     0.094 A 
ATOM     36  C   UNL     1      -0.654 -12.890  27.982  1.00  0.00     0.093 A 
ATOM     37  C   UNL     1      -1.239 -13.178  26.750  1.00  0.00     0.123 A 
BRANCH  28  38
ATOM     38  C   UNL     1      -0.012 -19.047  26.342  1.00  0.00     0.025 A 
ATOM     39  C   UNL     1       1.204 -19.576  25.881  1.00  0.00     0.062 A 
ATOM     40  C   UNL     1      -1.190 -19.797  26.190  1.00  0.00     0.016 A 
ATOM     41  C   UNL     1       1.242 -20.826  25.222  1.00  0.00     0.161 A 
ATOM     42  C   UNL     1      -1.163 -21.020  25.513  1.00  0.00     0.051 A 
ATOM     43  C   UNL     1       0.043 -21.533  25.026  1.00  0.00     0.157 A 
BRANCH  41  44
ATOM     44  O   UNL     1       2.444 -21.383  24.757  1.00  0.00    -0.493 OA
ATOM     45  C   UNL     1       3.070 -21.034  23.523  1.00  0.00     0.278 C 
ENDBRANCH  41  44
BRANCH  43  46
ATOM     46  O   UNL     1       0.032 -22.757  24.356  1.00  0.00    -0.504 OA
ATOM     47  H   UNL     1      -0.828 -23.264  24.175  1.00  0.00     0.293 HD
ENDBRANCH  43  46
ENDBRANCH  28  38
BRANCH  34  48
ATOM     48  O   UNL     1       0.473 -13.487  29.984  1.00  0.00    -0.507 OA
ATOM     49  H   UNL     1       0.411 -14.012  30.842  1.00  0.00     0.293 HD
ENDBRANCH  34  48
BRANCH  37  50
ATOM     50  O   UNL     1      -1.852 -12.163  26.022  1.00  0.00    -0.508 OA
ATOM     51  H   UNL     1      -2.774 -11.827  26.269  1.00  0.00     0.293 HD
ENDBRANCH  37  50
ENDBRANCH  26  27
ENDBRANCH   5  26
BRANCH   4  52
ATOM     52  O   UNL     1      -1.486 -19.372  31.793  1.00  0.00    -0.384 OA
ATOM     53  H   UNL     1      -0.792 -18.997  32.399  1.00  0.00     0.211 HD
ENDBRANCH   4  52
TORSDOF 16
ENDMDL
