MODEL 1
REMARK VINA RESULT:    -4.958      0.000      0.000
REMARK INTER + INTRA:          -5.820
REMARK INTER:                  -5.683
REMARK INTRA:                  -0.137
REMARK UNBOUND:                -0.137
REMARK SMILES COc1ccc(C(C)=O)cc1O
REMARK SMILES IDX 6 1 10 2 11 3 3 4 4 5 5 6 7 7 8 8 9 9 12 10 2 12 1 13
REMARK H PARENT 12 11
REMARK Flexibility Score: inf
ROOT
ATOM      1  C   UNL     1       0.967 -21.039  -6.071  1.00  0.00     0.021 A 
ATOM      2  C   UNL     1       1.595 -19.877  -6.555  1.00  0.00     0.062 A 
ATOM      3  C   UNL     1       1.747 -18.749  -5.736  1.00  0.00     0.158 A 
ATOM      4  C   UNL     1       1.274 -18.765  -4.418  1.00  0.00     0.160 A 
ATOM      5  C   UNL     1       0.646 -19.924  -3.928  1.00  0.00     0.051 A 
ATOM      6  C   UNL     1       0.494 -21.047  -4.745  1.00  0.00     0.016 A 
ENDROOT
BRANCH   1   7
ATOM      7  C   UNL     1       0.814 -22.227  -6.955  1.00  0.00     0.159 C 
ATOM      8  C   UNL     1       0.215 -23.510  -6.462  1.00  0.00     0.093 C 
ATOM      9  O   UNL     1       1.193 -22.166  -8.156  1.00  0.00    -0.295 OA
ENDBRANCH   1   7
BRANCH   3  10
ATOM     10  O   UNL     1       2.371 -17.604  -6.229  1.00  0.00    -0.504 OA
ATOM     11  H   UNL     1       2.782 -16.915  -5.610  1.00  0.00     0.293 HD
ENDBRANCH   3  10
BRANCH   4  12
ATOM     12  O   UNL     1       1.447 -17.617  -3.630  1.00  0.00    -0.493 OA
ATOM     13  C   UNL     1       2.299 -17.542  -2.491  1.00  0.00     0.278 C 
ENDBRANCH   4  12
TORSDOF 3
ENDMDL
MODEL 2
REMARK VINA RESULT:    -4.806      1.825      2.002
REMARK INTER + INTRA:          -5.646
REMARK INTER:                  -5.555
REMARK INTRA:                  -0.091
REMARK UNBOUND:                -0.137
REMARK SMILES COc1ccc(C(C)=O)cc1O
REMARK SMILES IDX 6 1 10 2 11 3 3 4 4 5 5 6 7 7 8 8 9 9 12 10 2 12 1 13
REMARK H PARENT 12 11
REMARK Flexibility Score: inf
ROOT
ATOM      1  C   UNL     1       1.455 -21.173  -5.887  1.00  0.00     0.021 A 
ATOM      2  C   UNL     1       2.799 -20.867  -5.611  1.00  0.00     0.062 A 
ATOM      3  C   UNL     1       3.166 -20.272  -4.396  1.00  0.00     0.158 A 
ATOM      4  C   UNL     1       2.191 -19.973  -3.434  1.00  0.00     0.160 A 
ATOM      5  C   UNL     1       0.845 -20.277  -3.705  1.00  0.00     0.051 A 
ATOM      6  C   UNL     1       0.481 -20.869  -4.916  1.00  0.00     0.016 A 
ENDROOT
BRANCH   1   7
ATOM      7  C   UNL     1       1.084 -21.805  -7.183  1.00  0.00     0.159 C 
ATOM      8  C   UNL     1       1.347 -21.132  -8.497  1.00  0.00     0.093 C 
ATOM      9  O   UNL     1       0.534 -22.939  -7.191  1.00  0.00    -0.295 OA
ENDBRANCH   1   7
BRANCH   3  10
ATOM     10  O   UNL     1       4.502 -19.974  -4.135  1.00  0.00    -0.504 OA
ATOM     11  H   UNL     1       4.786 -19.067  -3.784  1.00  0.00     0.293 HD
ENDBRANCH   3  10
BRANCH   4  12
ATOM     12  O   UNL     1       2.598 -19.378  -2.230  1.00  0.00    -0.493 OA
ATOM     13  C   UNL     1       2.665 -17.973  -2.008  1.00  0.00     0.278 C 
ENDBRANCH   4  12
TORSDOF 3
ENDMDL
MODEL 3
REMARK VINA RESULT:    -4.781      1.423      2.386
REMARK INTER + INTRA:          -5.617
REMARK INTER:                  -5.479
REMARK INTRA:                  -0.138
REMARK UNBOUND:                -0.137
REMARK SMILES COc1ccc(C(C)=O)cc1O
REMARK SMILES IDX 6 1 10 2 11 3 3 4 4 5 5 6 7 7 8 8 9 9 12 10 2 12 1 13
REMARK H PARENT 12 11
REMARK Flexibility Score: inf
ROOT
ATOM      1  C   UNL     1       1.106 -20.846  -6.083  1.00  0.00     0.021 A 
ATOM      2  C   UNL     1       0.572 -21.183  -4.827  1.00  0.00     0.062 A 
ATOM      3  C   UNL     1       0.759 -20.347  -3.718  1.00  0.00     0.158 A 
ATOM      4  C   UNL     1       1.484 -19.155  -3.848  1.00  0.00     0.160 A 
ATOM      5  C   UNL     1       2.020 -18.811  -5.102  1.00  0.00     0.051 A 
ATOM      6  C   UNL     1       1.834 -19.647  -6.206  1.00  0.00     0.016 A 
ENDROOT
BRANCH   1   7
ATOM      7  C   UNL     1       0.897 -21.747  -7.249  1.00  0.00     0.159 C 
ATOM      8  C   UNL     1       1.191 -21.309  -8.653  1.00  0.00     0.093 C 
ATOM      9  O   UNL     1       0.462 -22.916  -7.066  1.00  0.00    -0.295 OA
ENDBRANCH   1   7
BRANCH   3  10
ATOM     10  O   UNL     1       0.224 -20.693  -2.479  1.00  0.00    -0.504 OA
ATOM     11  H   UNL     1      -0.605 -21.270  -2.400  1.00  0.00     0.293 HD
ENDBRANCH   3  10
BRANCH   4  12
ATOM     12  O   UNL     1       1.649 -18.343  -2.716  1.00  0.00    -0.493 OA
ATOM     13  C   UNL     1       2.837 -18.282  -1.935  1.00  0.00     0.278 C 
ENDBRANCH   4  12
TORSDOF 3
ENDMDL
MODEL 4
REMARK VINA RESULT:    -4.540     12.060     14.071
REMARK INTER + INTRA:          -5.340
REMARK INTER:                  -5.210
REMARK INTRA:                  -0.130
REMARK UNBOUND:                -0.137
REMARK SMILES COc1ccc(C(C)=O)cc1O
REMARK SMILES IDX 6 1 10 2 11 3 3 4 4 5 5 6 7 7 8 8 9 9 12 10 2 12 1 13
REMARK H PARENT 12 11
REMARK Flexibility Score: inf
ROOT
ATOM      1  C   UNL     1       5.492 -23.539   7.936  1.00  0.00     0.021 A 
ATOM      2  C   UNL     1       5.421 -22.313   7.252  1.00  0.00     0.062 A 
ATOM      3  C   UNL     1       5.824 -22.212   5.913  1.00  0.00     0.158 A 
ATOM      4  C   UNL     1       6.304 -23.340   5.234  1.00  0.00     0.160 A 
ATOM      5  C   UNL     1       6.377 -24.570   5.913  1.00  0.00     0.051 A 
ATOM      6  C   UNL     1       5.976 -24.668   7.248  1.00  0.00     0.016 A 
ENDROOT
BRANCH   1   7
ATOM      7  C   UNL     1       5.061 -23.626   9.358  1.00  0.00     0.159 C 
ATOM      8  C   UNL     1       5.046 -24.927  10.104  1.00  0.00     0.093 C 
ATOM      9  O   UNL     1       4.696 -22.584   9.967  1.00  0.00    -0.295 OA
ENDBRANCH   1   7
BRANCH   3  10
ATOM     10  O   UNL     1       5.748 -20.990   5.247  1.00  0.00    -0.504 OA
ATOM     11  H   UNL     1       6.503 -20.316   5.287  1.00  0.00     0.293 HD
ENDBRANCH   3  10
BRANCH   4  12
ATOM     12  O   UNL     1       6.695 -23.200   3.895  1.00  0.00    -0.493 OA
ATOM     13  C   UNL     1       7.953 -23.619   3.375  1.00  0.00     0.278 C 
ENDBRANCH   4  12
TORSDOF 3
ENDMDL
MODEL 5
REMARK VINA RESULT:    -4.532      1.045      4.648
REMARK INTER + INTRA:          -5.331
REMARK INTER:                  -5.226
REMARK INTRA:                  -0.105
REMARK UNBOUND:                -0.137
REMARK SMILES COc1ccc(C(C)=O)cc1O
REMARK SMILES IDX 6 1 10 2 11 3 3 4 4 5 5 6 7 7 8 8 9 9 12 10 2 12 1 13
REMARK H PARENT 12 11
REMARK Flexibility Score: inf
ROOT
ATOM      1  C   UNL     1       1.437 -18.787  -4.384  1.00  0.00     0.021 A 
ATOM      2  C   UNL     1       1.931 -18.808  -5.700  1.00  0.00     0.062 A 
ATOM      3  C   UNL     1       1.720 -19.917  -6.531  1.00  0.00     0.158 A 
ATOM      4  C   UNL     1       1.007 -21.026  -6.058  1.00  0.00     0.160 A 
ATOM      5  C   UNL     1       0.509 -21.012  -4.743  1.00  0.00     0.051 A 
ATOM      6  C   UNL     1       0.721 -19.906  -3.916  1.00  0.00     0.016 A 
ENDROOT
BRANCH   1   7
ATOM      7  C   UNL     1       1.672 -17.601  -3.517  1.00  0.00     0.159 C 
ATOM      8  C   UNL     1       2.445 -17.696  -2.236  1.00  0.00     0.093 C 
ATOM      9  O   UNL     1       1.214 -16.476  -3.858  1.00  0.00    -0.295 OA
ENDBRANCH   1   7
BRANCH   3  10
ATOM     10  O   UNL     1       2.216 -19.924  -7.833  1.00  0.00    -0.504 OA
ATOM     11  H   UNL     1       1.768 -19.398  -8.575  1.00  0.00     0.293 HD
ENDBRANCH   3  10
BRANCH   4  12
ATOM     12  O   UNL     1       0.814 -22.117  -6.919  1.00  0.00    -0.493 OA
ATOM     13  C   UNL     1       0.215 -23.350  -6.536  1.00  0.00     0.278 C 
ENDBRANCH   4  12
TORSDOF 3
ENDMDL
MODEL 6
REMARK VINA RESULT:    -4.465     10.739     11.399
REMARK INTER + INTRA:          -5.255
REMARK INTER:                  -5.159
REMARK INTRA:                  -0.096
REMARK UNBOUND:                -0.137
REMARK SMILES COc1ccc(C(C)=O)cc1O
REMARK SMILES IDX 6 1 10 2 11 3 3 4 4 5 5 6 7 7 8 8 9 9 12 10 2 12 1 13
REMARK H PARENT 12 11
REMARK Flexibility Score: inf
ROOT
ATOM      1  C   UNL     1      -6.786 -27.523  -3.384  1.00  0.00     0.021 A 
ATOM      2  C   UNL     1      -7.998 -27.301  -4.061  1.00  0.00     0.062 A 
ATOM      3  C   UNL     1      -8.741 -26.133  -3.842  1.00  0.00     0.158 A 
ATOM      4  C   UNL     1      -8.281 -25.164  -2.940  1.00  0.00     0.160 A 
ATOM      5  C   UNL     1      -7.069 -25.380  -2.260  1.00  0.00     0.051 A 
ATOM      6  C   UNL     1      -6.331 -26.545  -2.479  1.00  0.00     0.016 A 
ENDROOT
BRANCH   1   7
ATOM      7  C   UNL     1      -6.011 -28.770  -3.629  1.00  0.00     0.159 C 
ATOM      8  C   UNL     1      -6.685 -30.079  -3.914  1.00  0.00     0.093 C 
ATOM      9  O   UNL     1      -4.751 -28.739  -3.602  1.00  0.00    -0.295 OA
ENDBRANCH   1   7
BRANCH   3  10
ATOM     10  O   UNL     1      -9.941 -25.926  -4.520  1.00  0.00    -0.504 OA
ATOM     11  H   UNL     1     -10.812 -25.776  -4.025  1.00  0.00     0.293 HD
ENDBRANCH   3  10
BRANCH   4  12
ATOM     12  O   UNL     1      -9.052 -24.007  -2.748  1.00  0.00    -0.493 OA
ATOM     13  C   UNL     1      -8.614 -22.857  -2.033  1.00  0.00     0.278 C 
ENDBRANCH   4  12
TORSDOF 3
ENDMDL
MODEL 7
REMARK VINA RESULT:    -4.348      2.189      4.814
REMARK INTER + INTRA:          -5.120
REMARK INTER:                  -5.004
REMARK INTRA:                  -0.116
REMARK UNBOUND:                -0.137
REMARK SMILES COc1ccc(C(C)=O)cc1O
REMARK SMILES IDX 6 1 10 2 11 3 3 4 4 5 5 6 7 7 8 8 9 9 12 10 2 12 1 13
REMARK H PARENT 12 11
REMARK Flexibility Score: inf
ROOT
ATOM      1  C   UNL     1       3.313 -19.610  -6.792  1.00  0.00     0.021 A 
ATOM      2  C   UNL     1       2.466 -19.686  -5.672  1.00  0.00     0.062 A 
ATOM      3  C   UNL     1       1.377 -20.568  -5.653  1.00  0.00     0.158 A 
ATOM      4  C   UNL     1       1.117 -21.392  -6.756  1.00  0.00     0.160 A 
ATOM      5  C   UNL     1       1.961 -21.321  -7.878  1.00  0.00     0.051 A 
ATOM      6  C   UNL     1       3.045 -20.440  -7.896  1.00  0.00     0.016 A 
ENDROOT
BRANCH   1   7
ATOM      7  C   UNL     1       4.464 -18.666  -6.794  1.00  0.00     0.159 C 
ATOM      8  C   UNL     1       4.618 -17.601  -5.750  1.00  0.00     0.093 C 
ATOM      9  O   UNL     1       5.343 -18.754  -7.693  1.00  0.00    -0.295 OA
ENDBRANCH   1   7
BRANCH   3  10
ATOM     10  O   UNL     1       0.545 -20.633  -4.536  1.00  0.00    -0.504 OA
ATOM     11  H   UNL     1      -0.269 -20.037  -4.444  1.00  0.00     0.293 HD
ENDBRANCH   3  10
BRANCH   4  12
ATOM     12  O   UNL     1       0.019 -22.263  -6.698  1.00  0.00    -0.493 OA
ATOM     13  C   UNL     1       0.115 -23.668  -6.487  1.00  0.00     0.278 C 
ENDBRANCH   4  12
TORSDOF 3
ENDMDL
MODEL 8
REMARK VINA RESULT:    -4.319     10.595     11.646
REMARK INTER + INTRA:          -5.088
REMARK INTER:                  -4.955
REMARK INTRA:                  -0.133
REMARK UNBOUND:                -0.137
REMARK SMILES COc1ccc(C(C)=O)cc1O
REMARK SMILES IDX 6 1 10 2 11 3 3 4 4 5 5 6 7 7 8 8 9 9 12 10 2 12 1 13
REMARK H PARENT 12 11
REMARK Flexibility Score: inf
ROOT
ATOM      1  C   UNL     1      -7.104 -27.584  -3.343  1.00  0.00     0.021 A 
ATOM      2  C   UNL     1      -6.611 -26.424  -2.719  1.00  0.00     0.062 A 
ATOM      3  C   UNL     1      -7.469 -25.368  -2.385  1.00  0.00     0.158 A 
ATOM      4  C   UNL     1      -8.838 -25.454  -2.668  1.00  0.00     0.160 A 
ATOM      5  C   UNL     1      -9.338 -26.612  -3.292  1.00  0.00     0.051 A 
ATOM      6  C   UNL     1      -8.481 -27.664  -3.626  1.00  0.00     0.016 A 
ENDROOT
BRANCH   1   7
ATOM      7  C   UNL     1      -6.177 -28.696  -3.691  1.00  0.00     0.159 C 
ATOM      8  C   UNL     1      -6.679 -30.059  -4.064  1.00  0.00     0.093 C 
ATOM      9  O   UNL     1      -4.932 -28.500  -3.677  1.00  0.00    -0.295 OA
ENDBRANCH   1   7
BRANCH   3  10
ATOM     10  O   UNL     1      -6.966 -24.224  -1.766  1.00  0.00    -0.504 OA
ATOM     11  H   UNL     1      -7.337 -23.304  -1.970  1.00  0.00     0.293 HD
ENDBRANCH   3  10
BRANCH   4  12
ATOM     12  O   UNL     1      -9.665 -24.377  -2.317  1.00  0.00    -0.493 OA
ATOM     13  C   UNL     1     -10.435 -24.309  -1.121  1.00  0.00     0.278 C 
ENDBRANCH   4  12
TORSDOF 3
ENDMDL
MODEL 9
REMARK VINA RESULT:    -4.317     12.975     14.629
REMARK INTER + INTRA:          -5.085
REMARK INTER:                  -4.977
REMARK INTRA:                  -0.108
REMARK UNBOUND:                -0.137
REMARK SMILES COc1ccc(C(C)=O)cc1O
REMARK SMILES IDX 6 1 10 2 11 3 3 4 4 5 5 6 7 7 8 8 9 9 12 10 2 12 1 13
REMARK H PARENT 12 11
REMARK Flexibility Score: inf
ROOT
ATOM      1  C   UNL     1       5.326 -24.255   6.508  1.00  0.00     0.021 A 
ATOM      2  C   UNL     1       5.751 -24.958   7.649  1.00  0.00     0.062 A 
ATOM      3  C   UNL     1       4.928 -25.921   8.249  1.00  0.00     0.158 A 
ATOM      4  C   UNL     1       3.663 -26.199   7.714  1.00  0.00     0.160 A 
ATOM      5  C   UNL     1       3.232 -25.499   6.572  1.00  0.00     0.051 A 
ATOM      6  C   UNL     1       4.054 -24.539   5.976  1.00  0.00     0.016 A 
ENDROOT
BRANCH   1   7
ATOM      7  C   UNL     1       6.215 -23.236   5.886  1.00  0.00     0.159 C 
ATOM      8  C   UNL     1       5.743 -21.841   5.600  1.00  0.00     0.093 C 
ATOM      9  O   UNL     1       7.401 -23.539   5.585  1.00  0.00    -0.295 OA
ENDBRANCH   1   7
BRANCH   3  10
ATOM     10  O   UNL     1       5.361 -26.610   9.380  1.00  0.00    -0.504 OA
ATOM     11  H   UNL     1       4.794 -26.667  10.217  1.00  0.00     0.293 HD
ENDBRANCH   3  10
BRANCH   4  12
ATOM     12  O   UNL     1       2.868 -27.170   8.341  1.00  0.00    -0.493 OA
ATOM     13  C   UNL     1       1.475 -27.346   8.105  1.00  0.00     0.278 C 
ENDBRANCH   4  12
TORSDOF 3
ENDMDL
