MODEL 1
REMARK VINA RESULT:    -4.812      0.000      0.000
REMARK INTER + INTRA:          -5.688
REMARK INTER:                  -5.656
REMARK INTRA:                  -0.032
REMARK UNBOUND:                -0.032
REMARK SMILES CCCCC(=O)[O-]
REMARK SMILES IDX 4 1 5 2 6 3 7 4 3 5 2 6 1 7
REMARK H PARENT
REMARK Flexibility Score: inf
ROOT
ATOM      1  C   UNL     1      -7.584  -3.844 -19.659  1.00  0.00     0.053 C 
ENDROOT
BRANCH   1   2
ATOM      2  C   UNL     1      -7.165  -3.087 -20.882  1.00  0.00     0.041 C 
ATOM      3  O   UNL     1      -7.541  -1.899 -21.053  1.00  0.00    -0.550 OA
ATOM      4  O   UNL     1      -6.331  -3.687 -21.818  1.00  0.00    -0.550 OA
ENDBRANCH   1   2
BRANCH   1   5
ATOM      5  C   UNL     1      -7.337  -5.353 -19.804  1.00  0.00     0.006 C 
BRANCH   5   6
ATOM      6  C   UNL     1      -8.610  -6.212 -19.703  1.00  0.00    -0.003 C 
ATOM      7  C   UNL     1      -8.315  -7.711 -19.701  1.00  0.00     0.004 C 
ENDBRANCH   5   6
ENDBRANCH   1   5
TORSDOF 3
ENDMDL
MODEL 2
REMARK VINA RESULT:    -4.775      0.175      1.234
REMARK INTER + INTRA:          -5.644
REMARK INTER:                  -5.608
REMARK INTRA:                  -0.036
REMARK UNBOUND:                -0.032
REMARK SMILES CCCCC(=O)[O-]
REMARK SMILES IDX 4 1 5 2 6 3 7 4 3 5 2 6 1 7
REMARK H PARENT
REMARK Flexibility Score: inf
ROOT
ATOM      1  C   UNL     1      -7.481  -4.011 -19.598  1.00  0.00     0.053 C 
ENDROOT
BRANCH   1   2
ATOM      2  C   UNL     1      -7.174  -3.186 -20.810  1.00  0.00     0.041 C 
ATOM      3  O   UNL     1      -6.562  -3.694 -21.785  1.00  0.00    -0.550 OA
ATOM      4  O   UNL     1      -7.592  -1.862 -20.872  1.00  0.00    -0.550 OA
ENDBRANCH   1   2
BRANCH   1   5
ATOM      5  C   UNL     1      -7.306  -5.513 -19.868  1.00  0.00     0.006 C 
BRANCH   5   6
ATOM      6  C   UNL     1      -8.594  -6.338 -19.701  1.00  0.00    -0.003 C 
ATOM      7  C   UNL     1      -8.338  -7.845 -19.699  1.00  0.00     0.004 C 
ENDBRANCH   5   6
ENDBRANCH   1   5
TORSDOF 3
ENDMDL
MODEL 3
REMARK VINA RESULT:    -4.610      1.576      2.155
REMARK INTER + INTRA:          -5.450
REMARK INTER:                  -5.416
REMARK INTRA:                  -0.034
REMARK UNBOUND:                -0.032
REMARK SMILES CCCCC(=O)[O-]
REMARK SMILES IDX 4 1 5 2 6 3 7 4 3 5 2 6 1 7
REMARK H PARENT
REMARK Flexibility Score: inf
ROOT
ATOM      1  C   UNL     1      -8.334  -5.141 -18.601  1.00  0.00     0.053 C 
ENDROOT
BRANCH   1   2
ATOM      2  C   UNL     1      -7.373  -4.127 -19.141  1.00  0.00     0.041 C 
ATOM      3  O   UNL     1      -6.151  -4.408 -19.252  1.00  0.00    -0.550 OA
ATOM      4  O   UNL     1      -7.834  -2.882 -19.551  1.00  0.00    -0.550 OA
ENDBRANCH   1   2
BRANCH   1   5
ATOM      5  C   UNL     1      -8.846  -6.088 -19.696  1.00  0.00     0.006 C 
BRANCH   5   6
ATOM      6  C   UNL     1      -7.937  -7.302 -19.955  1.00  0.00    -0.003 C 
ATOM      7  C   UNL     1      -8.551  -8.617 -19.476  1.00  0.00     0.004 C 
ENDBRANCH   5   6
ENDBRANCH   1   5
TORSDOF 3
ENDMDL
MODEL 4
REMARK VINA RESULT:    -4.435      2.470      3.955
REMARK INTER + INTRA:          -5.245
REMARK INTER:                  -5.156
REMARK INTRA:                  -0.089
REMARK UNBOUND:                -0.032
REMARK SMILES CCCCC(=O)[O-]
REMARK SMILES IDX 4 1 5 2 6 3 7 4 3 5 2 6 1 7
REMARK H PARENT
REMARK Flexibility Score: inf
ROOT
ATOM      1  C   UNL     1      -6.996  -5.134 -19.995  1.00  0.00     0.053 C 
ENDROOT
BRANCH   1   2
ATOM      2  C   UNL     1      -8.138  -6.070 -19.739  1.00  0.00     0.041 C 
ATOM      3  O   UNL     1      -7.972  -7.314 -19.835  1.00  0.00    -0.550 OA
ATOM      4  O   UNL     1      -9.377  -5.567 -19.363  1.00  0.00    -0.550 OA
ENDBRANCH   1   2
BRANCH   1   5
ATOM      5  C   UNL     1      -7.042  -3.907 -19.072  1.00  0.00     0.006 C 
BRANCH   5   6
ATOM      6  C   UNL     1      -7.456  -2.604 -19.776  1.00  0.00    -0.003 C 
ATOM      7  C   UNL     1      -7.231  -2.648 -21.287  1.00  0.00     0.004 C 
ENDBRANCH   5   6
ENDBRANCH   1   5
TORSDOF 3
ENDMDL
MODEL 5
REMARK VINA RESULT:    -4.243     10.627     11.153
REMARK INTER + INTRA:          -5.019
REMARK INTER:                  -4.911
REMARK INTRA:                  -0.108
REMARK UNBOUND:                -0.032
REMARK SMILES CCCCC(=O)[O-]
REMARK SMILES IDX 4 1 5 2 6 3 7 4 3 5 2 6 1 7
REMARK H PARENT
REMARK Flexibility Score: inf
ROOT
ATOM      1  C   UNL     1     -16.748  -8.478 -20.776  1.00  0.00     0.053 C 
ENDROOT
BRANCH   1   2
ATOM      2  C   UNL     1     -17.818  -9.275 -21.459  1.00  0.00     0.041 C 
ATOM      3  O   UNL     1     -17.923  -9.252 -22.713  1.00  0.00    -0.550 OA
ATOM      4  O   UNL     1     -18.678 -10.068 -20.709  1.00  0.00    -0.550 OA
ENDBRANCH   1   2
BRANCH   1   5
ATOM      5  C   UNL     1     -17.335  -7.373 -19.886  1.00  0.00     0.006 C 
BRANCH   5   6
ATOM      6  C   UNL     1     -17.342  -7.710 -18.385  1.00  0.00    -0.003 C 
ATOM      7  C   UNL     1     -16.351  -8.815 -18.020  1.00  0.00     0.004 C 
ENDBRANCH   5   6
ENDBRANCH   1   5
TORSDOF 3
ENDMDL
MODEL 6
REMARK VINA RESULT:    -4.200      1.789      2.031
REMARK INTER + INTRA:          -4.968
REMARK INTER:                  -4.896
REMARK INTRA:                  -0.071
REMARK UNBOUND:                -0.032
REMARK SMILES CCCCC(=O)[O-]
REMARK SMILES IDX 4 1 5 2 6 3 7 4 3 5 2 6 1 7
REMARK H PARENT
REMARK Flexibility Score: inf
ROOT
ATOM      1  C   UNL     1      -7.017  -2.878 -19.872  1.00  0.00     0.053 C 
ENDROOT
BRANCH   1   2
ATOM      2  C   UNL     1      -5.525  -2.772 -19.808  1.00  0.00     0.041 C 
ATOM      3  O   UNL     1      -4.922  -2.959 -18.719  1.00  0.00    -0.550 OA
ATOM      4  O   UNL     1      -4.798  -2.498 -20.960  1.00  0.00    -0.550 OA
ENDBRANCH   1   2
BRANCH   1   5
ATOM      5  C   UNL     1      -7.529  -4.177 -19.232  1.00  0.00     0.006 C 
BRANCH   5   6
ATOM      6  C   UNL     1      -7.189  -5.448 -20.029  1.00  0.00    -0.003 C 
ATOM      7  C   UNL     1      -8.140  -6.607 -19.732  1.00  0.00     0.004 C 
ENDBRANCH   5   6
ENDBRANCH   1   5
TORSDOF 3
ENDMDL
MODEL 7
REMARK VINA RESULT:    -4.179      2.222      4.174
REMARK INTER + INTRA:          -4.944
REMARK INTER:                  -4.888
REMARK INTRA:                  -0.056
REMARK UNBOUND:                -0.032
REMARK SMILES CCCCC(=O)[O-]
REMARK SMILES IDX 4 1 5 2 6 3 7 4 3 5 2 6 1 7
REMARK H PARENT
REMARK Flexibility Score: inf
ROOT
ATOM      1  C   UNL     1      -7.621  -2.922 -19.545  1.00  0.00     0.053 C 
ENDROOT
BRANCH   1   2
ATOM      2  C   UNL     1      -7.190  -3.807 -20.674  1.00  0.00     0.041 C 
ATOM      3  O   UNL     1      -6.920  -5.018 -20.462  1.00  0.00    -0.550 OA
ATOM      4  O   UNL     1      -7.119  -3.300 -21.965  1.00  0.00    -0.550 OA
ENDBRANCH   1   2
BRANCH   1   5
ATOM      5  C   UNL     1      -7.393  -1.436 -19.861  1.00  0.00     0.006 C 
BRANCH   5   6
ATOM      6  C   UNL     1      -6.514  -0.701 -18.835  1.00  0.00    -0.003 C 
ATOM      7  C   UNL     1      -5.020  -0.838 -19.127  1.00  0.00     0.004 C 
ENDBRANCH   5   6
ENDBRANCH   1   5
TORSDOF 3
ENDMDL
MODEL 8
REMARK VINA RESULT:    -4.169     10.146     10.871
REMARK INTER + INTRA:          -4.932
REMARK INTER:                  -4.888
REMARK INTRA:                  -0.044
REMARK UNBOUND:                -0.032
REMARK SMILES CCCCC(=O)[O-]
REMARK SMILES IDX 4 1 5 2 6 3 7 4 3 5 2 6 1 7
REMARK H PARENT
REMARK Flexibility Score: inf
ROOT
ATOM      1  C   UNL     1     -16.694  -9.569 -20.862  1.00  0.00     0.053 C 
ENDROOT
BRANCH   1   2
ATOM      2  C   UNL     1     -16.740  -9.069 -22.273  1.00  0.00     0.041 C 
ATOM      3  O   UNL     1     -17.844  -8.939 -22.864  1.00  0.00    -0.550 OA
ATOM      4  O   UNL     1     -15.564  -8.718 -22.925  1.00  0.00    -0.550 OA
ENDBRANCH   1   2
BRANCH   1   5
ATOM      5  C   UNL     1     -18.089  -9.613 -20.222  1.00  0.00     0.006 C 
BRANCH   5   6
ATOM      6  C   UNL     1     -18.095  -9.359 -18.705  1.00  0.00    -0.003 C 
ATOM      7  C   UNL     1     -16.778  -8.773 -18.196  1.00  0.00     0.004 C 
ENDBRANCH   5   6
ENDBRANCH   1   5
TORSDOF 3
ENDMDL
MODEL 9
REMARK VINA RESULT:    -4.070      3.515      4.134
REMARK INTER + INTRA:          -4.815
REMARK INTER:                  -4.741
REMARK INTRA:                  -0.073
REMARK UNBOUND:                -0.032
REMARK SMILES CCCCC(=O)[O-]
REMARK SMILES IDX 4 1 5 2 6 3 7 4 3 5 2 6 1 7
REMARK H PARENT
REMARK Flexibility Score: inf
ROOT
ATOM      1  C   UNL     1      -5.717  -2.632 -19.049  1.00  0.00     0.053 C 
ENDROOT
BRANCH   1   2
ATOM      2  C   UNL     1      -4.512  -1.760 -18.870  1.00  0.00     0.041 C 
ATOM      3  O   UNL     1      -3.382  -2.274 -18.662  1.00  0.00    -0.550 OA
ATOM      4  O   UNL     1      -4.633  -0.379 -18.966  1.00  0.00    -0.550 OA
ENDBRANCH   1   2
BRANCH   1   5
ATOM      5  C   UNL     1      -6.944  -1.829 -19.505  1.00  0.00     0.006 C 
BRANCH   5   6
ATOM      6  C   UNL     1      -7.410  -2.149 -20.936  1.00  0.00    -0.003 C 
ATOM      7  C   UNL     1      -6.757  -3.407 -21.506  1.00  0.00     0.004 C 
ENDBRANCH   5   6
ENDBRANCH   1   5
TORSDOF 3
ENDMDL
