MODEL 1
REMARK VINA RESULT:    -4.149      0.000      0.000
REMARK INTER + INTRA:          -5.698
REMARK INTER:                  -5.240
REMARK INTRA:                  -0.458
REMARK UNBOUND:                -0.458
REMARK SMILES CC(C)=CCCC(C)=CCO
REMARK SMILES IDX 7 1 9 2 8 3 6 4 5 5 4 6 1 7 2 8 3 9 10 10 11 11
REMARK H PARENT 11 12
REMARK Flexibility Score: inf
ROOT
ATOM      1  C   UNL     1      12.454  58.285  16.610  1.00  0.00    -0.075 C 
ATOM      2  C   UNL     1      11.336  57.898  17.264  1.00  0.00    -0.000 C 
ATOM      3  C   UNL     1      12.693  59.759  16.408  1.00  0.00     0.039 C 
ENDROOT
BRANCH   1   4
ATOM      4  C   UNL     1      13.509  57.307  16.134  1.00  0.00     0.034 C 
BRANCH   4   5
ATOM      5  C   UNL     1      14.722  58.055  15.568  1.00  0.00     0.032 C 
BRANCH   5   6
ATOM      6  C   UNL     1      14.849  57.821  14.084  1.00  0.00    -0.028 C 
ATOM      7  C   UNL     1      15.046  60.261  13.553  1.00  0.00     0.039 C 
ATOM      8  C   UNL     1      14.970  58.803  13.164  1.00  0.00    -0.080 C 
ATOM      9  C   UNL     1      15.048  58.418  11.708  1.00  0.00     0.039 C 
ENDBRANCH   5   6
ENDBRANCH   4   5
ENDBRANCH   1   4
BRANCH   2  10
ATOM     10  C   UNL     1      10.970  56.465  17.550  1.00  0.00     0.183 C 
BRANCH  10  11
ATOM     11  O   UNL     1       9.715  56.158  17.006  1.00  0.00    -0.392 OA
ATOM     12  H   UNL     1       9.578  55.184  17.141  1.00  0.00     0.210 HD
ENDBRANCH  10  11
ENDBRANCH   2  10
TORSDOF 5
ENDMDL
MODEL 2
REMARK VINA RESULT:    -3.728      2.700      5.506
REMARK INTER + INTRA:          -5.166
REMARK INTER:                  -4.895
REMARK INTRA:                  -0.271
REMARK UNBOUND:                -0.458
REMARK SMILES CC(C)=CCCC(C)=CCO
REMARK SMILES IDX 7 1 9 2 8 3 6 4 5 5 4 6 1 7 2 8 3 9 10 10 11 11
REMARK H PARENT 11 12
REMARK Flexibility Score: inf
ROOT
ATOM      1  C   UNL     1      14.504  59.253  14.763  1.00  0.00    -0.075 C 
ATOM      2  C   UNL     1      15.003  59.391  13.514  1.00  0.00    -0.000 C 
ATOM      3  C   UNL     1      14.404  60.478  15.635  1.00  0.00     0.039 C 
ENDROOT
BRANCH   1   4
ATOM      4  C   UNL     1      13.977  57.937  15.299  1.00  0.00     0.034 C 
BRANCH   4   5
ATOM      5  C   UNL     1      12.701  58.159  16.117  1.00  0.00     0.032 C 
BRANCH   5   6
ATOM      6  C   UNL     1      12.794  57.463  17.452  1.00  0.00    -0.028 C 
ATOM      7  C   UNL     1      10.537  56.399  17.235  1.00  0.00     0.039 C 
ATOM      8  C   UNL     1      11.820  56.689  17.979  1.00  0.00    -0.080 C 
ATOM      9  C   UNL     1      12.039  56.089  19.344  1.00  0.00     0.039 C 
ENDBRANCH   5   6
ENDBRANCH   4   5
ENDBRANCH   1   4
BRANCH   2  10
ATOM     10  C   UNL     1      15.151  58.263  12.527  1.00  0.00     0.183 C 
BRANCH  10  11
ATOM     11  O   UNL     1      14.734  58.667  11.251  1.00  0.00    -0.392 OA
ATOM     12  H   UNL     1      14.373  57.858  10.801  1.00  0.00     0.210 HD
ENDBRANCH  10  11
ENDBRANCH   2  10
TORSDOF 5
ENDMDL
MODEL 3
REMARK VINA RESULT:    -3.540      3.099      5.689
REMARK INTER + INTRA:          -4.929
REMARK INTER:                  -4.471
REMARK INTRA:                  -0.458
REMARK UNBOUND:                -0.458
REMARK SMILES CC(C)=CCCC(C)=CCO
REMARK SMILES IDX 7 1 9 2 8 3 6 4 5 5 4 6 1 7 2 8 3 9 10 10 11 11
REMARK H PARENT 11 12
REMARK Flexibility Score: inf
ROOT
ATOM      1  C   UNL     1      14.967  58.681  13.256  1.00  0.00    -0.075 C 
ATOM      2  C   UNL     1      15.055  58.821  11.915  1.00  0.00    -0.000 C 
ATOM      3  C   UNL     1      15.048  57.294  13.841  1.00  0.00     0.039 C 
ENDROOT
BRANCH   1   4
ATOM      4  C   UNL     1      14.861  59.861  14.202  1.00  0.00     0.034 C 
BRANCH   4   5
ATOM      5  C   UNL     1      14.639  59.382  15.640  1.00  0.00     0.032 C 
BRANCH   5   6
ATOM      6  C   UNL     1      13.229  59.675  16.090  1.00  0.00    -0.028 C 
ATOM      7  C   UNL     1      12.820  57.331  16.872  1.00  0.00     0.039 C 
ATOM      8  C   UNL     1      12.391  58.757  16.622  1.00  0.00    -0.080 C 
ATOM      9  C   UNL     1      10.994  59.189  16.988  1.00  0.00     0.039 C 
ENDBRANCH   5   6
ENDBRANCH   4   5
ENDBRANCH   1   4
BRANCH   2  10
ATOM     10  C   UNL     1      15.004  60.141  11.191  1.00  0.00     0.183 C 
BRANCH  10  11
ATOM     11  O   UNL     1      15.036  59.944   9.803  1.00  0.00    -0.392 OA
ATOM     12  H   UNL     1      14.239  60.407   9.432  1.00  0.00     0.210 HD
ENDBRANCH  10  11
ENDBRANCH   2  10
TORSDOF 5
ENDMDL
MODEL 4
REMARK VINA RESULT:    -3.505      2.135      2.926
REMARK INTER + INTRA:          -4.885
REMARK INTER:                  -4.597
REMARK INTRA:                  -0.288
REMARK UNBOUND:                -0.458
REMARK SMILES CC(C)=CCCC(C)=CCO
REMARK SMILES IDX 7 1 9 2 8 3 6 4 5 5 4 6 1 7 2 8 3 9 10 10 11 11
REMARK H PARENT 11 12
REMARK Flexibility Score: inf
ROOT
ATOM      1  C   UNL     1      11.681  56.445  18.175  1.00  0.00    -0.075 C 
ATOM      2  C   UNL     1      11.636  55.619  19.244  1.00  0.00    -0.000 C 
ATOM      3  C   UNL     1      10.526  56.430  17.207  1.00  0.00     0.039 C 
ENDROOT
BRANCH   1   4
ATOM      4  C   UNL     1      12.806  57.435  17.946  1.00  0.00     0.034 C 
BRANCH   4   5
ATOM      5  C   UNL     1      12.700  58.059  16.551  1.00  0.00     0.032 C 
BRANCH   5   6
ATOM      6  C   UNL     1      13.769  57.514  15.638  1.00  0.00    -0.028 C 
ATOM      7  C   UNL     1      14.397  59.774  14.759  1.00  0.00     0.039 C 
ATOM      8  C   UNL     1      14.522  58.269  14.809  1.00  0.00    -0.080 C 
ATOM      9  C   UNL     1      15.528  57.578  13.923  1.00  0.00     0.039 C 
ENDBRANCH   5   6
ENDBRANCH   4   5
ENDBRANCH   1   4
BRANCH   2  10
ATOM     10  C   UNL     1      12.707  55.533  20.300  1.00  0.00     0.183 C 
BRANCH  10  11
ATOM     11  O   UNL     1      12.166  55.764  21.572  1.00  0.00    -0.392 OA
ATOM     12  H   UNL     1      11.534  55.019  21.751  1.00  0.00     0.210 HD
ENDBRANCH  10  11
ENDBRANCH   2  10
TORSDOF 5
ENDMDL
MODEL 5
REMARK VINA RESULT:    -3.461      7.584      9.600
REMARK INTER + INTRA:          -4.830
REMARK INTER:                  -4.424
REMARK INTRA:                  -0.405
REMARK UNBOUND:                -0.458
REMARK SMILES CC(C)=CCCC(C)=CCO
REMARK SMILES IDX 7 1 9 2 8 3 6 4 5 5 4 6 1 7 2 8 3 9 10 10 11 11
REMARK H PARENT 11 12
REMARK Flexibility Score: inf
ROOT
ATOM      1  C   UNL     1      17.242  53.107  20.576  1.00  0.00    -0.075 C 
ATOM      2  C   UNL     1      18.439  52.589  20.225  1.00  0.00    -0.000 C 
ATOM      3  C   UNL     1      16.750  54.335  19.853  1.00  0.00     0.039 C 
ENDROOT
BRANCH   1   4
ATOM      4  C   UNL     1      16.341  52.468  21.615  1.00  0.00     0.034 C 
BRANCH   4   5
ATOM      5  C   UNL     1      14.943  53.095  21.576  1.00  0.00     0.032 C 
BRANCH   5   6
ATOM      6  C   UNL     1      14.699  53.934  22.806  1.00  0.00    -0.028 C 
ATOM      7  C   UNL     1      13.404  55.676  21.557  1.00  0.00     0.039 C 
ATOM      8  C   UNL     1      14.031  55.108  22.809  1.00  0.00    -0.080 C 
ATOM      9  C   UNL     1      13.900  55.856  24.111  1.00  0.00     0.039 C 
ENDBRANCH   5   6
ENDBRANCH   4   5
ENDBRANCH   1   4
BRANCH   2  10
ATOM     10  C   UNL     1      19.053  51.362  20.847  1.00  0.00     0.183 C 
BRANCH  10  11
ATOM     11  O   UNL     1      19.076  50.302  19.929  1.00  0.00    -0.392 OA
ATOM     12  H   UNL     1      18.382  50.502  19.248  1.00  0.00     0.210 HD
ENDBRANCH  10  11
ENDBRANCH   2  10
TORSDOF 5
ENDMDL
MODEL 6
REMARK VINA RESULT:    -3.437      7.736      9.425
REMARK INTER + INTRA:          -4.798
REMARK INTER:                  -4.501
REMARK INTRA:                  -0.298
REMARK UNBOUND:                -0.458
REMARK SMILES CC(C)=CCCC(C)=CCO
REMARK SMILES IDX 7 1 9 2 8 3 6 4 5 5 4 6 1 7 2 8 3 9 10 10 11 11
REMARK H PARENT 11 12
REMARK Flexibility Score: inf
ROOT
ATOM      1  C   UNL     1       4.127  60.361  19.431  1.00  0.00    -0.075 C 
ATOM      2  C   UNL     1       2.938  60.735  19.954  1.00  0.00    -0.000 C 
ATOM      3  C   UNL     1       4.727  59.052  19.874  1.00  0.00     0.039 C 
ENDROOT
BRANCH   1   4
ATOM      4  C   UNL     1       4.849  61.166  18.368  1.00  0.00     0.034 C 
BRANCH   4   5
ATOM      5  C   UNL     1       5.494  60.238  17.334  1.00  0.00     0.032 C 
BRANCH   5   6
ATOM      6  C   UNL     1       5.532  60.894  15.976  1.00  0.00    -0.028 C 
ATOM      7  C   UNL     1       7.989  61.363  16.093  1.00  0.00     0.039 C 
ATOM      8  C   UNL     1       6.640  61.427  15.417  1.00  0.00    -0.080 C 
ATOM      9  C   UNL     1       6.516  62.088  14.067  1.00  0.00     0.039 C 
ENDBRANCH   5   6
ENDBRANCH   4   5
ENDBRANCH   1   4
BRANCH   2  10
ATOM     10  C   UNL     1       2.213  62.006  19.597  1.00  0.00     0.183 C 
BRANCH  10  11
ATOM     11  O   UNL     1       1.368  61.800  18.498  1.00  0.00    -0.392 OA
ATOM     12  H   UNL     1       0.849  60.975  18.689  1.00  0.00     0.210 HD
ENDBRANCH  10  11
ENDBRANCH   2  10
TORSDOF 5
ENDMDL
MODEL 7
REMARK VINA RESULT:    -3.412      6.386      8.439
REMARK INTER + INTRA:          -4.767
REMARK INTER:                  -4.465
REMARK INTRA:                  -0.302
REMARK UNBOUND:                -0.458
REMARK SMILES CC(C)=CCCC(C)=CCO
REMARK SMILES IDX 7 1 9 2 8 3 6 4 5 5 4 6 1 7 2 8 3 9 10 10 11 11
REMARK H PARENT 11 12
REMARK Flexibility Score: inf
ROOT
ATOM      1  C   UNL     1      16.535  53.047  20.848  1.00  0.00    -0.075 C 
ATOM      2  C   UNL     1      17.799  52.741  20.481  1.00  0.00    -0.000 C 
ATOM      3  C   UNL     1      15.866  52.197  21.897  1.00  0.00     0.039 C 
ENDROOT
BRANCH   1   4
ATOM      4  C   UNL     1      15.788  54.248  20.303  1.00  0.00     0.034 C 
BRANCH   4   5
ATOM      5  C   UNL     1      14.281  54.098  20.538  1.00  0.00     0.032 C 
BRANCH   5   6
ATOM      6  C   UNL     1      13.753  55.243  21.366  1.00  0.00    -0.028 C 
ATOM      7  C   UNL     1      11.941  55.803  19.730  1.00  0.00     0.039 C 
ATOM      8  C   UNL     1      12.719  56.034  21.004  1.00  0.00    -0.080 C 
ATOM      9  C   UNL     1      12.328  57.167  21.919  1.00  0.00     0.039 C 
ENDBRANCH   5   6
ENDBRANCH   4   5
ENDBRANCH   1   4
BRANCH   2  10
ATOM     10  C   UNL     1      18.599  53.505  19.459  1.00  0.00     0.183 C 
BRANCH  10  11
ATOM     11  O   UNL     1      18.365  53.001  18.172  1.00  0.00    -0.392 OA
ATOM     12  H   UNL     1      19.168  52.473  17.923  1.00  0.00     0.210 HD
ENDBRANCH  10  11
ENDBRANCH   2  10
TORSDOF 5
ENDMDL
MODEL 8
REMARK VINA RESULT:    -3.365      7.277      9.158
REMARK INTER + INTRA:          -4.708
REMARK INTER:                  -4.415
REMARK INTRA:                  -0.293
REMARK UNBOUND:                -0.458
REMARK SMILES CC(C)=CCCC(C)=CCO
REMARK SMILES IDX 7 1 9 2 8 3 6 4 5 5 4 6 1 7 2 8 3 9 10 10 11 11
REMARK H PARENT 11 12
REMARK Flexibility Score: inf
ROOT
ATOM      1  C   UNL     1       3.446  60.595  19.611  1.00  0.00    -0.075 C 
ATOM      2  C   UNL     1       3.247  59.572  20.472  1.00  0.00    -0.000 C 
ATOM      3  C   UNL     1       2.243  61.330  19.079  1.00  0.00     0.039 C 
ENDROOT
BRANCH   1   4
ATOM      4  C   UNL     1       4.827  61.079  19.213  1.00  0.00     0.034 C 
BRANCH   4   5
ATOM      5  C   UNL     1       5.294  60.382  17.931  1.00  0.00     0.032 C 
BRANCH   5   6
ATOM      6  C   UNL     1       6.575  60.998  17.425  1.00  0.00    -0.028 C 
ATOM      7  C   UNL     1       5.874  60.875  15.024  1.00  0.00     0.039 C 
ATOM      8  C   UNL     1       6.861  61.202  16.120  1.00  0.00    -0.080 C 
ATOM      9  C   UNL     1       8.201  61.791  15.763  1.00  0.00     0.039 C 
ENDBRANCH   5   6
ENDBRANCH   4   5
ENDBRANCH   1   4
BRANCH   2  10
ATOM     10  C   UNL     1       4.350  58.756  21.095  1.00  0.00     0.183 C 
BRANCH  10  11
ATOM     11  O   UNL     1       4.714  57.695  20.254  1.00  0.00    -0.392 OA
ATOM     12  H   UNL     1       4.516  56.859  20.750  1.00  0.00     0.210 HD
ENDBRANCH  10  11
ENDBRANCH   2  10
TORSDOF 5
ENDMDL
MODEL 9
REMARK VINA RESULT:    -3.318      7.439      9.440
REMARK INTER + INTRA:          -4.649
REMARK INTER:                  -4.070
REMARK INTRA:                  -0.579
REMARK UNBOUND:                -0.458
REMARK SMILES CC(C)=CCCC(C)=CCO
REMARK SMILES IDX 7 1 9 2 8 3 6 4 5 5 4 6 1 7 2 8 3 9 10 10 11 11
REMARK H PARENT 11 12
REMARK Flexibility Score: inf
ROOT
ATOM      1  C   UNL     1      15.943  53.082  20.997  1.00  0.00    -0.075 C 
ATOM      2  C   UNL     1      17.199  52.996  20.506  1.00  0.00    -0.000 C 
ATOM      3  C   UNL     1      15.520  52.104  22.063  1.00  0.00     0.039 C 
ENDROOT
BRANCH   1   4
ATOM      4  C   UNL     1      14.965  54.161  20.575  1.00  0.00     0.034 C 
BRANCH   4   5
ATOM      5  C   UNL     1      15.038  55.358  21.529  1.00  0.00     0.032 C 
BRANCH   5   6
ATOM      6  C   UNL     1      13.893  55.331  22.510  1.00  0.00    -0.028 C 
ATOM      7  C   UNL     1      15.381  54.919  24.482  1.00  0.00     0.039 C 
ATOM      8  C   UNL     1      14.029  55.109  23.836  1.00  0.00    -0.080 C 
ATOM      9  C   UNL     1      12.786  55.071  24.688  1.00  0.00     0.039 C 
ENDBRANCH   5   6
ENDBRANCH   4   5
ENDBRANCH   1   4
BRANCH   2  10
ATOM     10  C   UNL     1      17.765  53.911  19.451  1.00  0.00     0.183 C 
BRANCH  10  11
ATOM     11  O   UNL     1      18.267  53.168  18.373  1.00  0.00    -0.392 OA
ATOM     12  H   UNL     1      18.673  53.821  17.744  1.00  0.00     0.210 HD
ENDBRANCH  10  11
ENDBRANCH   2  10
TORSDOF 5
ENDMDL
