MODEL 1
REMARK VINA RESULT:    -3.542      0.000      0.000
REMARK INTER + INTRA:          -3.645
REMARK INTER:                  -3.645
REMARK INTRA:                   0.000
REMARK UNBOUND:                 0.000
REMARK SMILES Nc1ncnc2nc[nH]c12
REMARK SMILES IDX 8 1 7 2 6 3 5 4 4 5 3 6 2 7 10 8 9 9 1 11
REMARK H PARENT 9 10 1 12 1 13
REMARK Flexibility Score: inf
ROOT
ATOM      1  C   UNL     1     -10.237  -4.129   4.999  1.00  0.00     0.199 A 
ATOM      2  N   UNL     1     -11.153  -3.145   5.214  1.00  0.00    -0.217 NA
ATOM      3  C   UNL     1     -10.388  -2.041   5.235  1.00  0.00     0.182 A 
ATOM      4  N   UNL     1     -10.811  -0.768   5.419  1.00  0.00    -0.215 NA
ATOM      5  C   UNL     1      -9.876   0.230   5.409  1.00  0.00     0.226 A 
ATOM      6  N   UNL     1      -8.549  -0.060   5.215  1.00  0.00    -0.217 NA
ATOM      7  C   UNL     1      -8.121  -1.344   5.029  1.00  0.00     0.152 A 
ATOM      8  C   UNL     1      -9.084  -2.349   5.043  1.00  0.00     0.127 A 
ATOM      9  N   UNL     1      -8.962  -3.674   4.891  1.00  0.00    -0.340 N 
ATOM     10  H   UNL     1      -8.099  -4.235   4.726  1.00  0.00     0.168 HD
ENDROOT
BRANCH   7  11
ATOM     11  N   UNL     1      -6.734  -1.622   4.830  1.00  0.00    -0.382 N 
ATOM     12  H   UNL     1      -6.279  -1.482   3.901  1.00  0.00     0.158 HD
ATOM     13  H   UNL     1      -6.153  -1.972   5.623  1.00  0.00     0.158 HD
ENDBRANCH   7  11
TORSDOF 1
ENDMDL
MODEL 2
REMARK VINA RESULT:    -3.413      0.901      2.991
REMARK INTER + INTRA:          -3.513
REMARK INTER:                  -3.513
REMARK INTRA:                   0.000
REMARK UNBOUND:                 0.000
REMARK SMILES Nc1ncnc2nc[nH]c12
REMARK SMILES IDX 8 1 7 2 6 3 5 4 4 5 3 6 2 7 10 8 9 9 1 11
REMARK H PARENT 9 10 1 12 1 13
REMARK Flexibility Score: inf
ROOT
ATOM      1  C   UNL     1      -7.895  -0.580   4.804  1.00  0.00     0.199 A 
ATOM      2  N   UNL     1      -9.100  -0.045   5.144  1.00  0.00    -0.217 NA
ATOM      3  C   UNL     1      -9.873  -1.137   5.264  1.00  0.00     0.182 A 
ATOM      4  N   UNL     1     -11.186  -1.165   5.593  1.00  0.00    -0.215 NA
ATOM      5  C   UNL     1     -11.807  -2.381   5.666  1.00  0.00     0.226 A 
ATOM      6  N   UNL     1     -11.111  -3.536   5.411  1.00  0.00    -0.217 NA
ATOM      7  C   UNL     1      -9.786  -3.509   5.079  1.00  0.00     0.152 A 
ATOM      8  C   UNL     1      -9.168  -2.264   5.008  1.00  0.00     0.127 A 
ATOM      9  N   UNL     1      -7.904  -1.934   4.713  1.00  0.00    -0.340 N 
ATOM     10  H   UNL     1      -7.106  -2.560   4.469  1.00  0.00     0.168 HD
ENDROOT
BRANCH   7  11
ATOM     11  N   UNL     1      -9.081  -4.723   4.817  1.00  0.00    -0.382 N 
ATOM     12  H   UNL     1      -8.726  -4.951   3.862  1.00  0.00     0.158 HD
ATOM     13  H   UNL     1      -8.911  -5.404   5.589  1.00  0.00     0.158 HD
ENDBRANCH   7  11
TORSDOF 1
ENDMDL
MODEL 3
REMARK VINA RESULT:    -3.297      9.109     10.561
REMARK INTER + INTRA:          -3.393
REMARK INTER:                  -3.393
REMARK INTRA:                   0.000
REMARK UNBOUND:                 0.000
REMARK SMILES Nc1ncnc2nc[nH]c12
REMARK SMILES IDX 8 1 7 2 6 3 5 4 4 5 3 6 2 7 10 8 9 9 1 11
REMARK H PARENT 9 10 1 12 1 13
REMARK Flexibility Score: inf
ROOT
ATOM      1  C   UNL     1      -2.812  -9.308  10.164  1.00  0.00     0.199 A 
ATOM      2  N   UNL     1      -1.792  -9.786   9.399  1.00  0.00    -0.217 NA
ATOM      3  C   UNL     1      -2.279  -9.649   8.155  1.00  0.00     0.182 A 
ATOM      4  N   UNL     1      -1.653  -9.981   7.001  1.00  0.00    -0.215 NA
ATOM      5  C   UNL     1      -2.315  -9.767   5.824  1.00  0.00     0.226 A 
ATOM      6  N   UNL     1      -3.578  -9.230   5.822  1.00  0.00    -0.217 NA
ATOM      7  C   UNL     1      -4.211  -8.895   6.985  1.00  0.00     0.152 A 
ATOM      8  C   UNL     1      -3.524  -9.119   8.175  1.00  0.00     0.127 A 
ATOM      9  N   UNL     1      -3.886  -8.893   9.445  1.00  0.00    -0.340 N 
ATOM     10  H   UNL     1      -4.778  -8.493   9.808  1.00  0.00     0.168 HD
ENDROOT
BRANCH   7  11
ATOM     11  N   UNL     1      -5.525  -8.338   6.959  1.00  0.00    -0.382 N 
ATOM     12  H   UNL     1      -5.688  -7.321   7.129  1.00  0.00     0.158 HD
ATOM     13  H   UNL     1      -6.347  -8.950   6.765  1.00  0.00     0.158 HD
ENDBRANCH   7  11
TORSDOF 1
ENDMDL
MODEL 4
REMARK VINA RESULT:    -3.295      8.861     10.158
REMARK INTER + INTRA:          -3.391
REMARK INTER:                  -3.391
REMARK INTRA:                   0.000
REMARK UNBOUND:                 0.000
REMARK SMILES Nc1ncnc2nc[nH]c12
REMARK SMILES IDX 8 1 7 2 6 3 5 4 4 5 3 6 2 7 10 8 9 9 1 11
REMARK H PARENT 9 10 1 12 1 13
REMARK Flexibility Score: inf
ROOT
ATOM      1  C   UNL     1      -5.288  -9.823   3.503  1.00  0.00     0.199 A 
ATOM      2  N   UNL     1      -4.217 -10.637   3.300  1.00  0.00    -0.217 NA
ATOM      3  C   UNL     1      -3.432 -10.344   4.350  1.00  0.00     0.182 A 
ATOM      4  N   UNL     1      -2.223 -10.884   4.631  1.00  0.00    -0.215 NA
ATOM      5  C   UNL     1      -1.569 -10.454   5.753  1.00  0.00     0.226 A 
ATOM      6  N   UNL     1      -2.132  -9.502   6.565  1.00  0.00    -0.217 NA
ATOM      7  C   UNL     1      -3.352  -8.956   6.283  1.00  0.00     0.152 A 
ATOM      8  C   UNL     1      -4.004  -9.403   5.137  1.00  0.00     0.127 A 
ATOM      9  N   UNL     1      -5.188  -9.055   4.618  1.00  0.00    -0.340 N 
ATOM     10  H   UNL     1      -5.880  -8.361   4.976  1.00  0.00     0.168 HD
ENDROOT
BRANCH   7  11
ATOM     11  N   UNL     1      -3.917  -7.965   7.143  1.00  0.00    -0.382 N 
ATOM     12  H   UNL     1      -3.326  -7.423   7.810  1.00  0.00     0.158 HD
ATOM     13  H   UNL     1      -4.942  -7.771   7.111  1.00  0.00     0.158 HD
ENDBRANCH   7  11
TORSDOF 1
ENDMDL
MODEL 5
REMARK VINA RESULT:    -3.253      1.944      1.961
REMARK INTER + INTRA:          -3.348
REMARK INTER:                  -3.348
REMARK INTRA:                   0.000
REMARK UNBOUND:                 0.000
REMARK SMILES Nc1ncnc2nc[nH]c12
REMARK SMILES IDX 8 1 7 2 6 3 5 4 4 5 3 6 2 7 10 8 9 9 1 11
REMARK H PARENT 9 10 1 12 1 13
REMARK Flexibility Score: inf
ROOT
ATOM      1  C   UNL     1     -10.792  -2.678   2.131  1.00  0.00     0.199 A 
ATOM      2  N   UNL     1     -11.534  -1.578   2.434  1.00  0.00    -0.217 NA
ATOM      3  C   UNL     1     -10.814  -1.009   3.416  1.00  0.00     0.182 A 
ATOM      4  N   UNL     1     -11.114   0.131   4.081  1.00  0.00    -0.215 NA
ATOM      5  C   UNL     1     -10.253   0.555   5.056  1.00  0.00     0.226 A 
ATOM      6  N   UNL     1      -9.120  -0.163   5.345  1.00  0.00    -0.217 NA
ATOM      7  C   UNL     1      -8.816  -1.314   4.675  1.00  0.00     0.152 A 
ATOM      8  C   UNL     1      -9.702  -1.732   3.686  1.00  0.00     0.127 A 
ATOM      9  N   UNL     1      -9.666  -2.801   2.879  1.00  0.00    -0.340 N 
ATOM     10  H   UNL     1      -8.947  -3.555   2.828  1.00  0.00     0.168 HD
ENDROOT
BRANCH   7  11
ATOM     11  N   UNL     1      -7.631  -2.045   4.993  1.00  0.00    -0.382 N 
ATOM     12  H   UNL     1      -7.643  -3.084   5.095  1.00  0.00     0.158 HD
ATOM     13  H   UNL     1      -6.728  -1.540   5.127  1.00  0.00     0.158 HD
ENDBRANCH   7  11
TORSDOF 1
ENDMDL
MODEL 6
REMARK VINA RESULT:    -3.226      8.170      9.839
REMARK INTER + INTRA:          -3.320
REMARK INTER:                  -3.320
REMARK INTRA:                   0.000
REMARK UNBOUND:                 0.000
REMARK SMILES Nc1ncnc2nc[nH]c12
REMARK SMILES IDX 8 1 7 2 6 3 5 4 4 5 3 6 2 7 10 8 9 9 1 11
REMARK H PARENT 9 10 1 12 1 13
REMARK Flexibility Score: inf
ROOT
ATOM      1  C   UNL     1      -2.993  -8.501   7.337  1.00  0.00     0.199 A 
ATOM      2  N   UNL     1      -2.210  -9.218   6.485  1.00  0.00    -0.217 NA
ATOM      3  C   UNL     1      -3.075  -9.546   5.510  1.00  0.00     0.182 A 
ATOM      4  N   UNL     1      -2.803 -10.271   4.399  1.00  0.00    -0.215 NA
ATOM      5  C   UNL     1      -3.820 -10.504   3.516  1.00  0.00     0.226 A 
ATOM      6  N   UNL     1      -5.078 -10.011   3.757  1.00  0.00    -0.217 NA
ATOM      7  C   UNL     1      -5.354  -9.280   4.877  1.00  0.00     0.152 A 
ATOM      8  C   UNL     1      -4.308  -9.052   5.767  1.00  0.00     0.127 A 
ATOM      9  N   UNL     1      -4.282  -8.382   6.926  1.00  0.00    -0.340 N 
ATOM     10  H   UNL     1      -5.059  -7.882   7.409  1.00  0.00     0.168 HD
ENDROOT
BRANCH   7  11
ATOM     11  N   UNL     1      -6.671  -8.778   5.107  1.00  0.00    -0.382 N 
ATOM     12  H   UNL     1      -6.901  -8.225   5.962  1.00  0.00     0.158 HD
ATOM     13  H   UNL     1      -7.428  -8.961   4.412  1.00  0.00     0.158 HD
ENDBRANCH   7  11
TORSDOF 1
ENDMDL
MODEL 7
REMARK VINA RESULT:    -3.125     10.416     11.210
REMARK INTER + INTRA:          -3.216
REMARK INTER:                  -3.216
REMARK INTRA:                   0.000
REMARK UNBOUND:                 0.000
REMARK SMILES Nc1ncnc2nc[nH]c12
REMARK SMILES IDX 8 1 7 2 6 3 5 4 4 5 3 6 2 7 10 8 9 9 1 11
REMARK H PARENT 9 10 1 12 1 13
REMARK Flexibility Score: inf
ROOT
ATOM      1  C   UNL     1      -3.275  -9.964   8.658  1.00  0.00     0.199 A 
ATOM      2  N   UNL     1      -1.984  -9.694   8.992  1.00  0.00    -0.217 NA
ATOM      3  C   UNL     1      -2.124  -8.970  10.115  1.00  0.00     0.182 A 
ATOM      4  N   UNL     1      -1.129  -8.441  10.865  1.00  0.00    -0.215 NA
ATOM      5  C   UNL     1      -1.472  -7.730  11.982  1.00  0.00     0.226 A 
ATOM      6  N   UNL     1      -2.790  -7.562  12.323  1.00  0.00    -0.217 NA
ATOM      7  C   UNL     1      -3.795  -8.095  11.568  1.00  0.00     0.152 A 
ATOM      8  C   UNL     1      -3.431  -8.816  10.434  1.00  0.00     0.127 A 
ATOM      9  N   UNL     1      -4.184  -9.441   9.520  1.00  0.00    -0.340 N 
ATOM     10  H   UNL     1      -5.223  -9.517   9.471  1.00  0.00     0.168 HD
ENDROOT
BRANCH   7  11
ATOM     11  N   UNL     1      -5.160  -7.907  11.943  1.00  0.00    -0.382 N 
ATOM     12  H   UNL     1      -5.690  -8.646  12.457  1.00  0.00     0.158 HD
ATOM     13  H   UNL     1      -5.649  -7.017  11.705  1.00  0.00     0.158 HD
ENDBRANCH   7  11
TORSDOF 1
ENDMDL
MODEL 8
REMARK VINA RESULT:    -3.052     10.958     11.824
REMARK INTER + INTRA:          -3.141
REMARK INTER:                  -3.141
REMARK INTRA:                   0.000
REMARK UNBOUND:                 0.000
REMARK SMILES Nc1ncnc2nc[nH]c12
REMARK SMILES IDX 8 1 7 2 6 3 5 4 4 5 3 6 2 7 10 8 9 9 1 11
REMARK H PARENT 9 10 1 12 1 13
REMARK Flexibility Score: inf
ROOT
ATOM      1  C   UNL     1      -3.871  -7.076  13.850  1.00  0.00     0.199 A 
ATOM      2  N   UNL     1      -4.486  -7.597  12.753  1.00  0.00    -0.217 NA
ATOM      3  C   UNL     1      -3.444  -7.985  11.999  1.00  0.00     0.182 A 
ATOM      4  N   UNL     1      -3.503  -8.575  10.781  1.00  0.00    -0.215 NA
ATOM      5  C   UNL     1      -2.326  -8.899  10.164  1.00  0.00     0.226 A 
ATOM      6  N   UNL     1      -1.124  -8.628  10.769  1.00  0.00    -0.217 NA
ATOM      7  C   UNL     1      -1.063  -8.033  11.997  1.00  0.00     0.152 A 
ATOM      8  C   UNL     1      -2.269  -7.709  12.612  1.00  0.00     0.127 A 
ATOM      9  N   UNL     1      -2.516  -7.130  13.794  1.00  0.00    -0.340 N 
ATOM     10  H   UNL     1      -1.837  -6.796  14.512  1.00  0.00     0.168 HD
ENDROOT
BRANCH   7  11
ATOM     11  N   UNL     1       0.199  -7.761  12.607  1.00  0.00    -0.382 N 
ATOM     12  H   UNL     1       0.424  -6.818  12.994  1.00  0.00     0.158 HD
ATOM     13  H   UNL     1       0.919  -8.514  12.674  1.00  0.00     0.158 HD
ENDBRANCH   7  11
TORSDOF 1
ENDMDL
MODEL 9
REMARK VINA RESULT:    -3.030     14.870     15.403
REMARK INTER + INTRA:          -3.118
REMARK INTER:                  -3.118
REMARK INTRA:                   0.000
REMARK UNBOUND:                 0.000
REMARK SMILES Nc1ncnc2nc[nH]c12
REMARK SMILES IDX 8 1 7 2 6 3 5 4 4 5 3 6 2 7 10 8 9 9 1 11
REMARK H PARENT 9 10 1 12 1 13
REMARK Flexibility Score: inf
ROOT
ATOM      1  C   UNL     1       5.139  -6.958   8.803  1.00  0.00     0.199 A 
ATOM      2  N   UNL     1       4.205  -7.859   9.213  1.00  0.00    -0.217 NA
ATOM      3  C   UNL     1       3.730  -7.289  10.333  1.00  0.00     0.182 A 
ATOM      4  N   UNL     1       2.765  -7.784  11.144  1.00  0.00    -0.215 NA
ATOM      5  C   UNL     1       2.413  -7.055  12.246  1.00  0.00     0.226 A 
ATOM      6  N   UNL     1       3.028  -5.858  12.515  1.00  0.00    -0.217 NA
ATOM      7  C   UNL     1       4.001  -5.358  11.698  1.00  0.00     0.152 A 
ATOM      8  C   UNL     1       4.348  -6.111  10.580  1.00  0.00     0.127 A 
ATOM      9  N   UNL     1       5.251  -5.878   9.618  1.00  0.00    -0.340 N 
ATOM     10  H   UNL     1       5.893  -5.063   9.510  1.00  0.00     0.168 HD
ENDROOT
BRANCH   7  11
ATOM     11  N   UNL     1       4.627  -4.110  11.998  1.00  0.00    -0.382 N 
ATOM     12  H   UNL     1       4.659  -3.335  11.298  1.00  0.00     0.158 HD
ATOM     13  H   UNL     1       5.063  -3.956  12.933  1.00  0.00     0.158 HD
ENDBRANCH   7  11
TORSDOF 1
ENDMDL
