MODEL 1
REMARK VINA RESULT:    -3.786      0.000      0.000
REMARK INTER + INTRA:          -4.180
REMARK INTER:                  -4.118
REMARK INTRA:                  -0.062
REMARK UNBOUND:                -0.062
REMARK SMILES COc1cc2ccc(=O)oc2cc1O
REMARK SMILES IDX 3 1 13 2 12 3 11 4 5 5 4 6 6 7 7 8 8 9 9 10 10 11 2 12 1 13
REMARK SMILES IDX 14 14
REMARK H PARENT 14 15
REMARK Flexibility Score: inf
ROOT
ATOM      1  C   UNL     1       4.073  10.014  11.522  1.00  0.00     0.161 A 
ATOM      2  C   UNL     1       3.230   9.428  12.488  1.00  0.00     0.161 A 
ATOM      3  C   UNL     1       3.625   8.260  13.150  1.00  0.00     0.098 A 
ATOM      4  C   UNL     1       4.855   7.664  12.863  1.00  0.00     0.142 A 
ATOM      5  C   UNL     1       5.705   8.244  11.898  1.00  0.00     0.022 A 
ATOM      6  C   UNL     1       5.315   9.413  11.232  1.00  0.00     0.062 A 
ATOM      7  C   UNL     1       6.931   7.624  11.632  1.00  0.00     0.019 A 
ATOM      8  C   UNL     1       7.274   6.462  12.322  1.00  0.00     0.094 A 
ATOM      9  C   UNL     1       6.380   5.944  13.265  1.00  0.00     0.336 A 
ATOM     10  O   UNL     1       6.672   4.896  13.897  1.00  0.00    -0.246 OA
ATOM     11  O   UNL     1       5.220   6.554  13.498  1.00  0.00    -0.423 OA
ENDROOT
BRANCH   1  12
ATOM     12  O   UNL     1       3.647  11.186  10.875  1.00  0.00    -0.493 OA
ATOM     13  C   UNL     1       3.985  12.505  11.288  1.00  0.00     0.278 C 
ENDBRANCH   1  12
BRANCH   2  14
ATOM     14  O   UNL     1       1.995   9.993  12.802  1.00  0.00    -0.504 OA
ATOM     15  H   UNL     1       1.243   9.454  13.213  1.00  0.00     0.293 HD
ENDBRANCH   2  14
TORSDOF 2
ENDMDL
MODEL 2
REMARK VINA RESULT:    -3.730      1.245      2.307
REMARK INTER + INTRA:          -4.119
REMARK INTER:                  -4.079
REMARK INTRA:                  -0.040
REMARK UNBOUND:                -0.062
REMARK SMILES COc1cc2ccc(=O)oc2cc1O
REMARK SMILES IDX 3 1 13 2 12 3 11 4 5 5 4 6 6 7 7 8 8 9 9 10 10 11 2 12 1 13
REMARK SMILES IDX 14 14
REMARK H PARENT 14 15
REMARK Flexibility Score: inf
ROOT
ATOM      1  C   UNL     1       3.269   9.552  12.132  1.00  0.00     0.161 A 
ATOM      2  C   UNL     1       4.372  10.112  11.456  1.00  0.00     0.161 A 
ATOM      3  C   UNL     1       5.574   9.401  11.360  1.00  0.00     0.098 A 
ATOM      4  C   UNL     1       5.693   8.131  11.929  1.00  0.00     0.142 A 
ATOM      5  C   UNL     1       4.595   7.562  12.607  1.00  0.00     0.022 A 
ATOM      6  C   UNL     1       3.389   8.270  12.707  1.00  0.00     0.062 A 
ATOM      7  C   UNL     1       4.745   6.289  13.168  1.00  0.00     0.019 A 
ATOM      8  C   UNL     1       5.964   5.625  13.042  1.00  0.00     0.094 A 
ATOM      9  C   UNL     1       7.009   6.252  12.355  1.00  0.00     0.336 A 
ATOM     10  O   UNL     1       8.118   5.669  12.231  1.00  0.00    -0.246 OA
ATOM     11  O   UNL     1       6.840   7.464  11.832  1.00  0.00    -0.423 OA
ENDROOT
BRANCH   1  12
ATOM     12  O   UNL     1       2.078  10.291  12.211  1.00  0.00    -0.493 OA
ATOM     13  C   UNL     1       1.785  11.246  13.225  1.00  0.00     0.278 C 
ENDBRANCH   1  12
BRANCH   2  14
ATOM     14  O   UNL     1       4.292  11.376  10.875  1.00  0.00    -0.504 OA
ATOM     15  H   UNL     1       3.589  12.053  11.146  1.00  0.00     0.293 HD
ENDBRANCH   2  14
TORSDOF 2
ENDMDL
MODEL 3
REMARK VINA RESULT:    -3.660      1.333      5.384
REMARK INTER + INTRA:          -4.043
REMARK INTER:                  -4.048
REMARK INTRA:                   0.005
REMARK UNBOUND:                -0.062
REMARK SMILES COc1cc2ccc(=O)oc2cc1O
REMARK SMILES IDX 3 1 13 2 12 3 11 4 5 5 4 6 6 7 7 8 8 9 9 10 10 11 2 12 1 13
REMARK SMILES IDX 14 14
REMARK H PARENT 14 15
REMARK Flexibility Score: inf
ROOT
ATOM      1  C   UNL     1       5.609   6.471  12.609  1.00  0.00     0.161 A 
ATOM      2  C   UNL     1       6.617   7.134  11.880  1.00  0.00     0.161 A 
ATOM      3  C   UNL     1       6.397   8.428  11.392  1.00  0.00     0.098 A 
ATOM      4  C   UNL     1       5.180   9.074  11.622  1.00  0.00     0.142 A 
ATOM      5  C   UNL     1       4.166   8.418  12.351  1.00  0.00     0.022 A 
ATOM      6  C   UNL     1       4.381   7.123  12.841  1.00  0.00     0.062 A 
ATOM      7  C   UNL     1       2.958   9.091  12.564  1.00  0.00     0.019 A 
ATOM      8  C   UNL     1       2.792  10.379  12.056  1.00  0.00     0.094 A 
ATOM      9  C   UNL     1       3.843  10.965  11.342  1.00  0.00     0.336 A 
ATOM     10  O   UNL     1       3.712  12.127  10.875  1.00  0.00    -0.246 OA
ATOM     11  O   UNL     1       4.981  10.303  11.153  1.00  0.00    -0.423 OA
ENDROOT
BRANCH   1  12
ATOM     12  O   UNL     1       5.862   5.174  13.085  1.00  0.00    -0.493 OA
ATOM     13  C   UNL     1       6.620   4.875  14.252  1.00  0.00     0.278 C 
ENDBRANCH   1  12
BRANCH   2  14
ATOM     14  O   UNL     1       7.844   6.523  11.630  1.00  0.00    -0.504 OA
ATOM     15  H   UNL     1       8.334   5.984  12.334  1.00  0.00     0.293 HD
ENDBRANCH   2  14
TORSDOF 2
ENDMDL
MODEL 4
REMARK VINA RESULT:    -3.106      1.815      5.756
REMARK INTER + INTRA:          -3.441
REMARK INTER:                  -3.377
REMARK INTRA:                  -0.063
REMARK UNBOUND:                -0.062
REMARK SMILES COc1cc2ccc(=O)oc2cc1O
REMARK SMILES IDX 3 1 13 2 12 3 11 4 5 5 4 6 6 7 7 8 8 9 9 10 10 11 2 12 1 13
REMARK SMILES IDX 14 14
REMARK H PARENT 14 15
REMARK Flexibility Score: inf
ROOT
ATOM      1  C   UNL     1       4.405   8.168  12.402  1.00  0.00     0.161 A 
ATOM      2  C   UNL     1       5.147   8.822  11.398  1.00  0.00     0.161 A 
ATOM      3  C   UNL     1       4.724  10.062  10.905  1.00  0.00     0.098 A 
ATOM      4  C   UNL     1       3.567  10.664  11.402  1.00  0.00     0.142 A 
ATOM      5  C   UNL     1       2.818  10.017  12.408  1.00  0.00     0.022 A 
ATOM      6  C   UNL     1       3.236   8.776  12.904  1.00  0.00     0.062 A 
ATOM      7  C   UNL     1       1.662  10.645  12.885  1.00  0.00     0.019 A 
ATOM      8  C   UNL     1       1.286  11.880  12.358  1.00  0.00     0.094 A 
ATOM      9  C   UNL     1       2.079  12.461  11.363  1.00  0.00     0.336 A 
ATOM     10  O   UNL     1       1.756  13.576  10.875  1.00  0.00    -0.246 OA
ATOM     11  O   UNL     1       3.173  11.843  10.926  1.00  0.00    -0.423 OA
ENDROOT
BRANCH   1  12
ATOM     12  O   UNL     1       4.857   6.926  12.875  1.00  0.00    -0.493 OA
ATOM     13  C   UNL     1       4.398   5.665  12.400  1.00  0.00     0.278 C 
ENDBRANCH   1  12
BRANCH   2  14
ATOM     14  O   UNL     1       6.309   8.254  10.877  1.00  0.00    -0.504 OA
ATOM     15  H   UNL     1       6.375   7.268  10.654  1.00  0.00     0.293 HD
ENDBRANCH   2  14
TORSDOF 2
ENDMDL
MODEL 5
REMARK VINA RESULT:    -2.782      1.300      5.077
REMARK INTER + INTRA:          -3.088
REMARK INTER:                  -3.117
REMARK INTRA:                   0.029
REMARK UNBOUND:                -0.062
REMARK SMILES COc1cc2ccc(=O)oc2cc1O
REMARK SMILES IDX 3 1 13 2 12 3 11 4 5 5 4 6 6 7 7 8 8 9 9 10 10 11 2 12 1 13
REMARK SMILES IDX 14 14
REMARK H PARENT 14 15
REMARK Flexibility Score: inf
ROOT
ATOM      1  C   UNL     1       5.455   8.195  11.911  1.00  0.00     0.161 A 
ATOM      2  C   UNL     1       4.429   7.726  12.756  1.00  0.00     0.161 A 
ATOM      3  C   UNL     1       3.280   8.498  12.963  1.00  0.00     0.098 A 
ATOM      4  C   UNL     1       3.137   9.738  12.336  1.00  0.00     0.142 A 
ATOM      5  C   UNL     1       4.158  10.215  11.488  1.00  0.00     0.022 A 
ATOM      6  C   UNL     1       5.311   9.447  11.278  1.00  0.00     0.062 A 
ATOM      7  C   UNL     1       3.987  11.461  10.875  1.00  0.00     0.019 A 
ATOM      8  C   UNL     1       2.822  12.189  11.116  1.00  0.00     0.094 A 
ATOM      9  C   UNL     1       1.852  11.651  11.969  1.00  0.00     0.336 A 
ATOM     10  O   UNL     1       0.794  12.293  12.200  1.00  0.00    -0.246 OA
ATOM     11  O   UNL     1       2.041  10.464  12.540  1.00  0.00    -0.423 OA
ENDROOT
BRANCH   1  12
ATOM     12  O   UNL     1       6.594   7.396  11.724  1.00  0.00    -0.493 OA
ATOM     13  C   UNL     1       7.647   7.255  12.672  1.00  0.00     0.278 C 
ENDBRANCH   1  12
BRANCH   2  14
ATOM     14  O   UNL     1       4.534   6.494  13.399  1.00  0.00    -0.504 OA
ATOM     15  H   UNL     1       4.485   5.616  12.898  1.00  0.00     0.293 HD
ENDBRANCH   2  14
TORSDOF 2
ENDMDL
MODEL 6
REMARK VINA RESULT:    -2.746      3.006      7.043
REMARK INTER + INTRA:          -3.048
REMARK INTER:                  -3.005
REMARK INTRA:                  -0.044
REMARK UNBOUND:                -0.062
REMARK SMILES COc1cc2ccc(=O)oc2cc1O
REMARK SMILES IDX 3 1 13 2 12 3 11 4 5 5 4 6 6 7 7 8 8 9 9 10 10 11 2 12 1 13
REMARK SMILES IDX 14 14
REMARK H PARENT 14 15
REMARK Flexibility Score: inf
ROOT
ATOM      1  C   UNL     1       2.924  11.103  11.117  1.00  0.00     0.161 A 
ATOM      2  C   UNL     1       1.574  11.505  11.062  1.00  0.00     0.161 A 
ATOM      3  C   UNL     1       1.246  12.864  11.003  1.00  0.00     0.098 A 
ATOM      4  C   UNL     1       2.250  13.835  10.995  1.00  0.00     0.142 A 
ATOM      5  C   UNL     1       3.604  13.443  11.050  1.00  0.00     0.022 A 
ATOM      6  C   UNL     1       3.938  12.083  11.111  1.00  0.00     0.062 A 
ATOM      7  C   UNL     1       4.587  14.438  11.043  1.00  0.00     0.019 A 
ATOM      8  C   UNL     1       4.205  15.778  10.982  1.00  0.00     0.094 A 
ATOM      9  C   UNL     1       2.842  16.091  10.930  1.00  0.00     0.336 A 
ATOM     10  O   UNL     1       2.477  17.295  10.875  1.00  0.00    -0.246 OA
ATOM     11  O   UNL     1       1.928  15.125  10.939  1.00  0.00    -0.423 OA
ENDROOT
BRANCH   1  12
ATOM     12  O   UNL     1       3.218   9.731  11.177  1.00  0.00    -0.493 OA
ATOM     13  C   UNL     1       4.508   9.192  11.448  1.00  0.00     0.278 C 
ENDBRANCH   1  12
BRANCH   2  14
ATOM     14  O   UNL     1       0.544  10.566  11.067  1.00  0.00    -0.504 OA
ATOM     15  H   UNL     1      -0.026  10.392  11.886  1.00  0.00     0.293 HD
ENDBRANCH   2  14
TORSDOF 2
ENDMDL
MODEL 7
REMARK VINA RESULT:    -1.369      1.193      4.940
REMARK INTER + INTRA:          -1.551
REMARK INTER:                  -1.821
REMARK INTRA:                   0.270
REMARK UNBOUND:                -0.062
REMARK SMILES COc1cc2ccc(=O)oc2cc1O
REMARK SMILES IDX 3 1 13 2 12 3 11 4 5 5 4 6 6 7 7 8 8 9 9 10 10 11 2 12 1 13
REMARK SMILES IDX 14 14
REMARK H PARENT 14 15
REMARK Flexibility Score: inf
ROOT
ATOM      1  C   UNL     1       6.752   6.952  12.354  1.00  0.00     0.161 A 
ATOM      2  C   UNL     1       5.686   6.464  13.135  1.00  0.00     0.161 A 
ATOM      3  C   UNL     1       4.461   7.140  13.156  1.00  0.00     0.098 A 
ATOM      4  C   UNL     1       4.281   8.303  12.403  1.00  0.00     0.142 A 
ATOM      5  C   UNL     1       5.343   8.799  11.617  1.00  0.00     0.022 A 
ATOM      6  C   UNL     1       6.571   8.126  11.594  1.00  0.00     0.062 A 
ATOM      7  C   UNL     1       5.132   9.966  10.875  1.00  0.00     0.019 A 
ATOM      8  C   UNL     1       3.892  10.600  10.932  1.00  0.00     0.094 A 
ATOM      9  C   UNL     1       2.886  10.049  11.733  1.00  0.00     0.336 A 
ATOM     10  O   UNL     1       1.759  10.607  11.797  1.00  0.00    -0.246 OA
ATOM     11  O   UNL     1       3.113   8.938  12.429  1.00  0.00    -0.423 OA
ENDROOT
BRANCH   1  12
ATOM     12  O   UNL     1       7.968   6.250  12.356  1.00  0.00    -0.493 OA
ATOM     13  C   UNL     1       8.109   4.876  12.012  1.00  0.00     0.278 C 
ENDBRANCH   1  12
BRANCH   2  14
ATOM     14  O   UNL     1       5.826   5.307  13.899  1.00  0.00    -0.504 OA
ATOM     15  H   UNL     1       6.568   5.195  14.580  1.00  0.00     0.293 HD
ENDBRANCH   2  14
TORSDOF 2
ENDMDL
