MODEL 1
REMARK VINA RESULT:    -3.701      0.000      0.000
REMARK INTER + INTRA:          -5.496
REMARK INTER:                  -4.999
REMARK INTRA:                  -0.497
REMARK UNBOUND:                -0.497
REMARK SMILES CCCCCCC=CC(=O)[O-]
REMARK SMILES IDX 5 1 6 2 7 3 8 4 9 5 10 6 11 7 4 8 3 9 2 10 1 11
REMARK H PARENT
REMARK Flexibility Score: inf
ROOT
ATOM      1  C   UNL     1      14.861  -5.796  -0.063  1.00  0.00     0.004 C 
ENDROOT
BRANCH   1   2
ATOM      2  C   UNL     1      15.834  -5.251  -1.121  1.00  0.00     0.027 C 
BRANCH   2   3
ATOM      3  C   UNL     1      16.124  -3.785  -0.934  1.00  0.00    -0.025 C 
ATOM      4  C   UNL     1      16.697  -2.971  -1.834  1.00  0.00     0.020 C 
BRANCH   4   5
ATOM      5  C   UNL     1      17.113  -3.328  -3.207  1.00  0.00     0.064 C 
ATOM      6  O   UNL     1      16.424  -2.921  -4.177  1.00  0.00    -0.545 OA
ATOM      7  O   UNL     1      18.221  -4.127  -3.461  1.00  0.00    -0.545 OA
ENDBRANCH   4   5
ENDBRANCH   2   3
ENDBRANCH   1   2
BRANCH   1   8
ATOM      8  C   UNL     1      14.101  -4.670   0.660  1.00  0.00     0.000 C 
BRANCH   8   9
ATOM      9  C   UNL     1      14.356  -4.678   2.182  1.00  0.00    -0.000 C 
BRANCH   9  10
ATOM     10  C   UNL     1      14.055  -3.333   2.864  1.00  0.00    -0.003 C 
ATOM     11  C   UNL     1      14.995  -2.214   2.420  1.00  0.00     0.004 C 
ENDBRANCH   9  10
ENDBRANCH   8   9
ENDBRANCH   1   8
TORSDOF 6
ENDMDL
MODEL 2
REMARK VINA RESULT:    -3.623      1.258      1.747
REMARK INTER + INTRA:          -5.391
REMARK INTER:                  -4.836
REMARK INTRA:                  -0.556
REMARK UNBOUND:                -0.497
REMARK SMILES CCCCCCC=CC(=O)[O-]
REMARK SMILES IDX 5 1 6 2 7 3 8 4 9 5 10 6 11 7 4 8 3 9 2 10 1 11
REMARK H PARENT
REMARK Flexibility Score: inf
ROOT
ATOM      1  C   UNL     1      15.572  -5.327  -0.398  1.00  0.00     0.004 C 
ENDROOT
BRANCH   1   2
ATOM      2  C   UNL     1      16.859  -4.575  -0.773  1.00  0.00     0.027 C 
BRANCH   2   3
ATOM      3  C   UNL     1      17.492  -5.111  -2.030  1.00  0.00    -0.025 C 
ATOM      4  C   UNL     1      17.538  -4.490  -3.219  1.00  0.00     0.020 C 
BRANCH   4   5
ATOM      5  C   UNL     1      17.027  -3.138  -3.527  1.00  0.00     0.064 C 
ATOM      6  O   UNL     1      15.806  -2.995  -3.793  1.00  0.00    -0.545 OA
ATOM      7  O   UNL     1      17.856  -2.023  -3.565  1.00  0.00    -0.545 OA
ENDBRANCH   4   5
ENDBRANCH   2   3
ENDBRANCH   1   2
BRANCH   1   8
ATOM      8  C   UNL     1      14.532  -4.402   0.260  1.00  0.00     0.000 C 
BRANCH   8   9
ATOM      9  C   UNL     1      14.622  -2.955  -0.266  1.00  0.00    -0.000 C 
BRANCH   9  10
ATOM     10  C   UNL     1      14.682  -1.897   0.848  1.00  0.00    -0.003 C 
ATOM     11  C   UNL     1      14.941  -2.497   2.228  1.00  0.00     0.004 C 
ENDBRANCH   9  10
ENDBRANCH   8   9
ENDBRANCH   1   8
TORSDOF 6
ENDMDL
MODEL 3
REMARK VINA RESULT:    -3.605      2.674      5.464
REMARK INTER + INTRA:          -5.366
REMARK INTER:                  -5.036
REMARK INTRA:                  -0.330
REMARK UNBOUND:                -0.497
REMARK SMILES CCCCCCC=CC(=O)[O-]
REMARK SMILES IDX 5 1 6 2 7 3 8 4 9 5 10 6 11 7 4 8 3 9 2 10 1 11
REMARK H PARENT
REMARK Flexibility Score: inf
ROOT
ATOM      1  C   UNL     1      15.020  -3.694  -3.949  1.00  0.00     0.004 C 
ENDROOT
BRANCH   1   2
ATOM      2  C   UNL     1      14.322  -4.098  -2.640  1.00  0.00     0.027 C 
BRANCH   2   3
ATOM      3  C   UNL     1      14.620  -3.146  -1.512  1.00  0.00    -0.025 C 
ATOM      4  C   UNL     1      15.343  -3.422  -0.415  1.00  0.00     0.020 C 
BRANCH   4   5
ATOM      5  C   UNL     1      16.034  -4.693  -0.111  1.00  0.00     0.064 C 
ATOM      6  O   UNL     1      17.244  -4.818  -0.428  1.00  0.00    -0.545 OA
ATOM      7  O   UNL     1      15.383  -5.766   0.485  1.00  0.00    -0.545 OA
ENDBRANCH   4   5
ENDBRANCH   2   3
ENDBRANCH   1   2
BRANCH   1   8
ATOM      8  C   UNL     1      16.481  -3.270  -3.719  1.00  0.00     0.000 C 
BRANCH   8   9
ATOM      9  C   UNL     1      16.918  -2.140  -4.673  1.00  0.00    -0.000 C 
BRANCH   9  10
ATOM     10  C   UNL     1      18.381  -1.706  -4.486  1.00  0.00    -0.003 C 
ATOM     11  C   UNL     1      18.741  -0.455  -5.284  1.00  0.00     0.004 C 
ENDBRANCH   9  10
ENDBRANCH   8   9
ENDBRANCH   1   8
TORSDOF 6
ENDMDL
MODEL 4
REMARK VINA RESULT:    -3.557     11.969     13.700
REMARK INTER + INTRA:          -5.301
REMARK INTER:                  -4.571
REMARK INTRA:                  -0.730
REMARK UNBOUND:                -0.497
REMARK SMILES CCCCCCC=CC(=O)[O-]
REMARK SMILES IDX 5 1 6 2 7 3 8 4 9 5 10 6 11 7 4 8 3 9 2 10 1 11
REMARK H PARENT
REMARK Flexibility Score: inf
ROOT
ATOM      1  C   UNL     1      29.258   0.297   0.274  1.00  0.00     0.004 C 
ENDROOT
BRANCH   1   2
ATOM      2  C   UNL     1      27.988   0.709  -0.487  1.00  0.00     0.027 C 
BRANCH   2   3
ATOM      3  C   UNL     1      27.425  -0.415  -1.317  1.00  0.00    -0.025 C 
ATOM      4  C   UNL     1      26.639  -1.409  -0.873  1.00  0.00     0.020 C 
BRANCH   4   5
ATOM      5  C   UNL     1      26.124  -1.578   0.502  1.00  0.00     0.064 C 
ATOM      6  O   UNL     1      26.803  -2.238   1.329  1.00  0.00    -0.545 OA
ATOM      7  O   UNL     1      24.899  -1.060   0.903  1.00  0.00    -0.545 OA
ENDBRANCH   4   5
ENDBRANCH   2   3
ENDBRANCH   1   2
BRANCH   1   8
ATOM      8  C   UNL     1      30.372  -0.180  -0.675  1.00  0.00     0.000 C 
BRANCH   8   9
ATOM      9  C   UNL     1      31.121  -1.411  -0.123  1.00  0.00    -0.000 C 
BRANCH   9  10
ATOM     10  C   UNL     1      30.265  -2.688  -0.091  1.00  0.00    -0.003 C 
ATOM     11  C   UNL     1      30.081  -3.249   1.318  1.00  0.00     0.004 C 
ENDBRANCH   9  10
ENDBRANCH   8   9
ENDBRANCH   1   8
TORSDOF 6
ENDMDL
MODEL 5
REMARK VINA RESULT:    -3.508      1.744      2.152
REMARK INTER + INTRA:          -5.235
REMARK INTER:                  -4.772
REMARK INTRA:                  -0.463
REMARK UNBOUND:                -0.497
REMARK SMILES CCCCCCC=CC(=O)[O-]
REMARK SMILES IDX 5 1 6 2 7 3 8 4 9 5 10 6 11 7 4 8 3 9 2 10 1 11
REMARK H PARENT
REMARK Flexibility Score: inf
ROOT
ATOM      1  C   UNL     1      14.156  -3.008  -1.134  1.00  0.00     0.004 C 
ENDROOT
BRANCH   1   2
ATOM      2  C   UNL     1      14.517  -3.684  -2.466  1.00  0.00     0.027 C 
BRANCH   2   3
ATOM      3  C   UNL     1      15.772  -3.117  -3.076  1.00  0.00    -0.025 C 
ATOM      4  C   UNL     1      17.012  -3.613  -2.938  1.00  0.00     0.020 C 
BRANCH   4   5
ATOM      5  C   UNL     1      17.396  -4.838  -2.206  1.00  0.00     0.064 C 
ATOM      6  O   UNL     1      17.596  -5.897  -2.855  1.00  0.00    -0.545 OA
ATOM      7  O   UNL     1      17.510  -4.870  -0.823  1.00  0.00    -0.545 OA
ENDBRANCH   4   5
ENDBRANCH   2   3
ENDBRANCH   1   2
BRANCH   1   8
ATOM      8  C   UNL     1      14.221  -3.988   0.050  1.00  0.00     0.000 C 
BRANCH   8   9
ATOM      9  C   UNL     1      15.045  -3.428   1.228  1.00  0.00    -0.000 C 
BRANCH   9  10
ATOM     10  C   UNL     1      14.311  -3.489   2.578  1.00  0.00    -0.003 C 
ATOM     11  C   UNL     1      14.277  -2.145   3.301  1.00  0.00     0.004 C 
ENDBRANCH   9  10
ENDBRANCH   8   9
ENDBRANCH   1   8
TORSDOF 6
ENDMDL
MODEL 6
REMARK VINA RESULT:    -3.505     13.322     14.956
REMARK INTER + INTRA:          -5.231
REMARK INTER:                  -4.509
REMARK INTRA:                  -0.722
REMARK UNBOUND:                -0.497
REMARK SMILES CCCCCCC=CC(=O)[O-]
REMARK SMILES IDX 5 1 6 2 7 3 8 4 9 5 10 6 11 7 4 8 3 9 2 10 1 11
REMARK H PARENT
REMARK Flexibility Score: inf
ROOT
ATOM      1  C   UNL     1      31.422   0.280   0.204  1.00  0.00     0.004 C 
ENDROOT
BRANCH   1   2
ATOM      2  C   UNL     1      29.937  -0.051   0.425  1.00  0.00     0.027 C 
BRANCH   2   3
ATOM      3  C   UNL     1      29.321  -0.744  -0.761  1.00  0.00    -0.025 C 
ATOM      4  C   UNL     1      28.103  -1.308  -0.804  1.00  0.00     0.020 C 
BRANCH   4   5
ATOM      5  C   UNL     1      27.100  -1.321   0.282  1.00  0.00     0.064 C 
ATOM      6  O   UNL     1      27.264  -2.104   1.252  1.00  0.00    -0.545 OA
ATOM      7  O   UNL     1      25.965  -0.521   0.252  1.00  0.00    -0.545 OA
ENDBRANCH   4   5
ENDBRANCH   2   3
ENDBRANCH   1   2
BRANCH   1   8
ATOM      8  C   UNL     1      32.204  -0.918  -0.364  1.00  0.00     0.000 C 
BRANCH   8   9
ATOM      9  C   UNL     1      32.531  -1.967   0.718  1.00  0.00    -0.000 C 
BRANCH   9  10
ATOM     10  C   UNL     1      31.858  -3.329   0.479  1.00  0.00    -0.003 C 
ATOM     11  C   UNL     1      30.649  -3.566   1.382  1.00  0.00     0.004 C 
ENDBRANCH   9  10
ENDBRANCH   8   9
ENDBRANCH   1   8
TORSDOF 6
ENDMDL
MODEL 7
REMARK VINA RESULT:    -3.504      2.564      4.962
REMARK INTER + INTRA:          -5.230
REMARK INTER:                  -4.609
REMARK INTRA:                  -0.620
REMARK UNBOUND:                -0.497
REMARK SMILES CCCCCCC=CC(=O)[O-]
REMARK SMILES IDX 5 1 6 2 7 3 8 4 9 5 10 6 11 7 4 8 3 9 2 10 1 11
REMARK H PARENT
REMARK Flexibility Score: inf
ROOT
ATOM      1  C   UNL     1      14.479  -4.831  -3.720  1.00  0.00     0.004 C 
ENDROOT
BRANCH   1   2
ATOM      2  C   UNL     1      13.943  -4.492  -2.320  1.00  0.00     0.027 C 
BRANCH   2   3
ATOM      3  C   UNL     1      14.041  -5.657  -1.370  1.00  0.00    -0.025 C 
ATOM      4  C   UNL     1      14.873  -5.754  -0.321  1.00  0.00     0.020 C 
BRANCH   4   5
ATOM      5  C   UNL     1      15.824  -4.725   0.147  1.00  0.00     0.064 C 
ATOM      6  O   UNL     1      17.023  -4.789  -0.226  1.00  0.00    -0.545 OA
ATOM      7  O   UNL     1      15.447  -3.706   1.013  1.00  0.00    -0.545 OA
ENDBRANCH   4   5
ENDBRANCH   2   3
ENDBRANCH   1   2
BRANCH   1   8
ATOM      8  C   UNL     1      15.295  -3.674  -4.323  1.00  0.00     0.000 C 
BRANCH   8   9
ATOM      9  C   UNL     1      16.193  -2.985  -3.276  1.00  0.00    -0.000 C 
BRANCH   9  10
ATOM     10  C   UNL     1      17.696  -3.107  -3.577  1.00  0.00    -0.003 C 
ATOM     11  C   UNL     1      18.238  -4.517  -3.352  1.00  0.00     0.004 C 
ENDBRANCH   9  10
ENDBRANCH   8   9
ENDBRANCH   1   8
TORSDOF 6
ENDMDL
MODEL 8
REMARK VINA RESULT:    -3.487      3.061      5.800
REMARK INTER + INTRA:          -5.206
REMARK INTER:                  -4.864
REMARK INTRA:                  -0.343
REMARK UNBOUND:                -0.497
REMARK SMILES CCCCCCC=CC(=O)[O-]
REMARK SMILES IDX 5 1 6 2 7 3 8 4 9 5 10 6 11 7 4 8 3 9 2 10 1 11
REMARK H PARENT
REMARK Flexibility Score: inf
ROOT
ATOM      1  C   UNL     1      17.092  -3.197  -2.288  1.00  0.00     0.004 C 
ENDROOT
BRANCH   1   2
ATOM      2  C   UNL     1      17.445  -4.693  -2.274  1.00  0.00     0.027 C 
BRANCH   2   3
ATOM      3  C   UNL     1      16.298  -5.557  -2.729  1.00  0.00    -0.025 C 
ATOM      4  C   UNL     1      15.228  -5.902  -1.995  1.00  0.00     0.020 C 
BRANCH   4   5
ATOM      5  C   UNL     1      14.927  -5.466  -0.615  1.00  0.00     0.064 C 
ATOM      6  O   UNL     1      15.365  -6.147   0.347  1.00  0.00    -0.545 OA
ATOM      7  O   UNL     1      14.150  -4.347  -0.344  1.00  0.00    -0.545 OA
ENDBRANCH   4   5
ENDBRANCH   2   3
ENDBRANCH   1   2
BRANCH   1   8
ATOM      8  C   UNL     1      17.560  -2.503  -3.580  1.00  0.00     0.000 C 
BRANCH   8   9
ATOM      9  C   UNL     1      16.442  -2.430  -4.640  1.00  0.00    -0.000 C 
BRANCH   9  10
ATOM     10  C   UNL     1      16.704  -1.387  -5.739  1.00  0.00    -0.003 C 
ATOM     11  C   UNL     1      18.190  -1.146  -5.993  1.00  0.00     0.004 C 
ENDBRANCH   9  10
ENDBRANCH   8   9
ENDBRANCH   1   8
TORSDOF 6
ENDMDL
MODEL 9
REMARK VINA RESULT:    -3.465      1.723      2.703
REMARK INTER + INTRA:          -5.177
REMARK INTER:                  -4.551
REMARK INTRA:                  -0.626
REMARK UNBOUND:                -0.497
REMARK SMILES CCCCCCC=CC(=O)[O-]
REMARK SMILES IDX 5 1 6 2 7 3 8 4 9 5 10 6 11 7 4 8 3 9 2 10 1 11
REMARK H PARENT
REMARK Flexibility Score: inf
ROOT
ATOM      1  C   UNL     1      15.663  -2.846  -1.005  1.00  0.00     0.004 C 
ENDROOT
BRANCH   1   2
ATOM      2  C   UNL     1      16.343  -4.222  -0.935  1.00  0.00     0.027 C 
BRANCH   2   3
ATOM      3  C   UNL     1      15.351  -5.355  -0.962  1.00  0.00    -0.025 C 
ATOM      4  C   UNL     1      15.014  -6.086  -2.037  1.00  0.00     0.020 C 
BRANCH   4   5
ATOM      5  C   UNL     1      15.579  -5.965  -3.398  1.00  0.00     0.064 C 
ATOM      6  O   UNL     1      16.329  -6.879  -3.828  1.00  0.00    -0.545 OA
ATOM      7  O   UNL     1      15.338  -4.862  -4.206  1.00  0.00    -0.545 OA
ENDBRANCH   4   5
ENDBRANCH   2   3
ENDBRANCH   1   2
BRANCH   1   8
ATOM      8  C   UNL     1      14.419  -2.768  -0.101  1.00  0.00     0.000 C 
BRANCH   8   9
ATOM      9  C   UNL     1      14.645  -1.861   1.126  1.00  0.00    -0.000 C 
BRANCH   9  10
ATOM     10  C   UNL     1      14.748  -2.633   2.452  1.00  0.00    -0.003 C 
ATOM     11  C   UNL     1      14.268  -4.079   2.341  1.00  0.00     0.004 C 
ENDBRANCH   9  10
ENDBRANCH   8   9
ENDBRANCH   1   8
TORSDOF 6
ENDMDL
