MODEL 1
REMARK VINA RESULT:    -4.056      0.000      0.000
REMARK INTER + INTRA:          -5.140
REMARK INTER:                  -5.004
REMARK INTRA:                  -0.136
REMARK UNBOUND:                -0.136
REMARK SMILES CCCCCC(=O)[O-]
REMARK SMILES IDX 4 1 5 2 6 3 7 4 8 5 3 6 2 7 1 8
REMARK H PARENT
REMARK Flexibility Score: inf
ROOT
ATOM      1  C   UNL     1      -5.062  10.104  -9.935  1.00  0.00     0.006 C 
ENDROOT
BRANCH   1   2
ATOM      2  C   UNL     1      -5.271  11.411  -9.160  1.00  0.00     0.053 C 
BRANCH   2   3
ATOM      3  C   UNL     1      -6.721  11.778  -9.073  1.00  0.00     0.041 C 
ATOM      4  O   UNL     1      -7.088  12.747  -8.356  1.00  0.00    -0.550 OA
ATOM      5  O   UNL     1      -7.662  11.071  -9.810  1.00  0.00    -0.550 OA
ENDBRANCH   2   3
ENDBRANCH   1   2
BRANCH   1   6
ATOM      6  C   UNL     1      -4.548   8.970  -9.036  1.00  0.00     0.000 C 
BRANCH   6   7
ATOM      7  C   UNL     1      -4.182   9.496  -7.643  1.00  0.00    -0.003 C 
ATOM      8  C   UNL     1      -3.187   8.572  -6.949  1.00  0.00     0.004 C 
ENDBRANCH   6   7
ENDBRANCH   1   6
TORSDOF 4
ENDMDL
MODEL 2
REMARK VINA RESULT:    -4.048      1.090      1.894
REMARK INTER + INTRA:          -5.130
REMARK INTER:                  -4.903
REMARK INTRA:                  -0.227
REMARK UNBOUND:                -0.136
REMARK SMILES CCCCCC(=O)[O-]
REMARK SMILES IDX 4 1 5 2 6 3 7 4 8 5 3 6 2 7 1 8
REMARK H PARENT
REMARK Flexibility Score: inf
ROOT
ATOM      1  C   UNL     1      -5.090  10.193 -10.079  1.00  0.00     0.006 C 
ENDROOT
BRANCH   1   2
ATOM      2  C   UNL     1      -5.303  11.556  -9.407  1.00  0.00     0.053 C 
BRANCH   2   3
ATOM      3  C   UNL     1      -6.742  11.785  -9.062  1.00  0.00     0.041 C 
ATOM      4  O   UNL     1      -7.062  12.686  -8.242  1.00  0.00    -0.550 OA
ATOM      5  O   UNL     1      -7.733  11.025  -9.671  1.00  0.00    -0.550 OA
ENDBRANCH   2   3
ENDBRANCH   1   2
BRANCH   1   6
ATOM      6  C   UNL     1      -4.612   9.123  -9.087  1.00  0.00     0.000 C 
BRANCH   6   7
ATOM      7  C   UNL     1      -5.598   7.951  -9.026  1.00  0.00    -0.003 C 
ATOM      8  C   UNL     1      -6.385   7.825 -10.327  1.00  0.00     0.004 C 
ENDBRANCH   6   7
ENDBRANCH   1   6
TORSDOF 4
ENDMDL
MODEL 3
REMARK VINA RESULT:    -3.979      2.658      3.157
REMARK INTER + INTRA:          -5.045
REMARK INTER:                  -4.796
REMARK INTRA:                  -0.249
REMARK UNBOUND:                -0.136
REMARK SMILES CCCCCC(=O)[O-]
REMARK SMILES IDX 4 1 5 2 6 3 7 4 8 5 3 6 2 7 1 8
REMARK H PARENT
REMARK Flexibility Score: inf
ROOT
ATOM      1  C   UNL     1      -8.085   9.826 -10.462  1.00  0.00     0.006 C 
ENDROOT
BRANCH   1   2
ATOM      2  C   UNL     1      -7.852  11.204  -9.829  1.00  0.00     0.053 C 
BRANCH   2   3
ATOM      3  C   UNL     1      -6.563  11.255  -9.068  1.00  0.00     0.041 C 
ATOM      4  O   UNL     1      -5.656  12.060  -9.409  1.00  0.00    -0.550 OA
ATOM      5  O   UNL     1      -6.376  10.435  -7.962  1.00  0.00    -0.550 OA
ENDBRANCH   2   3
ENDBRANCH   1   2
BRANCH   1   6
ATOM      6  C   UNL     1      -6.838   9.302 -11.190  1.00  0.00     0.000 C 
BRANCH   6   7
ATOM      7  C   UNL     1      -6.459   7.903 -10.692  1.00  0.00    -0.003 C 
ATOM      8  C   UNL     1      -7.443   7.409  -9.635  1.00  0.00     0.004 C 
ENDBRANCH   6   7
ENDBRANCH   1   6
TORSDOF 4
ENDMDL
MODEL 4
REMARK VINA RESULT:    -3.924      1.404      2.248
REMARK INTER + INTRA:          -4.977
REMARK INTER:                  -4.837
REMARK INTRA:                  -0.140
REMARK UNBOUND:                -0.136
REMARK SMILES CCCCCC(=O)[O-]
REMARK SMILES IDX 4 1 5 2 6 3 7 4 8 5 3 6 2 7 1 8
REMARK H PARENT
REMARK Flexibility Score: inf
ROOT
ATOM      1  C   UNL     1      -5.313  10.839  -8.801  1.00  0.00     0.006 C 
ENDROOT
BRANCH   1   2
ATOM      2  C   UNL     1      -5.156  10.135 -10.154  1.00  0.00     0.053 C 
BRANCH   2   3
ATOM      3  C   UNL     1      -6.477   9.932 -10.830  1.00  0.00     0.041 C 
ATOM      4  O   UNL     1      -6.533   9.376 -11.960  1.00  0.00    -0.550 OA
ATOM      5  O   UNL     1      -7.649  10.326 -10.198  1.00  0.00    -0.550 OA
ENDBRANCH   2   3
ENDBRANCH   1   2
BRANCH   1   6
ATOM      6  C   UNL     1      -4.870   9.952  -7.628  1.00  0.00     0.000 C 
BRANCH   6   7
ATOM      7  C   UNL     1      -3.989   8.796  -8.117  1.00  0.00    -0.003 C 
ATOM      8  C   UNL     1      -3.242   8.144  -6.957  1.00  0.00     0.004 C 
ENDBRANCH   6   7
ENDBRANCH   1   6
TORSDOF 4
ENDMDL
MODEL 5
REMARK VINA RESULT:    -3.899      2.142      2.585
REMARK INTER + INTRA:          -4.947
REMARK INTER:                  -4.779
REMARK INTRA:                  -0.168
REMARK UNBOUND:                -0.136
REMARK SMILES CCCCCC(=O)[O-]
REMARK SMILES IDX 4 1 5 2 6 3 7 4 8 5 3 6 2 7 1 8
REMARK H PARENT
REMARK Flexibility Score: inf
ROOT
ATOM      1  C   UNL     1      -6.652   9.434 -10.780  1.00  0.00     0.006 C 
ENDROOT
BRANCH   1   2
ATOM      2  C   UNL     1      -5.349  10.118 -10.348  1.00  0.00     0.053 C 
BRANCH   2   3
ATOM      3  C   UNL     1      -5.602  11.228  -9.375  1.00  0.00     0.041 C 
ATOM      4  O   UNL     1      -5.045  12.347  -9.530  1.00  0.00    -0.550 OA
ATOM      5  O   UNL     1      -6.477  11.037  -8.314  1.00  0.00    -0.550 OA
ENDBRANCH   2   3
ENDBRANCH   1   2
BRANCH   1   6
ATOM      6  C   UNL     1      -6.578   7.906 -10.648  1.00  0.00     0.000 C 
BRANCH   6   7
ATOM      7  C   UNL     1      -6.313   7.492  -9.196  1.00  0.00    -0.003 C 
ATOM      8  C   UNL     1      -5.656   6.117  -9.126  1.00  0.00     0.004 C 
ENDBRANCH   6   7
ENDBRANCH   1   6
TORSDOF 4
ENDMDL
MODEL 6
REMARK VINA RESULT:    -3.886      3.015      4.505
REMARK INTER + INTRA:          -4.930
REMARK INTER:                  -4.703
REMARK INTRA:                  -0.228
REMARK UNBOUND:                -0.136
REMARK SMILES CCCCCC(=O)[O-]
REMARK SMILES IDX 4 1 5 2 6 3 7 4 8 5 3 6 2 7 1 8
REMARK H PARENT
REMARK Flexibility Score: inf
ROOT
ATOM      1  C   UNL     1      -4.847   9.746  -8.584  1.00  0.00     0.006 C 
ENDROOT
BRANCH   1   2
ATOM      2  C   UNL     1      -4.005   8.464  -8.598  1.00  0.00     0.053 C 
BRANCH   2   3
ATOM      3  C   UNL     1      -4.841   7.249  -8.339  1.00  0.00     0.041 C 
ATOM      4  O   UNL     1      -5.643   6.831  -9.216  1.00  0.00    -0.550 OA
ATOM      5  O   UNL     1      -4.711   6.557  -7.141  1.00  0.00    -0.550 OA
ENDBRANCH   2   3
ENDBRANCH   1   2
BRANCH   1   6
ATOM      6  C   UNL     1      -5.071  10.309  -9.995  1.00  0.00     0.000 C 
BRANCH   6   7
ATOM      7  C   UNL     1      -6.508  10.053 -10.467  1.00  0.00    -0.003 C 
ATOM      8  C   UNL     1      -6.528   9.205 -11.735  1.00  0.00     0.004 C 
ENDBRANCH   6   7
ENDBRANCH   1   6
TORSDOF 4
ENDMDL
MODEL 7
REMARK VINA RESULT:    -3.872     12.411     13.282
REMARK INTER + INTRA:          -4.913
REMARK INTER:                  -4.770
REMARK INTRA:                  -0.143
REMARK UNBOUND:                -0.136
REMARK SMILES CCCCCC(=O)[O-]
REMARK SMILES IDX 4 1 5 2 6 3 7 4 8 5 3 6 2 7 1 8
REMARK H PARENT
REMARK Flexibility Score: inf
ROOT
ATOM      1  C   UNL     1       3.517   1.988  -9.118  1.00  0.00     0.006 C 
ENDROOT
BRANCH   1   2
ATOM      2  C   UNL     1       4.574   1.201  -8.332  1.00  0.00     0.053 C 
BRANCH   2   3
ATOM      3  C   UNL     1       3.948   0.267  -7.343  1.00  0.00     0.041 C 
ATOM      4  O   UNL     1       4.205   0.378  -6.114  1.00  0.00    -0.550 OA
ATOM      5  O   UNL     1       3.055  -0.706  -7.773  1.00  0.00    -0.550 OA
ENDBRANCH   2   3
ENDBRANCH   1   2
BRANCH   1   6
ATOM      6  C   UNL     1       3.474   3.468  -8.712  1.00  0.00     0.000 C 
BRANCH   6   7
ATOM      7  C   UNL     1       4.722   3.855  -7.911  1.00  0.00    -0.003 C 
ATOM      8  C   UNL     1       4.513   5.169  -7.165  1.00  0.00     0.004 C 
ENDBRANCH   6   7
ENDBRANCH   1   6
TORSDOF 4
ENDMDL
MODEL 8
REMARK VINA RESULT:    -3.854     11.987     12.567
REMARK INTER + INTRA:          -4.892
REMARK INTER:                  -4.742
REMARK INTRA:                  -0.149
REMARK UNBOUND:                -0.136
REMARK SMILES CCCCCC(=O)[O-]
REMARK SMILES IDX 4 1 5 2 6 3 7 4 8 5 3 6 2 7 1 8
REMARK H PARENT
REMARK Flexibility Score: inf
ROOT
ATOM      1  C   UNL     1       5.402  10.291 -15.485  1.00  0.00     0.006 C 
ENDROOT
BRANCH   1   2
ATOM      2  C   UNL     1       3.950  10.697 -15.767  1.00  0.00     0.053 C 
BRANCH   2   3
ATOM      3  C   UNL     1       3.147  10.796 -14.507  1.00  0.00     0.041 C 
ATOM      4  O   UNL     1       1.935  10.451 -14.498  1.00  0.00    -0.550 OA
ATOM      5  O   UNL     1       3.745  11.238 -13.334  1.00  0.00    -0.550 OA
ENDBRANCH   2   3
ENDBRANCH   1   2
BRANCH   1   6
ATOM      6  C   UNL     1       6.400  11.389 -15.877  1.00  0.00     0.000 C 
BRANCH   6   7
ATOM      7  C   UNL     1       5.771  12.374 -16.870  1.00  0.00    -0.003 C 
ATOM      8  C   UNL     1       6.833  13.254 -17.521  1.00  0.00     0.004 C 
ENDBRANCH   6   7
ENDBRANCH   1   6
TORSDOF 4
ENDMDL
MODEL 9
REMARK VINA RESULT:    -3.851      2.856      3.973
REMARK INTER + INTRA:          -4.888
REMARK INTER:                  -4.714
REMARK INTRA:                  -0.173
REMARK UNBOUND:                -0.136
REMARK SMILES CCCCCC(=O)[O-]
REMARK SMILES IDX 4 1 5 2 6 3 7 4 8 5 3 6 2 7 1 8
REMARK H PARENT
REMARK Flexibility Score: inf
ROOT
ATOM      1  C   UNL     1      -6.596   8.574 -11.026  1.00  0.00     0.006 C 
ENDROOT
BRANCH   1   2
ATOM      2  C   UNL     1      -6.343   7.608  -9.862  1.00  0.00     0.053 C 
BRANCH   2   3
ATOM      3  C   UNL     1      -7.508   7.553  -8.923  1.00  0.00     0.041 C 
ATOM      4  O   UNL     1      -8.559   6.942  -9.251  1.00  0.00    -0.550 OA
ATOM      5  O   UNL     1      -7.421   8.150  -7.671  1.00  0.00    -0.550 OA
ENDBRANCH   2   3
ENDBRANCH   1   2
BRANCH   1   6
ATOM      6  C   UNL     1      -6.571  10.043 -10.579  1.00  0.00     0.000 C 
BRANCH   6   7
ATOM      7  C   UNL     1      -5.203  10.416  -9.995  1.00  0.00    -0.003 C 
ATOM      8  C   UNL     1      -5.212  11.835  -9.433  1.00  0.00     0.004 C 
ENDBRANCH   6   7
ENDBRANCH   1   6
TORSDOF 4
ENDMDL
