MODEL 1
REMARK VINA RESULT:    -5.429      0.000      0.000
REMARK INTER + INTRA:          -8.154
REMARK INTER:                  -8.286
REMARK INTRA:                   0.133
REMARK UNBOUND:                 0.133
REMARK SMILES CC1=CCC[C@@H](C)C(=O)C[C@@H](C(C)C)C(=O)C1
REMARK SMILES IDX 8 1 9 2 6 3 7 4 5 5 4 6 3 7 2 8 1 9 10 11 11 12 15 13 16 14
REMARK SMILES IDX 17 15 12 17 13 18 14 19
REMARK H PARENT
REMARK Flexibility Score: 70.00
ROOT
ATOM      1  C   UNL     1      -5.137 -14.049  30.447  1.00  0.00     0.136 C 
ATOM      2  O   UNL     1      -6.092 -14.782  30.228  1.00  0.00    -0.299 OA
ENDROOT
BRANCH   1   3
ATOM      3  C   UNL     1      -4.639 -13.954  31.880  1.00  0.00     0.053 C 
ATOM      4  C   UNL     1      -5.375 -14.978  32.752  1.00  0.00     0.016 C 
BRANCH   3   5
ATOM      5  C   UNL     1      -4.850 -12.527  32.438  1.00  0.00     0.015 C 
BRANCH   5   6
ATOM      6  C   UNL     1      -3.838 -11.491  31.911  1.00  0.00     0.028 C 
BRANCH   6   7
ATOM      7  C   UNL     1      -2.410 -11.964  32.033  1.00  0.00    -0.028 C 
ATOM      8  C   UNL     1      -1.527 -12.116  31.019  1.00  0.00    -0.070 CG0
ATOM      9  C   UNL     1      -0.128 -12.562  31.365  1.00  0.00     0.039 C 
ATOM     10  G   UNL     1      -1.886 -11.939  29.553  1.00  0.00     0.000 G0
ENDBRANCH   6   7
ENDBRANCH   5   6
ENDBRANCH   3   5
ENDBRANCH   1   3
BRANCH   1  11
ATOM     11  C   UNL     1      -4.571 -13.294  29.255  1.00  0.00     0.087 C 
BRANCH  11  12
ATOM     12  C   UNL     1      -3.369 -13.895  28.470  1.00  0.00     0.066 C 
BRANCH  12  13
ATOM     13  C   UNL     1      -2.026 -13.290  28.853  1.00  0.00     0.140 C 
ATOM     14  O   UNL     1      -1.011 -13.870  28.493  1.00  0.00    -0.299 OA
BRANCH  13  15
ATOM     15  C   UNL     1      -1.886 -11.955  29.545  1.00  0.00     0.106 CG0
ATOM     16  G   UNL     1      -1.533 -12.148  31.011  1.00  0.00     0.000 G0
ENDBRANCH  13  15
ENDBRANCH  12  13
BRANCH  12  17
ATOM     17  C   UNL     1      -3.569 -13.773  26.920  1.00  0.00    -0.006 C 
ATOM     18  C   UNL     1      -3.491 -12.316  26.423  1.00  0.00     0.008 C 
ATOM     19  C   UNL     1      -4.916 -14.373  26.469  1.00  0.00     0.008 C 
ENDBRANCH  12  17
ENDBRANCH  11  12
ENDBRANCH   1  11
TORSDOF 1
ENDMDL
MODEL 2
REMARK VINA RESULT:    -5.310      1.586      3.962
REMARK INTER + INTRA:          -7.972
REMARK INTER:                  -8.299
REMARK INTRA:                   0.327
REMARK UNBOUND:                 0.133
REMARK SMILES CC1=CCC[C@@H](C)C(=O)C[C@@H](C(C)C)C(=O)C1
REMARK SMILES IDX 8 1 9 2 6 3 7 4 5 5 4 6 3 7 2 8 1 9 10 11 11 12 15 13 16 14
REMARK SMILES IDX 17 15 12 17 13 18 14 19
REMARK H PARENT
REMARK Flexibility Score: 70.00
ROOT
ATOM      1  C   UNL     1      -5.629 -14.415  30.301  1.00  0.00     0.136 C 
ATOM      2  O   UNL     1      -6.301 -15.123  31.040  1.00  0.00    -0.299 OA
ENDROOT
BRANCH   1   3
ATOM      3  C   UNL     1      -6.183 -14.122  28.915  1.00  0.00     0.053 C 
ATOM      4  C   UNL     1      -7.544 -14.809  28.748  1.00  0.00     0.016 C 
BRANCH   3   5
ATOM      5  C   UNL     1      -5.202 -14.605  27.822  1.00  0.00     0.015 C 
BRANCH   5   6
ATOM      6  C   UNL     1      -4.182 -13.538  27.379  1.00  0.00     0.028 C 
BRANCH   6   7
ATOM      7  C   UNL     1      -2.763 -13.913  27.731  1.00  0.00    -0.028 C 
ATOM      8  C   UNL     1      -1.926 -13.215  28.533  1.00  0.00    -0.070 CG0
ATOM      9  C   UNL     1      -0.555 -13.790  28.790  1.00  0.00     0.039 C 
ATOM     10  G   UNL     1      -2.259 -11.854  29.121  1.00  0.00     0.000 G0
ENDBRANCH   6   7
ENDBRANCH   5   6
ENDBRANCH   3   5
ENDBRANCH   1   3
BRANCH   1  11
ATOM     11  C   UNL     1      -4.298 -13.929  30.849  1.00  0.00     0.087 C 
BRANCH  11  12
ATOM     12  C   UNL     1      -4.052 -12.400  31.017  1.00  0.00     0.066 C 
BRANCH  12  13
ATOM     13  C   UNL     1      -2.666 -11.953  30.573  1.00  0.00     0.140 C 
ATOM     14  O   UNL     1      -1.818 -11.770  31.435  1.00  0.00    -0.299 OA
BRANCH  13  15
ATOM     15  C   UNL     1      -2.256 -11.844  29.124  1.00  0.00     0.106 CG0
ATOM     16  G   UNL     1      -1.943 -13.217  28.553  1.00  0.00     0.000 G0
ENDBRANCH  13  15
ENDBRANCH  12  13
BRANCH  12  17
ATOM     17  C   UNL     1      -4.300 -11.931  32.492  1.00  0.00    -0.006 C 
ATOM     18  C   UNL     1      -5.250 -12.870  33.263  1.00  0.00     0.008 C 
ATOM     19  C   UNL     1      -4.875 -10.501  32.547  1.00  0.00     0.008 C 
ENDBRANCH  12  17
ENDBRANCH  11  12
ENDBRANCH   1  11
TORSDOF 1
ENDMDL
MODEL 3
REMARK VINA RESULT:    -5.300      1.853      2.939
REMARK INTER + INTRA:          -7.956
REMARK INTER:                  -7.829
REMARK INTRA:                  -0.126
REMARK UNBOUND:                 0.133
REMARK SMILES CC1=CCC[C@@H](C)C(=O)C[C@@H](C(C)C)C(=O)C1
REMARK SMILES IDX 8 1 9 2 6 3 7 4 5 5 4 6 3 7 2 8 1 9 10 11 11 12 15 13 16 14
REMARK SMILES IDX 17 15 12 17 13 18 14 19
REMARK H PARENT
REMARK Flexibility Score: 70.00
ROOT
ATOM      1  C   UNL     1      -4.937 -10.981  30.596  1.00  0.00     0.136 C 
ATOM      2  O   UNL     1      -5.525  -9.908  30.547  1.00  0.00    -0.299 OA
ENDROOT
BRANCH   1   3
ATOM      3  C   UNL     1      -4.114 -11.274  31.841  1.00  0.00     0.053 C 
ATOM      4  C   UNL     1      -4.876 -10.804  33.086  1.00  0.00     0.016 C 
BRANCH   3   5
ATOM      5  C   UNL     1      -2.737 -10.576  31.761  1.00  0.00     0.015 C 
BRANCH   5   6
ATOM      6  C   UNL     1      -2.085 -10.633  30.366  1.00  0.00     0.028 C 
BRANCH   6   7
ATOM      7  C   UNL     1      -1.217 -11.854  30.183  1.00  0.00    -0.028 C 
ATOM      8  C   UNL     1      -1.257 -12.715  29.140  1.00  0.00    -0.070 CG0
ATOM      9  C   UNL     1      -0.269 -13.854  29.129  1.00  0.00     0.039 C 
ATOM     10  G   UNL     1      -2.288 -12.645  28.026  1.00  0.00     0.000 G0
ENDBRANCH   6   7
ENDBRANCH   5   6
ENDBRANCH   3   5
ENDBRANCH   1   3
BRANCH   1  11
ATOM     11  C   UNL     1      -5.079 -11.890  29.387  1.00  0.00     0.087 C 
BRANCH  11  12
ATOM     12  C   UNL     1      -4.451 -13.315  29.424  1.00  0.00     0.066 C 
BRANCH  12  13
ATOM     13  C   UNL     1      -3.452 -13.570  28.305  1.00  0.00     0.140 C 
ATOM     14  O   UNL     1      -3.667 -14.506  27.546  1.00  0.00    -0.299 OA
BRANCH  13  15
ATOM     15  C   UNL     1      -2.284 -12.659  28.012  1.00  0.00     0.106 CG0
ATOM     16  G   UNL     1      -1.272 -12.708  29.145  1.00  0.00     0.000 G0
ENDBRANCH  13  15
ENDBRANCH  12  13
BRANCH  12  17
ATOM     17  C   UNL     1      -5.550 -14.433  29.404  1.00  0.00    -0.006 C 
ATOM     18  C   UNL     1      -6.795 -14.030  28.590  1.00  0.00     0.008 C 
ATOM     19  C   UNL     1      -6.000 -14.817  30.828  1.00  0.00     0.008 C 
ENDBRANCH  12  17
ENDBRANCH  11  12
ENDBRANCH   1  11
TORSDOF 1
ENDMDL
MODEL 4
REMARK VINA RESULT:    -5.147      1.894      4.349
REMARK INTER + INTRA:          -7.723
REMARK INTER:                  -8.181
REMARK INTRA:                   0.458
REMARK UNBOUND:                 0.133
REMARK SMILES CC1=CCC[C@@H](C)C(=O)C[C@@H](C(C)C)C(=O)C1
REMARK SMILES IDX 8 1 9 2 6 3 7 4 5 5 4 6 3 7 2 8 1 9 10 11 11 12 15 13 16 14
REMARK SMILES IDX 17 15 12 17 13 18 14 19
REMARK H PARENT
REMARK Flexibility Score: 70.00
ROOT
ATOM      1  C   UNL     1      -5.704 -14.183  30.024  1.00  0.00     0.136 C 
ATOM      2  O   UNL     1      -6.084 -14.900  30.941  1.00  0.00    -0.299 OA
ENDROOT
BRANCH   1   3
ATOM      3  C   UNL     1      -6.518 -14.195  28.739  1.00  0.00     0.053 C 
ATOM      4  C   UNL     1      -7.809 -14.994  28.954  1.00  0.00     0.016 C 
BRANCH   3   5
ATOM      5  C   UNL     1      -5.698 -14.805  27.579  1.00  0.00     0.015 C 
BRANCH   5   6
ATOM      6  C   UNL     1      -4.216 -14.381  27.568  1.00  0.00     0.028 C 
BRANCH   6   7
ATOM      7  C   UNL     1      -3.963 -13.188  26.679  1.00  0.00    -0.028 C 
ATOM      8  C   UNL     1      -3.259 -12.080  27.007  1.00  0.00    -0.070 CG0
ATOM      9  C   UNL     1      -3.088 -11.017  25.951  1.00  0.00     0.039 C 
ATOM     10  G   UNL     1      -2.701 -11.814  28.395  1.00  0.00     0.000 G0
ENDBRANCH   6   7
ENDBRANCH   5   6
ENDBRANCH   3   5
ENDBRANCH   1   3
BRANCH   1  11
ATOM     11  C   UNL     1      -4.438 -13.379  30.270  1.00  0.00     0.087 C 
BRANCH  11  12
ATOM     12  C   UNL     1      -4.524 -11.827  30.356  1.00  0.00     0.066 C 
BRANCH  12  13
ATOM     13  C   UNL     1      -3.723 -11.110  29.277  1.00  0.00     0.140 C 
ATOM     14  O   UNL     1      -3.852  -9.898  29.177  1.00  0.00    -0.299 OA
BRANCH  13  15
ATOM     15  C   UNL     1      -2.695 -11.800  28.413  1.00  0.00     0.106 CG0
ATOM     16  G   UNL     1      -3.260 -12.081  27.031  1.00  0.00     0.000 G0
ENDBRANCH  13  15
ENDBRANCH  12  13
BRANCH  12  17
ATOM     17  C   UNL     1      -4.083 -11.299  31.765  1.00  0.00    -0.006 C 
ATOM     18  C   UNL     1      -2.597 -11.576  32.066  1.00  0.00     0.008 C 
ATOM     19  C   UNL     1      -4.934 -11.912  32.896  1.00  0.00     0.008 C 
ENDBRANCH  12  17
ENDBRANCH  11  12
ENDBRANCH   1  11
TORSDOF 1
ENDMDL
MODEL 5
REMARK VINA RESULT:    -5.054      1.794      3.813
REMARK INTER + INTRA:          -7.581
REMARK INTER:                  -8.016
REMARK INTRA:                   0.435
REMARK UNBOUND:                 0.133
REMARK SMILES CC1=CCC[C@@H](C)C(=O)C[C@@H](C(C)C)C(=O)C1
REMARK SMILES IDX 8 1 9 2 6 3 7 4 5 5 4 6 3 7 2 8 1 9 10 11 11 12 15 13 16 14
REMARK SMILES IDX 17 15 12 17 13 18 14 19
REMARK H PARENT
REMARK Flexibility Score: 70.00
ROOT
ATOM      1  C   UNL     1      -2.161 -13.112  28.424  1.00  0.00     0.136 C 
ATOM      2  O   UNL     1      -2.263 -12.517  27.359  1.00  0.00    -0.299 OA
ENDROOT
BRANCH   1   3
ATOM      3  C   UNL     1      -0.769 -13.246  29.023  1.00  0.00     0.053 C 
ATOM      4  C   UNL     1      -0.050 -14.444  28.391  1.00  0.00     0.016 C 
BRANCH   3   5
ATOM      5  C   UNL     1      -0.850 -13.419  30.557  1.00  0.00     0.015 C 
BRANCH   5   6
ATOM      6  C   UNL     1      -0.863 -12.091  31.338  1.00  0.00     0.028 C 
BRANCH   6   7
ATOM      7  C   UNL     1      -2.155 -11.873  32.087  1.00  0.00    -0.028 C 
ATOM      8  C   UNL     1      -3.314 -11.409  31.566  1.00  0.00    -0.070 CG0
ATOM      9  C   UNL     1      -4.506 -11.305  32.484  1.00  0.00     0.039 C 
ATOM     10  G   UNL     1      -3.459 -10.915  30.137  1.00  0.00     0.000 G0
ENDBRANCH   6   7
ENDBRANCH   5   6
ENDBRANCH   3   5
ENDBRANCH   1   3
BRANCH   1  11
ATOM     11  C   UNL     1      -3.443 -13.675  29.015  1.00  0.00     0.087 C 
BRANCH  11  12
ATOM     12  C   UNL     1      -4.768 -12.869  28.875  1.00  0.00     0.066 C 
BRANCH  12  13
ATOM     13  C   UNL     1      -4.696 -11.469  29.470  1.00  0.00     0.140 C 
ATOM     14  O   UNL     1      -5.723 -10.804  29.498  1.00  0.00    -0.299 OA
BRANCH  13  15
ATOM     15  C   UNL     1      -3.459 -10.914  30.135  1.00  0.00     0.106 CG0
ATOM     16  G   UNL     1      -3.336 -11.437  31.556  1.00  0.00     0.000 G0
ENDBRANCH  13  15
ENDBRANCH  12  13
BRANCH  12  17
ATOM     17  C   UNL     1      -5.983 -13.637  29.499  1.00  0.00    -0.006 C 
ATOM     18  C   UNL     1      -5.597 -14.436  30.760  1.00  0.00     0.008 C 
ATOM     19  C   UNL     1      -6.629 -14.604  28.487  1.00  0.00     0.008 C 
ENDBRANCH  12  17
ENDBRANCH  11  12
ENDBRANCH   1  11
TORSDOF 1
ENDMDL
MODEL 6
REMARK VINA RESULT:    -5.043      2.065      3.670
REMARK INTER + INTRA:          -7.564
REMARK INTER:                  -7.809
REMARK INTRA:                   0.245
REMARK UNBOUND:                 0.133
REMARK SMILES CC1=CCC[C@@H](C)C(=O)C[C@@H](C(C)C)C(=O)C1
REMARK SMILES IDX 8 1 9 2 6 3 7 4 5 5 4 6 3 7 2 8 1 9 10 11 11 12 15 13 16 14
REMARK SMILES IDX 17 15 12 17 13 18 14 19
REMARK H PARENT
REMARK Flexibility Score: 70.00
ROOT
ATOM      1  C   UNL     1      -3.502 -13.731  31.815  1.00  0.00     0.136 C 
ATOM      2  O   UNL     1      -3.655 -14.726  32.510  1.00  0.00    -0.299 OA
ENDROOT
BRANCH   1   3
ATOM      3  C   UNL     1      -2.100 -13.149  31.720  1.00  0.00     0.053 C 
ATOM      4  C   UNL     1      -2.175 -11.618  31.749  1.00  0.00     0.016 C 
BRANCH   3   5
ATOM      5  C   UNL     1      -1.398 -13.625  30.428  1.00  0.00     0.015 C 
BRANCH   5   6
ATOM      6  C   UNL     1      -1.068 -12.491  29.439  1.00  0.00     0.028 C 
BRANCH   6   7
ATOM      7  C   UNL     1      -1.753 -12.668  28.106  1.00  0.00    -0.028 C 
ATOM      8  C   UNL     1      -2.799 -11.947  27.641  1.00  0.00    -0.070 CG0
ATOM      9  C   UNL     1      -3.309 -12.260  26.257  1.00  0.00     0.039 C 
ATOM     10  G   UNL     1      -3.535 -10.902  28.462  1.00  0.00     0.000 G0
ENDBRANCH   6   7
ENDBRANCH   5   6
ENDBRANCH   3   5
ENDBRANCH   1   3
BRANCH   1  11
ATOM     11  C   UNL     1      -4.745 -13.173  31.142  1.00  0.00     0.087 C 
BRANCH  11  12
ATOM     12  C   UNL     1      -4.765 -13.002  29.594  1.00  0.00     0.066 C 
BRANCH  12  13
ATOM     13  C   UNL     1      -4.742 -11.548  29.141  1.00  0.00     0.140 C 
ATOM     14  O   UNL     1      -5.693 -10.839  29.438  1.00  0.00    -0.299 OA
BRANCH  13  15
ATOM     15  C   UNL     1      -3.556 -10.913  28.456  1.00  0.00     0.106 CG0
ATOM     16  G   UNL     1      -2.797 -11.944  27.636  1.00  0.00     0.000 G0
ENDBRANCH  13  15
ENDBRANCH  12  13
BRANCH  12  17
ATOM     17  C   UNL     1      -5.995 -13.727  28.946  1.00  0.00    -0.006 C 
ATOM     18  C   UNL     1      -6.611 -14.795  29.872  1.00  0.00     0.008 C 
ATOM     19  C   UNL     1      -5.623 -14.395  27.607  1.00  0.00     0.008 C 
ENDBRANCH  12  17
ENDBRANCH  11  12
ENDBRANCH   1  11
TORSDOF 1
ENDMDL
MODEL 7
REMARK VINA RESULT:    -4.854      1.970      3.838
REMARK INTER + INTRA:          -7.276
REMARK INTER:                  -7.581
REMARK INTRA:                   0.305
REMARK UNBOUND:                 0.133
REMARK SMILES CC1=CCC[C@@H](C)C(=O)C[C@@H](C(C)C)C(=O)C1
REMARK SMILES IDX 8 1 9 2 6 3 7 4 5 5 4 6 3 7 2 8 1 9 10 11 11 12 15 13 16 14
REMARK SMILES IDX 17 15 12 17 13 18 14 19
REMARK H PARENT
REMARK Flexibility Score: 70.00
ROOT
ATOM      1  C   UNL     1      -4.434 -13.182  31.868  1.00  0.00     0.136 C 
ATOM      2  O   UNL     1      -4.455 -12.382  32.794  1.00  0.00    -0.299 OA
ENDROOT
BRANCH   1   3
ATOM      3  C   UNL     1      -5.666 -14.050  31.661  1.00  0.00     0.053 C 
ATOM      4  C   UNL     1      -5.759 -15.088  32.786  1.00  0.00     0.016 C 
BRANCH   3   5
ATOM      5  C   UNL     1      -5.613 -14.755  30.287  1.00  0.00     0.015 C 
BRANCH   5   6
ATOM      6  C   UNL     1      -6.196 -13.920  29.131  1.00  0.00     0.028 C 
BRANCH   6   7
ATOM      7  C   UNL     1      -5.164 -13.580  28.083  1.00  0.00    -0.028 C 
ATOM      8  C   UNL     1      -4.351 -12.499  28.082  1.00  0.00    -0.070 CG0
ATOM      9  C   UNL     1      -3.355 -12.369  26.956  1.00  0.00     0.039 C 
ATOM     10  G   UNL     1      -4.439 -11.374  29.100  1.00  0.00     0.000 G0
ENDBRANCH   6   7
ENDBRANCH   5   6
ENDBRANCH   3   5
ENDBRANCH   1   3
BRANCH   1  11
ATOM     11  C   UNL     1      -3.161 -13.232  31.040  1.00  0.00     0.087 C 
BRANCH  11  12
ATOM     12  C   UNL     1      -2.398 -11.910  30.729  1.00  0.00     0.066 C 
BRANCH  12  13
ATOM     13  C   UNL     1      -3.092 -11.034  29.696  1.00  0.00     0.140 C 
ATOM     14  O   UNL     1      -2.475 -10.078  29.246  1.00  0.00    -0.299 OA
BRANCH  13  15
ATOM     15  C   UNL     1      -4.447 -11.356  29.112  1.00  0.00     0.106 CG0
ATOM     16  G   UNL     1      -4.337 -12.481  28.096  1.00  0.00     0.000 G0
ENDBRANCH  13  15
ENDBRANCH  12  13
BRANCH  12  17
ATOM     17  C   UNL     1      -0.925 -12.185  30.271  1.00  0.00    -0.006 C 
ATOM     18  C   UNL     1      -0.829 -13.300  29.211  1.00  0.00     0.008 C 
ATOM     19  C   UNL     1      -0.018 -12.562  31.460  1.00  0.00     0.008 C 
ENDBRANCH  12  17
ENDBRANCH  11  12
ENDBRANCH   1  11
TORSDOF 1
ENDMDL
MODEL 8
REMARK VINA RESULT:    -4.780      2.096      3.938
REMARK INTER + INTRA:          -7.162
REMARK INTER:                  -7.242
REMARK INTRA:                   0.080
REMARK UNBOUND:                 0.133
REMARK SMILES CC1=CCC[C@@H](C)C(=O)C[C@@H](C(C)C)C(=O)C1
REMARK SMILES IDX 8 1 9 2 6 3 7 4 5 5 4 6 3 7 2 8 1 9 10 11 11 12 15 13 16 14
REMARK SMILES IDX 17 15 12 17 13 18 14 19
REMARK H PARENT
REMARK Flexibility Score: 70.00
ROOT
ATOM      1  C   UNL     1      -3.891 -10.653  30.298  1.00  0.00     0.136 C 
ATOM      2  O   UNL     1      -4.586  -9.900  29.628  1.00  0.00    -0.299 OA
ENDROOT
BRANCH   1   3
ATOM      3  C   UNL     1      -4.542 -11.337  31.489  1.00  0.00     0.053 C 
ATOM      4  C   UNL     1      -4.821 -10.305  32.588  1.00  0.00     0.016 C 
BRANCH   3   5
ATOM      5  C   UNL     1      -3.636 -12.465  32.034  1.00  0.00     0.015 C 
BRANCH   5   6
ATOM      6  C   UNL     1      -4.076 -13.881  31.615  1.00  0.00     0.028 C 
BRANCH   6   7
ATOM      7  C   UNL     1      -5.187 -13.863  30.593  1.00  0.00    -0.028 C 
ATOM      8  C   UNL     1      -5.044 -13.986  29.253  1.00  0.00    -0.070 CG0
ATOM      9  C   UNL     1      -6.293 -13.984  28.409  1.00  0.00     0.039 C 
ATOM     10  G   UNL     1      -3.698 -14.044  28.549  1.00  0.00     0.000 G0
ENDBRANCH   6   7
ENDBRANCH   5   6
ENDBRANCH   3   5
ENDBRANCH   1   3
BRANCH   1  11
ATOM     11  C   UNL     1      -2.439 -10.797  29.872  1.00  0.00     0.087 C 
BRANCH  11  12
ATOM     12  C   UNL     1      -2.026 -11.985  28.954  1.00  0.00     0.066 C 
BRANCH  12  13
ATOM     13  C   UNL     1      -3.198 -12.632  28.229  1.00  0.00     0.140 C 
ATOM     14  O   UNL     1      -3.693 -12.030  27.286  1.00  0.00    -0.299 OA
BRANCH  13  15
ATOM     15  C   UNL     1      -3.696 -14.024  28.535  1.00  0.00     0.106 CG0
ATOM     16  G   UNL     1      -5.032 -13.967  29.256  1.00  0.00     0.000 G0
ENDBRANCH  13  15
ENDBRANCH  12  13
BRANCH  12  17
ATOM     17  C   UNL     1      -1.236 -13.083  29.747  1.00  0.00    -0.006 C 
ATOM     18  C   UNL     1      -0.368 -12.493  30.876  1.00  0.00     0.008 C 
ATOM     19  C   UNL     1      -0.330 -13.917  28.818  1.00  0.00     0.008 C 
ENDBRANCH  12  17
ENDBRANCH  11  12
ENDBRANCH   1  11
TORSDOF 1
ENDMDL
MODEL 9
REMARK VINA RESULT:    -4.714      1.698      3.645
REMARK INTER + INTRA:          -7.062
REMARK INTER:                  -7.160
REMARK INTRA:                   0.098
REMARK UNBOUND:                 0.133
REMARK SMILES CC1=CCC[C@@H](C)C(=O)C[C@@H](C(C)C)C(=O)C1
REMARK SMILES IDX 8 1 9 2 6 3 7 4 5 5 4 6 3 7 2 8 1 9 10 11 11 12 15 13 16 14
REMARK SMILES IDX 17 15 12 17 13 18 14 19
REMARK H PARENT
REMARK Flexibility Score: 70.00
ROOT
ATOM      1  C   UNL     1      -0.971 -13.476  29.198  1.00  0.00     0.136 C 
ATOM      2  O   UNL     1      -0.003 -13.776  28.511  1.00  0.00    -0.299 OA
ENDROOT
BRANCH   1   3
ATOM      3  C   UNL     1      -0.700 -12.831  30.548  1.00  0.00     0.053 C 
ATOM      4  C   UNL     1      -1.504 -13.554  31.636  1.00  0.00     0.016 C 
BRANCH   3   5
ATOM      5  C   UNL     1      -1.070 -11.330  30.519  1.00  0.00     0.015 C 
BRANCH   5   6
ATOM      6  C   UNL     1      -2.022 -10.897  31.651  1.00  0.00     0.028 C 
BRANCH   6   7
ATOM      7  C   UNL     1      -3.269 -10.224  31.132  1.00  0.00    -0.028 C 
ATOM      8  C   UNL     1      -4.442 -10.830  30.838  1.00  0.00    -0.070 CG0
ATOM      9  C   UNL     1      -5.584  -9.963  30.370  1.00  0.00     0.039 C 
ATOM     10  G   UNL     1      -4.648 -12.335  30.876  1.00  0.00     0.000 G0
ENDBRANCH   6   7
ENDBRANCH   5   6
ENDBRANCH   3   5
ENDBRANCH   1   3
BRANCH   1  11
ATOM     11  C   UNL     1      -2.340 -13.810  28.629  1.00  0.00     0.087 C 
BRANCH  11  12
ATOM     12  C   UNL     1      -3.426 -12.698  28.549  1.00  0.00     0.066 C 
BRANCH  12  13
ATOM     13  C   UNL     1      -4.594 -12.916  29.501  1.00  0.00     0.140 C 
ATOM     14  O   UNL     1      -5.481 -13.684  29.154  1.00  0.00    -0.299 OA
BRANCH  13  15
ATOM     15  C   UNL     1      -4.651 -12.330  30.891  1.00  0.00     0.106 CG0
ATOM     16  G   UNL     1      -4.442 -10.826  30.846  1.00  0.00     0.000 G0
ENDBRANCH  13  15
ENDBRANCH  12  13
BRANCH  12  17
ATOM     17  C   UNL     1      -3.972 -12.524  27.089  1.00  0.00    -0.006 C 
ATOM     18  C   UNL     1      -3.744 -13.775  26.216  1.00  0.00     0.008 C 
ATOM     19  C   UNL     1      -3.335 -11.311  26.382  1.00  0.00     0.008 C 
ENDBRANCH  12  17
ENDBRANCH  11  12
ENDBRANCH   1  11
TORSDOF 1
ENDMDL
