MODEL 1
REMARK VINA RESULT:    -4.720      0.000      0.000
REMARK INTER + INTRA:          -7.421
REMARK INTER:                  -6.375
REMARK INTRA:                  -1.046
REMARK UNBOUND:                -1.046
REMARK SMILES CC(=O)CCC=C(C)CCC=C(C)C
REMARK SMILES IDX 7 1 6 2 8 3 9 4 10 5 11 6 13 7 12 8 14 9 5 10 4 11 2 12 3 13
REMARK SMILES IDX 1 14
REMARK H PARENT
REMARK Flexibility Score: inf
ROOT
ATOM      1  C   UNL     1      17.747  -9.504  13.423  1.00  0.00    -0.077 C 
ATOM      2  C   UNL     1      17.627  -8.371  12.698  1.00  0.00    -0.028 C 
ATOM      3  C   UNL     1      18.573  -9.544  14.688  1.00  0.00     0.039 C 
ENDROOT
BRANCH   1   4
ATOM      4  C   UNL     1      17.042 -10.759  12.960  1.00  0.00     0.034 C 
BRANCH   4   5
ATOM      5  C   UNL     1      16.003 -10.433  11.880  1.00  0.00     0.032 C 
BRANCH   5   6
ATOM      6  C   UNL     1      14.647 -10.970  12.264  1.00  0.00    -0.028 C 
ATOM      7  C   UNL     1      12.320 -10.886  13.047  1.00  0.00     0.039 C 
ATOM      8  C   UNL     1      13.605 -10.204  12.655  1.00  0.00    -0.080 C 
ATOM      9  C   UNL     1      13.690  -8.696  12.693  1.00  0.00     0.039 C 
ENDBRANCH   5   6
ENDBRANCH   4   5
ENDBRANCH   1   4
BRANCH   2  10
ATOM     10  C   UNL     1      18.292  -7.071  13.082  1.00  0.00     0.035 C 
BRANCH  10  11
ATOM     11  C   UNL     1      17.267  -5.940  13.211  1.00  0.00     0.079 C 
BRANCH  11  12
ATOM     12  C   UNL     1      16.460  -6.092  14.472  1.00  0.00     0.130 C 
ATOM     13  O   UNL     1      15.242  -6.012  14.427  1.00  0.00    -0.300 OA
ATOM     14  C   UNL     1      17.142  -6.319  15.788  1.00  0.00     0.087 C 
ENDBRANCH  11  12
ENDBRANCH  10  11
ENDBRANCH   2  10
TORSDOF 6
ENDMDL
MODEL 2
REMARK VINA RESULT:    -4.697      2.111      5.146
REMARK INTER + INTRA:          -7.390
REMARK INTER:                  -6.612
REMARK INTRA:                  -0.778
REMARK UNBOUND:                -1.046
REMARK SMILES CC(=O)CCC=C(C)CCC=C(C)C
REMARK SMILES IDX 7 1 6 2 8 3 9 4 10 5 11 6 13 7 12 8 14 9 5 10 4 11 2 12 3 13
REMARK SMILES IDX 1 14
REMARK H PARENT
REMARK Flexibility Score: inf
ROOT
ATOM      1  C   UNL     1      17.886  -8.940  12.913  1.00  0.00    -0.077 C 
ATOM      2  C   UNL     1      17.041  -9.795  12.297  1.00  0.00    -0.028 C 
ATOM      3  C   UNL     1      18.479  -9.259  14.266  1.00  0.00     0.039 C 
ENDROOT
BRANCH   1   4
ATOM      4  C   UNL     1      18.244  -7.635  12.237  1.00  0.00     0.034 C 
BRANCH   4   5
ATOM      5  C   UNL     1      18.188  -6.472  13.234  1.00  0.00     0.032 C 
BRANCH   5   6
ATOM      6  C   UNL     1      16.759  -6.078  13.514  1.00  0.00    -0.028 C 
ATOM      7  C   UNL     1      14.757  -5.640  14.871  1.00  0.00     0.039 C 
ATOM      8  C   UNL     1      16.213  -6.011  14.749  1.00  0.00    -0.080 C 
ATOM      9  C   UNL     1      17.020  -6.282  15.997  1.00  0.00     0.039 C 
ENDBRANCH   5   6
ENDBRANCH   4   5
ENDBRANCH   1   4
BRANCH   2  10
ATOM     10  C   UNL     1      16.627 -11.119  12.892  1.00  0.00     0.035 C 
BRANCH  10  11
ATOM     11  C   UNL     1      15.787 -11.934  11.903  1.00  0.00     0.079 C 
BRANCH  11  12
ATOM     12  C   UNL     1      14.414 -12.195  12.458  1.00  0.00     0.130 C 
ATOM     13  O   UNL     1      13.677 -11.257  12.725  1.00  0.00    -0.300 OA
ATOM     14  C   UNL     1      13.949 -13.599  12.706  1.00  0.00     0.087 C 
ENDBRANCH  11  12
ENDBRANCH  10  11
ENDBRANCH   2  10
TORSDOF 6
ENDMDL
MODEL 3
REMARK VINA RESULT:    -4.478      2.182      3.548
REMARK INTER + INTRA:          -7.094
REMARK INTER:                  -6.531
REMARK INTRA:                  -0.563
REMARK UNBOUND:                -1.046
REMARK SMILES CC(=O)CCC=C(C)CCC=C(C)C
REMARK SMILES IDX 7 1 6 2 8 3 9 4 10 5 11 6 13 7 12 8 14 9 5 10 4 11 2 12 3 13
REMARK SMILES IDX 1 14
REMARK H PARENT
REMARK Flexibility Score: inf
ROOT
ATOM      1  C   UNL     1      17.462  -7.209  14.543  1.00  0.00    -0.077 C 
ATOM      2  C   UNL     1      17.398  -6.959  15.868  1.00  0.00    -0.028 C 
ATOM      3  C   UNL     1      16.841  -6.271  13.534  1.00  0.00     0.039 C 
ENDROOT
BRANCH   1   4
ATOM      4  C   UNL     1      18.168  -8.456  14.057  1.00  0.00     0.034 C 
BRANCH   4   5
ATOM      5  C   UNL     1      17.741  -8.800  12.625  1.00  0.00     0.032 C 
BRANCH   5   6
ATOM      6  C   UNL     1      17.399 -10.264  12.508  1.00  0.00    -0.028 C 
ATOM      7  C   UNL     1      15.952 -12.248  12.400  1.00  0.00     0.039 C 
ATOM      8  C   UNL     1      16.140 -10.755  12.480  1.00  0.00    -0.080 C 
ATOM      9  C   UNL     1      14.928  -9.853  12.513  1.00  0.00     0.039 C 
ENDBRANCH   5   6
ENDBRANCH   4   5
ENDBRANCH   1   4
BRANCH   2  10
ATOM     10  C   UNL     1      16.717  -5.742  16.446  1.00  0.00     0.035 C 
BRANCH  10  11
ATOM     11  C   UNL     1      16.745  -5.765  17.978  1.00  0.00     0.079 C 
BRANCH  11  12
ATOM     12  C   UNL     1      15.856  -4.693  18.545  1.00  0.00     0.130 C 
ATOM     13  O   UNL     1      14.773  -4.464  18.028  1.00  0.00    -0.300 OA
ATOM     14  C   UNL     1      16.299  -3.886  19.728  1.00  0.00     0.087 C 
ENDBRANCH  11  12
ENDBRANCH  10  11
ENDBRANCH   2  10
TORSDOF 6
ENDMDL
MODEL 4
REMARK VINA RESULT:    -4.392      1.179      2.324
REMARK INTER + INTRA:          -6.978
REMARK INTER:                  -6.169
REMARK INTRA:                  -0.809
REMARK UNBOUND:                -1.046
REMARK SMILES CC(=O)CCC=C(C)CCC=C(C)C
REMARK SMILES IDX 7 1 6 2 8 3 9 4 10 5 11 6 13 7 12 8 14 9 5 10 4 11 2 12 3 13
REMARK SMILES IDX 1 14
REMARK H PARENT
REMARK Flexibility Score: inf
ROOT
ATOM      1  C   UNL     1      17.986  -8.027  13.420  1.00  0.00    -0.077 C 
ATOM      2  C   UNL     1      17.421  -7.270  14.385  1.00  0.00    -0.028 C 
ATOM      3  C   UNL     1      18.482  -7.415  12.130  1.00  0.00     0.039 C 
ENDROOT
BRANCH   1   4
ATOM      4  C   UNL     1      18.126  -9.518  13.633  1.00  0.00     0.034 C 
BRANCH   4   5
ATOM      5  C   UNL     1      17.415 -10.296  12.519  1.00  0.00     0.032 C 
BRANCH   5   6
ATOM      6  C   UNL     1      15.921 -10.110  12.607  1.00  0.00    -0.028 C 
ATOM      7  C   UNL     1      13.552 -10.757  12.532  1.00  0.00     0.039 C 
ATOM      8  C   UNL     1      15.017 -11.103  12.457  1.00  0.00    -0.080 C 
ATOM      9  C   UNL     1      15.433 -12.538  12.233  1.00  0.00     0.039 C 
ENDBRANCH   5   6
ENDBRANCH   4   5
ENDBRANCH   1   4
BRANCH   2  10
ATOM     10  C   UNL     1      17.241  -5.777  14.262  1.00  0.00     0.035 C 
BRANCH  10  11
ATOM     11  C   UNL     1      16.036  -5.433  13.381  1.00  0.00     0.079 C 
BRANCH  11  12
ATOM     12  C   UNL     1      14.763  -5.958  13.987  1.00  0.00     0.130 C 
ATOM     13  O   UNL     1      14.399  -5.552  15.081  1.00  0.00    -0.300 OA
ATOM     14  C   UNL     1      13.950  -6.993  13.270  1.00  0.00     0.087 C 
ENDBRANCH  11  12
ENDBRANCH  10  11
ENDBRANCH   2  10
TORSDOF 6
ENDMDL
MODEL 5
REMARK VINA RESULT:    -4.260      1.811      4.091
REMARK INTER + INTRA:          -6.800
REMARK INTER:                  -6.063
REMARK INTRA:                  -0.737
REMARK UNBOUND:                -1.046
REMARK SMILES CC(=O)CCC=C(C)CCC=C(C)C
REMARK SMILES IDX 7 1 6 2 8 3 9 4 10 5 11 6 13 7 12 8 14 9 5 10 4 11 2 12 3 13
REMARK SMILES IDX 1 14
REMARK H PARENT
REMARK Flexibility Score: inf
ROOT
ATOM      1  C   UNL     1      14.272  -9.354  12.548  1.00  0.00    -0.077 C 
ATOM      2  C   UNL     1      14.741  -8.090  12.642  1.00  0.00    -0.028 C 
ATOM      3  C   UNL     1      12.825  -9.680  12.838  1.00  0.00     0.039 C 
ENDROOT
BRANCH   1   4
ATOM      4  C   UNL     1      15.215 -10.466  12.146  1.00  0.00     0.034 C 
BRANCH   4   5
ATOM      5  C   UNL     1      16.656  -9.951  12.048  1.00  0.00     0.032 C 
BRANCH   5   6
ATOM      6  C   UNL     1      17.411 -10.232  13.322  1.00  0.00    -0.028 C 
ATOM      7  C   UNL     1      18.830  -9.738  15.267  1.00  0.00     0.039 C 
ATOM      8  C   UNL     1      18.086  -9.300  14.031  1.00  0.00    -0.080 C 
ATOM      9  C   UNL     1      18.102  -7.844  13.630  1.00  0.00     0.039 C 
ENDBRANCH   5   6
ENDBRANCH   4   5
ENDBRANCH   1   4
BRANCH   2  10
ATOM     10  C   UNL     1      13.876  -6.917  13.034  1.00  0.00     0.035 C 
BRANCH  10  11
ATOM     11  C   UNL     1      14.594  -6.009  14.038  1.00  0.00     0.079 C 
BRANCH  11  12
ATOM     12  C   UNL     1      13.733  -4.833  14.406  1.00  0.00     0.130 C 
ATOM     13  O   UNL     1      13.422  -4.649  15.574  1.00  0.00    -0.300 OA
ATOM     14  C   UNL     1      13.233  -3.896  13.348  1.00  0.00     0.087 C 
ENDBRANCH  11  12
ENDBRANCH  10  11
ENDBRANCH   2  10
TORSDOF 6
ENDMDL
MODEL 6
REMARK VINA RESULT:    -4.128      2.200      5.393
REMARK INTER + INTRA:          -6.622
REMARK INTER:                  -5.929
REMARK INTRA:                  -0.694
REMARK UNBOUND:                -1.046
REMARK SMILES CC(=O)CCC=C(C)CCC=C(C)C
REMARK SMILES IDX 7 1 6 2 8 3 9 4 10 5 11 6 13 7 12 8 14 9 5 10 4 11 2 12 3 13
REMARK SMILES IDX 1 14
REMARK H PARENT
REMARK Flexibility Score: inf
ROOT
ATOM      1  C   UNL     1      17.115  -8.471  13.238  1.00  0.00    -0.077 C 
ATOM      2  C   UNL     1      15.897  -8.174  12.734  1.00  0.00    -0.028 C 
ATOM      3  C   UNL     1      17.741  -9.830  13.033  1.00  0.00     0.039 C 
ENDROOT
BRANCH   1   4
ATOM      4  C   UNL     1      17.866  -7.421  14.027  1.00  0.00     0.034 C 
BRANCH   4   5
ATOM      5  C   UNL     1      16.895  -6.422  14.668  1.00  0.00     0.032 C 
BRANCH   5   6
ATOM      6  C   UNL     1      17.135  -6.323  16.154  1.00  0.00    -0.028 C 
ATOM      7  C   UNL     1      16.663  -5.707  18.486  1.00  0.00     0.039 C 
ATOM      8  C   UNL     1      16.268  -5.773  17.032  1.00  0.00    -0.080 C 
ATOM      9  C   UNL     1      14.921  -5.240  16.602  1.00  0.00     0.039 C 
ENDBRANCH   5   6
ENDBRANCH   4   5
ENDBRANCH   1   4
BRANCH   2  10
ATOM     10  C   UNL     1      15.075  -9.155  11.934  1.00  0.00     0.035 C 
BRANCH  10  11
ATOM     11  C   UNL     1      13.859  -9.639  12.731  1.00  0.00     0.079 C 
BRANCH  11  12
ATOM     12  C   UNL     1      13.739 -11.136  12.667  1.00  0.00     0.130 C 
ATOM     13  O   UNL     1      12.747 -11.687  13.120  1.00  0.00    -0.300 OA
ATOM     14  C   UNL     1      14.841 -11.962  12.073  1.00  0.00     0.087 C 
ENDBRANCH  11  12
ENDBRANCH  10  11
ENDBRANCH   2  10
TORSDOF 6
ENDMDL
MODEL 7
REMARK VINA RESULT:    -4.123      1.468      2.258
REMARK INTER + INTRA:          -6.615
REMARK INTER:                  -6.371
REMARK INTRA:                  -0.244
REMARK UNBOUND:                -1.046
REMARK SMILES CC(=O)CCC=C(C)CCC=C(C)C
REMARK SMILES IDX 7 1 6 2 8 3 9 4 10 5 11 6 13 7 12 8 14 9 5 10 4 11 2 12 3 13
REMARK SMILES IDX 1 14
REMARK H PARENT
REMARK Flexibility Score: inf
ROOT
ATOM      1  C   UNL     1      16.731  -8.347  12.975  1.00  0.00    -0.077 C 
ATOM      2  C   UNL     1      16.424  -7.192  13.603  1.00  0.00    -0.028 C 
ATOM      3  C   UNL     1      18.114  -8.949  13.067  1.00  0.00     0.039 C 
ENDROOT
BRANCH   1   4
ATOM      4  C   UNL     1      15.670  -9.052  12.160  1.00  0.00     0.034 C 
BRANCH   4   5
ATOM      5  C   UNL     1      15.546 -10.521  12.581  1.00  0.00     0.032 C 
BRANCH   5   6
ATOM      6  C   UNL     1      14.101 -10.951  12.601  1.00  0.00    -0.028 C 
ATOM      7  C   UNL     1      12.204 -12.513  12.543  1.00  0.00     0.039 C 
ATOM      8  C   UNL     1      13.686 -12.237  12.556  1.00  0.00    -0.080 C 
ATOM      9  C   UNL     1      14.659 -13.392  12.534  1.00  0.00     0.039 C 
ENDBRANCH   5   6
ENDBRANCH   4   5
ENDBRANCH   1   4
BRANCH   2  10
ATOM     10  C   UNL     1      17.415  -6.418  14.439  1.00  0.00     0.035 C 
BRANCH  10  11
ATOM     11  C   UNL     1      17.357  -6.850  15.908  1.00  0.00     0.079 C 
BRANCH  11  12
ATOM     12  C   UNL     1      16.393  -5.991  16.680  1.00  0.00     0.130 C 
ATOM     13  O   UNL     1      15.405  -5.536  16.124  1.00  0.00    -0.300 OA
ATOM     14  C   UNL     1      16.649  -5.669  18.122  1.00  0.00     0.087 C 
ENDBRANCH  11  12
ENDBRANCH  10  11
ENDBRANCH   2  10
TORSDOF 6
ENDMDL
MODEL 8
REMARK VINA RESULT:    -4.116      2.731      6.056
REMARK INTER + INTRA:          -6.606
REMARK INTER:                  -5.783
REMARK INTRA:                  -0.822
REMARK UNBOUND:                -1.046
REMARK SMILES CC(=O)CCC=C(C)CCC=C(C)C
REMARK SMILES IDX 7 1 6 2 8 3 9 4 10 5 11 6 13 7 12 8 14 9 5 10 4 11 2 12 3 13
REMARK SMILES IDX 1 14
REMARK H PARENT
REMARK Flexibility Score: inf
ROOT
ATOM      1  C   UNL     1      14.000  -8.528  12.556  1.00  0.00    -0.077 C 
ATOM      2  C   UNL     1      12.969  -9.401  12.558  1.00  0.00    -0.028 C 
ATOM      3  C   UNL     1      15.315  -8.865  11.892  1.00  0.00     0.039 C 
ENDROOT
BRANCH   1   4
ATOM      4  C   UNL     1      13.836  -7.185  13.233  1.00  0.00     0.034 C 
BRANCH   4   5
ATOM      5  C   UNL     1      15.132  -6.371  13.149  1.00  0.00     0.032 C 
BRANCH   5   6
ATOM      6  C   UNL     1      15.652  -6.051  14.529  1.00  0.00    -0.028 C 
ATOM      7  C   UNL     1      17.185  -6.145  16.447  1.00  0.00     0.039 C 
ATOM      8  C   UNL     1      16.815  -6.518  15.034  1.00  0.00    -0.080 C 
ATOM      9  C   UNL     1      17.750  -7.384  14.223  1.00  0.00     0.039 C 
ENDBRANCH   5   6
ENDBRANCH   4   5
ENDBRANCH   1   4
BRANCH   2  10
ATOM     10  C   UNL     1      13.040 -10.761  11.907  1.00  0.00     0.035 C 
BRANCH  10  11
ATOM     11  C   UNL     1      12.998 -11.880  12.954  1.00  0.00     0.079 C 
BRANCH  11  12
ATOM     12  C   UNL     1      14.055 -12.912  12.676  1.00  0.00     0.130 C 
ATOM     13  O   UNL     1      13.837 -14.088  12.924  1.00  0.00    -0.300 OA
ATOM     14  C   UNL     1      15.386 -12.505  12.117  1.00  0.00     0.087 C 
ENDBRANCH  11  12
ENDBRANCH  10  11
ENDBRANCH   2  10
TORSDOF 6
ENDMDL
MODEL 9
REMARK VINA RESULT:    -4.106      2.060      5.365
REMARK INTER + INTRA:          -6.592
REMARK INTER:                  -5.849
REMARK INTRA:                  -0.743
REMARK UNBOUND:                -1.046
REMARK SMILES CC(=O)CCC=C(C)CCC=C(C)C
REMARK SMILES IDX 7 1 6 2 8 3 9 4 10 5 11 6 13 7 12 8 14 9 5 10 4 11 2 12 3 13
REMARK SMILES IDX 1 14
REMARK H PARENT
REMARK Flexibility Score: inf
ROOT
ATOM      1  C   UNL     1      15.042  -7.063  12.783  1.00  0.00    -0.077 C 
ATOM      2  C   UNL     1      14.832  -8.260  12.193  1.00  0.00    -0.028 C 
ATOM      3  C   UNL     1      14.048  -6.483  13.763  1.00  0.00     0.039 C 
ENDROOT
BRANCH   1   4
ATOM      4  C   UNL     1      16.297  -6.285  12.455  1.00  0.00     0.034 C 
BRANCH   4   5
ATOM      5  C   UNL     1      17.464  -7.234  12.154  1.00  0.00     0.032 C 
BRANCH   5   6
ATOM      6  C   UNL     1      18.023  -7.814  13.430  1.00  0.00    -0.028 C 
ATOM      7  C   UNL     1      18.620  -9.564  15.048  1.00  0.00     0.039 C 
ATOM      8  C   UNL     1      18.068  -9.134  13.713  1.00  0.00    -0.080 C 
ATOM      9  C   UNL     1      17.599 -10.181  12.730  1.00  0.00     0.039 C 
ENDBRANCH   5   6
ENDBRANCH   4   5
ENDBRANCH   1   4
BRANCH   2  10
ATOM     10  C   UNL     1      13.611  -9.107  12.459  1.00  0.00     0.035 C 
BRANCH  10  11
ATOM     11  C   UNL     1      13.963 -10.598  12.471  1.00  0.00     0.079 C 
BRANCH  11  12
ATOM     12  C   UNL     1      12.806 -11.416  12.977  1.00  0.00     0.130 C 
ATOM     13  O   UNL     1      11.802 -10.857  13.393  1.00  0.00    -0.300 OA
ATOM     14  C   UNL     1      12.885 -12.913  12.995  1.00  0.00     0.087 C 
ENDBRANCH  11  12
ENDBRANCH  10  11
ENDBRANCH   2  10
TORSDOF 6
ENDMDL
