MODEL 1
REMARK VINA RESULT:     4.510      0.000      0.000
REMARK INTER + INTRA:           7.716
REMARK INTER:                   6.092
REMARK INTRA:                   1.624
REMARK UNBOUND:                 1.624
REMARK SMILES COc1ccc(-c2cc(=O)c3c(OC)c(OC)c(OC)c(OC)c3o2)cc1
REMARK SMILES IDX 7 1 8 2 9 3 10 4 11 5 24 6 25 7 21 8 18 9 15 10 12 11 6 12
REMARK SMILES IDX 3 13 4 14 27 15 5 16 26 17 2 18 1 19 22 20 23 21 13 22 14 23
REMARK SMILES IDX 19 24 20 25 16 26 17 27
REMARK H PARENT
REMARK Flexibility Score: inf
ROOT
ATOM      1  C   UNL     1      -1.392  14.740 -18.271  1.00  0.00     0.138 A 
ATOM      2  C   UNL     1      -1.954  14.089 -19.375  1.00  0.00     0.100 A 
ATOM      3  C   UNL     1      -2.798  13.003 -19.170  1.00  0.00     0.197 A 
ATOM      4  O   UNL     1      -3.322  12.447 -20.173  1.00  0.00    -0.289 OA
ATOM      5  C   UNL     1      -3.067  12.563 -17.854  1.00  0.00     0.115 A 
ATOM      6  C   UNL     1      -2.484  13.284 -16.786  1.00  0.00     0.188 A 
ATOM      7  O   UNL     1      -1.690  14.321 -17.045  1.00  0.00    -0.452 OA
ATOM      8  C   UNL     1      -2.735  12.895 -15.449  1.00  0.00     0.209 A 
ATOM      9  C   UNL     1      -3.587  11.815 -15.179  1.00  0.00     0.211 A 
ATOM     10  C   UNL     1      -4.200  11.104 -16.241  1.00  0.00     0.208 A 
ATOM     11  C   UNL     1      -3.883  11.442 -17.577  1.00  0.00     0.179 A 
ENDROOT
BRANCH   1  12
ATOM     12  C   UNL     1      -0.479  15.897 -18.438  1.00  0.00     0.018 A 
ATOM     13  C   UNL     1       1.287  18.072 -18.789  1.00  0.00     0.118 A 
ATOM     14  C   UNL     1      -0.094  18.284 -18.726  1.00  0.00     0.047 A 
ATOM     15  C   UNL     1       1.785  16.761 -18.681  1.00  0.00     0.047 A 
ATOM     16  C   UNL     1      -0.972  17.209 -18.554  1.00  0.00     0.016 A 
ATOM     17  C   UNL     1       0.908  15.685 -18.511  1.00  0.00     0.016 A 
BRANCH  13  18
ATOM     18  O   UNL     1       2.125  19.184 -18.962  1.00  0.00    -0.497 OA
ATOM     19  C   UNL     1       2.057  20.078 -20.069  1.00  0.00     0.278 C 
ENDBRANCH  13  18
ENDBRANCH   1  12
BRANCH   8  20
ATOM     20  O   UNL     1      -2.171  13.543 -14.332  1.00  0.00    -0.490 OA
ATOM     21  C   UNL     1      -0.850  13.378 -13.829  1.00  0.00     0.278 C 
ENDBRANCH   8  20
BRANCH  11  22
ATOM     22  O   UNL     1      -4.345  10.640 -18.623  1.00  0.00    -0.492 OA
ATOM     23  C   UNL     1      -5.441  11.051 -19.433  1.00  0.00     0.278 C 
ENDBRANCH  11  22
BRANCH   9  24
ATOM     24  O   UNL     1      -3.789  11.508 -13.819  1.00  0.00    -0.490 OA
ATOM     25  C   UNL     1      -3.137  10.493 -13.062  1.00  0.00     0.279 C 
ENDBRANCH   9  24
BRANCH  10  26
ATOM     26  O   UNL     1      -5.108  10.076 -15.936  1.00  0.00    -0.490 OA
ATOM     27  C   UNL     1      -5.087   9.264 -14.765  1.00  0.00     0.278 C 
ENDBRANCH  10  26
TORSDOF 6
ENDMDL
MODEL 2
REMARK VINA RESULT:     5.412      1.202      3.664
REMARK INTER + INTRA:           8.934
REMARK INTER:                   7.422
REMARK INTRA:                   1.512
REMARK UNBOUND:                 1.624
REMARK SMILES COc1ccc(-c2cc(=O)c3c(OC)c(OC)c(OC)c(OC)c3o2)cc1
REMARK SMILES IDX 7 1 8 2 9 3 10 4 11 5 24 6 25 7 21 8 18 9 15 10 12 11 6 12
REMARK SMILES IDX 3 13 4 14 27 15 5 16 26 17 2 18 1 19 22 20 23 21 13 22 14 23
REMARK SMILES IDX 19 24 20 25 16 26 17 27
REMARK H PARENT
REMARK Flexibility Score: inf
ROOT
ATOM      1  C   UNL     1      -1.185  14.689 -17.819  1.00  0.00     0.138 A 
ATOM      2  C   UNL     1      -1.107  14.659 -16.422  1.00  0.00     0.100 A 
ATOM      3  C   UNL     1      -1.935  13.797 -15.711  1.00  0.00     0.197 A 
ATOM      4  O   UNL     1      -1.830  13.759 -14.455  1.00  0.00    -0.289 OA
ATOM      5  C   UNL     1      -2.852  12.974 -16.404  1.00  0.00     0.115 A 
ATOM      6  C   UNL     1      -2.858  13.040 -17.817  1.00  0.00     0.188 A 
ATOM      7  O   UNL     1      -2.036  13.880 -18.443  1.00  0.00    -0.452 OA
ATOM      8  C   UNL     1      -3.745  12.225 -18.559  1.00  0.00     0.209 A 
ATOM      9  C   UNL     1      -4.596  11.327 -17.897  1.00  0.00     0.211 A 
ATOM     10  C   UNL     1      -4.576  11.233 -16.483  1.00  0.00     0.208 A 
ATOM     11  C   UNL     1      -3.749  12.106 -15.741  1.00  0.00     0.179 A 
ENDROOT
BRANCH   1  12
ATOM     12  C   UNL     1      -0.331  15.597 -18.622  1.00  0.00     0.018 A 
ATOM     13  C   UNL     1       1.289  17.362 -20.117  1.00  0.00     0.118 A 
ATOM     14  C   UNL     1       1.688  16.038 -19.910  1.00  0.00     0.047 A 
ATOM     15  C   UNL     1       0.072  17.805 -19.566  1.00  0.00     0.047 A 
ATOM     16  C   UNL     1       0.891  15.161 -19.169  1.00  0.00     0.016 A 
ATOM     17  C   UNL     1      -0.726  16.930 -18.824  1.00  0.00     0.016 A 
BRANCH  13  18
ATOM     18  O   UNL     1       2.125  18.201 -20.869  1.00  0.00    -0.497 OA
ATOM     19  C   UNL     1       1.860  19.577 -21.128  1.00  0.00     0.278 C 
ENDBRANCH  13  18
ENDBRANCH   1  12
BRANCH   8  20
ATOM     20  O   UNL     1      -3.833  12.251 -19.965  1.00  0.00    -0.490 OA
ATOM     21  C   UNL     1      -3.960  11.129 -20.831  1.00  0.00     0.278 C 
ENDBRANCH   8  20
BRANCH  11  22
ATOM     22  O   UNL     1      -3.850  12.139 -14.348  1.00  0.00    -0.492 OA
ATOM     23  C   UNL     1      -4.958  12.762 -13.708  1.00  0.00     0.278 C 
ENDBRANCH  11  22
BRANCH   9  24
ATOM     24  O   UNL     1      -5.435  10.547 -18.718  1.00  0.00    -0.490 OA
ATOM     25  C   UNL     1      -6.545  10.999 -19.486  1.00  0.00     0.279 C 
ENDBRANCH   9  24
BRANCH  10  26
ATOM     26  O   UNL     1      -5.385  10.270 -15.855  1.00  0.00    -0.490 OA
ATOM     27  C   UNL     1      -4.994   9.428 -14.775  1.00  0.00     0.278 C 
ENDBRANCH  10  26
TORSDOF 6
ENDMDL
