MODEL 1
REMARK VINA RESULT:    -4.176      0.000      0.000
REMARK INTER + INTRA:          -6.613
REMARK INTER:                  -6.373
REMARK INTRA:                  -0.239
REMARK UNBOUND:                -0.239
REMARK SMILES CC1=CCC[C@H](C)C(=O)C[C@@H](C(C)C)C(=O)C1
REMARK SMILES IDX 8 1 9 2 6 3 7 4 5 5 4 6 3 7 2 8 1 9 10 11 11 12 15 13 16 14
REMARK SMILES IDX 17 15 12 17 13 18 14 19
REMARK H PARENT
REMARK Flexibility Score: 70.00
ROOT
ATOM      1  C   UNL     1      15.372 -34.228  20.861  1.00  0.00     0.136 C 
ATOM      2  O   UNL     1      14.547 -33.929  20.011  1.00  0.00    -0.299 OA
ENDROOT
BRANCH   1   3
ATOM      3  C   UNL     1      16.680 -34.860  20.420  1.00  0.00     0.053 C 
ATOM      4  C   UNL     1      16.425 -36.110  19.566  1.00  0.00     0.016 C 
BRANCH   3   5
ATOM      5  C   UNL     1      17.570 -33.845  19.675  1.00  0.00     0.015 C 
BRANCH   5   6
ATOM      6  C   UNL     1      18.716 -33.324  20.563  1.00  0.00     0.028 C 
BRANCH   6   7
ATOM      7  C   UNL     1      19.151 -34.357  21.569  1.00  0.00    -0.028 C 
ATOM      8  C   UNL     1      19.040 -34.220  22.910  1.00  0.00    -0.070 CG0
ATOM      9  C   UNL     1      19.546 -35.340  23.783  1.00  0.00     0.039 C 
ATOM     10  G   UNL     1      18.437 -32.994  23.578  1.00  0.00     0.000 G0
ENDBRANCH   6   7
ENDBRANCH   5   6
ENDBRANCH   3   5
ENDBRANCH   1   3
BRANCH   1  11
ATOM     11  C   UNL     1      15.101 -33.891  22.315  1.00  0.00     0.087 C 
BRANCH  11  12
ATOM     12  C   UNL     1      15.886 -32.677  22.876  1.00  0.00     0.066 C 
BRANCH  12  13
ATOM     13  C   UNL     1      16.951 -33.137  23.864  1.00  0.00     0.140 C 
ATOM     14  O   UNL     1      16.589 -33.675  24.902  1.00  0.00    -0.299 OA
BRANCH  13  15
ATOM     15  C   UNL     1      18.433 -32.994  23.586  1.00  0.00     0.106 CG0
ATOM     16  G   UNL     1      19.017 -34.219  22.900  1.00  0.00     0.000 G0
ENDBRANCH  13  15
ENDBRANCH  12  13
BRANCH  12  17
ATOM     17  C   UNL     1      15.013 -31.493  23.409  1.00  0.00    -0.006 C 
ATOM     18  C   UNL     1      15.162 -30.254  22.505  1.00  0.00     0.008 C 
ATOM     19  C   UNL     1      13.520 -31.857  23.491  1.00  0.00     0.008 C 
ENDBRANCH  12  17
ENDBRANCH  11  12
ENDBRANCH   1  11
TORSDOF 1
ENDMDL
MODEL 2
REMARK VINA RESULT:    -4.090      2.203      3.191
REMARK INTER + INTRA:          -6.481
REMARK INTER:                  -6.288
REMARK INTRA:                  -0.193
REMARK UNBOUND:                -0.239
REMARK SMILES CC1=CCC[C@H](C)C(=O)C[C@@H](C(C)C)C(=O)C1
REMARK SMILES IDX 8 1 9 2 6 3 7 4 5 5 4 6 3 7 2 8 1 9 10 11 11 12 15 13 16 14
REMARK SMILES IDX 17 15 12 17 13 18 14 19
REMARK H PARENT
REMARK Flexibility Score: 70.00
ROOT
ATOM      1  C   UNL     1      15.663 -33.165  23.733  1.00  0.00     0.136 C 
ATOM      2  O   UNL     1      14.564 -33.625  23.999  1.00  0.00    -0.299 OA
ENDROOT
BRANCH   1   3
ATOM      3  C   UNL     1      16.843 -34.113  23.611  1.00  0.00     0.053 C 
ATOM      4  C   UNL     1      16.854 -35.126  24.763  1.00  0.00     0.016 C 
BRANCH   3   5
ATOM      5  C   UNL     1      16.853 -34.823  22.242  1.00  0.00     0.015 C 
BRANCH   5   6
ATOM      6  C   UNL     1      18.045 -34.380  21.372  1.00  0.00     0.028 C 
BRANCH   6   7
ATOM      7  C   UNL     1      18.932 -33.405  22.103  1.00  0.00    -0.028 C 
ATOM      8  C   UNL     1      18.964 -32.073  21.874  1.00  0.00    -0.070 CG0
ATOM      9  C   UNL     1      19.927 -31.236  22.678  1.00  0.00     0.039 C 
ATOM     10  G   UNL     1      18.083 -31.379  20.846  1.00  0.00     0.000 G0
ENDBRANCH   6   7
ENDBRANCH   5   6
ENDBRANCH   3   5
ENDBRANCH   1   3
BRANCH   1  11
ATOM     11  C   UNL     1      15.804 -31.680  23.457  1.00  0.00     0.087 C 
BRANCH  11  12
ATOM     12  C   UNL     1      15.659 -31.260  21.971  1.00  0.00     0.066 C 
BRANCH  12  13
ATOM     13  C   UNL     1      16.936 -30.594  21.474  1.00  0.00     0.140 C 
ATOM     14  O   UNL     1      17.060 -29.387  21.628  1.00  0.00    -0.299 OA
BRANCH  13  15
ATOM     15  C   UNL     1      18.067 -31.377  20.842  1.00  0.00     0.106 CG0
ATOM     16  G   UNL     1      18.947 -32.064  21.875  1.00  0.00     0.000 G0
ENDBRANCH  13  15
ENDBRANCH  12  13
BRANCH  12  17
ATOM     17  C   UNL     1      14.360 -30.461  21.617  1.00  0.00    -0.006 C 
ATOM     18  C   UNL     1      13.326 -31.375  20.933  1.00  0.00     0.008 C 
ATOM     19  C   UNL     1      13.706 -29.829  22.857  1.00  0.00     0.008 C 
ENDBRANCH  12  17
ENDBRANCH  11  12
ENDBRANCH   1  11
TORSDOF 1
ENDMDL
MODEL 3
REMARK VINA RESULT:    -4.046      1.934      3.710
REMARK INTER + INTRA:          -6.414
REMARK INTER:                  -6.143
REMARK INTRA:                  -0.271
REMARK UNBOUND:                -0.239
REMARK SMILES CC1=CCC[C@H](C)C(=O)C[C@@H](C(C)C)C(=O)C1
REMARK SMILES IDX 8 1 9 2 6 3 7 4 5 5 4 6 3 7 2 8 1 9 10 11 11 12 15 13 16 14
REMARK SMILES IDX 17 15 12 17 13 18 14 19
REMARK H PARENT
REMARK Flexibility Score: 70.00
ROOT
ATOM      1  C   UNL     1      17.575 -31.218  21.833  1.00  0.00     0.136 C 
ATOM      2  O   UNL     1      17.634 -30.505  22.824  1.00  0.00    -0.299 OA
ENDROOT
BRANCH   1   3
ATOM      3  C   UNL     1      18.813 -31.990  21.413  1.00  0.00     0.053 C 
ATOM      4  C   UNL     1      19.942 -31.035  21.001  1.00  0.00     0.016 C 
BRANCH   3   5
ATOM      5  C   UNL     1      19.274 -32.957  22.521  1.00  0.00     0.015 C 
BRANCH   5   6
ATOM      6  C   UNL     1      18.388 -34.216  22.592  1.00  0.00     0.028 C 
BRANCH   6   7
ATOM      7  C   UNL     1      18.133 -34.792  21.224  1.00  0.00    -0.028 C 
ATOM      8  C   UNL     1      16.908 -35.063  20.719  1.00  0.00    -0.070 CG0
ATOM      9  C   UNL     1      16.825 -35.662  19.338  1.00  0.00     0.039 C 
ATOM     10  G   UNL     1      15.615 -34.801  21.475  1.00  0.00     0.000 G0
ENDBRANCH   6   7
ENDBRANCH   5   6
ENDBRANCH   3   5
ENDBRANCH   1   3
BRANCH   1  11
ATOM     11  C   UNL     1      16.255 -31.369  21.101  1.00  0.00     0.087 C 
BRANCH  11  12
ATOM     12  C   UNL     1      15.181 -32.217  21.832  1.00  0.00     0.066 C 
BRANCH  12  13
ATOM     13  C   UNL     1      14.932 -33.524  21.088  1.00  0.00     0.140 C 
ATOM     14  O   UNL     1      14.183 -33.509  20.121  1.00  0.00    -0.299 OA
BRANCH  13  15
ATOM     15  C   UNL     1      15.611 -34.821  21.475  1.00  0.00     0.106 CG0
ATOM     16  G   UNL     1      16.900 -35.055  20.702  1.00  0.00     0.000 G0
ENDBRANCH  13  15
ENDBRANCH  12  13
BRANCH  12  17
ATOM     17  C   UNL     1      13.866 -31.459  22.217  1.00  0.00    -0.006 C 
ATOM     18  C   UNL     1      13.532 -31.669  23.706  1.00  0.00     0.008 C 
ATOM     19  C   UNL     1      13.962 -29.947  21.948  1.00  0.00     0.008 C 
ENDBRANCH  12  17
ENDBRANCH  11  12
ENDBRANCH   1  11
TORSDOF 1
ENDMDL
MODEL 4
REMARK VINA RESULT:    -4.008      1.539      1.901
REMARK INTER + INTRA:          -6.356
REMARK INTER:                  -6.473
REMARK INTRA:                   0.118
REMARK UNBOUND:                -0.239
REMARK SMILES CC1=CCC[C@H](C)C(=O)C[C@@H](C(C)C)C(=O)C1
REMARK SMILES IDX 8 1 9 2 6 3 7 4 5 5 4 6 3 7 2 8 1 9 10 11 11 12 15 13 16 14
REMARK SMILES IDX 17 15 12 17 13 18 14 19
REMARK H PARENT
REMARK Flexibility Score: 70.00
ROOT
ATOM      1  C   UNL     1      15.121 -34.010  20.892  1.00  0.00     0.136 C 
ATOM      2  O   UNL     1      14.250 -33.611  20.134  1.00  0.00    -0.299 OA
ENDROOT
BRANCH   1   3
ATOM      3  C   UNL     1      16.029 -35.137  20.434  1.00  0.00     0.053 C 
ATOM      4  C   UNL     1      16.692 -34.796  19.092  1.00  0.00     0.016 C 
BRANCH   3   5
ATOM      5  C   UNL     1      17.083 -35.479  21.507  1.00  0.00     0.015 C 
BRANCH   5   6
ATOM      6  C   UNL     1      18.459 -34.869  21.178  1.00  0.00     0.028 C 
BRANCH   6   7
ATOM      7  C   UNL     1      18.986 -34.042  22.322  1.00  0.00    -0.028 C 
ATOM      8  C   UNL     1      18.749 -32.721  22.491  1.00  0.00    -0.070 CG0
ATOM      9  C   UNL     1      19.371 -32.033  23.679  1.00  0.00     0.039 C 
ATOM     10  G   UNL     1      17.894 -31.897  21.540  1.00  0.00     0.000 G0
ENDBRANCH   6   7
ENDBRANCH   5   6
ENDBRANCH   3   5
ENDBRANCH   1   3
BRANCH   1  11
ATOM     11  C   UNL     1      15.318 -33.321  22.229  1.00  0.00     0.087 C 
BRANCH  11  12
ATOM     12  C   UNL     1      15.302 -31.771  22.190  1.00  0.00     0.066 C 
BRANCH  12  13
ATOM     13  C   UNL     1      16.721 -31.218  22.241  1.00  0.00     0.140 C 
ATOM     14  O   UNL     1      16.930 -30.211  22.904  1.00  0.00    -0.299 OA
BRANCH  13  15
ATOM     15  C   UNL     1      17.882 -31.893  21.540  1.00  0.00     0.106 CG0
ATOM     16  G   UNL     1      18.748 -32.699  22.496  1.00  0.00     0.000 G0
ENDBRANCH  13  15
ENDBRANCH  12  13
BRANCH  12  17
ATOM     17  C   UNL     1      14.327 -31.077  23.199  1.00  0.00    -0.006 C 
ATOM     18  C   UNL     1      13.379 -30.110  22.465  1.00  0.00     0.008 C 
ATOM     19  C   UNL     1      13.476 -32.093  23.982  1.00  0.00     0.008 C 
ENDBRANCH  12  17
ENDBRANCH  11  12
ENDBRANCH   1  11
TORSDOF 1
ENDMDL
MODEL 5
REMARK VINA RESULT:    -3.930      2.017      4.147
REMARK INTER + INTRA:          -6.237
REMARK INTER:                  -6.140
REMARK INTRA:                  -0.097
REMARK UNBOUND:                -0.239
REMARK SMILES CC1=CCC[C@H](C)C(=O)C[C@@H](C(C)C)C(=O)C1
REMARK SMILES IDX 8 1 9 2 6 3 7 4 5 5 4 6 3 7 2 8 1 9 10 11 11 12 15 13 16 14
REMARK SMILES IDX 17 15 12 17 13 18 14 19
REMARK H PARENT
REMARK Flexibility Score: 70.00
ROOT
ATOM      1  C   UNL     1      14.552 -32.794  23.182  1.00  0.00     0.136 C 
ATOM      2  O   UNL     1      14.046 -32.983  24.278  1.00  0.00    -0.299 OA
ENDROOT
BRANCH   1   3
ATOM      3  C   UNL     1      14.493 -31.402  22.579  1.00  0.00     0.053 C 
ATOM      4  C   UNL     1      13.171 -30.707  22.934  1.00  0.00     0.016 C 
BRANCH   3   5
ATOM      5  C   UNL     1      15.705 -30.552  23.009  1.00  0.00     0.015 C 
BRANCH   5   6
ATOM      6  C   UNL     1      16.485 -30.008  21.796  1.00  0.00     0.028 C 
BRANCH   6   7
ATOM      7  C   UNL     1      17.942 -30.387  21.858  1.00  0.00    -0.028 C 
ATOM      8  C   UNL     1      18.474 -31.494  21.293  1.00  0.00    -0.070 CG0
ATOM      9  C   UNL     1      19.951 -31.742  21.468  1.00  0.00     0.039 C 
ATOM     10  G   UNL     1      17.658 -32.502  20.498  1.00  0.00     0.000 G0
ENDBRANCH   6   7
ENDBRANCH   5   6
ENDBRANCH   3   5
ENDBRANCH   1   3
BRANCH   1  11
ATOM     11  C   UNL     1      15.288 -33.929  22.495  1.00  0.00     0.087 C 
BRANCH  11  12
ATOM     12  C   UNL     1      16.834 -33.890  22.614  1.00  0.00     0.066 C 
BRANCH  12  13
ATOM     13  C   UNL     1      17.477 -33.825  21.233  1.00  0.00     0.140 C 
ATOM     14  O   UNL     1      17.813 -34.873  20.699  1.00  0.00    -0.299 OA
BRANCH  13  15
ATOM     15  C   UNL     1      17.671 -32.521  20.488  1.00  0.00     0.106 CG0
ATOM     16  G   UNL     1      18.463 -31.503  21.293  1.00  0.00     0.000 G0
ENDBRANCH  13  15
ENDBRANCH  12  13
BRANCH  12  17
ATOM     17  C   UNL     1      17.470 -34.974  23.547  1.00  0.00    -0.006 C 
ATOM     18  C   UNL     1      18.925 -34.609  23.896  1.00  0.00     0.008 C 
ATOM     19  C   UNL     1      16.685 -35.150  24.858  1.00  0.00     0.008 C 
ENDBRANCH  12  17
ENDBRANCH  11  12
ENDBRANCH   1  11
TORSDOF 1
ENDMDL
MODEL 6
REMARK VINA RESULT:    -3.927      2.040      4.774
REMARK INTER + INTRA:          -6.232
REMARK INTER:                  -6.018
REMARK INTRA:                  -0.214
REMARK UNBOUND:                -0.239
REMARK SMILES CC1=CCC[C@H](C)C(=O)C[C@@H](C(C)C)C(=O)C1
REMARK SMILES IDX 8 1 9 2 6 3 7 4 5 5 4 6 3 7 2 8 1 9 10 11 11 12 15 13 16 14
REMARK SMILES IDX 17 15 12 17 13 18 14 19
REMARK H PARENT
REMARK Flexibility Score: 70.00
ROOT
ATOM      1  C   UNL     1      17.649 -35.011  22.944  1.00  0.00     0.136 C 
ATOM      2  O   UNL     1      18.177 -36.113  22.948  1.00  0.00    -0.299 OA
ENDROOT
BRANCH   1   3
ATOM      3  C   UNL     1      18.353 -33.860  23.641  1.00  0.00     0.053 C 
ATOM      4  C   UNL     1      19.225 -33.073  22.653  1.00  0.00     0.016 C 
BRANCH   3   5
ATOM      5  C   UNL     1      17.347 -32.938  24.357  1.00  0.00     0.015 C 
BRANCH   5   6
ATOM      6  C   UNL     1      17.330 -31.522  23.749  1.00  0.00     0.028 C 
BRANCH   6   7
ATOM      7  C   UNL     1      15.935 -30.957  23.699  1.00  0.00    -0.028 C 
ATOM      8  C   UNL     1      15.177 -30.875  22.581  1.00  0.00    -0.070 CG0
ATOM      9  C   UNL     1      13.806 -30.259  22.696  1.00  0.00     0.039 C 
ATOM     10  G   UNL     1      15.641 -31.365  21.218  1.00  0.00     0.000 G0
ENDBRANCH   6   7
ENDBRANCH   5   6
ENDBRANCH   3   5
ENDBRANCH   1   3
BRANCH   1  11
ATOM     11  C   UNL     1      16.352 -34.808  22.185  1.00  0.00     0.087 C 
BRANCH  11  12
ATOM     12  C   UNL     1      16.446 -33.890  20.938  1.00  0.00     0.066 C 
BRANCH  12  13
ATOM     13  C   UNL     1      15.350 -32.830  20.968  1.00  0.00     0.140 C 
ATOM     14  O   UNL     1      14.189 -33.191  20.834  1.00  0.00    -0.299 OA
BRANCH  13  15
ATOM     15  C   UNL     1      15.646 -31.364  21.202  1.00  0.00     0.106 CG0
ATOM     16  G   UNL     1      15.198 -30.893  22.578  1.00  0.00     0.000 G0
ENDBRANCH  13  15
ENDBRANCH  12  13
BRANCH  12  17
ATOM     17  C   UNL     1      16.562 -34.626  19.562  1.00  0.00    -0.006 C 
ATOM     18  C   UNL     1      17.983 -34.483  18.985  1.00  0.00     0.008 C 
ATOM     19  C   UNL     1      16.230 -36.125  19.670  1.00  0.00     0.008 C 
ENDBRANCH  12  17
ENDBRANCH  11  12
ENDBRANCH   1  11
TORSDOF 1
ENDMDL
MODEL 7
REMARK VINA RESULT:    -3.871      1.924      3.998
REMARK INTER + INTRA:          -6.147
REMARK INTER:                  -5.854
REMARK INTRA:                  -0.293
REMARK UNBOUND:                -0.239
REMARK SMILES CC1=CCC[C@H](C)C(=O)C[C@@H](C(C)C)C(=O)C1
REMARK SMILES IDX 8 1 9 2 6 3 7 4 5 5 4 6 3 7 2 8 1 9 10 11 11 12 15 13 16 14
REMARK SMILES IDX 17 15 12 17 13 18 14 19
REMARK H PARENT
REMARK Flexibility Score: 70.00
ROOT
ATOM      1  C   UNL     1      17.507 -35.028  21.300  1.00  0.00     0.136 C 
ATOM      2  O   UNL     1      17.356 -36.239  21.287  1.00  0.00    -0.299 OA
ENDROOT
BRANCH   1   3
ATOM      3  C   UNL     1      16.913 -34.205  20.171  1.00  0.00     0.053 C 
ATOM      4  C   UNL     1      17.577 -34.550  18.831  1.00  0.00     0.016 C 
BRANCH   3   5
ATOM      5  C   UNL     1      15.382 -34.377  20.097  1.00  0.00     0.015 C 
BRANCH   5   6
ATOM      6  C   UNL     1      14.660 -33.590  21.208  1.00  0.00     0.028 C 
BRANCH   6   7
ATOM      7  C   UNL     1      15.096 -32.149  21.239  1.00  0.00    -0.028 C 
ATOM      8  C   UNL     1      15.528 -31.499  22.344  1.00  0.00    -0.070 CG0
ATOM      9  C   UNL     1      15.907 -30.046  22.211  1.00  0.00     0.039 C 
ATOM     10  G   UNL     1      15.644 -32.157  23.710  1.00  0.00     0.000 G0
ENDBRANCH   6   7
ENDBRANCH   5   6
ENDBRANCH   3   5
ENDBRANCH   1   3
BRANCH   1  11
ATOM     11  C   UNL     1      18.214 -34.376  22.473  1.00  0.00     0.087 C 
BRANCH  11  12
ATOM     12  C   UNL     1      17.358 -34.203  23.755  1.00  0.00     0.066 C 
BRANCH  12  13
ATOM     13  C   UNL     1      17.028 -32.733  23.987  1.00  0.00     0.140 C 
ATOM     14  O   UNL     1      17.923 -31.989  24.361  1.00  0.00    -0.299 OA
BRANCH  13  15
ATOM     15  C   UNL     1      15.651 -32.159  23.726  1.00  0.00     0.106 CG0
ATOM     16  G   UNL     1      15.541 -31.512  22.354  1.00  0.00     0.000 G0
ENDBRANCH  13  15
ENDBRANCH  12  13
BRANCH  12  17
ATOM     17  C   UNL     1      17.897 -34.929  25.033  1.00  0.00    -0.006 C 
ATOM     18  C   UNL     1      16.779 -35.746  25.709  1.00  0.00     0.008 C 
ATOM     19  C   UNL     1      19.068 -35.876  24.717  1.00  0.00     0.008 C 
ENDBRANCH  12  17
ENDBRANCH  11  12
ENDBRANCH   1  11
TORSDOF 1
ENDMDL
MODEL 8
REMARK VINA RESULT:    -3.846      2.448      4.769
REMARK INTER + INTRA:          -6.109
REMARK INTER:                  -6.108
REMARK INTRA:                  -0.001
REMARK UNBOUND:                -0.239
REMARK SMILES CC1=CCC[C@H](C)C(=O)C[C@@H](C(C)C)C(=O)C1
REMARK SMILES IDX 8 1 9 2 6 3 7 4 5 5 4 6 3 7 2 8 1 9 10 11 11 12 15 13 16 14
REMARK SMILES IDX 17 15 12 17 13 18 14 19
REMARK H PARENT
REMARK Flexibility Score: 70.00
ROOT
ATOM      1  C   UNL     1      16.580 -30.350  22.199  1.00  0.00     0.136 C 
ATOM      2  O   UNL     1      17.048 -29.513  21.443  1.00  0.00    -0.299 OA
ENDROOT
BRANCH   1   3
ATOM      3  C   UNL     1      15.083 -30.351  22.453  1.00  0.00     0.053 C 
ATOM      4  C   UNL     1      14.562 -28.923  22.667  1.00  0.00     0.016 C 
BRANCH   3   5
ATOM      5  C   UNL     1      14.321 -31.060  21.315  1.00  0.00     0.015 C 
BRANCH   5   6
ATOM      6  C   UNL     1      13.931 -32.502  21.695  1.00  0.00     0.028 C 
BRANCH   6   7
ATOM      7  C   UNL     1      14.436 -33.497  20.683  1.00  0.00    -0.028 C 
ATOM      8  C   UNL     1      15.595 -34.187  20.792  1.00  0.00    -0.070 CG0
ATOM      9  C   UNL     1      15.968 -35.130  19.677  1.00  0.00     0.039 C 
ATOM     10  G   UNL     1      16.538 -34.053  21.978  1.00  0.00     0.000 G0
ENDBRANCH   6   7
ENDBRANCH   5   6
ENDBRANCH   3   5
ENDBRANCH   1   3
BRANCH   1  11
ATOM     11  C   UNL     1      17.489 -31.406  22.798  1.00  0.00     0.087 C 
BRANCH  11  12
ATOM     12  C   UNL     1      18.394 -32.159  21.787  1.00  0.00     0.066 C 
BRANCH  12  13
ATOM     13  C   UNL     1      17.914 -33.593  21.602  1.00  0.00     0.140 C 
ATOM     14  O   UNL     1      18.701 -34.417  21.156  1.00  0.00    -0.299 OA
BRANCH  13  15
ATOM     15  C   UNL     1      16.520 -34.040  21.991  1.00  0.00     0.106 CG0
ATOM     16  G   UNL     1      15.598 -34.181  20.790  1.00  0.00     0.000 G0
ENDBRANCH  13  15
ENDBRANCH  12  13
BRANCH  12  17
ATOM     17  C   UNL     1      19.934 -32.045  22.041  1.00  0.00    -0.006 C 
ATOM     18  C   UNL     1      20.532 -30.866  21.250  1.00  0.00     0.008 C 
ATOM     19  C   UNL     1      20.269 -31.852  23.530  1.00  0.00     0.008 C 
ENDBRANCH  12  17
ENDBRANCH  11  12
ENDBRANCH   1  11
TORSDOF 1
ENDMDL
MODEL 9
REMARK VINA RESULT:    -3.833      2.035      3.372
REMARK INTER + INTRA:          -6.088
REMARK INTER:                  -5.873
REMARK INTRA:                  -0.215
REMARK UNBOUND:                -0.239
REMARK SMILES CC1=CCC[C@H](C)C(=O)C[C@@H](C(C)C)C(=O)C1
REMARK SMILES IDX 8 1 9 2 6 3 7 4 5 5 4 6 3 7 2 8 1 9 10 11 11 12 15 13 16 14
REMARK SMILES IDX 17 15 12 17 13 18 14 19
REMARK H PARENT
REMARK Flexibility Score: 70.00
ROOT
ATOM      1  C   UNL     1      18.139 -31.005  21.445  1.00  0.00     0.136 C 
ATOM      2  O   UNL     1      18.299 -29.794  21.437  1.00  0.00    -0.299 OA
ENDROOT
BRANCH   1   3
ATOM      3  C   UNL     1      19.266 -31.888  21.949  1.00  0.00     0.053 C 
ATOM      4  C   UNL     1      20.585 -31.555  21.237  1.00  0.00     0.016 C 
BRANCH   3   5
ATOM      5  C   UNL     1      19.417 -31.786  23.480  1.00  0.00     0.015 C 
BRANCH   5   6
ATOM      6  C   UNL     1      19.030 -33.100  24.185  1.00  0.00     0.028 C 
BRANCH   6   7
ATOM      7  C   UNL     1      18.934 -34.244  23.210  1.00  0.00    -0.028 C 
ATOM      8  C   UNL     1      17.778 -34.815  22.803  1.00  0.00    -0.070 CG0
ATOM      9  C   UNL     1      17.855 -35.970  21.838  1.00  0.00     0.039 C 
ATOM     10  G   UNL     1      16.407 -34.354  23.275  1.00  0.00     0.000 G0
ENDBRANCH   6   7
ENDBRANCH   5   6
ENDBRANCH   3   5
ENDBRANCH   1   3
BRANCH   1  11
ATOM     11  C   UNL     1      16.801 -31.584  21.026  1.00  0.00     0.087 C 
BRANCH  11  12
ATOM     12  C   UNL     1      15.855 -31.985  22.188  1.00  0.00     0.066 C 
BRANCH  12  13
ATOM     13  C   UNL     1      15.684 -33.499  22.243  1.00  0.00     0.140 C 
ATOM     14  O   UNL     1      14.975 -34.034  21.403  1.00  0.00    -0.299 OA
BRANCH  13  15
ATOM     15  C   UNL     1      16.395 -34.359  23.266  1.00  0.00     0.106 CG0
ATOM     16  G   UNL     1      17.767 -34.815  22.791  1.00  0.00     0.000 G0
ENDBRANCH  13  15
ENDBRANCH  12  13
BRANCH  12  17
ATOM     17  C   UNL     1      14.501 -31.203  22.261  1.00  0.00    -0.006 C 
ATOM     18  C   UNL     1      13.706 -31.603  23.518  1.00  0.00     0.008 C 
ATOM     19  C   UNL     1      14.707 -29.678  22.281  1.00  0.00     0.008 C 
ENDBRANCH  12  17
ENDBRANCH  11  12
ENDBRANCH   1  11
TORSDOF 1
ENDMDL
