MODEL 1
REMARK VINA RESULT:    -3.876      0.000      0.000
REMARK INTER + INTRA:          -5.806
REMARK INTER:                  -5.462
REMARK INTRA:                  -0.345
REMARK UNBOUND:                -0.345
REMARK SMILES C=CCCCCCCC(=O)[O-]
REMARK SMILES IDX 6 1 7 2 8 3 9 4 10 5 11 6 5 7 4 8 3 9 2 10 1 11
REMARK H PARENT
REMARK Flexibility Score: inf
ROOT
ATOM      1  C   UNL     1      -6.760  -3.721   8.895  1.00  0.00     0.000 C 
ENDROOT
BRANCH   1   2
ATOM      2  C   UNL     1      -5.810  -4.918   8.777  1.00  0.00     0.006 C 
BRANCH   2   3
ATOM      3  C   UNL     1      -4.473  -4.630   9.463  1.00  0.00     0.053 C 
BRANCH   3   4
ATOM      4  C   UNL     1      -3.346  -4.747   8.487  1.00  0.00     0.041 C 
ATOM      5  O   UNL     1      -3.573  -4.710   7.248  1.00  0.00    -0.550 OA
ATOM      6  O   UNL     1      -2.038  -4.849   8.944  1.00  0.00    -0.550 OA
ENDBRANCH   3   4
ENDBRANCH   2   3
ENDBRANCH   1   2
BRANCH   1   7
ATOM      7  C   UNL     1      -8.128  -4.037   8.278  1.00  0.00     0.000 C 
BRANCH   7   8
ATOM      8  C   UNL     1      -9.130  -2.909   8.549  1.00  0.00     0.004 C 
BRANCH   8   9
ATOM      9  C   UNL     1     -10.039  -3.254   9.734  1.00  0.00     0.027 C 
BRANCH   9  10
ATOM     10  C   UNL     1      -9.815  -2.314  10.886  1.00  0.00    -0.035 C 
ATOM     11  C   UNL     1      -9.313  -1.089  10.707  1.00  0.00     0.004 C 
ENDBRANCH   9  10
ENDBRANCH   8   9
ENDBRANCH   7   8
ENDBRANCH   1   7
TORSDOF 7
ENDMDL
MODEL 2
REMARK VINA RESULT:    -3.826     14.180     16.319
REMARK INTER + INTRA:          -5.736
REMARK INTER:                  -5.262
REMARK INTRA:                  -0.474
REMARK UNBOUND:                -0.345
REMARK SMILES C=CCCCCCCC(=O)[O-]
REMARK SMILES IDX 6 1 7 2 8 3 9 4 10 5 11 6 5 7 4 8 3 9 2 10 1 11
REMARK H PARENT
REMARK Flexibility Score: inf
ROOT
ATOM      1  C   UNL     1       9.061   3.153   8.108  1.00  0.00     0.000 C 
ENDROOT
BRANCH   1   2
ATOM      2  C   UNL     1       8.445   2.767   6.759  1.00  0.00     0.006 C 
BRANCH   2   3
ATOM      3  C   UNL     1       8.940   3.690   5.644  1.00  0.00     0.053 C 
BRANCH   3   4
ATOM      4  C   UNL     1       7.836   4.582   5.172  1.00  0.00     0.041 C 
ATOM      5  O   UNL     1       6.647   4.168   5.160  1.00  0.00    -0.550 OA
ATOM      6  O   UNL     1       8.113   5.890   4.792  1.00  0.00    -0.550 OA
ENDBRANCH   3   4
ENDBRANCH   2   3
ENDBRANCH   1   2
BRANCH   1   7
ATOM      7  C   UNL     1       8.296   4.316   8.752  1.00  0.00     0.000 C 
BRANCH   7   8
ATOM      8  C   UNL     1       6.786   4.052   8.748  1.00  0.00     0.004 C 
BRANCH   8   9
ATOM      9  C   UNL     1       6.003   5.335   8.443  1.00  0.00     0.027 C 
BRANCH   9  10
ATOM     10  C   UNL     1       4.583   5.235   8.924  1.00  0.00    -0.035 C 
ATOM     11  C   UNL     1       3.551   5.226   8.075  1.00  0.00     0.004 C 
ENDBRANCH   9  10
ENDBRANCH   8   9
ENDBRANCH   7   8
ENDBRANCH   1   7
TORSDOF 7
ENDMDL
MODEL 3
REMARK VINA RESULT:    -3.815     13.331     16.076
REMARK INTER + INTRA:          -5.720
REMARK INTER:                  -5.369
REMARK INTRA:                  -0.352
REMARK UNBOUND:                -0.345
REMARK SMILES C=CCCCCCCC(=O)[O-]
REMARK SMILES IDX 6 1 7 2 8 3 9 4 10 5 11 6 5 7 4 8 3 9 2 10 1 11
REMARK H PARENT
REMARK Flexibility Score: inf
ROOT
ATOM      1  C   UNL     1       5.918   5.421   8.448  1.00  0.00     0.000 C 
ENDROOT
BRANCH   1   2
ATOM      2  C   UNL     1       4.541   5.124   9.053  1.00  0.00     0.006 C 
BRANCH   2   3
ATOM      3  C   UNL     1       3.434   5.296   8.010  1.00  0.00     0.053 C 
BRANCH   3   4
ATOM      4  C   UNL     1       3.392   4.117   7.091  1.00  0.00     0.041 C 
ATOM      5  O   UNL     1       3.681   4.252   5.873  1.00  0.00    -0.550 OA
ATOM      6  O   UNL     1       3.081   2.858   7.589  1.00  0.00    -0.550 OA
ENDBRANCH   3   4
ENDBRANCH   2   3
ENDBRANCH   1   2
BRANCH   1   7
ATOM      7  C   UNL     1       6.868   4.230   8.627  1.00  0.00     0.000 C 
BRANCH   7   8
ATOM      8  C   UNL     1       8.117   4.385   7.751  1.00  0.00     0.004 C 
BRANCH   8   9
ATOM      9  C   UNL     1       9.250   3.478   8.245  1.00  0.00     0.027 C 
BRANCH   9  10
ATOM     10  C   UNL     1       9.813   3.970   9.549  1.00  0.00    -0.035 C 
ATOM     11  C   UNL     1       9.918   3.172  10.616  1.00  0.00     0.004 C 
ENDBRANCH   9  10
ENDBRANCH   8   9
ENDBRANCH   7   8
ENDBRANCH   1   7
TORSDOF 7
ENDMDL
MODEL 4
REMARK VINA RESULT:    -3.796      2.573      4.718
REMARK INTER + INTRA:          -5.694
REMARK INTER:                  -5.174
REMARK INTRA:                  -0.520
REMARK UNBOUND:                -0.345
REMARK SMILES C=CCCCCCCC(=O)[O-]
REMARK SMILES IDX 6 1 7 2 8 3 9 4 10 5 11 6 5 7 4 8 3 9 2 10 1 11
REMARK H PARENT
REMARK Flexibility Score: inf
ROOT
ATOM      1  C   UNL     1      -9.106  -2.948   8.259  1.00  0.00     0.000 C 
ENDROOT
BRANCH   1   2
ATOM      2  C   UNL     1      -8.375  -2.553   6.971  1.00  0.00     0.006 C 
BRANCH   2   3
ATOM      3  C   UNL     1      -8.812  -3.434   5.799  1.00  0.00     0.053 C 
BRANCH   3   4
ATOM      4  C   UNL     1      -7.734  -4.409   5.445  1.00  0.00     0.041 C 
ATOM      5  O   UNL     1      -6.564  -4.005   5.214  1.00  0.00    -0.550 OA
ATOM      6  O   UNL     1      -8.010  -5.771   5.418  1.00  0.00    -0.550 OA
ENDBRANCH   3   4
ENDBRANCH   2   3
ENDBRANCH   1   2
BRANCH   1   7
ATOM      7  C   UNL     1      -8.186  -3.743   9.195  1.00  0.00     0.000 C 
BRANCH   7   8
ATOM      8  C   UNL     1      -6.711  -3.471   8.880  1.00  0.00     0.004 C 
BRANCH   8   9
ATOM      9  C   UNL     1      -5.945  -4.780   8.658  1.00  0.00     0.027 C 
BRANCH   9  10
ATOM     10  C   UNL     1      -4.674  -4.811   9.460  1.00  0.00    -0.035 C 
ATOM     11  C   UNL     1      -4.001  -3.696   9.758  1.00  0.00     0.004 C 
ENDBRANCH   9  10
ENDBRANCH   8   9
ENDBRANCH   7   8
ENDBRANCH   1   7
TORSDOF 7
ENDMDL
MODEL 5
REMARK VINA RESULT:    -3.790      3.165      5.791
REMARK INTER + INTRA:          -5.686
REMARK INTER:                  -5.392
REMARK INTRA:                  -0.293
REMARK UNBOUND:                -0.345
REMARK SMILES C=CCCCCCCC(=O)[O-]
REMARK SMILES IDX 6 1 7 2 8 3 9 4 10 5 11 6 5 7 4 8 3 9 2 10 1 11
REMARK H PARENT
REMARK Flexibility Score: inf
ROOT
ATOM      1  C   UNL     1      -5.573  -3.980   8.991  1.00  0.00     0.000 C 
ENDROOT
BRANCH   1   2
ATOM      2  C   UNL     1      -6.591  -5.066   8.624  1.00  0.00     0.006 C 
BRANCH   2   3
ATOM      3  C   UNL     1      -7.705  -4.498   7.742  1.00  0.00     0.053 C 
BRANCH   3   4
ATOM      4  C   UNL     1      -7.478  -4.866   6.310  1.00  0.00     0.041 C 
ATOM      5  O   UNL     1      -6.836  -4.094   5.550  1.00  0.00    -0.550 OA
ATOM      6  O   UNL     1      -7.935  -6.086   5.824  1.00  0.00    -0.550 OA
ENDBRANCH   3   4
ENDBRANCH   2   3
ENDBRANCH   1   2
BRANCH   1   7
ATOM      7  C   UNL     1      -4.261  -4.600   9.492  1.00  0.00     0.000 C 
BRANCH   7   8
ATOM      8  C   UNL     1      -3.290  -4.848   8.332  1.00  0.00     0.004 C 
BRANCH   8   9
ATOM      9  C   UNL     1      -1.836  -4.827   8.818  1.00  0.00     0.027 C 
BRANCH   9  10
ATOM     10  C   UNL     1      -1.488  -3.504   9.440  1.00  0.00    -0.035 C 
ATOM     11  C   UNL     1      -1.059  -3.409  10.701  1.00  0.00     0.004 C 
ENDBRANCH   9  10
ENDBRANCH   8   9
ENDBRANCH   7   8
ENDBRANCH   1   7
TORSDOF 7
ENDMDL
MODEL 6
REMARK VINA RESULT:    -3.759      1.420      2.089
REMARK INTER + INTRA:          -5.642
REMARK INTER:                  -5.317
REMARK INTRA:                  -0.325
REMARK UNBOUND:                -0.345
REMARK SMILES C=CCCCCCCC(=O)[O-]
REMARK SMILES IDX 6 1 7 2 8 3 9 4 10 5 11 6 5 7 4 8 3 9 2 10 1 11
REMARK H PARENT
REMARK Flexibility Score: inf
ROOT
ATOM      1  C   UNL     1      -5.371  -4.070   8.985  1.00  0.00     0.000 C 
ENDROOT
BRANCH   1   2
ATOM      2  C   UNL     1      -4.212  -4.896   9.555  1.00  0.00     0.006 C 
BRANCH   2   3
ATOM      3  C   UNL     1      -3.007  -4.875   8.613  1.00  0.00     0.053 C 
BRANCH   3   4
ATOM      4  C   UNL     1      -1.918  -4.017   9.174  1.00  0.00     0.041 C 
ATOM      5  O   UNL     1      -1.976  -3.614  10.365  1.00  0.00    -0.550 OA
ATOM      6  O   UNL     1      -0.810  -3.701   8.395  1.00  0.00    -0.550 OA
ENDBRANCH   3   4
ENDBRANCH   2   3
ENDBRANCH   1   2
BRANCH   1   7
ATOM      7  C   UNL     1      -6.516  -4.976   8.515  1.00  0.00     0.000 C 
BRANCH   7   8
ATOM      8  C   UNL     1      -7.857  -4.235   8.551  1.00  0.00     0.004 C 
BRANCH   8   9
ATOM      9  C   UNL     1      -7.724  -2.892   9.280  1.00  0.00     0.027 C 
BRANCH   9  10
ATOM     10  C   UNL     1      -9.002  -2.524   9.982  1.00  0.00    -0.035 C 
ATOM     11  C   UNL     1     -10.090  -3.296   9.915  1.00  0.00     0.004 C 
ENDBRANCH   9  10
ENDBRANCH   8   9
ENDBRANCH   7   8
ENDBRANCH   1   7
TORSDOF 7
ENDMDL
MODEL 7
REMARK VINA RESULT:    -3.744     12.986     15.676
REMARK INTER + INTRA:          -5.621
REMARK INTER:                  -5.304
REMARK INTRA:                  -0.317
REMARK UNBOUND:                -0.345
REMARK SMILES C=CCCCCCCC(=O)[O-]
REMARK SMILES IDX 6 1 7 2 8 3 9 4 10 5 11 6 5 7 4 8 3 9 2 10 1 11
REMARK H PARENT
REMARK Flexibility Score: inf
ROOT
ATOM      1  C   UNL     1       5.408   4.449   8.706  1.00  0.00     0.000 C 
ENDROOT
BRANCH   1   2
ATOM      2  C   UNL     1       4.233   5.338   9.127  1.00  0.00     0.006 C 
BRANCH   2   3
ATOM      3  C   UNL     1       3.110   5.293   8.089  1.00  0.00     0.053 C 
BRANCH   3   4
ATOM      4  C   UNL     1       1.889   4.649   8.666  1.00  0.00     0.041 C 
ATOM      5  O   UNL     1       0.984   4.211   7.908  1.00  0.00    -0.550 OA
ATOM      6  O   UNL     1       1.773   4.486  10.042  1.00  0.00    -0.550 OA
ENDBRANCH   3   4
ENDBRANCH   2   3
ENDBRANCH   1   2
BRANCH   1   7
ATOM      7  C   UNL     1       6.497   5.270   8.003  1.00  0.00     0.000 C 
BRANCH   7   8
ATOM      8  C   UNL     1       7.866   4.590   8.126  1.00  0.00     0.004 C 
BRANCH   8   9
ATOM      9  C   UNL     1       7.807   3.407   9.099  1.00  0.00     0.027 C 
BRANCH   9  10
ATOM     10  C   UNL     1       9.173   3.069   9.630  1.00  0.00    -0.035 C 
ATOM     11  C   UNL     1      10.124   3.997   9.768  1.00  0.00     0.004 C 
ENDBRANCH   9  10
ENDBRANCH   8   9
ENDBRANCH   7   8
ENDBRANCH   1   7
TORSDOF 7
ENDMDL
MODEL 8
REMARK VINA RESULT:    -3.726     12.396     14.113
REMARK INTER + INTRA:          -5.595
REMARK INTER:                  -5.127
REMARK INTRA:                  -0.467
REMARK UNBOUND:                -0.345
REMARK SMILES C=CCCCCCCC(=O)[O-]
REMARK SMILES IDX 6 1 7 2 8 3 9 4 10 5 11 6 5 7 4 8 3 9 2 10 1 11
REMARK H PARENT
REMARK Flexibility Score: inf
ROOT
ATOM      1  C   UNL     1       4.282   4.065   9.114  1.00  0.00     0.000 C 
ENDROOT
BRANCH   1   2
ATOM      2  C   UNL     1       5.761   3.992   8.718  1.00  0.00     0.006 C 
BRANCH   2   3
ATOM      3  C   UNL     1       6.286   5.365   8.294  1.00  0.00     0.053 C 
BRANCH   3   4
ATOM      4  C   UNL     1       7.459   5.218   7.378  1.00  0.00     0.041 C 
ATOM      5  O   UNL     1       8.420   4.467   7.691  1.00  0.00    -0.550 OA
ATOM      6  O   UNL     1       7.470   5.874   6.152  1.00  0.00    -0.550 OA
ENDBRANCH   3   4
ENDBRANCH   2   3
ENDBRANCH   1   2
BRANCH   1   7
ATOM      7  C   UNL     1       3.782   5.515   9.114  1.00  0.00     0.000 C 
BRANCH   7   8
ATOM      8  C   UNL     1       2.364   5.610   8.539  1.00  0.00     0.004 C 
BRANCH   8   9
ATOM      9  C   UNL     1       2.048   4.399   7.652  1.00  0.00     0.027 C 
BRANCH   9  10
ATOM     10  C   UNL     1       0.680   3.851   7.946  1.00  0.00    -0.035 C 
ATOM     11  C   UNL     1       0.505   2.755   8.690  1.00  0.00     0.004 C 
ENDBRANCH   9  10
ENDBRANCH   8   9
ENDBRANCH   7   8
ENDBRANCH   1   7
TORSDOF 7
ENDMDL
MODEL 9
REMARK VINA RESULT:    -3.722      1.525      2.614
REMARK INTER + INTRA:          -5.590
REMARK INTER:                  -5.280
REMARK INTRA:                  -0.310
REMARK UNBOUND:                -0.345
REMARK SMILES C=CCCCCCCC(=O)[O-]
REMARK SMILES IDX 6 1 7 2 8 3 9 4 10 5 11 6 5 7 4 8 3 9 2 10 1 11
REMARK H PARENT
REMARK Flexibility Score: inf
ROOT
ATOM      1  C   UNL     1      -4.604  -4.897   9.503  1.00  0.00     0.000 C 
ENDROOT
BRANCH   1   2
ATOM      2  C   UNL     1      -3.293  -4.104   9.451  1.00  0.00     0.006 C 
BRANCH   2   3
ATOM      3  C   UNL     1      -2.538  -4.375   8.148  1.00  0.00     0.053 C 
BRANCH   3   4
ATOM      4  C   UNL     1      -2.986  -3.433   7.077  1.00  0.00     0.041 C 
ATOM      5  O   UNL     1      -2.610  -2.231   7.091  1.00  0.00    -0.550 OA
ATOM      6  O   UNL     1      -3.778  -3.893   6.032  1.00  0.00    -0.550 OA
ENDBRANCH   3   4
ENDBRANCH   2   3
ENDBRANCH   1   2
BRANCH   1   7
ATOM      7  C   UNL     1      -5.797  -4.019   9.102  1.00  0.00     0.000 C 
BRANCH   7   8
ATOM      8  C   UNL     1      -6.872  -4.844   8.385  1.00  0.00     0.004 C 
BRANCH   8   9
ATOM      9  C   UNL     1      -8.150  -4.022   8.180  1.00  0.00     0.027 C 
BRANCH   9  10
ATOM     10  C   UNL     1      -8.611  -3.400   9.468  1.00  0.00    -0.035 C 
ATOM     11  C   UNL     1      -9.906  -3.327   9.792  1.00  0.00     0.004 C 
ENDBRANCH   9  10
ENDBRANCH   8   9
ENDBRANCH   7   8
ENDBRANCH   1   7
TORSDOF 7
ENDMDL
