MODEL 1
REMARK VINA RESULT:    -3.685      0.000      0.000
REMARK INTER + INTRA:          -5.864
REMARK INTER:                  -5.192
REMARK INTRA:                  -0.672
REMARK UNBOUND:                -0.672
REMARK SMILES CCCCCCCCC(=O)[O-]
REMARK SMILES IDX 6 1 7 2 8 3 9 4 10 5 11 6 5 7 4 8 3 9 2 10 1 11
REMARK H PARENT
REMARK Flexibility Score: inf
ROOT
ATOM      1  C   UNL     1      32.478   8.259  28.200  1.00  0.00     0.000 C 
ENDROOT
BRANCH   1   2
ATOM      2  C   UNL     1      31.602   9.232  27.393  1.00  0.00     0.006 C 
BRANCH   2   3
ATOM      3  C   UNL     1      30.164   9.306  27.919  1.00  0.00     0.053 C 
BRANCH   3   4
ATOM      4  C   UNL     1      29.723  10.730  28.037  1.00  0.00     0.041 C 
ATOM      5  O   UNL     1      28.714  11.136  27.403  1.00  0.00    -0.550 OA
ATOM      6  O   UNL     1      30.457  11.624  28.808  1.00  0.00    -0.550 OA
ENDBRANCH   3   4
ENDBRANCH   2   3
ENDBRANCH   1   2
BRANCH   1   7
ATOM      7  C   UNL     1      33.147   8.934  29.410  1.00  0.00     0.000 C 
BRANCH   7   8
ATOM      8  C   UNL     1      32.870   8.190  30.727  1.00  0.00    -0.000 C 
BRANCH   8   9
ATOM      9  C   UNL     1      31.375   8.140  31.074  1.00  0.00    -0.000 C 
BRANCH   9  10
ATOM     10  C   UNL     1      30.896   6.692  31.228  1.00  0.00    -0.003 C 
ATOM     11  C   UNL     1      29.918   6.313  30.120  1.00  0.00     0.004 C 
ENDBRANCH   9  10
ENDBRANCH   8   9
ENDBRANCH   7   8
ENDBRANCH   1   7
TORSDOF 7
ENDMDL
MODEL 2
REMARK VINA RESULT:    -3.613      1.884      2.817
REMARK INTER + INTRA:          -5.764
REMARK INTER:                  -5.350
REMARK INTRA:                  -0.414
REMARK UNBOUND:                -0.672
REMARK SMILES CCCCCCCCC(=O)[O-]
REMARK SMILES IDX 6 1 7 2 8 3 9 4 10 5 11 6 5 7 4 8 3 9 2 10 1 11
REMARK H PARENT
REMARK Flexibility Score: inf
ROOT
ATOM      1  C   UNL     1      29.888   9.826  27.734  1.00  0.00     0.000 C 
ENDROOT
BRANCH   1   2
ATOM      2  C   UNL     1      29.416  11.233  28.138  1.00  0.00     0.006 C 
BRANCH   2   3
ATOM      3  C   UNL     1      28.164  11.203  29.023  1.00  0.00     0.053 C 
BRANCH   3   4
ATOM      4  C   UNL     1      28.273  12.217  30.117  1.00  0.00     0.041 C 
ATOM      5  O   UNL     1      29.294  12.949  30.203  1.00  0.00    -0.550 OA
ATOM      6  O   UNL     1      27.270  12.319  31.073  1.00  0.00    -0.550 OA
ENDBRANCH   3   4
ENDBRANCH   2   3
ENDBRANCH   1   2
BRANCH   1   7
ATOM      7  C   UNL     1      31.329   9.534  28.188  1.00  0.00     0.000 C 
BRANCH   7   8
ATOM      8  C   UNL     1      31.525   8.075  28.626  1.00  0.00    -0.000 C 
BRANCH   8   9
ATOM      9  C   UNL     1      30.200   7.306  28.732  1.00  0.00    -0.000 C 
BRANCH   9  10
ATOM     10  C   UNL     1      30.123   6.524  30.048  1.00  0.00    -0.003 C 
ATOM     11  C   UNL     1      31.093   7.087  31.083  1.00  0.00     0.004 C 
ENDBRANCH   9  10
ENDBRANCH   8   9
ENDBRANCH   7   8
ENDBRANCH   1   7
TORSDOF 7
ENDMDL
MODEL 3
REMARK VINA RESULT:    -3.576      2.074      2.612
REMARK INTER + INTRA:          -5.711
REMARK INTER:                  -5.039
REMARK INTRA:                  -0.673
REMARK UNBOUND:                -0.672
REMARK SMILES CCCCCCCCC(=O)[O-]
REMARK SMILES IDX 6 1 7 2 8 3 9 4 10 5 11 6 5 7 4 8 3 9 2 10 1 11
REMARK H PARENT
REMARK Flexibility Score: inf
ROOT
ATOM      1  C   UNL     1      31.756  10.328  30.227  1.00  0.00     0.000 C 
ENDROOT
BRANCH   1   2
ATOM      2  C   UNL     1      30.523  11.084  30.747  1.00  0.00     0.006 C 
BRANCH   2   3
ATOM      3  C   UNL     1      29.206  10.389  30.379  1.00  0.00     0.053 C 
BRANCH   3   4
ATOM      4  C   UNL     1      28.224  11.381  29.841  1.00  0.00     0.041 C 
ATOM      5  O   UNL     1      28.249  11.700  28.623  1.00  0.00    -0.550 OA
ATOM      6  O   UNL     1      27.314  11.991  30.694  1.00  0.00    -0.550 OA
ENDBRANCH   3   4
ENDBRANCH   2   3
ENDBRANCH   1   2
BRANCH   1   7
ATOM      7  C   UNL     1      31.506   9.658  28.864  1.00  0.00     0.000 C 
BRANCH   7   8
ATOM      8  C   UNL     1      31.690   8.133  28.913  1.00  0.00    -0.000 C 
BRANCH   8   9
ATOM      9  C   UNL     1      30.391   7.370  28.616  1.00  0.00    -0.000 C 
BRANCH   9  10
ATOM     10  C   UNL     1      29.919   6.588  29.847  1.00  0.00    -0.003 C 
ATOM     11  C   UNL     1      30.884   6.764  31.016  1.00  0.00     0.004 C 
ENDBRANCH   9  10
ENDBRANCH   8   9
ENDBRANCH   7   8
ENDBRANCH   1   7
TORSDOF 7
ENDMDL
MODEL 4
REMARK VINA RESULT:    -3.511      1.060      2.159
REMARK INTER + INTRA:          -5.620
REMARK INTER:                  -4.897
REMARK INTRA:                  -0.723
REMARK UNBOUND:                -0.672
REMARK SMILES CCCCCCCCC(=O)[O-]
REMARK SMILES IDX 6 1 7 2 8 3 9 4 10 5 11 6 5 7 4 8 3 9 2 10 1 11
REMARK H PARENT
REMARK Flexibility Score: inf
ROOT
ATOM      1  C   UNL     1      31.646   8.079  28.600  1.00  0.00     0.000 C 
ENDROOT
BRANCH   1   2
ATOM      2  C   UNL     1      31.427   9.464  27.970  1.00  0.00     0.006 C 
BRANCH   2   3
ATOM      3  C   UNL     1      29.942   9.810  27.810  1.00  0.00     0.053 C 
BRANCH   3   4
ATOM      4  C   UNL     1      29.653  11.156  28.395  1.00  0.00     0.041 C 
ATOM      5  O   UNL     1      30.586  11.853  28.872  1.00  0.00    -0.550 OA
ATOM      6  O   UNL     1      28.345  11.620  28.461  1.00  0.00    -0.550 OA
ENDBRANCH   3   4
ENDBRANCH   2   3
ENDBRANCH   1   2
BRANCH   1   7
ATOM      7  C   UNL     1      30.325   7.341  28.877  1.00  0.00     0.000 C 
BRANCH   7   8
ATOM      8  C   UNL     1      30.165   6.952  30.355  1.00  0.00    -0.000 C 
BRANCH   8   9
ATOM      9  C   UNL     1      31.409   7.285  31.192  1.00  0.00    -0.000 C 
BRANCH   9  10
ATOM     10  C   UNL     1      31.058   8.235  32.343  1.00  0.00    -0.003 C 
ATOM     11  C   UNL     1      30.675   9.617  31.821  1.00  0.00     0.004 C 
ENDBRANCH   9  10
ENDBRANCH   8   9
ENDBRANCH   7   8
ENDBRANCH   1   7
TORSDOF 7
ENDMDL
MODEL 5
REMARK VINA RESULT:    -3.509      2.948      4.433
REMARK INTER + INTRA:          -5.618
REMARK INTER:                  -4.921
REMARK INTRA:                  -0.697
REMARK UNBOUND:                -0.672
REMARK SMILES CCCCCCCCC(=O)[O-]
REMARK SMILES IDX 6 1 7 2 8 3 9 4 10 5 11 6 5 7 4 8 3 9 2 10 1 11
REMARK H PARENT
REMARK Flexibility Score: inf
ROOT
ATOM      1  C   UNL     1      32.148   9.179  28.989  1.00  0.00     0.000 C 
ENDROOT
BRANCH   1   2
ATOM      2  C   UNL     1      31.184   8.018  28.699  1.00  0.00     0.006 C 
BRANCH   2   3
ATOM      3  C   UNL     1      30.173   7.795  29.830  1.00  0.00     0.053 C 
BRANCH   3   4
ATOM      4  C   UNL     1      30.495   6.541  30.579  1.00  0.00     0.041 C 
ATOM      5  O   UNL     1      30.171   5.420  30.107  1.00  0.00    -0.550 OA
ATOM      6  O   UNL     1      31.108   6.613  31.824  1.00  0.00    -0.550 OA
ENDBRANCH   3   4
ENDBRANCH   2   3
ENDBRANCH   1   2
BRANCH   1   7
ATOM      7  C   UNL     1      31.566  10.195  29.987  1.00  0.00     0.000 C 
BRANCH   7   8
ATOM      8  C   UNL     1      30.808  11.337  29.292  1.00  0.00    -0.000 C 
BRANCH   8   9
ATOM      9  C   UNL     1      29.331  11.406  29.708  1.00  0.00    -0.000 C 
BRANCH   9  10
ATOM     10  C   UNL     1      28.420  11.519  28.480  1.00  0.00    -0.003 C 
ATOM     11  C   UNL     1      29.053  10.857  27.260  1.00  0.00     0.004 C 
ENDBRANCH   9  10
ENDBRANCH   8   9
ENDBRANCH   7   8
ENDBRANCH   1   7
TORSDOF 7
ENDMDL
MODEL 6
REMARK VINA RESULT:    -3.461      1.656      2.721
REMARK INTER + INTRA:          -5.549
REMARK INTER:                  -4.774
REMARK INTRA:                  -0.776
REMARK UNBOUND:                -0.672
REMARK SMILES CCCCCCCCC(=O)[O-]
REMARK SMILES IDX 6 1 7 2 8 3 9 4 10 5 11 6 5 7 4 8 3 9 2 10 1 11
REMARK H PARENT
REMARK Flexibility Score: inf
ROOT
ATOM      1  C   UNL     1      31.678  11.100  31.270  1.00  0.00     0.000 C 
ENDROOT
BRANCH   1   2
ATOM      2  C   UNL     1      30.375  10.869  30.488  1.00  0.00     0.006 C 
BRANCH   2   3
ATOM      3  C   UNL     1      30.340  11.635  29.160  1.00  0.00     0.053 C 
BRANCH   3   4
ATOM      4  C   UNL     1      29.109  11.283  28.386  1.00  0.00     0.041 C 
ATOM      5  O   UNL     1      29.169  11.123  27.139  1.00  0.00    -0.550 OA
ATOM      6  O   UNL     1      27.885  11.181  29.035  1.00  0.00    -0.550 OA
ENDBRANCH   3   4
ENDBRANCH   2   3
ENDBRANCH   1   2
BRANCH   1   7
ATOM      7  C   UNL     1      32.893  10.431  30.603  1.00  0.00     0.000 C 
BRANCH   7   8
ATOM      8  C   UNL     1      32.659   8.940  30.313  1.00  0.00    -0.000 C 
BRANCH   8   9
ATOM      9  C   UNL     1      33.151   8.524  28.919  1.00  0.00    -0.000 C 
BRANCH   9  10
ATOM     10  C   UNL     1      32.015   8.592  27.893  1.00  0.00    -0.003 C 
ATOM     11  C   UNL     1      30.761   7.891  28.409  1.00  0.00     0.004 C 
ENDBRANCH   9  10
ENDBRANCH   8   9
ENDBRANCH   7   8
ENDBRANCH   1   7
TORSDOF 7
ENDMDL
MODEL 7
REMARK VINA RESULT:    -3.420      9.372     10.976
REMARK INTER + INTRA:          -5.491
REMARK INTER:                  -4.688
REMARK INTRA:                  -0.804
REMARK UNBOUND:                -0.672
REMARK SMILES CCCCCCCCC(=O)[O-]
REMARK SMILES IDX 6 1 7 2 8 3 9 4 10 5 11 6 5 7 4 8 3 9 2 10 1 11
REMARK H PARENT
REMARK Flexibility Score: inf
ROOT
ATOM      1  C   UNL     1      23.196   4.062  27.801  1.00  0.00     0.000 C 
ENDROOT
BRANCH   1   2
ATOM      2  C   UNL     1      22.761   4.741  26.492  1.00  0.00     0.006 C 
BRANCH   2   3
ATOM      3  C   UNL     1      21.515   4.093  25.877  1.00  0.00     0.053 C 
BRANCH   3   4
ATOM      4  C   UNL     1      21.715   3.861  24.413  1.00  0.00     0.041 C 
ATOM      5  O   UNL     1      22.695   4.380  23.818  1.00  0.00    -0.550 OA
ATOM      6  O   UNL     1      20.789   3.115  23.694  1.00  0.00    -0.550 OA
ENDBRANCH   3   4
ENDBRANCH   2   3
ENDBRANCH   1   2
BRANCH   1   7
ATOM      7  C   UNL     1      24.501   3.262  27.645  1.00  0.00     0.000 C 
BRANCH   7   8
ATOM      8  C   UNL     1      24.250   1.772  27.366  1.00  0.00    -0.000 C 
BRANCH   8   9
ATOM      9  C   UNL     1      22.903   1.285  27.921  1.00  0.00    -0.000 C 
BRANCH   9  10
ATOM     10  C   UNL     1      22.121   0.506  26.858  1.00  0.00    -0.003 C 
ATOM     11  C   UNL     1      22.859   0.499  25.522  1.00  0.00     0.004 C 
ENDBRANCH   9  10
ENDBRANCH   8   9
ENDBRANCH   7   8
ENDBRANCH   1   7
TORSDOF 7
ENDMDL
MODEL 8
REMARK VINA RESULT:    -3.420      1.684      3.037
REMARK INTER + INTRA:          -5.491
REMARK INTER:                  -4.800
REMARK INTRA:                  -0.691
REMARK UNBOUND:                -0.672
REMARK SMILES CCCCCCCCC(=O)[O-]
REMARK SMILES IDX 6 1 7 2 8 3 9 4 10 5 11 6 5 7 4 8 3 9 2 10 1 11
REMARK H PARENT
REMARK Flexibility Score: inf
ROOT
ATOM      1  C   UNL     1      29.807   9.095  30.256  1.00  0.00     0.000 C 
ENDROOT
BRANCH   1   2
ATOM      2  C   UNL     1      30.157  10.592  30.214  1.00  0.00     0.006 C 
BRANCH   2   3
ATOM      3  C   UNL     1      30.307  11.123  28.783  1.00  0.00     0.053 C 
BRANCH   3   4
ATOM      4  C   UNL     1      28.965  11.414  28.190  1.00  0.00     0.041 C 
ATOM      5  O   UNL     1      28.051  11.907  28.903  1.00  0.00    -0.550 OA
ATOM      6  O   UNL     1      28.706  11.094  26.863  1.00  0.00    -0.550 OA
ENDBRANCH   3   4
ENDBRANCH   2   3
ENDBRANCH   1   2
BRANCH   1   7
ATOM      7  C   UNL     1      30.477   8.301  29.120  1.00  0.00     0.000 C 
BRANCH   7   8
ATOM      8  C   UNL     1      31.880   7.802  29.498  1.00  0.00    -0.000 C 
BRANCH   8   9
ATOM      9  C   UNL     1      32.993   8.520  28.720  1.00  0.00    -0.000 C 
BRANCH   9  10
ATOM     10  C   UNL     1      34.145   8.916  29.649  1.00  0.00    -0.003 C 
ATOM     11  C   UNL     1      33.630   9.632  30.894  1.00  0.00     0.004 C 
ENDBRANCH   9  10
ENDBRANCH   8   9
ENDBRANCH   7   8
ENDBRANCH   1   7
TORSDOF 7
ENDMDL
MODEL 9
REMARK VINA RESULT:    -3.371      2.306      3.573
REMARK INTER + INTRA:          -5.422
REMARK INTER:                  -4.737
REMARK INTRA:                  -0.685
REMARK UNBOUND:                -0.672
REMARK SMILES CCCCCCCCC(=O)[O-]
REMARK SMILES IDX 6 1 7 2 8 3 9 4 10 5 11 6 5 7 4 8 3 9 2 10 1 11
REMARK H PARENT
REMARK Flexibility Score: inf
ROOT
ATOM      1  C   UNL     1      30.842  10.744  31.243  1.00  0.00     0.000 C 
ENDROOT
BRANCH   1   2
ATOM      2  C   UNL     1      30.605  11.612  29.997  1.00  0.00     0.006 C 
BRANCH   2   3
ATOM      3  C   UNL     1      29.585  12.731  30.244  1.00  0.00     0.053 C 
BRANCH   3   4
ATOM      4  C   UNL     1      28.195  12.178  30.251  1.00  0.00     0.041 C 
ATOM      5  O   UNL     1      27.413  12.443  31.201  1.00  0.00    -0.550 OA
ATOM      6  O   UNL     1      27.779  11.327  29.234  1.00  0.00    -0.550 OA
ENDBRANCH   3   4
ENDBRANCH   2   3
ENDBRANCH   1   2
BRANCH   1   7
ATOM      7  C   UNL     1      30.426   9.277  31.028  1.00  0.00     0.000 C 
BRANCH   7   8
ATOM      8  C   UNL     1      30.272   8.920  29.542  1.00  0.00    -0.000 C 
BRANCH   8   9
ATOM      9  C   UNL     1      31.254   7.828  29.091  1.00  0.00    -0.000 C 
BRANCH   9  10
ATOM     10  C   UNL     1      32.432   8.434  28.320  1.00  0.00    -0.003 C 
ATOM     11  C   UNL     1      33.626   8.678  29.238  1.00  0.00     0.004 C 
ENDBRANCH   9  10
ENDBRANCH   8   9
ENDBRANCH   7   8
ENDBRANCH   1   7
TORSDOF 7
ENDMDL
