MODEL 1
REMARK VINA RESULT:    -6.860      0.000      0.000
REMARK INTER + INTRA:          -8.842
REMARK INTER:                  -8.464
REMARK INTRA:                  -0.378
REMARK UNBOUND:                -0.378
REMARK SMILES COc1cc(-c2oc3cc(O)cc(O)c3c(=O)c2O)ccc1O
REMARK SMILES IDX 6 1 18 2 16 3 17 4 15 5 13 6 12 7 10 8 9 9 8 10 7 11 5 12
REMARK SMILES IDX 3 13 22 14 4 15 21 16 20 17 2 18 1 19 23 20 19 22 14 24
REMARK SMILES IDX 11 26
REMARK H PARENT 23 21 19 23 14 25 11 27
REMARK Flexibility Score: inf
ROOT
ATOM      1  C   UNL     1       4.782   0.985 -22.727  1.00  0.00     0.180 A 
ATOM      2  C   UNL     1       4.424   0.157 -21.650  1.00  0.00     0.208 A 
ATOM      3  C   UNL     1       4.270  -1.221 -21.871  1.00  0.00     0.238 A 
ATOM      4  O   UNL     1       3.877  -1.944 -20.920  1.00  0.00    -0.285 OA
ATOM      5  C   UNL     1       4.532  -1.762 -23.153  1.00  0.00     0.111 A 
ATOM      6  C   UNL     1       4.451  -3.150 -23.481  1.00  0.00     0.134 A 
ATOM      7  C   UNL     1       4.628  -3.557 -24.809  1.00  0.00     0.093 A 
ATOM      8  C   UNL     1       4.946  -2.636 -25.809  1.00  0.00     0.123 A 
ATOM      9  C   UNL     1       5.080  -1.287 -25.489  1.00  0.00     0.094 A 
ATOM     10  C   UNL     1       4.871  -0.845 -24.182  1.00  0.00     0.146 A 
ATOM     11  O   UNL     1       4.989   0.453 -23.926  1.00  0.00    -0.452 OA
ENDROOT
BRANCH   1  12
ATOM     12  C   UNL     1       4.950   2.448 -22.575  1.00  0.00     0.025 A 
ATOM     13  C   UNL     1       4.016   4.699 -22.770  1.00  0.00     0.161 A 
ATOM     14  C   UNL     1       5.202   5.230 -22.246  1.00  0.00     0.157 A 
ATOM     15  C   UNL     1       3.893   3.305 -22.926  1.00  0.00     0.062 A 
ATOM     16  C   UNL     1       6.251   4.377 -21.875  1.00  0.00     0.051 A 
ATOM     17  C   UNL     1       6.123   2.996 -22.032  1.00  0.00     0.016 A 
BRANCH  13  18
ATOM     18  O   UNL     1       2.985   5.586 -23.122  1.00  0.00    -0.493 OA
ATOM     19  C   UNL     1       2.560   5.837 -24.457  1.00  0.00     0.278 C 
ENDBRANCH  13  18
BRANCH  14  20
ATOM     20  O   UNL     1       5.331   6.610 -22.090  1.00  0.00    -0.504 OA
ATOM     21  H   UNL     1       5.879   7.167 -22.734  1.00  0.00     0.293 HD
ENDBRANCH  14  20
ENDBRANCH   1  12
BRANCH   2  22
ATOM     22  O   UNL     1       4.245   0.700 -20.375  1.00  0.00    -0.502 OA
ATOM     23  H   UNL     1       5.023   0.974 -19.785  1.00  0.00     0.293 HD
ENDBRANCH   2  22
BRANCH   6  24
ATOM     24  O   UNL     1       4.228  -4.165 -22.545  1.00  0.00    -0.507 OA
ATOM     25  H   UNL     1       4.902  -4.482 -21.864  1.00  0.00     0.293 HD
ENDBRANCH   6  24
BRANCH   8  26
ATOM     26  O   UNL     1       5.137  -3.052 -27.125  1.00  0.00    -0.508 OA
ATOM     27  H   UNL     1       5.250  -4.032 -27.359  1.00  0.00     0.293 HD
ENDBRANCH   8  26
TORSDOF 6
ENDMDL
MODEL 2
REMARK VINA RESULT:    -6.842      1.127      2.789
REMARK INTER + INTRA:          -8.819
REMARK INTER:                  -8.498
REMARK INTRA:                  -0.321
REMARK UNBOUND:                -0.378
REMARK SMILES COc1cc(-c2oc3cc(O)cc(O)c3c(=O)c2O)ccc1O
REMARK SMILES IDX 6 1 18 2 16 3 17 4 15 5 13 6 12 7 10 8 9 9 8 10 7 11 5 12
REMARK SMILES IDX 3 13 22 14 4 15 21 16 20 17 2 18 1 19 23 20 19 22 14 24
REMARK SMILES IDX 11 26
REMARK H PARENT 23 21 19 23 14 25 11 27
REMARK Flexibility Score: inf
ROOT
ATOM      1  C   UNL     1       4.847   1.080 -23.655  1.00  0.00     0.180 A 
ATOM      2  C   UNL     1       5.170   0.792 -24.992  1.00  0.00     0.208 A 
ATOM      3  C   UNL     1       5.119  -0.539 -25.434  1.00  0.00     0.238 A 
ATOM      4  O   UNL     1       5.481  -0.798 -26.611  1.00  0.00    -0.285 OA
ATOM      5  C   UNL     1       4.689  -1.559 -24.550  1.00  0.00     0.111 A 
ATOM      6  C   UNL     1       4.555  -2.937 -24.904  1.00  0.00     0.134 A 
ATOM      7  C   UNL     1       4.225  -3.874 -23.916  1.00  0.00     0.093 A 
ATOM      8  C   UNL     1       3.960  -3.475 -22.604  1.00  0.00     0.123 A 
ATOM      9  C   UNL     1       4.035  -2.127 -22.263  1.00  0.00     0.094 A 
ATOM     10  C   UNL     1       4.400  -1.174 -23.215  1.00  0.00     0.146 A 
ATOM     11  O   UNL     1       4.480   0.097 -22.840  1.00  0.00    -0.452 OA
ENDROOT
BRANCH   1  12
ATOM     12  C   UNL     1       4.892   2.456 -23.111  1.00  0.00     0.025 A 
ATOM     13  C   UNL     1       3.884   4.677 -22.932  1.00  0.00     0.161 A 
ATOM     14  C   UNL     1       4.903   5.062 -22.052  1.00  0.00     0.157 A 
ATOM     15  C   UNL     1       3.880   3.368 -23.454  1.00  0.00     0.062 A 
ATOM     16  C   UNL     1       5.902   4.149 -21.690  1.00  0.00     0.051 A 
ATOM     17  C   UNL     1       5.894   2.853 -22.210  1.00  0.00     0.016 A 
BRANCH  13  18
ATOM     18  O   UNL     1       2.896   5.617 -23.264  1.00  0.00    -0.493 OA
ATOM     19  C   UNL     1       2.882   6.382 -24.465  1.00  0.00     0.278 C 
ENDBRANCH  13  18
BRANCH  14  20
ATOM     20  O   UNL     1       4.914   6.356 -21.533  1.00  0.00    -0.504 OA
ATOM     21  H   UNL     1       5.736   6.740 -21.082  1.00  0.00     0.293 HD
ENDBRANCH  14  20
ENDBRANCH   1  12
BRANCH   2  22
ATOM     22  O   UNL     1       5.518   1.824 -25.868  1.00  0.00    -0.502 OA
ATOM     23  H   UNL     1       5.250   2.788 -25.707  1.00  0.00     0.293 HD
ENDBRANCH   2  22
BRANCH   6  24
ATOM     24  O   UNL     1       4.709  -3.431 -26.203  1.00  0.00    -0.507 OA
ATOM     25  H   UNL     1       5.225  -4.263 -26.447  1.00  0.00     0.293 HD
ENDBRANCH   6  24
BRANCH   8  26
ATOM     26  O   UNL     1       3.615  -4.412 -21.633  1.00  0.00    -0.508 OA
ATOM     27  H   UNL     1       3.944  -5.370 -21.680  1.00  0.00     0.293 HD
ENDBRANCH   8  26
TORSDOF 6
ENDMDL
MODEL 3
REMARK VINA RESULT:    -6.690      4.213      7.539
REMARK INTER + INTRA:          -8.633
REMARK INTER:                  -8.273
REMARK INTRA:                  -0.360
REMARK UNBOUND:                -0.378
REMARK SMILES COc1cc(-c2oc3cc(O)cc(O)c3c(=O)c2O)ccc1O
REMARK SMILES IDX 6 1 18 2 16 3 17 4 15 5 13 6 12 7 10 8 9 9 8 10 7 11 5 12
REMARK SMILES IDX 3 13 22 14 4 15 21 16 20 17 2 18 1 19 23 20 19 22 14 24
REMARK SMILES IDX 11 26
REMARK H PARENT 23 21 19 23 14 25 11 27
REMARK Flexibility Score: inf
ROOT
ATOM      1  C   UNL     1       4.479   7.797 -24.109  1.00  0.00     0.180 A 
ATOM      2  C   UNL     1       3.919   7.279 -25.289  1.00  0.00     0.208 A 
ATOM      3  C   UNL     1       3.600   5.913 -25.350  1.00  0.00     0.238 A 
ATOM      4  O   UNL     1       3.169   5.442 -26.434  1.00  0.00    -0.285 OA
ATOM      5  C   UNL     1       3.792   5.093 -24.211  1.00  0.00     0.111 A 
ATOM      6  C   UNL     1       3.463   3.705 -24.144  1.00  0.00     0.134 A 
ATOM      7  C   UNL     1       3.796   2.970 -23.000  1.00  0.00     0.093 A 
ATOM      8  C   UNL     1       4.388   3.587 -21.895  1.00  0.00     0.123 A 
ATOM      9  C   UNL     1       4.663   4.951 -21.930  1.00  0.00     0.094 A 
ATOM     10  C   UNL     1       4.379   5.703 -23.071  1.00  0.00     0.146 A 
ATOM     11  O   UNL     1       4.678   6.996 -23.068  1.00  0.00    -0.452 OA
ENDROOT
BRANCH   1  12
ATOM     12  C   UNL     1       4.854   9.223 -23.973  1.00  0.00     0.025 A 
ATOM     13  C   UNL     1       6.419  11.037 -24.458  1.00  0.00     0.161 A 
ATOM     14  C   UNL     1       5.575  11.936 -23.794  1.00  0.00     0.157 A 
ATOM     15  C   UNL     1       6.050   9.681 -24.551  1.00  0.00     0.062 A 
ATOM     16  C   UNL     1       4.370  11.487 -23.235  1.00  0.00     0.051 A 
ATOM     17  C   UNL     1       4.009  10.142 -23.329  1.00  0.00     0.016 A 
BRANCH  13  18
ATOM     18  O   UNL     1       7.613  11.527 -25.012  1.00  0.00    -0.493 OA
ATOM     19  C   UNL     1       7.781  11.883 -26.380  1.00  0.00     0.278 C 
ENDBRANCH  13  18
BRANCH  14  20
ATOM     20  O   UNL     1       5.935  13.279 -23.697  1.00  0.00    -0.504 OA
ATOM     21  H   UNL     1       6.199  13.817 -24.514  1.00  0.00     0.293 HD
ENDBRANCH  14  20
ENDBRANCH   1  12
BRANCH   2  22
ATOM     22  O   UNL     1       3.666   8.121 -26.376  1.00  0.00    -0.502 OA
ATOM     23  H   UNL     1       3.253   9.040 -26.268  1.00  0.00     0.293 HD
ENDBRANCH   2  22
BRANCH   6  24
ATOM     24  O   UNL     1       2.790   3.010 -25.155  1.00  0.00    -0.507 OA
ATOM     25  H   UNL     1       2.613   3.366 -26.082  1.00  0.00     0.293 HD
ENDBRANCH   6  24
BRANCH   8  26
ATOM     26  O   UNL     1       4.700   2.851 -20.754  1.00  0.00    -0.508 OA
ATOM     27  H   UNL     1       5.661   2.689 -20.475  1.00  0.00     0.293 HD
ENDBRANCH   8  26
TORSDOF 6
ENDMDL
MODEL 4
REMARK VINA RESULT:    -6.605      4.319     10.021
REMARK INTER + INTRA:          -8.528
REMARK INTER:                  -8.165
REMARK INTRA:                  -0.363
REMARK UNBOUND:                -0.378
REMARK SMILES COc1cc(-c2oc3cc(O)cc(O)c3c(=O)c2O)ccc1O
REMARK SMILES IDX 6 1 18 2 16 3 17 4 15 5 13 6 12 7 10 8 9 9 8 10 7 11 5 12
REMARK SMILES IDX 3 13 22 14 4 15 21 16 20 17 2 18 1 19 23 20 19 22 14 24
REMARK SMILES IDX 11 26
REMARK H PARENT 23 21 19 23 14 25 11 27
REMARK Flexibility Score: inf
ROOT
ATOM      1  C   UNL     1       4.663   7.865 -23.237  1.00  0.00     0.180 A 
ATOM      2  C   UNL     1       3.642   8.703 -23.715  1.00  0.00     0.208 A 
ATOM      3  C   UNL     1       3.927  10.057 -23.955  1.00  0.00     0.238 A 
ATOM      4  O   UNL     1       2.989  10.816 -24.312  1.00  0.00    -0.285 OA
ATOM      5  C   UNL     1       5.244  10.543 -23.768  1.00  0.00     0.111 A 
ATOM      6  C   UNL     1       5.657  11.886 -24.024  1.00  0.00     0.134 A 
ATOM      7  C   UNL     1       6.961  12.281 -23.701  1.00  0.00     0.093 A 
ATOM      8  C   UNL     1       7.886  11.365 -23.193  1.00  0.00     0.123 A 
ATOM      9  C   UNL     1       7.508  10.041 -22.991  1.00  0.00     0.094 A 
ATOM     10  C   UNL     1       6.204   9.626 -23.267  1.00  0.00     0.146 A 
ATOM     11  O   UNL     1       5.881   8.358 -23.040  1.00  0.00    -0.452 OA
ENDROOT
BRANCH   1  12
ATOM     12  C   UNL     1       4.437   6.431 -22.947  1.00  0.00     0.025 A 
ATOM     13  C   UNL     1       4.263   4.129 -23.752  1.00  0.00     0.161 A 
ATOM     14  C   UNL     1       4.073   3.689 -22.436  1.00  0.00     0.157 A 
ATOM     15  C   UNL     1       4.452   5.502 -24.001  1.00  0.00     0.062 A 
ATOM     16  C   UNL     1       4.078   4.610 -21.379  1.00  0.00     0.051 A 
ATOM     17  C   UNL     1       4.265   5.970 -21.632  1.00  0.00     0.016 A 
BRANCH  13  18
ATOM     18  O   UNL     1       4.260   3.175 -24.783  1.00  0.00    -0.493 OA
ATOM     19  C   UNL     1       5.026   3.276 -25.978  1.00  0.00     0.278 C 
ENDBRANCH  13  18
BRANCH  14  20
ATOM     20  O   UNL     1       3.884   2.331 -22.182  1.00  0.00    -0.504 OA
ATOM     21  H   UNL     1       4.325   1.619 -22.752  1.00  0.00     0.293 HD
ENDBRANCH  14  20
ENDBRANCH   1  12
BRANCH   2  22
ATOM     22  O   UNL     1       2.368   8.185 -23.966  1.00  0.00    -0.502 OA
ATOM     23  H   UNL     1       2.222   7.251 -24.331  1.00  0.00     0.293 HD
ENDBRANCH   2  22
BRANCH   6  24
ATOM     24  O   UNL     1       4.841  12.859 -24.612  1.00  0.00    -0.507 OA
ATOM     25  H   UNL     1       4.845  13.838 -24.371  1.00  0.00     0.293 HD
ENDBRANCH   6  24
BRANCH   8  26
ATOM     26  O   UNL     1       9.186  11.763 -22.891  1.00  0.00    -0.508 OA
ATOM     27  H   UNL     1       9.372  12.592 -22.339  1.00  0.00     0.293 HD
ENDBRANCH   8  26
TORSDOF 6
ENDMDL
MODEL 5
REMARK VINA RESULT:    -6.592      5.049      7.730
REMARK INTER + INTRA:          -8.511
REMARK INTER:                  -8.267
REMARK INTRA:                  -0.245
REMARK UNBOUND:                -0.378
REMARK SMILES COc1cc(-c2oc3cc(O)cc(O)c3c(=O)c2O)ccc1O
REMARK SMILES IDX 6 1 18 2 16 3 17 4 15 5 13 6 12 7 10 8 9 9 8 10 7 11 5 12
REMARK SMILES IDX 3 13 22 14 4 15 21 16 20 17 2 18 1 19 23 20 19 22 14 24
REMARK SMILES IDX 11 26
REMARK H PARENT 23 21 19 23 14 25 11 27
REMARK Flexibility Score: inf
ROOT
ATOM      1  C   UNL     1       4.127   8.068 -24.283  1.00  0.00     0.180 A 
ATOM      2  C   UNL     1       2.767   8.396 -24.150  1.00  0.00     0.208 A 
ATOM      3  C   UNL     1       1.800   7.419 -24.435  1.00  0.00     0.238 A 
ATOM      4  O   UNL     1       0.585   7.742 -24.387  1.00  0.00    -0.285 OA
ATOM      5  C   UNL     1       2.205   6.110 -24.792  1.00  0.00     0.111 A 
ATOM      6  C   UNL     1       1.311   5.028 -25.058  1.00  0.00     0.134 A 
ATOM      7  C   UNL     1       1.823   3.804 -25.507  1.00  0.00     0.093 A 
ATOM      8  C   UNL     1       3.199   3.603 -25.637  1.00  0.00     0.123 A 
ATOM      9  C   UNL     1       4.081   4.635 -25.328  1.00  0.00     0.094 A 
ATOM     10  C   UNL     1       3.600   5.879 -24.916  1.00  0.00     0.146 A 
ATOM     11  O   UNL     1       4.476   6.841 -24.652  1.00  0.00    -0.452 OA
ENDROOT
BRANCH   1  12
ATOM     12  C   UNL     1       5.205   9.048 -24.014  1.00  0.00     0.025 A 
ATOM     13  C   UNL     1       6.354  11.121 -24.614  1.00  0.00     0.161 A 
ATOM     14  C   UNL     1       7.198  10.966 -23.507  1.00  0.00     0.157 A 
ATOM     15  C   UNL     1       5.353  10.160 -24.859  1.00  0.00     0.062 A 
ATOM     16  C   UNL     1       7.040   9.868 -22.650  1.00  0.00     0.051 A 
ATOM     17  C   UNL     1       6.047   8.920 -22.897  1.00  0.00     0.016 A 
BRANCH  13  18
ATOM     18  O   UNL     1       6.538  12.238 -25.444  1.00  0.00    -0.493 OA
ATOM     19  C   UNL     1       5.862  13.481 -25.286  1.00  0.00     0.278 C 
ENDBRANCH  13  18
BRANCH  14  20
ATOM     20  O   UNL     1       8.192  11.912 -23.259  1.00  0.00    -0.504 OA
ATOM     21  H   UNL     1       9.120  11.823 -23.656  1.00  0.00     0.293 HD
ENDBRANCH  14  20
ENDBRANCH   1  12
BRANCH   2  22
ATOM     22  O   UNL     1       2.391   9.672 -23.723  1.00  0.00    -0.502 OA
ATOM     23  H   UNL     1       2.664  10.047 -22.822  1.00  0.00     0.293 HD
ENDBRANCH   2  22
BRANCH   6  24
ATOM     24  O   UNL     1      -0.074   5.092 -24.875  1.00  0.00    -0.507 OA
ATOM     25  H   UNL     1      -0.532   5.478 -24.063  1.00  0.00     0.293 HD
ENDBRANCH   6  24
BRANCH   8  26
ATOM     26  O   UNL     1       3.700   2.376 -26.068  1.00  0.00    -0.508 OA
ATOM     27  H   UNL     1       3.529   2.034 -27.006  1.00  0.00     0.293 HD
ENDBRANCH   8  26
TORSDOF 6
ENDMDL
MODEL 6
REMARK VINA RESULT:    -6.532      1.769      3.658
REMARK INTER + INTRA:          -8.437
REMARK INTER:                  -8.063
REMARK INTRA:                  -0.374
REMARK UNBOUND:                -0.378
REMARK SMILES COc1cc(-c2oc3cc(O)cc(O)c3c(=O)c2O)ccc1O
REMARK SMILES IDX 6 1 18 2 16 3 17 4 15 5 13 6 12 7 10 8 9 9 8 10 7 11 5 12
REMARK SMILES IDX 3 13 22 14 4 15 21 16 20 17 2 18 1 19 23 20 19 22 14 24
REMARK SMILES IDX 11 26
REMARK H PARENT 23 21 19 23 14 25 11 27
REMARK Flexibility Score: inf
ROOT
ATOM      1  C   UNL     1       4.078   0.050 -23.995  1.00  0.00     0.180 A 
ATOM      2  C   UNL     1       4.886  -0.669 -24.892  1.00  0.00     0.208 A 
ATOM      3  C   UNL     1       5.076  -2.045 -24.685  1.00  0.00     0.238 A 
ATOM      4  O   UNL     1       5.860  -2.666 -25.447  1.00  0.00    -0.285 OA
ATOM      5  C   UNL     1       4.411  -2.695 -23.618  1.00  0.00     0.111 A 
ATOM      6  C   UNL     1       4.494  -4.094 -23.340  1.00  0.00     0.134 A 
ATOM      7  C   UNL     1       3.878  -4.609 -22.193  1.00  0.00     0.093 A 
ATOM      8  C   UNL     1       3.126  -3.787 -21.349  1.00  0.00     0.123 A 
ATOM      9  C   UNL     1       2.994  -2.433 -21.641  1.00  0.00     0.094 A 
ATOM     10  C   UNL     1       3.629  -1.882 -22.756  1.00  0.00     0.146 A 
ATOM     11  O   UNL     1       3.493  -0.582 -22.984  1.00  0.00    -0.452 OA
ENDROOT
BRANCH   1  12
ATOM     12  C   UNL     1       3.841   1.504 -24.140  1.00  0.00     0.025 A 
ATOM     13  C   UNL     1       4.458   3.799 -23.565  1.00  0.00     0.161 A 
ATOM     14  C   UNL     1       3.467   4.277 -24.431  1.00  0.00     0.157 A 
ATOM     15  C   UNL     1       4.646   2.410 -23.428  1.00  0.00     0.062 A 
ATOM     16  C   UNL     1       2.675   3.378 -25.158  1.00  0.00     0.051 A 
ATOM     17  C   UNL     1       2.865   2.002 -25.019  1.00  0.00     0.016 A 
BRANCH  13  18
ATOM     18  O   UNL     1       5.236   4.732 -22.859  1.00  0.00    -0.493 OA
ATOM     19  C   UNL     1       6.231   4.391 -21.901  1.00  0.00     0.278 C 
ENDBRANCH  13  18
BRANCH  14  20
ATOM     20  O   UNL     1       3.275   5.651 -24.570  1.00  0.00    -0.504 OA
ATOM     21  H   UNL     1       2.766   6.039 -25.355  1.00  0.00     0.293 HD
ENDBRANCH  14  20
ENDBRANCH   1  12
BRANCH   2  22
ATOM     22  O   UNL     1       5.473  -0.023 -25.983  1.00  0.00    -0.502 OA
ATOM     23  H   UNL     1       6.396   0.392 -25.938  1.00  0.00     0.293 HD
ENDBRANCH   2  22
BRANCH   6  24
ATOM     24  O   UNL     1       5.144  -5.019 -24.164  1.00  0.00    -0.507 OA
ATOM     25  H   UNL     1       5.752  -5.755 -23.840  1.00  0.00     0.293 HD
ENDBRANCH   6  24
BRANCH   8  26
ATOM     26  O   UNL     1       2.501  -4.312 -20.220  1.00  0.00    -0.508 OA
ATOM     27  H   UNL     1       1.769  -5.008 -20.295  1.00  0.00     0.293 HD
ENDBRANCH   8  26
TORSDOF 6
ENDMDL
MODEL 7
REMARK VINA RESULT:    -6.496      2.843      8.799
REMARK INTER + INTRA:          -8.393
REMARK INTER:                  -8.061
REMARK INTRA:                  -0.332
REMARK UNBOUND:                -0.378
REMARK SMILES COc1cc(-c2oc3cc(O)cc(O)c3c(=O)c2O)ccc1O
REMARK SMILES IDX 6 1 18 2 16 3 17 4 15 5 13 6 12 7 10 8 9 9 8 10 7 11 5 12
REMARK SMILES IDX 3 13 22 14 4 15 21 16 20 17 2 18 1 19 23 20 19 22 14 24
REMARK SMILES IDX 11 26
REMARK H PARENT 23 21 19 23 14 25 11 27
REMARK Flexibility Score: inf
ROOT
ATOM      1  C   UNL     1       3.627   5.815 -23.380  1.00  0.00     0.180 A 
ATOM      2  C   UNL     1       2.449   5.964 -24.132  1.00  0.00     0.208 A 
ATOM      3  C   UNL     1       2.074   7.246 -24.566  1.00  0.00     0.238 A 
ATOM      4  O   UNL     1       0.982   7.381 -25.173  1.00  0.00    -0.285 OA
ATOM      5  C   UNL     1       2.912   8.354 -24.291  1.00  0.00     0.111 A 
ATOM      6  C   UNL     1       2.655   9.692 -24.721  1.00  0.00     0.134 A 
ATOM      7  C   UNL     1       3.499  10.727 -24.299  1.00  0.00     0.093 A 
ATOM      8  C   UNL     1       4.626  10.464 -23.518  1.00  0.00     0.123 A 
ATOM      9  C   UNL     1       4.915   9.156 -23.140  1.00  0.00     0.094 A 
ATOM     10  C   UNL     1       4.072   8.108 -23.511  1.00  0.00     0.146 A 
ATOM     11  O   UNL     1       4.375   6.879 -23.111  1.00  0.00    -0.452 OA
ENDROOT
BRANCH   1  12
ATOM     12  C   UNL     1       4.080   4.498 -22.877  1.00  0.00     0.025 A 
ATOM     13  C   UNL     1       5.131   2.333 -23.309  1.00  0.00     0.161 A 
ATOM     14  C   UNL     1       5.011   2.010 -21.951  1.00  0.00     0.157 A 
ATOM     15  C   UNL     1       4.669   3.583 -23.765  1.00  0.00     0.062 A 
ATOM     16  C   UNL     1       4.443   2.929 -21.057  1.00  0.00     0.051 A 
ATOM     17  C   UNL     1       3.987   4.166 -21.515  1.00  0.00     0.016 A 
BRANCH  13  18
ATOM     18  O   UNL     1       5.713   1.390 -24.171  1.00  0.00    -0.493 OA
ATOM     19  C   UNL     1       4.979   0.512 -25.019  1.00  0.00     0.278 C 
ENDBRANCH  13  18
BRANCH  14  20
ATOM     20  O   UNL     1       5.465   0.774 -21.493  1.00  0.00    -0.504 OA
ATOM     21  H   UNL     1       5.848   0.083 -22.126  1.00  0.00     0.293 HD
ENDBRANCH  14  20
ENDBRANCH   1  12
BRANCH   2  22
ATOM     22  O   UNL     1       1.676   4.846 -24.457  1.00  0.00    -0.502 OA
ATOM     23  H   UNL     1       0.695   4.914 -24.702  1.00  0.00     0.293 HD
ENDBRANCH   2  22
BRANCH   6  24
ATOM     24  O   UNL     1       1.608  10.053 -25.575  1.00  0.00    -0.507 OA
ATOM     25  H   UNL     1       1.723  10.475 -26.484  1.00  0.00     0.293 HD
ENDBRANCH   6  24
BRANCH   8  26
ATOM     26  O   UNL     1       5.470  11.498 -23.118  1.00  0.00    -0.508 OA
ATOM     27  H   UNL     1       5.170  12.466 -23.139  1.00  0.00     0.293 HD
ENDBRANCH   8  26
TORSDOF 6
ENDMDL
MODEL 8
REMARK VINA RESULT:    -6.477      2.722      8.710
REMARK INTER + INTRA:          -8.369
REMARK INTER:                  -7.994
REMARK INTRA:                  -0.375
REMARK UNBOUND:                -0.378
REMARK SMILES COc1cc(-c2oc3cc(O)cc(O)c3c(=O)c2O)ccc1O
REMARK SMILES IDX 6 1 18 2 16 3 17 4 15 5 13 6 12 7 10 8 9 9 8 10 7 11 5 12
REMARK SMILES IDX 3 13 22 14 4 15 21 16 20 17 2 18 1 19 23 20 19 22 14 24
REMARK SMILES IDX 11 26
REMARK H PARENT 23 21 19 23 14 25 11 27
REMARK Flexibility Score: inf
ROOT
ATOM      1  C   UNL     1       4.297   6.058 -22.981  1.00  0.00     0.180 A 
ATOM      2  C   UNL     1       5.271   6.981 -22.565  1.00  0.00     0.208 A 
ATOM      3  C   UNL     1       5.132   8.330 -22.930  1.00  0.00     0.238 A 
ATOM      4  O   UNL     1       6.046   9.136 -22.618  1.00  0.00    -0.285 OA
ATOM      5  C   UNL     1       3.992   8.749 -23.657  1.00  0.00     0.111 A 
ATOM      6  C   UNL     1       3.725  10.098 -24.042  1.00  0.00     0.134 A 
ATOM      7  C   UNL     1       2.617  10.379 -24.853  1.00  0.00     0.093 A 
ATOM      8  C   UNL     1       1.732   9.369 -25.238  1.00  0.00     0.123 A 
ATOM      9  C   UNL     1       1.955   8.059 -24.823  1.00  0.00     0.094 A 
ATOM     10  C   UNL     1       3.071   7.741 -24.047  1.00  0.00     0.146 A 
ATOM     11  O   UNL     1       3.255   6.475 -23.691  1.00  0.00    -0.452 OA
ENDROOT
BRANCH   1  12
ATOM     12  C   UNL     1       4.382   4.618 -22.648  1.00  0.00     0.025 A 
ATOM     13  C   UNL     1       5.022   2.348 -23.293  1.00  0.00     0.161 A 
ATOM     14  C   UNL     1       4.618   1.883 -22.034  1.00  0.00     0.157 A 
ATOM     15  C   UNL     1       4.907   3.720 -23.592  1.00  0.00     0.062 A 
ATOM     16  C   UNL     1       4.113   2.779 -21.082  1.00  0.00     0.051 A 
ATOM     17  C   UNL     1       4.001   4.137 -21.384  1.00  0.00     0.016 A 
BRANCH  13  18
ATOM     18  O   UNL     1       5.530   1.420 -24.216  1.00  0.00    -0.493 OA
ATOM     19  C   UNL     1       4.791   0.880 -25.306  1.00  0.00     0.278 C 
ENDBRANCH  13  18
BRANCH  14  20
ATOM     20  O   UNL     1       4.727   0.526 -21.732  1.00  0.00    -0.504 OA
ATOM     21  H   UNL     1       5.572   0.004 -21.934  1.00  0.00     0.293 HD
ENDBRANCH  14  20
ENDBRANCH   1  12
BRANCH   2  22
ATOM     22  O   UNL     1       6.350   6.560 -21.783  1.00  0.00    -0.502 OA
ATOM     23  H   UNL     1       6.885   5.726 -21.997  1.00  0.00     0.293 HD
ENDBRANCH   2  22
BRANCH   6  24
ATOM     24  O   UNL     1       4.493  11.195 -23.639  1.00  0.00    -0.507 OA
ATOM     25  H   UNL     1       4.522  11.566 -22.701  1.00  0.00     0.293 HD
ENDBRANCH   6  24
BRANCH   8  26
ATOM     26  O   UNL     1       0.624   9.660 -26.030  1.00  0.00    -0.508 OA
ATOM     27  H   UNL     1       0.206   8.962 -26.634  1.00  0.00     0.293 HD
ENDBRANCH   8  26
TORSDOF 6
ENDMDL
MODEL 9
REMARK VINA RESULT:    -6.469      4.489      7.197
REMARK INTER + INTRA:          -8.359
REMARK INTER:                  -7.997
REMARK INTRA:                  -0.362
REMARK UNBOUND:                -0.378
REMARK SMILES COc1cc(-c2oc3cc(O)cc(O)c3c(=O)c2O)ccc1O
REMARK SMILES IDX 6 1 18 2 16 3 17 4 15 5 13 6 12 7 10 8 9 9 8 10 7 11 5 12
REMARK SMILES IDX 3 13 22 14 4 15 21 16 20 17 2 18 1 19 23 20 19 22 14 24
REMARK SMILES IDX 11 26
REMARK H PARENT 23 21 19 23 14 25 11 27
REMARK Flexibility Score: inf
ROOT
ATOM      1  C   UNL     1       4.467   7.742 -23.531  1.00  0.00     0.180 A 
ATOM      2  C   UNL     1       5.127   6.854 -22.664  1.00  0.00     0.208 A 
ATOM      3  C   UNL     1       4.712   5.514 -22.615  1.00  0.00     0.238 A 
ATOM      4  O   UNL     1       5.258   4.744 -21.783  1.00  0.00    -0.285 OA
ATOM      5  C   UNL     1       3.681   5.064 -23.474  1.00  0.00     0.111 A 
ATOM      6  C   UNL     1       3.210   3.717 -23.542  1.00  0.00     0.134 A 
ATOM      7  C   UNL     1       2.110   3.410 -24.353  1.00  0.00     0.093 A 
ATOM      8  C   UNL     1       1.507   4.387 -25.149  1.00  0.00     0.123 A 
ATOM      9  C   UNL     1       1.993   5.691 -25.130  1.00  0.00     0.094 A 
ATOM     10  C   UNL     1       3.062   6.037 -24.302  1.00  0.00     0.146 A 
ATOM     11  O   UNL     1       3.480   7.297 -24.301  1.00  0.00    -0.452 OA
ENDROOT
BRANCH   1  12
ATOM     12  C   UNL     1       4.838   9.171 -23.628  1.00  0.00     0.025 A 
ATOM     13  C   UNL     1       6.301  10.903 -24.544  1.00  0.00     0.161 A 
ATOM     14  C   UNL     1       5.540  11.883 -23.892  1.00  0.00     0.157 A 
ATOM     15  C   UNL     1       5.940   9.548 -24.413  1.00  0.00     0.062 A 
ATOM     16  C   UNL     1       4.427  11.513 -23.125  1.00  0.00     0.051 A 
ATOM     17  C   UNL     1       4.074  10.168 -23.000  1.00  0.00     0.016 A 
BRANCH  13  18
ATOM     18  O   UNL     1       7.405  11.313 -25.309  1.00  0.00    -0.493 OA
ATOM     19  C   UNL     1       7.379  11.511 -26.718  1.00  0.00     0.278 C 
ENDBRANCH  13  18
BRANCH  14  20
ATOM     20  O   UNL     1       5.893  13.226 -24.016  1.00  0.00    -0.504 OA
ATOM     21  H   UNL     1       5.262  13.904 -24.427  1.00  0.00     0.293 HD
ENDBRANCH  14  20
ENDBRANCH   1  12
BRANCH   2  22
ATOM     22  O   UNL     1       6.194   7.302 -21.880  1.00  0.00    -0.502 OA
ATOM     23  H   UNL     1       6.887   7.956 -22.225  1.00  0.00     0.293 HD
ENDBRANCH   2  22
BRANCH   6  24
ATOM     24  O   UNL     1       3.796   2.647 -22.858  1.00  0.00    -0.507 OA
ATOM     25  H   UNL     1       3.296   1.851 -22.493  1.00  0.00     0.293 HD
ENDBRANCH   6  24
BRANCH   8  26
ATOM     26  O   UNL     1       0.425   4.068 -25.966  1.00  0.00    -0.508 OA
ATOM     27  H   UNL     1       0.557   3.752 -26.920  1.00  0.00     0.293 HD
ENDBRANCH   8  26
TORSDOF 6
ENDMDL
