MODEL 1
REMARK VINA RESULT:    -4.792      0.000      0.000
REMARK INTER + INTRA:          -5.315
REMARK INTER:                  -5.073
REMARK INTRA:                  -0.243
REMARK UNBOUND:                -0.243
REMARK SMILES O=c1cc(-c2ccccc2)oc2ccccc12
REMARK SMILES IDX 4 1 3 2 2 3 1 4 17 5 16 6 15 7 14 8 13 9 12 10 11 11 5 12
REMARK SMILES IDX 8 13 7 14 9 15 6 16 10 17
REMARK H PARENT
REMARK Flexibility Score: inf
ROOT
ATOM      1  C   UNL     1     110.588 108.372 113.701  1.00  0.00     0.138 A 
ATOM      2  C   UNL     1     110.040 107.784 114.860  1.00  0.00     0.100 A 
ATOM      3  C   UNL     1     108.654 107.742 115.020  1.00  0.00     0.193 A 
ATOM      4  O   UNL     1     108.163 107.216 116.057  1.00  0.00    -0.289 OA
ATOM      5  C   UNL     1     107.826 108.283 114.027  1.00  0.00     0.065 A 
ATOM      6  C   UNL     1     106.423 108.273 114.126  1.00  0.00     0.016 A 
ATOM      7  C   UNL     1     105.645 108.827 113.105  1.00  0.00     0.001 A 
ATOM      8  C   UNL     1     106.257 109.394 111.983  1.00  0.00     0.004 A 
ATOM      9  C   UNL     1     107.651 109.408 111.876  1.00  0.00     0.048 A 
ATOM     10  C   UNL     1     108.439 108.857 112.892  1.00  0.00     0.138 A 
ATOM     11  O   UNL     1     109.763 108.876 112.781  1.00  0.00    -0.456 OA
ENDROOT
BRANCH   1  12
ATOM     12  C   UNL     1     112.060 108.460 113.451  1.00  0.00     0.017 A 
ATOM     13  C   UNL     1     114.850 108.657 113.069  1.00  0.00     0.000 A 
ATOM     14  C   UNL     1     114.286 109.017 114.292  1.00  0.00     0.001 A 
ATOM     15  C   UNL     1     114.035 108.199 112.035  1.00  0.00     0.001 A 
ATOM     16  C   UNL     1     112.904 108.920 114.484  1.00  0.00     0.012 A 
ATOM     17  C   UNL     1     112.652 108.099 112.218  1.00  0.00     0.012 A 
ENDBRANCH   1  12
TORSDOF 1
ENDMDL
MODEL 2
REMARK VINA RESULT:    -4.699      1.815      2.543
REMARK INTER + INTRA:          -5.217
REMARK INTER:                  -4.973
REMARK INTRA:                  -0.244
REMARK UNBOUND:                -0.243
REMARK SMILES O=c1cc(-c2ccccc2)oc2ccccc12
REMARK SMILES IDX 4 1 3 2 2 3 1 4 17 5 16 6 15 7 14 8 13 9 12 10 11 11 5 12
REMARK SMILES IDX 8 13 7 14 9 15 6 16 10 17
REMARK H PARENT
REMARK Flexibility Score: inf
ROOT
ATOM      1  C   UNL     1     111.991 108.417 113.331  1.00  0.00     0.138 A 
ATOM      2  C   UNL     1     112.034 109.209 114.498  1.00  0.00     0.100 A 
ATOM      3  C   UNL     1     110.892 109.905 114.898  1.00  0.00     0.193 A 
ATOM      4  O   UNL     1     110.929 110.614 115.942  1.00  0.00    -0.289 OA
ATOM      5  C   UNL     1     109.719 109.806 114.137  1.00  0.00     0.065 A 
ATOM      6  C   UNL     1     108.534 110.481 114.485  1.00  0.00     0.016 A 
ATOM      7  C   UNL     1     107.393 110.346 113.689  1.00  0.00     0.001 A 
ATOM      8  C   UNL     1     107.424 109.543 112.546  1.00  0.00     0.004 A 
ATOM      9  C   UNL     1     108.596 108.869 112.192  1.00  0.00     0.048 A 
ATOM     10  C   UNL     1     109.744 108.997 112.981  1.00  0.00     0.138 A 
ATOM     11  O   UNL     1     110.854 108.352 112.637  1.00  0.00    -0.456 OA
ENDROOT
BRANCH   1  12
ATOM     12  C   UNL     1     113.168 107.641 112.831  1.00  0.00     0.017 A 
ATOM     13  C   UNL     1     115.330 106.099 111.875  1.00  0.00     0.000 A 
ATOM     14  C   UNL     1     114.060 105.533 111.974  1.00  0.00     0.001 A 
ATOM     15  C   UNL     1     115.532 107.427 112.248  1.00  0.00     0.001 A 
ATOM     16  C   UNL     1     112.987 106.295 112.447  1.00  0.00     0.012 A 
ATOM     17  C   UNL     1     114.464 108.196 112.722  1.00  0.00     0.012 A 
ENDBRANCH   1  12
TORSDOF 1
ENDMDL
MODEL 3
REMARK VINA RESULT:    -4.695      1.208      2.455
REMARK INTER + INTRA:          -5.212
REMARK INTER:                  -4.959
REMARK INTRA:                  -0.253
REMARK UNBOUND:                -0.243
REMARK SMILES O=c1cc(-c2ccccc2)oc2ccccc12
REMARK SMILES IDX 4 1 3 2 2 3 1 4 17 5 16 6 15 7 14 8 13 9 12 10 11 11 5 12
REMARK SMILES IDX 8 13 7 14 9 15 6 16 10 17
REMARK H PARENT
REMARK Flexibility Score: inf
ROOT
ATOM      1  C   UNL     1     110.687 108.368 113.597  1.00  0.00     0.138 A 
ATOM      2  C   UNL     1     109.768 108.618 112.556  1.00  0.00     0.100 A 
ATOM      3  C   UNL     1     108.399 108.520 112.810  1.00  0.00     0.193 A 
ATOM      4  O   UNL     1     107.576 108.744 111.879  1.00  0.00    -0.289 OA
ATOM      5  C   UNL     1     107.956 108.176 114.094  1.00  0.00     0.065 A 
ATOM      6  C   UNL     1     106.591 108.060 114.416  1.00  0.00     0.016 A 
ATOM      7  C   UNL     1     106.206 107.713 115.714  1.00  0.00     0.001 A 
ATOM      8  C   UNL     1     107.173 107.479 116.696  1.00  0.00     0.004 A 
ATOM      9  C   UNL     1     108.531 107.592 116.385  1.00  0.00     0.048 A 
ATOM     10  C   UNL     1     108.928 107.938 115.089  1.00  0.00     0.138 A 
ATOM     11  O   UNL     1     110.222 108.043 114.804  1.00  0.00    -0.456 OA
ENDROOT
BRANCH   1  12
ATOM     12  C   UNL     1     112.169 108.450 113.411  1.00  0.00     0.017 A 
ATOM     13  C   UNL     1     114.974 108.638 113.153  1.00  0.00     0.000 A 
ATOM     14  C   UNL     1     114.358 108.997 114.350  1.00  0.00     0.001 A 
ATOM     15  C   UNL     1     114.203 108.185 112.082  1.00  0.00     0.001 A 
ATOM     16  C   UNL     1     112.969 108.906 114.481  1.00  0.00     0.012 A 
ATOM     17  C   UNL     1     112.813 108.090 112.205  1.00  0.00     0.012 A 
ENDBRANCH   1  12
TORSDOF 1
ENDMDL
MODEL 4
REMARK VINA RESULT:    -4.628      7.577     10.055
REMARK INTER + INTRA:          -5.141
REMARK INTER:                  -4.897
REMARK INTRA:                  -0.244
REMARK UNBOUND:                -0.243
REMARK SMILES O=c1cc(-c2ccccc2)oc2ccccc12
REMARK SMILES IDX 4 1 3 2 2 3 1 4 17 5 16 6 15 7 14 8 13 9 12 10 11 11 5 12
REMARK SMILES IDX 8 13 7 14 9 15 6 16 10 17
REMARK H PARENT
REMARK Flexibility Score: inf
ROOT
ATOM      1  C   UNL     1     101.541 110.455 116.728  1.00  0.00     0.138 A 
ATOM      2  C   UNL     1     100.744 111.544 116.317  1.00  0.00     0.100 A 
ATOM      3  C   UNL     1     100.799 111.973 114.990  1.00  0.00     0.193 A 
ATOM      4  O   UNL     1     100.087 112.947 114.622  1.00  0.00    -0.289 OA
ATOM      5  C   UNL     1     101.645 111.317 114.085  1.00  0.00     0.065 A 
ATOM      6  C   UNL     1     101.747 111.699 112.735  1.00  0.00     0.016 A 
ATOM      7  C   UNL     1     102.607 111.009 111.876  1.00  0.00     0.001 A 
ATOM      8  C   UNL     1     103.368 109.938 112.353  1.00  0.00     0.004 A 
ATOM      9  C   UNL     1     103.272 109.551 113.693  1.00  0.00     0.048 A 
ATOM     10  C   UNL     1     102.415 110.235 114.561  1.00  0.00     0.138 A 
ATOM     11  O   UNL     1     102.332 109.859 115.834  1.00  0.00    -0.456 OA
ENDROOT
BRANCH   1  12
ATOM     12  C   UNL     1     101.544 109.931 118.129  1.00  0.00     0.017 A 
ATOM     13  C   UNL     1     101.645 108.942 120.771  1.00  0.00     0.000 A 
ATOM     14  C   UNL     1     102.826 109.186 120.072  1.00  0.00     0.001 A 
ATOM     15  C   UNL     1     100.414 109.188 120.165  1.00  0.00     0.001 A 
ATOM     16  C   UNL     1     102.779 109.675 118.763  1.00  0.00     0.012 A 
ATOM     17  C   UNL     1     100.357 109.678 118.856  1.00  0.00     0.012 A 
ENDBRANCH   1  12
TORSDOF 1
ENDMDL
MODEL 5
REMARK VINA RESULT:    -4.617      5.606      9.838
REMARK INTER + INTRA:          -5.130
REMARK INTER:                  -4.876
REMARK INTRA:                  -0.253
REMARK UNBOUND:                -0.243
REMARK SMILES O=c1cc(-c2ccccc2)oc2ccccc12
REMARK SMILES IDX 4 1 3 2 2 3 1 4 17 5 16 6 15 7 14 8 13 9 12 10 11 11 5 12
REMARK SMILES IDX 8 13 7 14 9 15 6 16 10 17
REMARK H PARENT
REMARK Flexibility Score: inf
ROOT
ATOM      1  C   UNL     1     101.900 110.696 115.322  1.00  0.00     0.138 A 
ATOM      2  C   UNL     1     101.476 111.285 114.112  1.00  0.00     0.100 A 
ATOM      3  C   UNL     1     102.241 111.112 112.958  1.00  0.00     0.193 A 
ATOM      4  O   UNL     1     101.862 111.639 111.875  1.00  0.00    -0.289 OA
ATOM      5  C   UNL     1     103.420 110.356 113.016  1.00  0.00     0.065 A 
ATOM      6  C   UNL     1     104.237 110.144 111.890  1.00  0.00     0.016 A 
ATOM      7  C   UNL     1     105.402 109.381 112.006  1.00  0.00     0.001 A 
ATOM      8  C   UNL     1     105.761 108.826 113.238  1.00  0.00     0.004 A 
ATOM      9  C   UNL     1     104.956 109.032 114.362  1.00  0.00     0.048 A 
ATOM     10  C   UNL     1     103.787 109.795 114.258  1.00  0.00     0.138 A 
ATOM     11  O   UNL     1     103.028 109.985 115.332  1.00  0.00    -0.456 OA
ENDROOT
BRANCH   1  12
ATOM     12  C   UNL     1     101.141 110.832 116.603  1.00  0.00     0.017 A 
ATOM     13  C   UNL     1      99.736 110.997 119.046  1.00  0.00     0.000 A 
ATOM     14  C   UNL     1     100.435 109.836 118.721  1.00  0.00     0.001 A 
ATOM     15  C   UNL     1      99.732 112.077 118.164  1.00  0.00     0.001 A 
ATOM     16  C   UNL     1     101.132 109.751 117.511  1.00  0.00     0.012 A 
ATOM     17  C   UNL     1     100.426 112.001 116.952  1.00  0.00     0.012 A 
ENDBRANCH   1  12
TORSDOF 1
ENDMDL
MODEL 6
REMARK VINA RESULT:    -4.603      3.027      7.619
REMARK INTER + INTRA:          -5.115
REMARK INTER:                  -4.890
REMARK INTRA:                  -0.225
REMARK UNBOUND:                -0.243
REMARK SMILES O=c1cc(-c2ccccc2)oc2ccccc12
REMARK SMILES IDX 4 1 3 2 2 3 1 4 17 5 16 6 15 7 14 8 13 9 12 10 11 11 5 12
REMARK SMILES IDX 8 13 7 14 9 15 6 16 10 17
REMARK H PARENT
REMARK Flexibility Score: inf
ROOT
ATOM      1  C   UNL     1     104.993 109.401 114.021  1.00  0.00     0.138 A 
ATOM      2  C   UNL     1     105.649 110.270 113.125  1.00  0.00     0.100 A 
ATOM      3  C   UNL     1     106.933 109.955 112.677  1.00  0.00     0.193 A 
ATOM      4  O   UNL     1     107.521 110.733 111.875  1.00  0.00    -0.289 OA
ATOM      5  C   UNL     1     107.553 108.780 113.124  1.00  0.00     0.065 A 
ATOM      6  C   UNL     1     108.845 108.404 112.712  1.00  0.00     0.016 A 
ATOM      7  C   UNL     1     109.414 107.221 113.190  1.00  0.00     0.001 A 
ATOM      8  C   UNL     1     108.705 106.406 114.078  1.00  0.00     0.004 A 
ATOM      9  C   UNL     1     107.421 106.772 114.492  1.00  0.00     0.048 A 
ATOM     10  C   UNL     1     106.841 107.955 114.021  1.00  0.00     0.138 A 
ATOM     11  O   UNL     1     105.620 108.293 114.421  1.00  0.00    -0.456 OA
ENDROOT
BRANCH   1  12
ATOM     12  C   UNL     1     103.619 109.663 114.550  1.00  0.00     0.017 A 
ATOM     13  C   UNL     1     101.064 110.183 115.633  1.00  0.00     0.000 A 
ATOM     14  C   UNL     1     102.204 110.377 116.411  1.00  0.00     0.001 A 
ATOM     15  C   UNL     1     101.187 109.733 114.319  1.00  0.00     0.001 A 
ATOM     16  C   UNL     1     103.471 110.120 115.877  1.00  0.00     0.012 A 
ATOM     17  C   UNL     1     102.450 109.473 113.777  1.00  0.00     0.012 A 
ENDBRANCH   1  12
TORSDOF 1
ENDMDL
MODEL 7
REMARK VINA RESULT:    -4.556      9.293     10.784
REMARK INTER + INTRA:          -5.065
REMARK INTER:                  -4.837
REMARK INTRA:                  -0.228
REMARK UNBOUND:                -0.243
REMARK SMILES O=c1cc(-c2ccccc2)oc2ccccc12
REMARK SMILES IDX 4 1 3 2 2 3 1 4 17 5 16 6 15 7 14 8 13 9 12 10 11 11 5 12
REMARK SMILES IDX 8 13 7 14 9 15 6 16 10 17
REMARK H PARENT
REMARK Flexibility Score: inf
ROOT
ATOM      1  C   UNL     1     101.115 110.408 117.122  1.00  0.00     0.138 A 
ATOM      2  C   UNL     1     101.606 109.788 115.955  1.00  0.00     0.100 A 
ATOM      3  C   UNL     1     101.408 110.399 114.716  1.00  0.00     0.193 A 
ATOM      4  O   UNL     1     101.848 109.844 113.671  1.00  0.00    -0.289 OA
ATOM      5  C   UNL     1     100.725 111.620 114.649  1.00  0.00     0.065 A 
ATOM      6  C   UNL     1     100.492 112.289 113.433  1.00  0.00     0.016 A 
ATOM      7  C   UNL     1      99.804 113.506 113.424  1.00  0.00     0.001 A 
ATOM      8  C   UNL     1      99.345 114.063 114.621  1.00  0.00     0.004 A 
ATOM      9  C   UNL     1      99.572 113.406 115.834  1.00  0.00     0.048 A 
ATOM     10  C   UNL     1     100.259 112.188 115.854  1.00  0.00     0.138 A 
ATOM     11  O   UNL     1     100.470 111.571 117.012  1.00  0.00    -0.456 OA
ENDROOT
BRANCH   1  12
ATOM     12  C   UNL     1     101.283 109.823 118.488  1.00  0.00     0.017 A 
ATOM     13  C   UNL     1     101.695 108.735 121.061  1.00  0.00     0.000 A 
ATOM     14  C   UNL     1     102.774 109.237 120.334  1.00  0.00     0.001 A 
ATOM     15  C   UNL     1     100.412 108.772 120.516  1.00  0.00     0.001 A 
ATOM     16  C   UNL     1     102.573 109.776 119.060  1.00  0.00     0.012 A 
ATOM     17  C   UNL     1     100.201 109.310 119.242  1.00  0.00     0.012 A 
ENDBRANCH   1  12
TORSDOF 1
ENDMDL
MODEL 8
REMARK VINA RESULT:    -4.528      3.858      6.403
REMARK INTER + INTRA:          -5.036
REMARK INTER:                  -4.785
REMARK INTRA:                  -0.251
REMARK UNBOUND:                -0.243
REMARK SMILES O=c1cc(-c2ccccc2)oc2ccccc12
REMARK SMILES IDX 4 1 3 2 2 3 1 4 17 5 16 6 15 7 14 8 13 9 12 10 11 11 5 12
REMARK SMILES IDX 8 13 7 14 9 15 6 16 10 17
REMARK H PARENT
REMARK Flexibility Score: inf
ROOT
ATOM      1  C   UNL     1     104.850 109.306 113.813  1.00  0.00     0.138 A 
ATOM      2  C   UNL     1     104.182 109.849 112.695  1.00  0.00     0.100 A 
ATOM      3  C   UNL     1     102.970 110.517 112.875  1.00  0.00     0.193 A 
ATOM      4  O   UNL     1     102.373 111.002 111.875  1.00  0.00    -0.289 OA
ATOM      5  C   UNL     1     102.434 110.641 114.164  1.00  0.00     0.065 A 
ATOM      6  C   UNL     1     101.217 111.302 114.415  1.00  0.00     0.016 A 
ATOM      7  C   UNL     1     100.729 111.396 115.721  1.00  0.00     0.001 A 
ATOM      8  C   UNL     1     101.444 110.834 116.782  1.00  0.00     0.004 A 
ATOM      9  C   UNL     1     102.654 110.176 116.542  1.00  0.00     0.048 A 
ATOM     10  C   UNL     1     103.152 110.076 115.239  1.00  0.00     0.138 A 
ATOM     11  O   UNL     1     104.303 109.447 115.022  1.00  0.00    -0.456 OA
ENDROOT
BRANCH   1  12
ATOM     12  C   UNL     1     106.151 108.576 113.709  1.00  0.00     0.017 A 
ATOM     13  C   UNL     1     108.575 107.135 113.582  1.00  0.00     0.000 A 
ATOM     14  C   UNL     1     107.576 106.743 114.472  1.00  0.00     0.001 A 
ATOM     15  C   UNL     1     108.375 108.239 112.754  1.00  0.00     0.001 A 
ATOM     16  C   UNL     1     106.375 107.455 114.537  1.00  0.00     0.012 A 
ATOM     17  C   UNL     1     107.176 108.957 112.813  1.00  0.00     0.012 A 
ENDBRANCH   1  12
TORSDOF 1
ENDMDL
MODEL 9
REMARK VINA RESULT:    -4.514      2.228      6.505
REMARK INTER + INTRA:          -5.021
REMARK INTER:                  -4.794
REMARK INTRA:                  -0.227
REMARK UNBOUND:                -0.243
REMARK SMILES O=c1cc(-c2ccccc2)oc2ccccc12
REMARK SMILES IDX 4 1 3 2 2 3 1 4 17 5 16 6 15 7 14 8 13 9 12 10 11 11 5 12
REMARK SMILES IDX 8 13 7 14 9 15 6 16 10 17
REMARK H PARENT
REMARK Flexibility Score: inf
ROOT
ATOM      1  C   UNL     1     106.759 108.792 114.012  1.00  0.00     0.138 A 
ATOM      2  C   UNL     1     107.250 107.470 114.074  1.00  0.00     0.100 A 
ATOM      3  C   UNL     1     108.598 107.250 114.357  1.00  0.00     0.193 A 
ATOM      4  O   UNL     1     109.038 106.068 114.412  1.00  0.00    -0.289 OA
ATOM      5  C   UNL     1     109.447 108.344 114.578  1.00  0.00     0.065 A 
ATOM      6  C   UNL     1     110.815 108.192 114.868  1.00  0.00     0.016 A 
ATOM      7  C   UNL     1     111.615 109.318 115.079  1.00  0.00     0.001 A 
ATOM      8  C   UNL     1     111.060 110.599 115.003  1.00  0.00     0.004 A 
ATOM      9  C   UNL     1     109.702 110.760 114.715  1.00  0.00     0.048 A 
ATOM     10  C   UNL     1     108.892 109.640 114.501  1.00  0.00     0.138 A 
ATOM     11  O   UNL     1     107.602 109.803 114.228  1.00  0.00    -0.456 OA
ENDROOT
BRANCH   1  12
ATOM     12  C   UNL     1     105.330 109.116 113.714  1.00  0.00     0.017 A 
ATOM     13  C   UNL     1     102.622 109.759 113.244  1.00  0.00     0.000 A 
ATOM     14  C   UNL     1     103.176 109.952 114.508  1.00  0.00     0.001 A 
ATOM     15  C   UNL     1     103.407 109.248 112.211  1.00  0.00     0.001 A 
ATOM     16  C   UNL     1     104.516 109.635 114.744  1.00  0.00     0.012 A 
ATOM     17  C   UNL     1     104.750 108.928 112.438  1.00  0.00     0.012 A 
ENDBRANCH   1  12
TORSDOF 1
ENDMDL
