MODEL 1
REMARK VINA RESULT:     0.000      0.000      0.000
REMARK INTER + INTRA:          -0.144
REMARK INTER:                   0.000
REMARK INTRA:                  -0.144
REMARK UNBOUND:                -0.144
REMARK SMILES O=C([O-])C=Cc1ccc(O)c(O)c1
REMARK SMILES IDX 6 1 13 2 7 3 11 4 8 5 9 6 5 7 4 8 2 9 1 10 3 11 12 12 10 14
REMARK H PARENT 12 13 10 15
REMARK Flexibility Score: inf
ROOT
ATOM      1  C   UNL     1      10.473  19.781  52.430  1.00  0.00    -0.022 A 
ATOM      2  C   UNL     1       9.522  19.080  53.191  1.00  0.00     0.058 A 
ATOM      3  C   UNL     1      11.632  19.105  52.000  1.00  0.00     0.012 A 
ATOM      4  C   UNL     1       9.708  17.723  53.495  1.00  0.00     0.157 A 
ATOM      5  C   UNL     1      11.817  17.754  52.304  1.00  0.00     0.051 A 
ATOM      6  C   UNL     1      10.856  17.058  53.049  1.00  0.00     0.157 A 
ENDROOT
BRANCH   1   7
ATOM      7  C   UNL     1      10.234  21.217  52.144  1.00  0.00     0.010 C 
ATOM      8  C   UNL     1      11.197  22.073  51.774  1.00  0.00     0.025 C 
BRANCH   8   9
ATOM      9  C   UNL     1      10.912  23.488  51.489  1.00  0.00     0.064 C 
ATOM     10  O   UNL     1       9.732  23.915  51.582  1.00  0.00    -0.545 OA
ATOM     11  O   UNL     1      11.926  24.364  51.115  1.00  0.00    -0.545 OA
ENDBRANCH   8   9
ENDBRANCH   1   7
BRANCH   4  12
ATOM     12  O   UNL     1       8.756  17.031  54.240  1.00  0.00    -0.504 OA
ATOM     13  H   UNL     1       8.888  16.062  54.503  1.00  0.00     0.293 HD
ENDBRANCH   4  12
BRANCH   6  14
ATOM     14  O   UNL     1      11.037  15.711  53.353  1.00  0.00    -0.504 OA
ATOM     15  H   UNL     1      10.541  15.269  54.119  1.00  0.00     0.293 HD
ENDBRANCH   6  14
TORSDOF 4
ENDMDL
MODEL 2
REMARK VINA RESULT:     0.000      5.361      6.820
REMARK INTER + INTRA:          -0.144
REMARK INTER:                   0.000
REMARK INTRA:                  -0.144
REMARK UNBOUND:                -0.144
REMARK SMILES O=C([O-])C=Cc1ccc(O)c(O)c1
REMARK SMILES IDX 6 1 13 2 7 3 11 4 8 5 9 6 5 7 4 8 2 9 1 10 3 11 12 12 10 14
REMARK H PARENT 12 13 10 15
REMARK Flexibility Score: inf
ROOT
ATOM      1  C   UNL     1      12.415  14.703  53.173  1.00  0.00    -0.022 A 
ATOM      2  C   UNL     1      13.203  15.210  52.126  1.00  0.00     0.058 A 
ATOM      3  C   UNL     1      12.225  13.310  53.269  1.00  0.00     0.012 A 
ATOM      4  C   UNL     1      13.814  14.345  51.206  1.00  0.00     0.157 A 
ATOM      5  C   UNL     1      12.833  12.449  52.351  1.00  0.00     0.051 A 
ATOM      6  C   UNL     1      13.630  12.962  51.320  1.00  0.00     0.157 A 
ENDROOT
BRANCH   1   7
ATOM      7  C   UNL     1      11.783  15.661  54.113  1.00  0.00     0.010 C 
ATOM      8  C   UNL     1      10.738  15.357  54.897  1.00  0.00     0.025 C 
BRANCH   8   9
ATOM      9  C   UNL     1      10.151  16.337  55.824  1.00  0.00     0.064 C 
ATOM     10  O   UNL     1      10.641  17.493  55.898  1.00  0.00    -0.545 OA
ATOM     11  O   UNL     1       9.061  16.006  56.622  1.00  0.00    -0.545 OA
ENDBRANCH   8   9
ENDBRANCH   1   7
BRANCH   4  12
ATOM     12  O   UNL     1      14.603  14.853  50.177  1.00  0.00    -0.504 OA
ATOM     13  H   UNL     1      15.266  14.271  49.678  1.00  0.00     0.293 HD
ENDBRANCH   4  12
BRANCH   6  14
ATOM     14  O   UNL     1      14.238  12.105  50.405  1.00  0.00    -0.504 OA
ATOM     15  H   UNL     1      14.147  12.246  49.405  1.00  0.00     0.293 HD
ENDBRANCH   6  14
TORSDOF 4
ENDMDL
MODEL 3
REMARK VINA RESULT:     0.000      3.321      3.497
REMARK INTER + INTRA:          -0.144
REMARK INTER:                   0.000
REMARK INTRA:                  -0.144
REMARK UNBOUND:                -0.144
REMARK SMILES O=C([O-])C=Cc1ccc(O)c(O)c1
REMARK SMILES IDX 6 1 13 2 7 3 11 4 8 5 9 6 5 7 4 8 2 9 1 10 3 11 12 12 10 14
REMARK H PARENT 12 13 10 15
REMARK Flexibility Score: inf
ROOT
ATOM      1  C   UNL     1      10.405  19.954  50.587  1.00  0.00    -0.022 A 
ATOM      2  C   UNL     1       9.624  20.488  51.626  1.00  0.00     0.058 A 
ATOM      3  C   UNL     1      11.300  18.905  50.879  1.00  0.00     0.012 A 
ATOM      4  C   UNL     1       9.710  19.969  52.926  1.00  0.00     0.157 A 
ATOM      5  C   UNL     1      11.386  18.390  52.175  1.00  0.00     0.051 A 
ATOM      6  C   UNL     1      10.591  18.917  53.201  1.00  0.00     0.157 A 
ENDROOT
BRANCH   1   7
ATOM      7  C   UNL     1      10.284  20.545  49.232  1.00  0.00     0.010 C 
ATOM      8  C   UNL     1      11.206  20.399  48.270  1.00  0.00     0.025 C 
BRANCH   8   9
ATOM      9  C   UNL     1      11.038  20.994  46.935  1.00  0.00     0.064 C 
ATOM     10  O   UNL     1       9.997  21.652  46.675  1.00  0.00    -0.545 OA
ATOM     11  O   UNL     1      12.011  20.841  45.953  1.00  0.00    -0.545 OA
ENDBRANCH   8   9
ENDBRANCH   1   7
BRANCH   4  12
ATOM     12  O   UNL     1       8.924  20.496  53.949  1.00  0.00    -0.504 OA
ATOM     13  H   UNL     1       9.081  21.429  54.312  1.00  0.00     0.293 HD
ENDBRANCH   4  12
BRANCH   6  14
ATOM     14  O   UNL     1      10.674  18.404  54.493  1.00  0.00    -0.504 OA
ATOM     15  H   UNL     1       9.958  18.593  55.186  1.00  0.00     0.293 HD
ENDBRANCH   6  14
TORSDOF 4
ENDMDL
MODEL 4
REMARK VINA RESULT:     0.000      4.772      5.336
REMARK INTER + INTRA:          -0.144
REMARK INTER:                   0.000
REMARK INTRA:                  -0.144
REMARK UNBOUND:                -0.144
REMARK SMILES O=C([O-])C=Cc1ccc(O)c(O)c1
REMARK SMILES IDX 6 1 13 2 7 3 11 4 8 5 9 6 5 7 4 8 2 9 1 10 3 11 12 12 10 14
REMARK H PARENT 12 13 10 15
REMARK Flexibility Score: inf
ROOT
ATOM      1  C   UNL     1      10.412  18.784  49.203  1.00  0.00    -0.022 A 
ATOM      2  C   UNL     1       9.260  19.341  49.786  1.00  0.00     0.058 A 
ATOM      3  C   UNL     1      11.544  18.563  50.013  1.00  0.00     0.012 A 
ATOM      4  C   UNL     1       9.226  19.647  51.154  1.00  0.00     0.157 A 
ATOM      5  C   UNL     1      11.509  18.869  51.376  1.00  0.00     0.051 A 
ATOM      6  C   UNL     1      10.352  19.409  51.951  1.00  0.00     0.157 A 
ENDROOT
BRANCH   1   7
ATOM      7  C   UNL     1      10.400  18.488  47.749  1.00  0.00     0.010 C 
ATOM      8  C   UNL     1      11.509  18.320  47.014  1.00  0.00     0.025 C 
BRANCH   8   9
ATOM      9  C   UNL     1      11.449  18.016  45.577  1.00  0.00     0.064 C 
ATOM     10  O   UNL     1      10.330  17.907  45.010  1.00  0.00    -0.545 OA
ATOM     11  O   UNL     1      12.610  17.845  44.830  1.00  0.00    -0.545 OA
ENDBRANCH   8   9
ENDBRANCH   1   7
BRANCH   4  12
ATOM     12  O   UNL     1       8.077  20.188  51.727  1.00  0.00    -0.504 OA
ATOM     13  H   UNL     1       7.164  19.776  51.576  1.00  0.00     0.293 HD
ENDBRANCH   4  12
BRANCH   6  14
ATOM     14  O   UNL     1      10.314  19.713  53.310  1.00  0.00    -0.504 OA
ATOM     15  H   UNL     1      11.155  19.713  53.877  1.00  0.00     0.293 HD
ENDBRANCH   6  14
TORSDOF 4
ENDMDL
MODEL 5
REMARK VINA RESULT:     0.000      7.555      9.779
REMARK INTER + INTRA:          -0.144
REMARK INTER:                   0.000
REMARK INTRA:                  -0.144
REMARK UNBOUND:                -0.144
REMARK SMILES O=C([O-])C=Cc1ccc(O)c(O)c1
REMARK SMILES IDX 6 1 13 2 7 3 11 4 8 5 9 6 5 7 4 8 2 9 1 10 3 11 12 12 10 14
REMARK H PARENT 12 13 10 15
REMARK Flexibility Score: inf
ROOT
ATOM      1  C   UNL     1       4.383  23.156  55.847  1.00  0.00    -0.022 A 
ATOM      2  C   UNL     1       4.537  24.053  56.917  1.00  0.00     0.058 A 
ATOM      3  C   UNL     1       4.291  23.669  54.538  1.00  0.00     0.012 A 
ATOM      4  C   UNL     1       4.624  25.434  56.688  1.00  0.00     0.157 A 
ATOM      5  C   UNL     1       4.377  25.045  54.310  1.00  0.00     0.051 A 
ATOM      6  C   UNL     1       4.546  25.931  55.382  1.00  0.00     0.157 A 
ENDROOT
BRANCH   1   7
ATOM      7  C   UNL     1       4.286  21.705  56.144  1.00  0.00     0.010 C 
ATOM      8  C   UNL     1       3.776  20.803  55.294  1.00  0.00     0.025 C 
BRANCH   8   9
ATOM      9  C   UNL     1       3.711  19.372  55.626  1.00  0.00     0.064 C 
ATOM     10  O   UNL     1       4.155  18.970  56.733  1.00  0.00    -0.545 OA
ATOM     11  O   UNL     1       3.165  18.452  54.737  1.00  0.00    -0.545 OA
ENDBRANCH   8   9
ENDBRANCH   1   7
BRANCH   4  12
ATOM     12  O   UNL     1       4.786  26.317  57.753  1.00  0.00    -0.504 OA
ATOM     13  H   UNL     1       4.193  27.131  57.864  1.00  0.00     0.293 HD
ENDBRANCH   4  12
BRANCH   6  14
ATOM     14  O   UNL     1       4.633  27.303  55.158  1.00  0.00    -0.504 OA
ATOM     15  H   UNL     1       4.273  27.974  55.828  1.00  0.00     0.293 HD
ENDBRANCH   6  14
TORSDOF 4
ENDMDL
MODEL 6
REMARK VINA RESULT:     0.000      8.361     10.469
REMARK INTER + INTRA:          -0.144
REMARK INTER:                   0.000
REMARK INTRA:                  -0.144
REMARK UNBOUND:                -0.144
REMARK SMILES O=C([O-])C=Cc1ccc(O)c(O)c1
REMARK SMILES IDX 6 1 13 2 7 3 11 4 8 5 9 6 5 7 4 8 2 9 1 10 3 11 12 12 10 14
REMARK H PARENT 12 13 10 15
REMARK Flexibility Score: inf
ROOT
ATOM      1  C   UNL     1      17.963  16.246  49.622  1.00  0.00    -0.022 A 
ATOM      2  C   UNL     1      17.561  17.531  49.217  1.00  0.00     0.058 A 
ATOM      3  C   UNL     1      19.002  16.125  50.566  1.00  0.00     0.012 A 
ATOM      4  C   UNL     1      18.163  18.674  49.763  1.00  0.00     0.157 A 
ATOM      5  C   UNL     1      19.601  17.265  51.108  1.00  0.00     0.051 A 
ATOM      6  C   UNL     1      19.183  18.541  50.712  1.00  0.00     0.157 A 
ENDROOT
BRANCH   1   7
ATOM      7  C   UNL     1      17.302  15.069  49.007  1.00  0.00     0.010 C 
ATOM      8  C   UNL     1      17.824  13.834  49.012  1.00  0.00     0.025 C 
BRANCH   8   9
ATOM      9  C   UNL     1      17.127  12.693  48.400  1.00  0.00     0.064 C 
ATOM     10  O   UNL     1      15.998  12.866  47.871  1.00  0.00    -0.545 OA
ATOM     11  O   UNL     1      17.694  11.423  48.395  1.00  0.00    -0.545 OA
ENDBRANCH   8   9
ENDBRANCH   1   7
BRANCH   4  12
ATOM     12  O   UNL     1      17.751  19.945  49.365  1.00  0.00    -0.504 OA
ATOM     13  H   UNL     1      16.772  20.168  49.229  1.00  0.00     0.293 HD
ENDBRANCH   4  12
BRANCH   6  14
ATOM     14  O   UNL     1      19.778  19.679  51.251  1.00  0.00    -0.504 OA
ATOM     15  H   UNL     1      20.003  20.483  50.676  1.00  0.00     0.293 HD
ENDBRANCH   6  14
TORSDOF 4
ENDMDL
MODEL 7
REMARK VINA RESULT:     0.000      7.367      9.468
REMARK INTER + INTRA:          -0.144
REMARK INTER:                   0.000
REMARK INTRA:                  -0.144
REMARK UNBOUND:                -0.144
REMARK SMILES O=C([O-])C=Cc1ccc(O)c(O)c1
REMARK SMILES IDX 6 1 13 2 7 3 11 4 8 5 9 6 5 7 4 8 2 9 1 10 3 11 12 12 10 14
REMARK H PARENT 12 13 10 15
REMARK Flexibility Score: inf
ROOT
ATOM      1  C   UNL     1      17.532  17.453  51.259  1.00  0.00    -0.022 A 
ATOM      2  C   UNL     1      17.401  18.709  50.644  1.00  0.00     0.058 A 
ATOM      3  C   UNL     1      18.297  17.349  52.438  1.00  0.00     0.012 A 
ATOM      4  C   UNL     1      17.998  19.847  51.204  1.00  0.00     0.157 A 
ATOM      5  C   UNL     1      18.892  18.484  52.996  1.00  0.00     0.051 A 
ATOM      6  C   UNL     1      18.743  19.735  52.384  1.00  0.00     0.157 A 
ENDROOT
BRANCH   1   7
ATOM      7  C   UNL     1      16.889  16.278  50.620  1.00  0.00     0.010 C 
ATOM      8  C   UNL     1      17.234  15.008  50.876  1.00  0.00     0.025 C 
BRANCH   8   9
ATOM      9  C   UNL     1      16.561  13.873  50.227  1.00  0.00     0.064 C 
ATOM     10  O   UNL     1      15.618  14.089  49.422  1.00  0.00    -0.545 OA
ATOM     11  O   UNL     1      16.948  12.564  50.488  1.00  0.00    -0.545 OA
ENDBRANCH   8   9
ENDBRANCH   1   7
BRANCH   4  12
ATOM     12  O   UNL     1      17.856  21.091  50.594  1.00  0.00    -0.504 OA
ATOM     13  H   UNL     1      18.656  21.680  50.394  1.00  0.00     0.293 HD
ENDBRANCH   4  12
BRANCH   6  14
ATOM     14  O   UNL     1      19.335  20.868  52.938  1.00  0.00    -0.504 OA
ATOM     15  H   UNL     1      19.789  21.566  52.360  1.00  0.00     0.293 HD
ENDBRANCH   6  14
TORSDOF 4
ENDMDL
MODEL 8
REMARK VINA RESULT:     0.000     10.419     13.233
REMARK INTER + INTRA:          -0.144
REMARK INTER:                   0.000
REMARK INTRA:                  -0.144
REMARK UNBOUND:                -0.144
REMARK SMILES O=C([O-])C=Cc1ccc(O)c(O)c1
REMARK SMILES IDX 6 1 13 2 7 3 11 4 8 5 9 6 5 7 4 8 2 9 1 10 3 11 12 12 10 14
REMARK H PARENT 12 13 10 15
REMARK Flexibility Score: inf
ROOT
ATOM      1  C   UNL     1      18.158  12.518  58.434  1.00  0.00    -0.022 A 
ATOM      2  C   UNL     1      17.729  12.076  57.171  1.00  0.00     0.058 A 
ATOM      3  C   UNL     1      17.672  13.746  58.926  1.00  0.00     0.012 A 
ATOM      4  C   UNL     1      16.812  12.828  56.422  1.00  0.00     0.157 A 
ATOM      5  C   UNL     1      16.758  14.495  58.178  1.00  0.00     0.051 A 
ATOM      6  C   UNL     1      16.324  14.038  56.928  1.00  0.00     0.157 A 
ENDROOT
BRANCH   1   7
ATOM      7  C   UNL     1      19.137  11.691  59.181  1.00  0.00     0.010 C 
ATOM      8  C   UNL     1      19.896  12.158  60.183  1.00  0.00     0.025 C 
BRANCH   8   9
ATOM      9  C   UNL     1      20.846  11.297  60.905  1.00  0.00     0.064 C 
ATOM     10  O   UNL     1      20.993  10.099  60.549  1.00  0.00    -0.545 OA
ATOM     11  O   UNL     1      21.585  11.785  61.976  1.00  0.00    -0.545 OA
ENDBRANCH   8   9
ENDBRANCH   1   7
BRANCH   4  12
ATOM     12  O   UNL     1      16.383  12.378  55.175  1.00  0.00    -0.504 OA
ATOM     13  H   UNL     1      15.414  12.139  55.001  1.00  0.00     0.293 HD
ENDBRANCH   4  12
BRANCH   6  14
ATOM     14  O   UNL     1      15.413  14.782  56.181  1.00  0.00    -0.504 OA
ATOM     15  H   UNL     1      14.491  15.005  56.539  1.00  0.00     0.293 HD
ENDBRANCH   6  14
TORSDOF 4
ENDMDL
MODEL 9
REMARK VINA RESULT:     0.001      3.923      4.889
REMARK INTER + INTRA:          -0.143
REMARK INTER:                   0.000
REMARK INTRA:                  -0.143
REMARK UNBOUND:                -0.144
REMARK SMILES O=C([O-])C=Cc1ccc(O)c(O)c1
REMARK SMILES IDX 6 1 13 2 7 3 11 4 8 5 9 6 5 7 4 8 2 9 1 10 3 11 12 12 10 14
REMARK H PARENT 12 13 10 15
REMARK Flexibility Score: inf
ROOT
ATOM      1  C   UNL     1      13.220  21.606  49.471  1.00  0.00    -0.022 A 
ATOM      2  C   UNL     1      13.031  20.341  50.052  1.00  0.00     0.058 A 
ATOM      3  C   UNL     1      13.986  21.706  48.292  1.00  0.00     0.012 A 
ATOM      4  C   UNL     1      13.571  19.191  49.456  1.00  0.00     0.157 A 
ATOM      5  C   UNL     1      14.524  20.561  47.700  1.00  0.00     0.051 A 
ATOM      6  C   UNL     1      14.317  19.301  48.277  1.00  0.00     0.157 A 
ENDROOT
BRANCH   1   7
ATOM      7  C   UNL     1      12.637  22.792  50.147  1.00  0.00     0.010 C 
ATOM      8  C   UNL     1      13.043  24.050  49.925  1.00  0.00     0.025 C 
BRANCH   8   9
ATOM      9  C   UNL     1      12.427  25.198  50.609  1.00  0.00     0.064 C 
ATOM     10  O   UNL     1      11.484  25.004  51.420  1.00  0.00    -0.545 OA
ATOM     11  O   UNL     1      12.869  26.495  50.375  1.00  0.00    -0.545 OA
ENDBRANCH   8   9
ENDBRANCH   1   7
BRANCH   4  12
ATOM     12  O   UNL     1      13.370  17.939  50.032  1.00  0.00    -0.504 OA
ATOM     13  H   UNL     1      12.976  17.838  50.960  1.00  0.00     0.293 HD
ENDBRANCH   4  12
BRANCH   6  14
ATOM     14  O   UNL     1      14.851  18.158  47.688  1.00  0.00    -0.504 OA
ATOM     15  H   UNL     1      15.642  17.671  48.096  1.00  0.00     0.293 HD
ENDBRANCH   6  14
TORSDOF 4
ENDMDL
