MODEL 1
REMARK VINA RESULT:    -1.798      0.000      0.000
REMARK INTER + INTRA:          -1.472
REMARK INTER:                  -2.744
REMARK INTRA:                   1.272
REMARK UNBOUND:                 1.272
REMARK SMILES CC1=CCC[C@@H](C)C(=O)C[C@@H](C(C)C)C(=O)C1
REMARK SMILES IDX 8 1 9 2 6 3 7 4 5 5 4 6 3 7 2 8 1 9 10 11 11 12 15 13 16 14
REMARK SMILES IDX 17 15 12 17 13 18 14 19
REMARK H PARENT
REMARK Flexibility Score: 70.00
ROOT
ATOM      1  C   UNL     1       2.573  12.933  -8.139  1.00  0.00     0.136 C 
ATOM      2  O   UNL     1       2.615  13.664  -9.120  1.00  0.00    -0.299 OA
ENDROOT
BRANCH   1   3
ATOM      3  C   UNL     1       2.720  11.429  -8.305  1.00  0.00     0.053 C 
ATOM      4  C   UNL     1       2.663  10.690  -6.958  1.00  0.00     0.016 C 
BRANCH   3   5
ATOM      5  C   UNL     1       3.997  11.051  -9.091  1.00  0.00     0.015 C 
BRANCH   5   6
ATOM      6  C   UNL     1       5.307  11.627  -8.498  1.00  0.00     0.028 C 
BRANCH   6   7
ATOM      7  C   UNL     1       5.608  12.989  -9.081  1.00  0.00    -0.028 C 
ATOM      8  C   UNL     1       5.858  14.114  -8.366  1.00  0.00    -0.070 CG0
ATOM      9  C   UNL     1       5.995  15.412  -9.121  1.00  0.00     0.039 C 
ATOM     10  G   UNL     1       6.008  14.130  -6.853  1.00  0.00     0.000 G0
ENDBRANCH   6   7
ENDBRANCH   5   6
ENDBRANCH   3   5
ENDBRANCH   1   3
BRANCH   1  11
ATOM     11  C   UNL     1       2.334  13.557  -6.782  1.00  0.00     0.087 C 
BRANCH  11  12
ATOM     12  C   UNL     1       3.411  14.613  -6.412  1.00  0.00     0.066 C 
BRANCH  12  13
ATOM     13  C   UNL     1       4.739  13.958  -6.044  1.00  0.00     0.140 C 
ATOM     14  O   UNL     1       4.789  13.250  -5.050  1.00  0.00    -0.299 OA
BRANCH  13  15
ATOM     15  C   UNL     1       6.014  14.108  -6.855  1.00  0.00     0.106 CG0
ATOM     16  G   UNL     1       5.839  14.128  -8.366  1.00  0.00     0.000 G0
ENDBRANCH  13  15
ENDBRANCH  12  13
BRANCH  12  17
ATOM     17  C   UNL     1       2.957  15.624  -5.312  1.00  0.00    -0.006 C 
ATOM     18  C   UNL     1       3.457  17.064  -5.525  1.00  0.00     0.008 C 
ATOM     19  C   UNL     1       3.346  15.143  -3.905  1.00  0.00     0.008 C 
ENDBRANCH  12  17
ENDBRANCH  11  12
ENDBRANCH   1  11
TORSDOF 1
ENDMDL
MODEL 2
REMARK VINA RESULT:    -1.784      1.593      3.867
REMARK INTER + INTRA:          -1.451
REMARK INTER:                  -3.826
REMARK INTRA:                   2.375
REMARK UNBOUND:                 1.272
REMARK SMILES CC1=CCC[C@@H](C)C(=O)C[C@@H](C(C)C)C(=O)C1
REMARK SMILES IDX 8 1 9 2 6 3 7 4 5 5 4 6 3 7 2 8 1 9 10 11 11 12 15 13 16 14
REMARK SMILES IDX 17 15 12 17 13 18 14 19
REMARK H PARENT
REMARK Flexibility Score: 70.00
ROOT
ATOM      1  C   UNL     1       3.187  13.841  -5.032  1.00  0.00     0.136 C 
ATOM      2  O   UNL     1       3.749  13.201  -4.152  1.00  0.00    -0.299 OA
ENDROOT
BRANCH   1   3
ATOM      3  C   UNL     1       2.964  15.335  -4.860  1.00  0.00     0.053 C 
ATOM      4  C   UNL     1       1.518  15.746  -5.187  1.00  0.00     0.016 C 
BRANCH   3   5
ATOM      5  C   UNL     1       3.976  16.173  -5.674  1.00  0.00     0.015 C 
BRANCH   5   6
ATOM      6  C   UNL     1       3.482  16.580  -7.084  1.00  0.00     0.028 C 
BRANCH   6   7
ATOM      7  C   UNL     1       4.383  16.010  -8.156  1.00  0.00    -0.028 C 
ATOM      8  C   UNL     1       5.350  15.080  -7.960  1.00  0.00    -0.070 CG0
ATOM      9  C   UNL     1       6.245  14.738  -9.124  1.00  0.00     0.039 C 
ATOM     10  G   UNL     1       5.573  14.369  -6.634  1.00  0.00     0.000 G0
ENDBRANCH   6   7
ENDBRANCH   5   6
ENDBRANCH   3   5
ENDBRANCH   1   3
BRANCH   1  11
ATOM     11  C   UNL     1       2.693  13.105  -6.258  1.00  0.00     0.087 C 
BRANCH  11  12
ATOM     12  C   UNL     1       3.829  12.352  -7.001  1.00  0.00     0.066 C 
BRANCH  12  13
ATOM     13  C   UNL     1       5.206  12.890  -6.620  1.00  0.00     0.140 C 
ATOM     14  O   UNL     1       6.074  12.097  -6.288  1.00  0.00    -0.299 OA
BRANCH  13  15
ATOM     15  C   UNL     1       5.582  14.360  -6.653  1.00  0.00     0.106 CG0
ATOM     16  G   UNL     1       5.363  15.071  -7.980  1.00  0.00     0.000 G0
ENDBRANCH  13  15
ENDBRANCH  12  13
BRANCH  12  17
ATOM     17  C   UNL     1       3.651  12.306  -8.552  1.00  0.00    -0.006 C 
ATOM     18  C   UNL     1       2.592  13.279  -9.101  1.00  0.00     0.008 C 
ATOM     19  C   UNL     1       3.352  10.881  -9.045  1.00  0.00     0.008 C 
ENDBRANCH  12  17
ENDBRANCH  11  12
ENDBRANCH   1  11
TORSDOF 1
ENDMDL
MODEL 3
REMARK VINA RESULT:    -1.594      1.774      3.522
REMARK INTER + INTRA:          -1.160
REMARK INTER:                  -4.349
REMARK INTRA:                   3.189
REMARK UNBOUND:                 1.272
REMARK SMILES CC1=CCC[C@@H](C)C(=O)C[C@@H](C(C)C)C(=O)C1
REMARK SMILES IDX 8 1 9 2 6 3 7 4 5 5 4 6 3 7 2 8 1 9 10 11 11 12 15 13 16 14
REMARK SMILES IDX 17 15 12 17 13 18 14 19
REMARK H PARENT
REMARK Flexibility Score: 70.00
ROOT
ATOM      1  C   UNL     1       4.925  14.257  -5.809  1.00  0.00     0.136 C 
ATOM      2  O   UNL     1       5.613  15.268  -5.872  1.00  0.00    -0.299 OA
ENDROOT
BRANCH   1   3
ATOM      3  C   UNL     1       5.527  12.905  -6.159  1.00  0.00     0.053 C 
ATOM      4  C   UNL     1       6.494  12.403  -5.073  1.00  0.00     0.016 C 
BRANCH   3   5
ATOM      5  C   UNL     1       6.206  12.910  -7.548  1.00  0.00     0.015 C 
BRANCH   5   6
ATOM      6  C   UNL     1       5.249  13.212  -8.727  1.00  0.00     0.028 C 
BRANCH   6   7
ATOM      7  C   UNL     1       4.476  11.975  -9.123  1.00  0.00    -0.028 C 
ATOM      8  C   UNL     1       3.323  11.549  -8.551  1.00  0.00    -0.070 CG0
ATOM      9  C   UNL     1       2.773  10.213  -8.984  1.00  0.00     0.039 C 
ATOM     10  G   UNL     1       2.562  12.348  -7.505  1.00  0.00     0.000 G0
ENDBRANCH   6   7
ENDBRANCH   5   6
ENDBRANCH   3   5
ENDBRANCH   1   3
BRANCH   1  11
ATOM     11  C   UNL     1       3.471  14.395  -5.416  1.00  0.00     0.087 C 
BRANCH  11  12
ATOM     12  C   UNL     1       2.582  14.901  -6.583  1.00  0.00     0.066 C 
BRANCH  12  13
ATOM     13  C   UNL     1       2.469  13.864  -7.697  1.00  0.00     0.140 C 
ATOM     14  O   UNL     1       2.310  14.251  -8.845  1.00  0.00    -0.299 OA
BRANCH  13  15
ATOM     15  C   UNL     1       2.569  12.365  -7.477  1.00  0.00     0.106 CG0
ATOM     16  G   UNL     1       3.294  11.584  -8.562  1.00  0.00     0.000 G0
ENDBRANCH  13  15
ENDBRANCH  12  13
BRANCH  12  17
ATOM     17  C   UNL     1       3.008  16.292  -7.149  1.00  0.00    -0.006 C 
ATOM     18  C   UNL     1       4.136  16.237  -8.194  1.00  0.00     0.008 C 
ATOM     19  C   UNL     1       3.390  17.268  -6.024  1.00  0.00     0.008 C 
ENDBRANCH  12  17
ENDBRANCH  11  12
ENDBRANCH   1  11
TORSDOF 1
ENDMDL
MODEL 4
REMARK VINA RESULT:    -1.550      1.896      2.889
REMARK INTER + INTRA:          -1.093
REMARK INTER:                  -2.456
REMARK INTRA:                   1.363
REMARK UNBOUND:                 1.272
REMARK SMILES CC1=CCC[C@@H](C)C(=O)C[C@@H](C(C)C)C(=O)C1
REMARK SMILES IDX 8 1 9 2 6 3 7 4 5 5 4 6 3 7 2 8 1 9 10 11 11 12 15 13 16 14
REMARK SMILES IDX 17 15 12 17 13 18 14 19
REMARK H PARENT
REMARK Flexibility Score: 70.00
ROOT
ATOM      1  C   UNL     1       4.119  15.506  -8.528  1.00  0.00     0.136 C 
ATOM      2  O   UNL     1       4.168  16.592  -9.091  1.00  0.00    -0.299 OA
ENDROOT
BRANCH   1   3
ATOM      3  C   UNL     1       3.190  14.421  -9.051  1.00  0.00     0.053 C 
ATOM      4  C   UNL     1       1.883  14.339  -8.244  1.00  0.00     0.016 C 
BRANCH   3   5
ATOM      5  C   UNL     1       3.885  13.042  -9.121  1.00  0.00     0.015 C 
BRANCH   5   6
ATOM      6  C   UNL     1       3.560  12.100  -7.936  1.00  0.00     0.028 C 
BRANCH   6   7
ATOM      7  C   UNL     1       4.704  12.061  -6.949  1.00  0.00    -0.028 C 
ATOM      8  C   UNL     1       4.772  12.767  -5.793  1.00  0.00    -0.070 CG0
ATOM      9  C   UNL     1       6.057  12.710  -5.007  1.00  0.00     0.039 C 
ATOM     10  G   UNL     1       3.623  13.606  -5.254  1.00  0.00     0.000 G0
ENDBRANCH   6   7
ENDBRANCH   5   6
ENDBRANCH   3   5
ENDBRANCH   1   3
BRANCH   1  11
ATOM     11  C   UNL     1       4.967  15.291  -7.295  1.00  0.00     0.087 C 
BRANCH  11  12
ATOM     12  C   UNL     1       4.415  16.041  -6.052  1.00  0.00     0.066 C 
BRANCH  12  13
ATOM     13  C   UNL     1       3.878  15.073  -5.002  1.00  0.00     0.140 C 
ATOM     14  O   UNL     1       3.632  15.498  -3.883  1.00  0.00    -0.299 OA
BRANCH  13  15
ATOM     15  C   UNL     1       3.599  13.603  -5.264  1.00  0.00     0.106 CG0
ATOM     16  G   UNL     1       4.775  12.789  -5.781  1.00  0.00     0.000 G0
ENDBRANCH  13  15
ENDBRANCH  12  13
BRANCH  12  17
ATOM     17  C   UNL     1       3.364  17.145  -6.391  1.00  0.00    -0.006 C 
ATOM     18  C   UNL     1       3.763  18.563  -5.945  1.00  0.00     0.008 C 
ATOM     19  C   UNL     1       1.976  16.796  -5.832  1.00  0.00     0.008 C 
ENDBRANCH  12  17
ENDBRANCH  11  12
ENDBRANCH   1  11
TORSDOF 1
ENDMDL
MODEL 5
REMARK VINA RESULT:    -1.411      1.532      2.100
REMARK INTER + INTRA:          -0.881
REMARK INTER:                  -2.425
REMARK INTRA:                   1.544
REMARK UNBOUND:                 1.272
REMARK SMILES CC1=CCC[C@@H](C)C(=O)C[C@@H](C(C)C)C(=O)C1
REMARK SMILES IDX 8 1 9 2 6 3 7 4 5 5 4 6 3 7 2 8 1 9 10 11 11 12 15 13 16 14
REMARK SMILES IDX 17 15 12 17 13 18 14 19
REMARK H PARENT
REMARK Flexibility Score: 70.00
ROOT
ATOM      1  C   UNL     1       2.609  13.054  -7.402  1.00  0.00     0.136 C 
ATOM      2  O   UNL     1       2.659  12.146  -6.582  1.00  0.00    -0.299 OA
ENDROOT
BRANCH   1   3
ATOM      3  C   UNL     1       3.162  12.843  -8.803  1.00  0.00     0.053 C 
ATOM      4  C   UNL     1       3.578  11.383  -9.048  1.00  0.00     0.016 C 
BRANCH   3   5
ATOM      5  C   UNL     1       4.322  13.813  -9.124  1.00  0.00     0.015 C 
BRANCH   5   6
ATOM      6  C   UNL     1       5.734  13.193  -8.974  1.00  0.00     0.028 C 
BRANCH   6   7
ATOM      7  C   UNL     1       5.888  12.524  -7.628  1.00  0.00    -0.028 C 
ATOM      8  C   UNL     1       5.912  13.161  -6.431  1.00  0.00    -0.070 CG0
ATOM      9  C   UNL     1       6.220  12.341  -5.203  1.00  0.00     0.039 C 
ATOM     10  G   UNL     1       5.643  14.648  -6.266  1.00  0.00     0.000 G0
ENDBRANCH   6   7
ENDBRANCH   5   6
ENDBRANCH   3   5
ENDBRANCH   1   3
BRANCH   1  11
ATOM     11  C   UNL     1       2.026  14.383  -6.975  1.00  0.00     0.087 C 
BRANCH  11  12
ATOM     12  C   UNL     1       3.113  15.468  -6.750  1.00  0.00     0.066 C 
BRANCH  12  13
ATOM     13  C   UNL     1       4.206  14.983  -5.802  1.00  0.00     0.140 C 
ATOM     14  O   UNL     1       3.935  14.839  -4.619  1.00  0.00    -0.299 OA
BRANCH  13  15
ATOM     15  C   UNL     1       5.619  14.638  -6.239  1.00  0.00     0.106 CG0
ATOM     16  G   UNL     1       5.907  13.158  -6.436  1.00  0.00     0.000 G0
ENDBRANCH  13  15
ENDBRANCH  12  13
BRANCH  12  17
ATOM     17  C   UNL     1       2.546  16.850  -6.297  1.00  0.00    -0.006 C 
ATOM     18  C   UNL     1       3.614  17.853  -5.824  1.00  0.00     0.008 C 
ATOM     19  C   UNL     1       1.467  16.692  -5.213  1.00  0.00     0.008 C 
ENDBRANCH  12  17
ENDBRANCH  11  12
ENDBRANCH   1  11
TORSDOF 1
ENDMDL
MODEL 6
REMARK VINA RESULT:    -1.054      1.552      2.415
REMARK INTER + INTRA:          -0.336
REMARK INTER:                  -4.395
REMARK INTRA:                   4.059
REMARK UNBOUND:                 1.272
REMARK SMILES CC1=CCC[C@@H](C)C(=O)C[C@@H](C(C)C)C(=O)C1
REMARK SMILES IDX 8 1 9 2 6 3 7 4 5 5 4 6 3 7 2 8 1 9 10 11 11 12 15 13 16 14
REMARK SMILES IDX 17 15 12 17 13 18 14 19
REMARK H PARENT
REMARK Flexibility Score: 70.00
ROOT
ATOM      1  C   UNL     1       2.938  13.258  -5.838  1.00  0.00     0.136 C 
ATOM      2  O   UNL     1       3.152  13.561  -4.671  1.00  0.00    -0.299 OA
ENDROOT
BRANCH   1   3
ATOM      3  C   UNL     1       3.556  11.998  -6.421  1.00  0.00     0.053 C 
ATOM      4  C   UNL     1       5.090  12.082  -6.487  1.00  0.00     0.016 C 
BRANCH   3   5
ATOM      5  C   UNL     1       2.960  11.641  -7.802  1.00  0.00     0.015 C 
BRANCH   5   6
ATOM      6  C   UNL     1       4.014  11.293  -8.883  1.00  0.00     0.028 C 
BRANCH   6   7
ATOM      7  C   UNL     1       5.163  12.275  -8.850  1.00  0.00    -0.028 C 
ATOM      8  C   UNL     1       5.058  13.617  -9.014  1.00  0.00    -0.070 CG0
ATOM      9  C   UNL     1       6.332  14.419  -9.095  1.00  0.00     0.039 C 
ATOM     10  G   UNL     1       3.728  14.347  -9.117  1.00  0.00     0.000 G0
ENDBRANCH   6   7
ENDBRANCH   5   6
ENDBRANCH   3   5
ENDBRANCH   1   3
BRANCH   1  11
ATOM     11  C   UNL     1       2.085  14.181  -6.680  1.00  0.00     0.087 C 
BRANCH  11  12
ATOM     12  C   UNL     1       2.757  15.559  -6.924  1.00  0.00     0.066 C 
BRANCH  12  13
ATOM     13  C   UNL     1       3.574  15.567  -8.213  1.00  0.00     0.140 C 
ATOM     14  O   UNL     1       4.158  16.592  -8.531  1.00  0.00    -0.299 OA
BRANCH  13  15
ATOM     15  C   UNL     1       3.735  14.364  -9.125  1.00  0.00     0.106 CG0
ATOM     16  G   UNL     1       5.058  13.622  -9.014  1.00  0.00     0.000 G0
ENDBRANCH  13  15
ENDBRANCH  12  13
BRANCH  12  17
ATOM     17  C   UNL     1       3.602  16.077  -5.718  1.00  0.00    -0.006 C 
ATOM     18  C   UNL     1       3.541  17.600  -5.504  1.00  0.00     0.008 C 
ATOM     19  C   UNL     1       5.067  15.625  -5.817  1.00  0.00     0.008 C 
ENDBRANCH  12  17
ENDBRANCH  11  12
ENDBRANCH   1  11
TORSDOF 1
ENDMDL
MODEL 7
REMARK VINA RESULT:    -0.887      1.417      4.464
REMARK INTER + INTRA:          -0.082
REMARK INTER:                  -0.347
REMARK INTRA:                   0.265
REMARK UNBOUND:                 1.272
REMARK SMILES CC1=CCC[C@@H](C)C(=O)C[C@@H](C(C)C)C(=O)C1
REMARK SMILES IDX 8 1 9 2 6 3 7 4 5 5 4 6 3 7 2 8 1 9 10 11 11 12 15 13 16 14
REMARK SMILES IDX 17 15 12 17 13 18 14 19
REMARK H PARENT
REMARK Flexibility Score: 70.00
ROOT
ATOM      1  C   UNL     1       4.103  13.659  -5.511  1.00  0.00     0.136 C 
ATOM      2  O   UNL     1       5.194  13.148  -5.292  1.00  0.00    -0.299 OA
ENDROOT
BRANCH   1   3
ATOM      3  C   UNL     1       3.736  14.978  -4.849  1.00  0.00     0.053 C 
ATOM      4  C   UNL     1       3.359  14.799  -3.369  1.00  0.00     0.016 C 
BRANCH   3   5
ATOM      5  C   UNL     1       2.623  15.727  -5.618  1.00  0.00     0.015 C 
BRANCH   5   6
ATOM      6  C   UNL     1       3.124  16.920  -6.468  1.00  0.00     0.028 C 
BRANCH   6   7
ATOM      7  C   UNL     1       4.410  16.572  -7.181  1.00  0.00    -0.028 C 
ATOM      8  C   UNL     1       4.508  15.834  -8.314  1.00  0.00    -0.070 CG0
ATOM      9  C   UNL     1       5.887  15.468  -8.800  1.00  0.00     0.039 C 
ATOM     10  G   UNL     1       3.303  15.364  -9.115  1.00  0.00     0.000 G0
ENDBRANCH   6   7
ENDBRANCH   5   6
ENDBRANCH   3   5
ENDBRANCH   1   3
BRANCH   1  11
ATOM     11  C   UNL     1       3.131  12.932  -6.413  1.00  0.00     0.087 C 
BRANCH  11  12
ATOM     12  C   UNL     1       3.567  12.954  -7.903  1.00  0.00     0.066 C 
BRANCH  12  13
ATOM     13  C   UNL     1       2.776  13.981  -8.707  1.00  0.00     0.140 C 
ATOM     14  O   UNL     1       1.628  13.716  -9.030  1.00  0.00    -0.299 OA
BRANCH  13  15
ATOM     15  C   UNL     1       3.317  15.340  -9.117  1.00  0.00     0.106 CG0
ATOM     16  G   UNL     1       4.506  15.848  -8.316  1.00  0.00     0.000 G0
ENDBRANCH  13  15
ENDBRANCH  12  13
BRANCH  12  17
ATOM     17  C   UNL     1       3.539  11.554  -8.594  1.00  0.00    -0.006 C 
ATOM     18  C   UNL     1       2.608  10.530  -7.920  1.00  0.00     0.008 C 
ATOM     19  C   UNL     1       4.951  10.961  -8.730  1.00  0.00     0.008 C 
ENDBRANCH  12  17
ENDBRANCH  11  12
ENDBRANCH   1  11
TORSDOF 1
ENDMDL
MODEL 8
REMARK VINA RESULT:    -0.795      1.762      3.818
REMARK INTER + INTRA:           0.058
REMARK INTER:                  -3.002
REMARK INTRA:                   3.060
REMARK UNBOUND:                 1.272
REMARK SMILES CC1=CCC[C@@H](C)C(=O)C[C@@H](C(C)C)C(=O)C1
REMARK SMILES IDX 8 1 9 2 6 3 7 4 5 5 4 6 3 7 2 8 1 9 10 11 11 12 15 13 16 14
REMARK SMILES IDX 17 15 12 17 13 18 14 19
REMARK H PARENT
REMARK Flexibility Score: 70.00
ROOT
ATOM      1  C   UNL     1       4.255  15.177  -5.925  1.00  0.00     0.136 C 
ATOM      2  O   UNL     1       5.198  15.752  -5.397  1.00  0.00    -0.299 OA
ENDROOT
BRANCH   1   3
ATOM      3  C   UNL     1       4.110  13.670  -5.787  1.00  0.00     0.053 C 
ATOM      4  C   UNL     1       3.397  13.274  -4.483  1.00  0.00     0.016 C 
BRANCH   3   5
ATOM      5  C   UNL     1       5.465  12.938  -5.922  1.00  0.00     0.015 C 
BRANCH   5   6
ATOM      6  C   UNL     1       5.766  12.407  -7.346  1.00  0.00     0.028 C 
BRANCH   6   7
ATOM      7  C   UNL     1       4.746  11.374  -7.762  1.00  0.00    -0.028 C 
ATOM      8  C   UNL     1       3.632  11.618  -8.497  1.00  0.00    -0.070 CG0
ATOM      9  C   UNL     1       2.655  10.486  -8.692  1.00  0.00     0.039 C 
ATOM     10  G   UNL     1       3.325  12.965  -9.131  1.00  0.00     0.000 G0
ENDBRANCH   6   7
ENDBRANCH   5   6
ENDBRANCH   3   5
ENDBRANCH   1   3
BRANCH   1  11
ATOM     11  C   UNL     1       3.275  15.992  -6.739  1.00  0.00     0.087 C 
BRANCH  11  12
ATOM     12  C   UNL     1       3.116  15.462  -8.190  1.00  0.00     0.066 C 
BRANCH  12  13
ATOM     13  C   UNL     1       2.701  13.994  -8.212  1.00  0.00     0.140 C 
ATOM     14  O   UNL     1       1.802  13.627  -7.471  1.00  0.00    -0.299 OA
BRANCH  13  15
ATOM     15  C   UNL     1       3.320  12.950  -9.124  1.00  0.00     0.106 CG0
ATOM     16  G   UNL     1       3.616  11.603  -8.482  1.00  0.00     0.000 G0
ENDBRANCH  13  15
ENDBRANCH  12  13
BRANCH  12  17
ATOM     17  C   UNL     1       4.364  15.709  -9.096  1.00  0.00    -0.006 C 
ATOM     18  C   UNL     1       5.569  14.804  -8.781  1.00  0.00     0.008 C 
ATOM     19  C   UNL     1       4.801  17.183  -9.069  1.00  0.00     0.008 C 
ENDBRANCH  12  17
ENDBRANCH  11  12
ENDBRANCH   1  11
TORSDOF 1
ENDMDL
MODEL 9
REMARK VINA RESULT:    -0.599      1.858      4.201
REMARK INTER + INTRA:           0.358
REMARK INTER:                  -1.697
REMARK INTRA:                   2.055
REMARK UNBOUND:                 1.272
REMARK SMILES CC1=CCC[C@@H](C)C(=O)C[C@@H](C(C)C)C(=O)C1
REMARK SMILES IDX 8 1 9 2 6 3 7 4 5 5 4 6 3 7 2 8 1 9 10 11 11 12 15 13 16 14
REMARK SMILES IDX 17 15 12 17 13 18 14 19
REMARK H PARENT
REMARK Flexibility Score: 70.00
ROOT
ATOM      1  C   UNL     1       3.864  13.037  -5.705  1.00  0.00     0.136 C 
ATOM      2  O   UNL     1       3.730  13.240  -4.506  1.00  0.00    -0.299 OA
ENDROOT
BRANCH   1   3
ATOM      3  C   UNL     1       2.640  12.953  -6.603  1.00  0.00     0.053 C 
ATOM      4  C   UNL     1       2.938  12.220  -7.922  1.00  0.00     0.016 C 
BRANCH   3   5
ATOM      5  C   UNL     1       2.014  14.341  -6.869  1.00  0.00     0.015 C 
BRANCH   5   6
ATOM      6  C   UNL     1       1.507  15.068  -5.600  1.00  0.00     0.028 C 
BRANCH   6   7
ATOM      7  C   UNL     1       2.004  16.495  -5.561  1.00  0.00    -0.028 C 
ATOM      8  C   UNL     1       3.141  16.949  -6.143  1.00  0.00    -0.070 CG0
ATOM      9  C   UNL     1       3.549  18.376  -5.875  1.00  0.00     0.039 C 
ATOM     10  G   UNL     1       4.018  16.097  -7.048  1.00  0.00     0.000 G0
ENDBRANCH   6   7
ENDBRANCH   5   6
ENDBRANCH   3   5
ENDBRANCH   1   3
BRANCH   1  11
ATOM     11  C   UNL     1       5.260  12.838  -6.254  1.00  0.00     0.087 C 
BRANCH  11  12
ATOM     12  C   UNL     1       5.821  14.114  -6.938  1.00  0.00     0.066 C 
BRANCH  12  13
ATOM     13  C   UNL     1       5.175  15.381  -6.385  1.00  0.00     0.140 C 
ATOM     14  O   UNL     1       5.614  15.859  -5.350  1.00  0.00    -0.299 OA
BRANCH  13  15
ATOM     15  C   UNL     1       4.027  16.112  -7.057  1.00  0.00     0.106 CG0
ATOM     16  G   UNL     1       3.141  16.940  -6.138  1.00  0.00     0.000 G0
ENDBRANCH  13  15
ENDBRANCH  12  13
BRANCH  12  17
ATOM     17  C   UNL     1       5.753  14.080  -8.497  1.00  0.00    -0.006 C 
ATOM     18  C   UNL     1       6.166  12.737  -9.125  1.00  0.00     0.008 C 
ATOM     19  C   UNL     1       6.572  15.220  -9.124  1.00  0.00     0.008 C 
ENDBRANCH  12  17
ENDBRANCH  11  12
ENDBRANCH   1  11
TORSDOF 1
ENDMDL
