MODEL 1
REMARK VINA RESULT:    -7.529      0.000      0.000
REMARK INTER + INTRA:         -12.295
REMARK INTER:                 -11.271
REMARK INTRA:                  -1.024
REMARK UNBOUND:                -1.024
REMARK SMILES C=C(CC[C@@H](C(=O)[O-])[C@H]1[C@@H](O)C[C@]2(C)C3=C(CC[C@@]12C)[C@@]1(C)CC[C@H](OC(C)=O)C(C)(C)[C@H]1CC3)C(C)C
REMARK SMILES IDX 4 1 5 2 6 3 7 4 8 5 9 6 10 7 19 8 12 9 13 10 18 11 20 12
REMARK SMILES IDX 14 13 15 14 17 15 16 16 35 17 21 18 34 19 33 20 23 21 22 22
REMARK SMILES IDX 30 23 24 24 25 25 31 26 32 27 11 28 26 30 27 31 29 32 28 33
REMARK SMILES IDX 3 34 2 35 1 36 36 37 37 38 38 39
REMARK H PARENT 11 29
REMARK Flexibility Score: inf
ROOT
ATOM      1  C   UNL     1      23.213 -17.355  28.672  1.00  0.00     0.014 C 
ENDROOT
BRANCH   1   2
ATOM      2  C   UNL     1      22.127 -18.380  29.110  1.00  0.00     0.042 C 
BRANCH   2   3
ATOM      3  C   UNL     1      20.777 -17.726  28.909  1.00  0.00     0.045 C 
ATOM      4  O   UNL     1      19.752 -18.441  28.761  1.00  0.00    -0.550 OA
ATOM      5  O   UNL     1      20.643 -16.344  28.948  1.00  0.00    -0.550 OA
ENDBRANCH   2   3
BRANCH   2   6
ATOM      6  C   UNL     1      22.195 -19.789  28.404  1.00  0.00     0.033 C 
ATOM      7  C   UNL     1      22.127 -19.799  26.839  1.00  0.00     0.119 C 
ATOM      8  C   UNL     1      23.434 -20.708  28.742  1.00  0.00    -0.017 C 
ATOM      9  C   UNL     1      23.267 -20.706  26.343  1.00  0.00     0.043 C 
ATOM     10  C   UNL     1      24.316 -20.666  27.460  1.00  0.00    -0.003 C 
ATOM     11  C   UNL     1      24.348 -20.355  29.935  1.00  0.00     0.012 C 
ATOM     12  C   UNL     1      22.848 -22.137  29.033  1.00  0.00     0.013 C 
ATOM     13  C   UNL     1      25.156 -19.359  27.277  1.00  0.00     0.017 C 
ATOM     14  C   UNL     1      25.329 -21.800  27.517  1.00  0.00    -0.064 C 
ATOM     15  C   UNL     1      25.647 -21.218  29.964  1.00  0.00     0.032 C 
ATOM     16  C   UNL     1      26.021 -22.010  28.681  1.00  0.00    -0.064 C 
ATOM     17  C   UNL     1      25.730 -22.516  26.251  1.00  0.00     0.032 C 
ATOM     18  C   UNL     1      27.148 -23.086  28.771  1.00  0.00    -0.008 C 
ATOM     19  C   UNL     1      27.241 -22.595  26.196  1.00  0.00     0.009 C 
ATOM     20  C   UNL     1      27.822 -23.444  27.359  1.00  0.00     0.009 C 
ATOM     21  C   UNL     1      26.538 -24.342  29.463  1.00  0.00     0.015 C 
ATOM     22  C   UNL     1      28.272 -22.547  29.698  1.00  0.00     0.016 C 
ATOM     23  C   UNL     1      27.983 -25.004  27.063  1.00  0.00     0.005 C 
ATOM     24  C   UNL     1      25.781 -25.237  28.494  1.00  0.00     0.047 C 
ATOM     25  C   UNL     1      26.667 -25.819  27.375  1.00  0.00     0.182 C 
ATOM     26  C   UNL     1      29.191 -25.547  27.891  1.00  0.00     0.015 C 
ATOM     27  C   UNL     1      28.378 -25.272  25.584  1.00  0.00     0.015 C 
BRANCH   7  28
ATOM     28  O   UNL     1      22.285 -18.514  26.292  1.00  0.00    -0.393 OA
ATOM     29  H   UNL     1      22.149 -18.604  25.312  1.00  0.00     0.210 HD
ENDBRANCH   7  28
BRANCH  25  30
ATOM     30  O   UNL     1      26.978 -27.177  27.719  1.00  0.00    -0.462 OA
BRANCH  30  31
ATOM     31  C   UNL     1      26.518 -27.827  28.872  1.00  0.00     0.302 C 
ATOM     32  O   UNL     1      25.314 -28.185  28.981  1.00  0.00    -0.253 OA
ATOM     33  C   UNL     1      27.484 -28.121  29.969  1.00  0.00     0.139 C 
ENDBRANCH  30  31
ENDBRANCH  25  30
ENDBRANCH   2   6
ENDBRANCH   1   2
BRANCH   1  34
ATOM     34  C   UNL     1      23.859 -16.552  29.816  1.00  0.00     0.031 C 
BRANCH  34  35
ATOM     35  C   UNL     1      25.357 -16.434  29.612  1.00  0.00    -0.075 C 
ATOM     36  C   UNL     1      25.823 -15.962  28.442  1.00  0.00     0.008 C 
BRANCH  35  37
ATOM     37  C   UNL     1      26.338 -16.869  30.696  1.00  0.00     0.008 C 
ATOM     38  C   UNL     1      27.363 -17.870  30.150  1.00  0.00     0.012 C 
ATOM     39  C   UNL     1      25.607 -17.438  31.918  1.00  0.00     0.012 C 
ENDBRANCH  35  37
ENDBRANCH  34  35
ENDBRANCH   1  34
TORSDOF 9
ENDMDL
MODEL 2
REMARK VINA RESULT:    -7.505      3.074      8.301
REMARK INTER + INTRA:         -12.259
REMARK INTER:                 -10.929
REMARK INTRA:                  -1.329
REMARK UNBOUND:                -1.024
REMARK SMILES C=C(CC[C@@H](C(=O)[O-])[C@H]1[C@@H](O)C[C@]2(C)C3=C(CC[C@@]12C)[C@@]1(C)CC[C@H](OC(C)=O)C(C)(C)[C@H]1CC3)C(C)C
REMARK SMILES IDX 4 1 5 2 6 3 7 4 8 5 9 6 10 7 19 8 12 9 13 10 18 11 20 12
REMARK SMILES IDX 14 13 15 14 17 15 16 16 35 17 21 18 34 19 33 20 23 21 22 22
REMARK SMILES IDX 30 23 24 24 25 25 31 26 32 27 11 28 26 30 27 31 29 32 28 33
REMARK SMILES IDX 3 34 2 35 1 36 36 37 37 38 38 39
REMARK H PARENT 11 29
REMARK Flexibility Score: inf
ROOT
ATOM      1  C   UNL     1      24.269 -22.378  24.489  1.00  0.00     0.014 C 
ENDROOT
BRANCH   1   2
ATOM      2  C   UNL     1      25.307 -22.706  25.600  1.00  0.00     0.042 C 
BRANCH   2   3
ATOM      3  C   UNL     1      26.543 -23.252  24.920  1.00  0.00     0.045 C 
ATOM      4  O   UNL     1      27.312 -22.471  24.301  1.00  0.00    -0.550 OA
ATOM      5  O   UNL     1      26.877 -24.597  25.022  1.00  0.00    -0.550 OA
ENDBRANCH   2   3
BRANCH   2   6
ATOM      6  C   UNL     1      25.662 -21.518  26.574  1.00  0.00     0.033 C 
ATOM      7  C   UNL     1      25.755 -20.088  25.939  1.00  0.00     0.119 C 
ATOM      8  C   UNL     1      24.738 -21.318  27.839  1.00  0.00    -0.017 C 
ATOM      9  C   UNL     1      24.936 -19.141  26.834  1.00  0.00     0.043 C 
ATOM     10  C   UNL     1      23.902 -20.044  27.519  1.00  0.00    -0.003 C 
ATOM     11  C   UNL     1      23.741 -22.426  28.243  1.00  0.00     0.012 C 
ATOM     12  C   UNL     1      25.709 -21.120  29.059  1.00  0.00     0.013 C 
ATOM     13  C   UNL     1      22.723 -20.261  26.516  1.00  0.00     0.017 C 
ATOM     14  C   UNL     1      23.262 -19.534  28.802  1.00  0.00    -0.064 C 
ATOM     15  C   UNL     1      22.749 -21.956  29.351  1.00  0.00     0.032 C 
ATOM     16  C   UNL     1      22.642 -20.431  29.632  1.00  0.00    -0.064 C 
ATOM     17  C   UNL     1      23.107 -18.051  29.029  1.00  0.00     0.032 C 
ATOM     18  C   UNL     1      21.874 -19.961  30.907  1.00  0.00    -0.008 C 
ATOM     19  C   UNL     1      21.685 -17.774  29.469  1.00  0.00     0.009 C 
ATOM     20  C   UNL     1      21.356 -18.443  30.832  1.00  0.00     0.009 C 
ATOM     21  C   UNL     1      22.812 -20.199  32.128  1.00  0.00     0.015 C 
ATOM     22  C   UNL     1      20.628 -20.867  31.096  1.00  0.00     0.016 C 
ATOM     23  C   UNL     1      21.660 -17.561  32.127  1.00  0.00     0.005 C 
ATOM     24  C   UNL     1      23.812 -19.071  32.331  1.00  0.00     0.047 C 
ATOM     25  C   UNL     1      23.150 -17.710  32.625  1.00  0.00     0.182 C 
ATOM     26  C   UNL     1      20.648 -17.957  33.249  1.00  0.00     0.015 C 
ATOM     27  C   UNL     1      21.384 -16.052  31.873  1.00  0.00     0.015 C 
BRANCH   7  28
ATOM     28  O   UNL     1      25.240 -20.052  24.632  1.00  0.00    -0.393 OA
ATOM     29  H   UNL     1      24.250 -20.061  24.717  1.00  0.00     0.210 HD
ENDBRANCH   7  28
BRANCH  25  30
ATOM     30  O   UNL     1      23.242 -17.470  34.038  1.00  0.00    -0.462 OA
BRANCH  30  31
ATOM     31  C   UNL     1      24.388 -17.706  34.808  1.00  0.00     0.302 C 
ATOM     32  O   UNL     1      25.464 -17.088  34.582  1.00  0.00    -0.253 OA
ATOM     33  C   UNL     1      24.316 -18.687  35.930  1.00  0.00     0.139 C 
ENDBRANCH  30  31
ENDBRANCH  25  30
ENDBRANCH   2   6
ENDBRANCH   1   2
BRANCH   1  34
ATOM     34  C   UNL     1      23.513 -23.590  23.914  1.00  0.00     0.031 C 
BRANCH  34  35
ATOM     35  C   UNL     1      22.762 -24.324  25.008  1.00  0.00    -0.075 C 
ATOM     36  C   UNL     1      21.798 -23.678  25.686  1.00  0.00     0.008 C 
BRANCH  35  37
ATOM     37  C   UNL     1      23.102 -25.766  25.368  1.00  0.00     0.008 C 
ATOM     38  C   UNL     1      23.801 -25.850  26.731  1.00  0.00     0.012 C 
ATOM     39  C   UNL     1      23.945 -26.435  24.275  1.00  0.00     0.012 C 
ENDBRANCH  35  37
ENDBRANCH  34  35
ENDBRANCH   1  34
TORSDOF 9
ENDMDL
MODEL 3
REMARK VINA RESULT:    -7.411      4.397      9.309
REMARK INTER + INTRA:         -12.118
REMARK INTER:                 -11.396
REMARK INTRA:                  -0.722
REMARK UNBOUND:                -1.024
REMARK SMILES C=C(CC[C@@H](C(=O)[O-])[C@H]1[C@@H](O)C[C@]2(C)C3=C(CC[C@@]12C)[C@@]1(C)CC[C@H](OC(C)=O)C(C)(C)[C@H]1CC3)C(C)C
REMARK SMILES IDX 4 1 5 2 6 3 7 4 8 5 9 6 10 7 19 8 12 9 13 10 18 11 20 12
REMARK SMILES IDX 14 13 15 14 17 15 16 16 35 17 21 18 34 19 33 20 23 21 22 22
REMARK SMILES IDX 30 23 24 24 25 25 31 26 32 27 11 28 26 30 27 31 29 32 28 33
REMARK SMILES IDX 3 34 2 35 1 36 36 37 37 38 38 39
REMARK H PARENT 11 29
REMARK Flexibility Score: inf
ROOT
ATOM      1  C   UNL     1      25.840 -28.167  34.282  1.00  0.00     0.014 C 
ENDROOT
BRANCH   1   2
ATOM      2  C   UNL     1      27.158 -27.748  33.567  1.00  0.00     0.042 C 
BRANCH   2   3
ATOM      3  C   UNL     1      28.277 -28.578  34.156  1.00  0.00     0.045 C 
ATOM      4  O   UNL     1      29.079 -28.055  34.974  1.00  0.00    -0.550 OA
ATOM      5  O   UNL     1      28.398 -29.929  33.854  1.00  0.00    -0.550 OA
ENDBRANCH   2   3
BRANCH   2   6
ATOM      6  C   UNL     1      27.139 -27.841  31.993  1.00  0.00     0.033 C 
ATOM      7  C   UNL     1      26.481 -29.119  31.369  1.00  0.00     0.119 C 
ATOM      8  C   UNL     1      26.476 -26.643  31.206  1.00  0.00    -0.017 C 
ATOM      9  C   UNL     1      25.516 -28.640  30.269  1.00  0.00     0.043 C 
ATOM     10  C   UNL     1      25.126 -27.215  30.681  1.00  0.00    -0.003 C 
ATOM     11  C   UNL     1      26.155 -25.325  31.944  1.00  0.00     0.012 C 
ATOM     12  C   UNL     1      27.476 -26.278  30.048  1.00  0.00     0.013 C 
ATOM     13  C   UNL     1      23.993 -27.324  31.752  1.00  0.00     0.017 C 
ATOM     14  C   UNL     1      24.583 -26.293  29.599  1.00  0.00    -0.064 C 
ATOM     15  C   UNL     1      25.285 -24.359  31.081  1.00  0.00     0.032 C 
ATOM     16  C   UNL     1      24.582 -24.941  29.824  1.00  0.00    -0.064 C 
ATOM     17  C   UNL     1      23.845 -26.871  28.417  1.00  0.00     0.032 C 
ATOM     18  C   UNL     1      23.941 -23.950  28.803  1.00  0.00    -0.008 C 
ATOM     19  C   UNL     1      22.555 -26.101  28.227  1.00  0.00     0.009 C 
ATOM     20  C   UNL     1      22.813 -24.611  27.873  1.00  0.00     0.009 C 
ATOM     21  C   UNL     1      25.101 -23.332  27.965  1.00  0.00     0.015 C 
ATOM     22  C   UNL     1      23.272 -22.791  29.592  1.00  0.00     0.016 C 
ATOM     23  C   UNL     1      22.941 -24.282  26.316  1.00  0.00     0.005 C 
ATOM     24  C   UNL     1      25.530 -24.222  26.809  1.00  0.00     0.047 C 
ATOM     25  C   UNL     1      24.413 -24.471  25.777  1.00  0.00     0.182 C 
ATOM     26  C   UNL     1      22.433 -22.827  26.070  1.00  0.00     0.015 C 
ATOM     27  C   UNL     1      21.996 -25.171  25.460  1.00  0.00     0.015 C 
BRANCH   7  28
ATOM     28  O   UNL     1      25.765 -29.867  32.319  1.00  0.00    -0.393 OA
ATOM     29  H   UNL     1      25.038 -30.331  31.826  1.00  0.00     0.210 HD
ENDBRANCH   7  28
BRANCH  25  30
ATOM     30  O   UNL     1      24.656 -23.617  24.649  1.00  0.00    -0.462 OA
BRANCH  30  31
ATOM     31  C   UNL     1      25.541 -23.917  23.605  1.00  0.00     0.302 C 
ATOM     32  O   UNL     1      26.611 -23.267  23.452  1.00  0.00    -0.253 OA
ATOM     33  C   UNL     1      25.217 -25.043  22.683  1.00  0.00     0.139 C 
ENDBRANCH  30  31
ENDBRANCH  25  30
ENDBRANCH   2   6
ENDBRANCH   1   2
BRANCH   1  34
ATOM     34  C   UNL     1      25.493 -27.360  35.546  1.00  0.00     0.031 C 
BRANCH  34  35
ATOM     35  C   UNL     1      25.871 -28.130  36.797  1.00  0.00    -0.075 C 
ATOM     36  C   UNL     1      25.184 -29.241  37.115  1.00  0.00     0.008 C 
BRANCH  35  37
ATOM     37  C   UNL     1      26.994 -27.649  37.711  1.00  0.00     0.008 C 
ATOM     38  C   UNL     1      26.662 -27.910  39.185  1.00  0.00     0.012 C 
ATOM     39  C   UNL     1      27.316 -26.168  37.472  1.00  0.00     0.012 C 
ENDBRANCH  35  37
ENDBRANCH  34  35
ENDBRANCH   1  34
TORSDOF 9
ENDMDL
MODEL 4
REMARK VINA RESULT:    -7.347      2.436      8.354
REMARK INTER + INTRA:         -12.022
REMARK INTER:                 -10.666
REMARK INTRA:                  -1.356
REMARK UNBOUND:                -1.024
REMARK SMILES C=C(CC[C@@H](C(=O)[O-])[C@H]1[C@@H](O)C[C@]2(C)C3=C(CC[C@@]12C)[C@@]1(C)CC[C@H](OC(C)=O)C(C)(C)[C@H]1CC3)C(C)C
REMARK SMILES IDX 4 1 5 2 6 3 7 4 8 5 9 6 10 7 19 8 12 9 13 10 18 11 20 12
REMARK SMILES IDX 14 13 15 14 17 15 16 16 35 17 21 18 34 19 33 20 23 21 22 22
REMARK SMILES IDX 30 23 24 24 25 25 31 26 32 27 11 28 26 30 27 31 29 32 28 33
REMARK SMILES IDX 3 34 2 35 1 36 36 37 37 38 38 39
REMARK H PARENT 11 29
REMARK Flexibility Score: inf
ROOT
ATOM      1  C   UNL     1      25.795 -24.615  25.934  1.00  0.00     0.014 C 
ENDROOT
BRANCH   1   2
ATOM      2  C   UNL     1      25.540 -23.488  24.892  1.00  0.00     0.042 C 
BRANCH   2   3
ATOM      3  C   UNL     1      25.390 -24.146  23.538  1.00  0.00     0.045 C 
ATOM      4  O   UNL     1      25.737 -23.524  22.499  1.00  0.00    -0.550 OA
ATOM      5  O   UNL     1      24.933 -25.453  23.427  1.00  0.00    -0.550 OA
ENDBRANCH   2   3
BRANCH   2   6
ATOM      6  C   UNL     1      24.325 -22.532  25.205  1.00  0.00     0.033 C 
ATOM      7  C   UNL     1      22.938 -23.214  25.460  1.00  0.00     0.119 C 
ATOM      8  C   UNL     1      24.488 -21.526  26.412  1.00  0.00    -0.017 C 
ATOM      9  C   UNL     1      22.355 -22.589  26.741  1.00  0.00     0.043 C 
ATOM     10  C   UNL     1      23.576 -22.106  27.533  1.00  0.00    -0.003 C 
ATOM     11  C   UNL     1      25.882 -21.295  27.034  1.00  0.00     0.012 C 
ATOM     12  C   UNL     1      23.994 -20.131  25.884  1.00  0.00     0.013 C 
ATOM     13  C   UNL     1      24.165 -23.338  28.295  1.00  0.00     0.017 C 
ATOM     14  C   UNL     1      23.350 -21.037  28.592  1.00  0.00    -0.064 C 
ATOM     15  C   UNL     1      25.812 -20.474  28.359  1.00  0.00     0.032 C 
ATOM     16  C   UNL     1      24.426 -20.318  29.044  1.00  0.00    -0.064 C 
ATOM     17  C   UNL     1      22.019 -20.941  29.294  1.00  0.00     0.032 C 
ATOM     18  C   UNL     1      24.281 -19.284  30.204  1.00  0.00    -0.008 C 
ATOM     19  C   UNL     1      22.263 -20.856  30.786  1.00  0.00     0.009 C 
ATOM     20  C   UNL     1      23.036 -19.567  31.177  1.00  0.00     0.009 C 
ATOM     21  C   UNL     1      24.208 -17.868  29.558  1.00  0.00     0.015 C 
ATOM     22  C   UNL     1      25.568 -19.331  31.072  1.00  0.00     0.016 C 
ATOM     23  C   UNL     1      22.134 -18.292  31.508  1.00  0.00     0.005 C 
ATOM     24  C   UNL     1      22.808 -17.510  29.082  1.00  0.00     0.047 C 
ATOM     25  C   UNL     1      21.768 -17.458  30.219  1.00  0.00     0.182 C 
ATOM     26  C   UNL     1      22.882 -17.410  32.557  1.00  0.00     0.015 C 
ATOM     27  C   UNL     1      20.809 -18.693  32.215  1.00  0.00     0.015 C 
BRANCH   7  28
ATOM     28  O   UNL     1      23.051 -24.604  25.633  1.00  0.00    -0.393 OA
ATOM     29  H   UNL     1      22.129 -24.951  25.759  1.00  0.00     0.210 HD
ENDBRANCH   7  28
BRANCH  25  30
ATOM     30  O   UNL     1      21.546 -16.079  30.550  1.00  0.00    -0.462 OA
BRANCH  30  31
ATOM     31  C   UNL     1      20.296 -15.447  30.510  1.00  0.00     0.302 C 
ATOM     32  O   UNL     1      19.739 -15.173  29.412  1.00  0.00    -0.253 OA
ATOM     33  C   UNL     1      19.609 -15.122  31.794  1.00  0.00     0.139 C 
ENDBRANCH  30  31
ENDBRANCH  25  30
ENDBRANCH   2   6
ENDBRANCH   1   2
BRANCH   1  34
ATOM     34  C   UNL     1      27.273 -24.864  26.286  1.00  0.00     0.031 C 
BRANCH  34  35
ATOM     35  C   UNL     1      27.467 -24.915  27.789  1.00  0.00    -0.075 C 
ATOM     36  C   UNL     1      28.101 -23.900  28.401  1.00  0.00     0.008 C 
BRANCH  35  37
ATOM     37  C   UNL     1      26.983 -26.107  28.607  1.00  0.00     0.008 C 
ATOM     38  C   UNL     1      26.655 -25.696  30.049  1.00  0.00     0.012 C 
ATOM     39  C   UNL     1      27.998 -27.257  28.579  1.00  0.00     0.012 C 
ENDBRANCH  35  37
ENDBRANCH  34  35
ENDBRANCH   1  34
TORSDOF 9
ENDMDL
MODEL 5
REMARK VINA RESULT:    -7.262      3.443      6.013
REMARK INTER + INTRA:         -11.895
REMARK INTER:                 -10.365
REMARK INTRA:                  -1.530
REMARK UNBOUND:                -1.024
REMARK SMILES C=C(CC[C@@H](C(=O)[O-])[C@H]1[C@@H](O)C[C@]2(C)C3=C(CC[C@@]12C)[C@@]1(C)CC[C@H](OC(C)=O)C(C)(C)[C@H]1CC3)C(C)C
REMARK SMILES IDX 4 1 5 2 6 3 7 4 8 5 9 6 10 7 19 8 12 9 13 10 18 11 20 12
REMARK SMILES IDX 14 13 15 14 17 15 16 16 35 17 21 18 34 19 33 20 23 21 22 22
REMARK SMILES IDX 30 23 24 24 25 25 31 26 32 27 11 28 26 30 27 31 29 32 28 33
REMARK SMILES IDX 3 34 2 35 1 36 36 37 37 38 38 39
REMARK H PARENT 11 29
REMARK Flexibility Score: inf
ROOT
ATOM      1  C   UNL     1      25.138 -22.567  26.281  1.00  0.00     0.014 C 
ENDROOT
BRANCH   1   2
ATOM      2  C   UNL     1      23.692 -23.074  26.552  1.00  0.00     0.042 C 
BRANCH   2   3
ATOM      3  C   UNL     1      22.888 -22.852  25.290  1.00  0.00     0.045 C 
ATOM      4  O   UNL     1      21.760 -22.296  25.357  1.00  0.00    -0.550 OA
ATOM      5  O   UNL     1      23.403 -23.199  24.047  1.00  0.00    -0.550 OA
ENDBRANCH   2   3
BRANCH   2   6
ATOM      6  C   UNL     1      23.575 -24.565  27.055  1.00  0.00     0.033 C 
ATOM      7  C   UNL     1      24.462 -25.628  26.322  1.00  0.00     0.119 C 
ATOM      8  C   UNL     1      23.840 -24.833  28.589  1.00  0.00    -0.017 C 
ATOM      9  C   UNL     1      25.163 -26.460  27.411  1.00  0.00     0.043 C 
ATOM     10  C   UNL     1      25.229 -25.535  28.631  1.00  0.00    -0.003 C 
ATOM     11  C   UNL     1      23.899 -23.647  29.576  1.00  0.00     0.012 C 
ATOM     12  C   UNL     1      22.671 -25.765  29.074  1.00  0.00     0.013 C 
ATOM     13  C   UNL     1      26.457 -24.584  28.441  1.00  0.00     0.017 C 
ATOM     14  C   UNL     1      25.417 -26.181  29.996  1.00  0.00    -0.064 C 
ATOM     15  C   UNL     1      24.412 -24.074  30.986  1.00  0.00     0.032 C 
ATOM     16  C   UNL     1      25.107 -25.457  31.118  1.00  0.00    -0.064 C 
ATOM     17  C   UNL     1      26.153 -27.493  30.114  1.00  0.00     0.032 C 
ATOM     18  C   UNL     1      25.379 -26.021  32.548  1.00  0.00    -0.008 C 
ATOM     19  C   UNL     1      27.188 -27.373  31.212  1.00  0.00     0.009 C 
ATOM     20  C   UNL     1      26.537 -27.132  32.602  1.00  0.00     0.009 C 
ATOM     21  C   UNL     1      24.025 -26.562  33.099  1.00  0.00     0.015 C 
ATOM     22  C   UNL     1      25.817 -24.849  33.467  1.00  0.00     0.016 C 
ATOM     23  C   UNL     1      26.176 -28.445  33.434  1.00  0.00     0.005 C 
ATOM     24  C   UNL     1      23.714 -27.971  32.617  1.00  0.00     0.047 C 
ATOM     25  C   UNL     1      24.750 -29.018  33.073  1.00  0.00     0.182 C 
ATOM     26  C   UNL     1      26.282 -28.115  34.957  1.00  0.00     0.015 C 
ATOM     27  C   UNL     1      27.220 -29.574  33.209  1.00  0.00     0.015 C 
BRANCH   7  28
ATOM     28  O   UNL     1      25.432 -25.035  25.496  1.00  0.00    -0.393 OA
ATOM     29  H   UNL     1      25.505 -24.086  25.780  1.00  0.00     0.210 HD
ENDBRANCH   7  28
BRANCH  25  30
ATOM     30  O   UNL     1      24.192 -29.735  34.185  1.00  0.00    -0.462 OA
BRANCH  30  31
ATOM     31  C   UNL     1      23.071 -30.571  34.105  1.00  0.00     0.302 C 
ATOM     32  O   UNL     1      22.011 -30.301  34.733  1.00  0.00    -0.253 OA
ATOM     33  C   UNL     1      23.134 -31.784  33.240  1.00  0.00     0.139 C 
ENDBRANCH  30  31
ENDBRANCH  25  30
ENDBRANCH   2   6
ENDBRANCH   1   2
BRANCH   1  34
ATOM     34  C   UNL     1      25.301 -21.036  26.242  1.00  0.00     0.031 C 
BRANCH  34  35
ATOM     35  C   UNL     1      24.971 -20.425  27.590  1.00  0.00    -0.075 C 
ATOM     36  C   UNL     1      25.776 -20.675  28.637  1.00  0.00     0.008 C 
BRANCH  35  37
ATOM     37  C   UNL     1      23.729 -19.561  27.782  1.00  0.00     0.008 C 
ATOM     38  C   UNL     1      22.673 -20.284  28.627  1.00  0.00     0.012 C 
ATOM     39  C   UNL     1      23.146 -19.110  26.437  1.00  0.00     0.012 C 
ENDBRANCH  35  37
ENDBRANCH  34  35
ENDBRANCH   1  34
TORSDOF 9
ENDMDL
MODEL 6
REMARK VINA RESULT:    -7.132      2.512      3.994
REMARK INTER + INTRA:         -11.700
REMARK INTER:                 -10.821
REMARK INTRA:                  -0.879
REMARK UNBOUND:                -1.024
REMARK SMILES C=C(CC[C@@H](C(=O)[O-])[C@H]1[C@@H](O)C[C@]2(C)C3=C(CC[C@@]12C)[C@@]1(C)CC[C@H](OC(C)=O)C(C)(C)[C@H]1CC3)C(C)C
REMARK SMILES IDX 4 1 5 2 6 3 7 4 8 5 9 6 10 7 19 8 12 9 13 10 18 11 20 12
REMARK SMILES IDX 14 13 15 14 17 15 16 16 35 17 21 18 34 19 33 20 23 21 22 22
REMARK SMILES IDX 30 23 24 24 25 25 31 26 32 27 11 28 26 30 27 31 29 32 28 33
REMARK SMILES IDX 3 34 2 35 1 36 36 37 37 38 38 39
REMARK H PARENT 11 29
REMARK Flexibility Score: inf
ROOT
ATOM      1  C   UNL     1      21.936 -16.249  31.022  1.00  0.00     0.014 C 
ENDROOT
BRANCH   1   2
ATOM      2  C   UNL     1      22.964 -17.014  30.140  1.00  0.00     0.042 C 
BRANCH   2   3
ATOM      3  C   UNL     1      24.340 -16.486  30.482  1.00  0.00     0.045 C 
ATOM      4  O   UNL     1      24.767 -15.443  29.920  1.00  0.00    -0.550 OA
ATOM      5  O   UNL     1      25.117 -17.100  31.457  1.00  0.00    -0.550 OA
ENDBRANCH   2   3
BRANCH   2   6
ATOM      6  C   UNL     1      22.910 -18.587  30.239  1.00  0.00     0.033 C 
ATOM      7  C   UNL     1      21.495 -19.253  30.143  1.00  0.00     0.119 C 
ATOM      8  C   UNL     1      23.792 -19.408  29.218  1.00  0.00    -0.017 C 
ATOM      9  C   UNL     1      21.605 -20.405  29.128  1.00  0.00     0.043 C 
ATOM     10  C   UNL     1      22.769 -20.012  28.211  1.00  0.00    -0.003 C 
ATOM     11  C   UNL     1      24.875 -18.685  28.387  1.00  0.00     0.012 C 
ATOM     12  C   UNL     1      24.533 -20.504  30.066  1.00  0.00     0.013 C 
ATOM     13  C   UNL     1      22.217 -19.008  27.146  1.00  0.00     0.017 C 
ATOM     14  C   UNL     1      23.447 -21.120  27.419  1.00  0.00    -0.064 C 
ATOM     15  C   UNL     1      25.466 -19.593  27.265  1.00  0.00     0.032 C 
ATOM     16  C   UNL     1      24.695 -20.891  26.899  1.00  0.00    -0.064 C 
ATOM     17  C   UNL     1      22.665 -22.345  27.015  1.00  0.00     0.032 C 
ATOM     18  C   UNL     1      25.399 -21.944  25.987  1.00  0.00    -0.008 C 
ATOM     19  C   UNL     1      22.899 -22.606  25.542  1.00  0.00     0.009 C 
ATOM     20  C   UNL     1      24.386 -22.940  25.239  1.00  0.00     0.009 C 
ATOM     21  C   UNL     1      26.426 -22.712  26.872  1.00  0.00     0.015 C 
ATOM     22  C   UNL     1      26.202 -21.192  24.892  1.00  0.00     0.016 C 
ATOM     23  C   UNL     1      24.777 -24.486  25.317  1.00  0.00     0.005 C 
ATOM     24  C   UNL     1      25.790 -23.844  27.664  1.00  0.00     0.047 C 
ATOM     25  C   UNL     1      25.167 -24.940  26.777  1.00  0.00     0.182 C 
ATOM     26  C   UNL     1      25.942 -24.756  24.313  1.00  0.00     0.015 C 
ATOM     27  C   UNL     1      23.620 -25.398  24.820  1.00  0.00     0.015 C 
BRANCH   7  28
ATOM     28  O   UNL     1      20.510 -18.348  29.711  1.00  0.00    -0.393 OA
ATOM     29  H   UNL     1      20.733 -17.469  30.117  1.00  0.00     0.210 HD
ENDBRANCH   7  28
BRANCH  25  30
ATOM     30  O   UNL     1      26.077 -26.049  26.741  1.00  0.00    -0.462 OA
BRANCH  30  31
ATOM     31  C   UNL     1      26.434 -26.817  27.857  1.00  0.00     0.302 C 
ATOM     32  O   UNL     1      25.569 -27.470  28.502  1.00  0.00    -0.253 OA
ATOM     33  C   UNL     1      27.868 -26.880  28.262  1.00  0.00     0.139 C 
ENDBRANCH  30  31
ENDBRANCH  25  30
ENDBRANCH   2   6
ENDBRANCH   1   2
BRANCH   1  34
ATOM     34  C   UNL     1      21.871 -16.695  32.494  1.00  0.00     0.031 C 
BRANCH  34  35
ATOM     35  C   UNL     1      20.448 -17.038  32.890  1.00  0.00    -0.075 C 
ATOM     36  C   UNL     1      19.451 -16.213  32.528  1.00  0.00     0.008 C 
BRANCH  35  37
ATOM     37  C   UNL     1      20.136 -18.283  33.714  1.00  0.00     0.008 C 
ATOM     38  C   UNL     1      21.394 -19.134  33.934  1.00  0.00     0.012 C 
ATOM     39  C   UNL     1      19.014 -19.112  33.077  1.00  0.00     0.012 C 
ENDBRANCH  35  37
ENDBRANCH  34  35
ENDBRANCH   1  34
TORSDOF 9
ENDMDL
MODEL 7
REMARK VINA RESULT:    -7.112      2.402      4.233
REMARK INTER + INTRA:         -11.670
REMARK INTER:                 -10.787
REMARK INTRA:                  -0.883
REMARK UNBOUND:                -1.024
REMARK SMILES C=C(CC[C@@H](C(=O)[O-])[C@H]1[C@@H](O)C[C@]2(C)C3=C(CC[C@@]12C)[C@@]1(C)CC[C@H](OC(C)=O)C(C)(C)[C@H]1CC3)C(C)C
REMARK SMILES IDX 4 1 5 2 6 3 7 4 8 5 9 6 10 7 19 8 12 9 13 10 18 11 20 12
REMARK SMILES IDX 14 13 15 14 17 15 16 16 35 17 21 18 34 19 33 20 23 21 22 22
REMARK SMILES IDX 30 23 24 24 25 25 31 26 32 27 11 28 26 30 27 31 29 32 28 33
REMARK SMILES IDX 3 34 2 35 1 36 36 37 37 38 38 39
REMARK H PARENT 11 29
REMARK Flexibility Score: inf
ROOT
ATOM      1  C   UNL     1      21.495 -17.644  31.271  1.00  0.00     0.014 C 
ENDROOT
BRANCH   1   2
ATOM      2  C   UNL     1      22.718 -18.145  32.093  1.00  0.00     0.042 C 
BRANCH   2   3
ATOM      3  C   UNL     1      22.487 -17.751  33.535  1.00  0.00     0.045 C 
ATOM      4  O   UNL     1      21.315 -17.718  33.995  1.00  0.00    -0.550 OA
ATOM      5  O   UNL     1      23.557 -17.483  34.380  1.00  0.00    -0.550 OA
ENDBRANCH   2   3
BRANCH   2   6
ATOM      6  C   UNL     1      23.044 -19.682  31.961  1.00  0.00     0.033 C 
ATOM      7  C   UNL     1      21.839 -20.674  32.094  1.00  0.00     0.119 C 
ATOM      8  C   UNL     1      23.788 -20.154  30.650  1.00  0.00    -0.017 C 
ATOM      9  C   UNL     1      21.934 -21.663  30.917  1.00  0.00     0.043 C 
ATOM     10  C   UNL     1      22.699 -20.903  29.827  1.00  0.00    -0.003 C 
ATOM     11  C   UNL     1      24.427 -19.107  29.712  1.00  0.00     0.012 C 
ATOM     12  C   UNL     1      24.951 -21.099  31.127  1.00  0.00     0.013 C 
ATOM     13  C   UNL     1      21.678 -19.980  29.085  1.00  0.00     0.017 C 
ATOM     14  C   UNL     1      23.376 -21.725  28.740  1.00  0.00    -0.064 C 
ATOM     15  C   UNL     1      24.891 -19.728  28.358  1.00  0.00     0.032 C 
ATOM     16  C   UNL     1      24.361 -21.140  27.987  1.00  0.00    -0.064 C 
ATOM     17  C   UNL     1      22.809 -23.066  28.346  1.00  0.00     0.032 C 
ATOM     18  C   UNL     1      25.018 -21.891  26.787  1.00  0.00    -0.008 C 
ATOM     19  C   UNL     1      22.703 -23.124  26.837  1.00  0.00     0.009 C 
ATOM     20  C   UNL     1      24.094 -23.039  26.151  1.00  0.00     0.009 C 
ATOM     21  C   UNL     1      26.386 -22.450  27.283  1.00  0.00     0.015 C 
ATOM     22  C   UNL     1      25.318 -20.862  25.664  1.00  0.00     0.016 C 
ATOM     23  C   UNL     1      24.827 -24.435  25.899  1.00  0.00     0.005 C 
ATOM     24  C   UNL     1      26.249 -23.774  28.019  1.00  0.00     0.047 C 
ATOM     25  C   UNL     1      25.676 -24.906  27.143  1.00  0.00     0.182 C 
ATOM     26  C   UNL     1      25.719 -24.306  24.624  1.00  0.00     0.015 C 
ATOM     27  C   UNL     1      23.814 -25.561  25.551  1.00  0.00     0.015 C 
BRANCH   7  28
ATOM     28  O   UNL     1      20.598 -20.014  32.045  1.00  0.00    -0.393 OA
ATOM     29  H   UNL     1      20.114 -20.258  32.878  1.00  0.00     0.210 HD
ENDBRANCH   7  28
BRANCH  25  30
ATOM     30  O   UNL     1      26.769 -25.739  26.728  1.00  0.00    -0.462 OA
BRANCH  30  31
ATOM     31  C   UNL     1      27.749 -26.248  27.591  1.00  0.00     0.302 C 
ATOM     32  O   UNL     1      27.493 -27.197  28.380  1.00  0.00    -0.253 OA
ATOM     33  C   UNL     1      29.122 -25.667  27.545  1.00  0.00     0.139 C 
ENDBRANCH  30  31
ENDBRANCH  25  30
ENDBRANCH   2   6
ENDBRANCH   1   2
BRANCH   1  34
ATOM     34  C   UNL     1      21.796 -16.517  30.265  1.00  0.00     0.031 C 
BRANCH  34  35
ATOM     35  C   UNL     1      20.516 -15.999  29.638  1.00  0.00    -0.075 C 
ATOM     36  C   UNL     1      19.722 -15.183  30.351  1.00  0.00     0.008 C 
BRANCH  35  37
ATOM     37  C   UNL     1      20.104 -16.412  28.229  1.00  0.00     0.008 C 
ATOM     38  C   UNL     1      21.316 -16.867  27.405  1.00  0.00     0.012 C 
ATOM     39  C   UNL     1      19.343 -15.289  27.514  1.00  0.00     0.012 C 
ENDBRANCH  35  37
ENDBRANCH  34  35
ENDBRANCH   1  34
TORSDOF 9
ENDMDL
MODEL 8
REMARK VINA RESULT:    -7.079      2.503      3.962
REMARK INTER + INTRA:         -11.621
REMARK INTER:                 -10.514
REMARK INTRA:                  -1.107
REMARK UNBOUND:                -1.024
REMARK SMILES C=C(CC[C@@H](C(=O)[O-])[C@H]1[C@@H](O)C[C@]2(C)C3=C(CC[C@@]12C)[C@@]1(C)CC[C@H](OC(C)=O)C(C)(C)[C@H]1CC3)C(C)C
REMARK SMILES IDX 4 1 5 2 6 3 7 4 8 5 9 6 10 7 19 8 12 9 13 10 18 11 20 12
REMARK SMILES IDX 14 13 15 14 17 15 16 16 35 17 21 18 34 19 33 20 23 21 22 22
REMARK SMILES IDX 30 23 24 24 25 25 31 26 32 27 11 28 26 30 27 31 29 32 28 33
REMARK SMILES IDX 3 34 2 35 1 36 36 37 37 38 38 39
REMARK H PARENT 11 29
REMARK Flexibility Score: inf
ROOT
ATOM      1  C   UNL     1      21.773 -16.655  31.180  1.00  0.00     0.014 C 
ENDROOT
BRANCH   1   2
ATOM      2  C   UNL     1      21.021 -17.122  29.901  1.00  0.00     0.042 C 
BRANCH   2   3
ATOM      3  C   UNL     1      20.142 -15.977  29.447  1.00  0.00     0.045 C 
ATOM      4  O   UNL     1      19.551 -16.045  28.337  1.00  0.00    -0.550 OA
ATOM      5  O   UNL     1      19.927 -14.876  30.266  1.00  0.00    -0.550 OA
ENDBRANCH   2   3
BRANCH   2   6
ATOM      6  C   UNL     1      21.934 -17.648  28.727  1.00  0.00     0.033 C 
ATOM      7  C   UNL     1      23.315 -16.934  28.532  1.00  0.00     0.119 C 
ATOM      8  C   UNL     1      22.292 -19.186  28.722  1.00  0.00    -0.017 C 
ATOM      9  C   UNL     1      24.381 -18.037  28.402  1.00  0.00     0.043 C 
ATOM     10  C   UNL     1      23.790 -19.243  29.142  1.00  0.00    -0.003 C 
ATOM     11  C   UNL     1      21.523 -20.155  29.646  1.00  0.00     0.012 C 
ATOM     12  C   UNL     1      22.051 -19.683  27.250  1.00  0.00     0.013 C 
ATOM     13  C   UNL     1      24.057 -19.042  30.669  1.00  0.00     0.017 C 
ATOM     14  C   UNL     1      24.348 -20.618  28.804  1.00  0.00    -0.064 C 
ATOM     15  C   UNL     1      22.172 -21.572  29.691  1.00  0.00     0.032 C 
ATOM     16  C   UNL     1      23.617 -21.728  29.140  1.00  0.00    -0.064 C 
ATOM     17  C   UNL     1      25.774 -20.759  28.333  1.00  0.00     0.032 C 
ATOM     18  C   UNL     1      24.179 -23.167  28.921  1.00  0.00    -0.008 C 
ATOM     19  C   UNL     1      26.443 -21.858  29.130  1.00  0.00     0.009 C 
ATOM     20  C   UNL     1      25.782 -23.241  28.883  1.00  0.00     0.009 C 
ATOM     21  C   UNL     1      23.537 -23.723  27.614  1.00  0.00     0.015 C 
ATOM     22  C   UNL     1      23.701 -24.069  30.091  1.00  0.00     0.016 C 
ATOM     23  C   UNL     1      26.391 -24.093  27.678  1.00  0.00     0.005 C 
ATOM     24  C   UNL     1      24.265 -23.262  26.360  1.00  0.00     0.047 C 
ATOM     25  C   UNL     1      25.729 -23.737  26.290  1.00  0.00     0.182 C 
ATOM     26  C   UNL     1      26.229 -25.611  28.008  1.00  0.00     0.015 C 
ATOM     27  C   UNL     1      27.926 -23.889  27.547  1.00  0.00     0.015 C 
BRANCH   7  28
ATOM     28  O   UNL     1      23.641 -16.101  29.617  1.00  0.00    -0.393 OA
ATOM     29  H   UNL     1      24.565 -16.341  29.892  1.00  0.00     0.210 HD
ENDBRANCH   7  28
BRANCH  25  30
ATOM     30  O   UNL     1      25.787 -24.858  25.395  1.00  0.00    -0.462 OA
BRANCH  30  31
ATOM     31  C   UNL     1      24.897 -25.072  24.334  1.00  0.00     0.302 C 
ATOM     32  O   UNL     1      24.979 -24.400  23.270  1.00  0.00    -0.253 OA
ATOM     33  C   UNL     1      23.858 -26.133  24.465  1.00  0.00     0.139 C 
ENDBRANCH  30  31
ENDBRANCH  25  30
ENDBRANCH   2   6
ENDBRANCH   1   2
BRANCH   1  34
ATOM     34  C   UNL     1      20.997 -16.824  32.499  1.00  0.00     0.031 C 
BRANCH  34  35
ATOM     35  C   UNL     1      21.624 -17.905  33.358  1.00  0.00    -0.075 C 
ATOM     36  C   UNL     1      22.840 -17.694  33.890  1.00  0.00     0.008 C 
BRANCH  35  37
ATOM     37  C   UNL     1      20.912 -19.231  33.602  1.00  0.00     0.008 C 
ATOM     38  C   UNL     1      21.861 -20.418  33.394  1.00  0.00     0.012 C 
ATOM     39  C   UNL     1      19.660 -19.366  32.726  1.00  0.00     0.012 C 
ENDBRANCH  35  37
ENDBRANCH  34  35
ENDBRANCH   1  34
TORSDOF 9
ENDMDL
MODEL 9
REMARK VINA RESULT:    -7.071      2.369      8.408
REMARK INTER + INTRA:         -11.609
REMARK INTER:                 -10.139
REMARK INTRA:                  -1.470
REMARK UNBOUND:                -1.024
REMARK SMILES C=C(CC[C@@H](C(=O)[O-])[C@H]1[C@@H](O)C[C@]2(C)C3=C(CC[C@@]12C)[C@@]1(C)CC[C@H](OC(C)=O)C(C)(C)[C@H]1CC3)C(C)C
REMARK SMILES IDX 4 1 5 2 6 3 7 4 8 5 9 6 10 7 19 8 12 9 13 10 18 11 20 12
REMARK SMILES IDX 14 13 15 14 17 15 16 16 35 17 21 18 34 19 33 20 23 21 22 22
REMARK SMILES IDX 30 23 24 24 25 25 31 26 32 27 11 28 26 30 27 31 29 32 28 33
REMARK SMILES IDX 3 34 2 35 1 36 36 37 37 38 38 39
REMARK H PARENT 11 29
REMARK Flexibility Score: inf
ROOT
ATOM      1  C   UNL     1      26.230 -25.246  26.684  1.00  0.00     0.014 C 
ENDROOT
BRANCH   1   2
ATOM      2  C   UNL     1      26.071 -25.726  28.156  1.00  0.00     0.042 C 
BRANCH   2   3
ATOM      3  C   UNL     1      27.038 -26.871  28.368  1.00  0.00     0.045 C 
ATOM      4  O   UNL     1      26.692 -27.860  29.065  1.00  0.00    -0.550 OA
ATOM      5  O   UNL     1      28.283 -26.875  27.752  1.00  0.00    -0.550 OA
ENDBRANCH   2   3
BRANCH   2   6
ATOM      6  C   UNL     1      26.247 -24.612  29.259  1.00  0.00     0.033 C 
ATOM      7  C   UNL     1      27.625 -23.868  29.298  1.00  0.00     0.119 C 
ATOM      8  C   UNL     1      25.179 -23.449  29.289  1.00  0.00    -0.017 C 
ATOM      9  C   UNL     1      27.323 -22.360  29.370  1.00  0.00     0.043 C 
ATOM     10  C   UNL     1      25.936 -22.206  28.735  1.00  0.00    -0.003 C 
ATOM     11  C   UNL     1      23.873 -23.586  28.476  1.00  0.00     0.012 C 
ATOM     12  C   UNL     1      24.758 -23.285  30.794  1.00  0.00     0.013 C 
ATOM     13  C   UNL     1      26.125 -22.185  27.182  1.00  0.00     0.017 C 
ATOM     14  C   UNL     1      25.143 -20.952  29.070  1.00  0.00    -0.064 C 
ATOM     15  C   UNL     1      23.065 -22.253  28.425  1.00  0.00     0.032 C 
ATOM     16  C   UNL     1      23.791 -20.945  28.845  1.00  0.00    -0.064 C 
ATOM     17  C   UNL     1      25.866 -19.672  29.412  1.00  0.00     0.032 C 
ATOM     18  C   UNL     1      22.938 -19.657  29.065  1.00  0.00    -0.008 C 
ATOM     19  C   UNL     1      25.268 -18.545  28.598  1.00  0.00     0.009 C 
ATOM     20  C   UNL     1      23.778 -18.293  28.957  1.00  0.00     0.009 C 
ATOM     21  C   UNL     1      22.230 -19.799  30.446  1.00  0.00     0.015 C 
ATOM     22  C   UNL     1      21.830 -19.606  27.979  1.00  0.00     0.016 C 
ATOM     23  C   UNL     1      23.517 -17.244  30.132  1.00  0.00     0.005 C 
ATOM     24  C   UNL     1      23.121 -19.391  31.609  1.00  0.00     0.047 C 
ATOM     25  C   UNL     1      23.555 -17.913  31.561  1.00  0.00     0.182 C 
ATOM     26  C   UNL     1      22.147 -16.539  29.875  1.00  0.00     0.015 C 
ATOM     27  C   UNL     1      24.556 -16.088  30.112  1.00  0.00     0.015 C 
BRANCH   7  28
ATOM     28  O   UNL     1      28.404 -24.130  28.158  1.00  0.00    -0.393 OA
ATOM     29  H   UNL     1      27.844 -24.685  27.553  1.00  0.00     0.210 HD
ENDBRANCH   7  28
BRANCH  25  30
ATOM     30  O   UNL     1      22.738 -17.183  32.487  1.00  0.00    -0.462 OA
BRANCH  30  31
ATOM     31  C   UNL     1      22.135 -17.741  33.623  1.00  0.00     0.302 C 
ATOM     32  O   UNL     1      22.824 -18.105  34.614  1.00  0.00    -0.253 OA
ATOM     33  C   UNL     1      20.650 -17.875  33.660  1.00  0.00     0.139 C 
ENDBRANCH  30  31
ENDBRANCH  25  30
ENDBRANCH   2   6
ENDBRANCH   1   2
BRANCH   1  34
ATOM     34  C   UNL     1      25.156 -25.755  25.707  1.00  0.00     0.031 C 
BRANCH  34  35
ATOM     35  C   UNL     1      24.772 -24.673  24.717  1.00  0.00    -0.075 C 
ATOM     36  C   UNL     1      25.735 -24.076  23.993  1.00  0.00     0.008 C 
BRANCH  35  37
ATOM     37  C   UNL     1      23.321 -24.232  24.553  1.00  0.00     0.008 C 
ATOM     38  C   UNL     1      23.146 -22.750  24.907  1.00  0.00     0.012 C 
ATOM     39  C   UNL     1      22.370 -25.112  25.375  1.00  0.00     0.012 C 
ENDBRANCH  35  37
ENDBRANCH  34  35
ENDBRANCH   1  34
TORSDOF 9
ENDMDL
