MODEL 1
REMARK VINA RESULT:    -3.576      0.000      0.000
REMARK INTER + INTRA:          -7.086
REMARK INTER:                  -5.666
REMARK INTRA:                  -1.420
REMARK UNBOUND:                -1.420
REMARK SMILES CCCCCCCCCCCC(=O)[O-]
REMARK SMILES IDX 7 1 8 2 9 3 10 4 11 5 12 6 13 7 14 8 6 9 5 10 4 11 3 12 2 13
REMARK SMILES IDX 1 14
REMARK H PARENT
REMARK Flexibility Score: inf
ROOT
ATOM      1  C   UNL     1       5.370  39.445  -7.200  1.00  0.00     0.000 C 
ENDROOT
BRANCH   1   2
ATOM      2  C   UNL     1       3.837  39.472  -7.018  1.00  0.00     0.000 C 
BRANCH   2   3
ATOM      3  C   UNL     1       3.086  38.528  -7.972  1.00  0.00     0.000 C 
BRANCH   3   4
ATOM      4  C   UNL     1       1.989  37.715  -7.265  1.00  0.00     0.006 C 
BRANCH   4   5
ATOM      5  C   UNL     1       1.729  38.212  -5.836  1.00  0.00     0.053 C 
BRANCH   5   6
ATOM      6  C   UNL     1       1.265  37.108  -4.937  1.00  0.00     0.041 C 
ATOM      7  O   UNL     1       0.438  36.255  -5.355  1.00  0.00    -0.550 OA
ATOM      8  O   UNL     1       1.721  37.038  -3.626  1.00  0.00    -0.550 OA
ENDBRANCH   5   6
ENDBRANCH   4   5
ENDBRANCH   3   4
ENDBRANCH   2   3
ENDBRANCH   1   2
BRANCH   1   9
ATOM      9  C   UNL     1       6.047  38.414  -6.280  1.00  0.00     0.000 C 
BRANCH   9  10
ATOM     10  C   UNL     1       5.314  38.269  -4.928  1.00  0.00    -0.000 C 
BRANCH  10  11
ATOM     11  C   UNL     1       4.979  36.814  -4.559  1.00  0.00    -0.000 C 
BRANCH  11  12
ATOM     12  C   UNL     1       4.876  35.896  -5.788  1.00  0.00    -0.000 C 
BRANCH  12  13
ATOM     13  C   UNL     1       5.807  34.677  -5.693  1.00  0.00    -0.003 C 
ATOM     14  C   UNL     1       6.942  34.717  -6.716  1.00  0.00     0.004 C 
ENDBRANCH  12  13
ENDBRANCH  11  12
ENDBRANCH  10  11
ENDBRANCH   9  10
ENDBRANCH   1   9
TORSDOF 10
ENDMDL
MODEL 2
REMARK VINA RESULT:    -3.571      3.416      5.762
REMARK INTER + INTRA:          -7.079
REMARK INTER:                  -6.004
REMARK INTRA:                  -1.076
REMARK UNBOUND:                -1.420
REMARK SMILES CCCCCCCCCCCC(=O)[O-]
REMARK SMILES IDX 7 1 8 2 9 3 10 4 11 5 12 6 13 7 14 8 6 9 5 10 4 11 3 12 2 13
REMARK SMILES IDX 1 14
REMARK H PARENT
REMARK Flexibility Score: inf
ROOT
ATOM      1  C   UNL     1       4.650  36.794  -4.571  1.00  0.00     0.000 C 
ENDROOT
BRANCH   1   2
ATOM      2  C   UNL     1       4.867  35.705  -5.644  1.00  0.00     0.000 C 
BRANCH   2   3
ATOM      3  C   UNL     1       5.608  34.462  -5.122  1.00  0.00     0.000 C 
BRANCH   3   4
ATOM      4  C   UNL     1       7.014  34.310  -5.724  1.00  0.00     0.006 C 
BRANCH   4   5
ATOM      5  C   UNL     1       6.973  34.060  -7.238  1.00  0.00     0.053 C 
BRANCH   5   6
ATOM      6  C   UNL     1       7.409  32.669  -7.585  1.00  0.00     0.041 C 
ATOM      7  O   UNL     1       6.988  31.687  -6.918  1.00  0.00    -0.550 OA
ATOM      8  O   UNL     1       8.304  32.459  -8.627  1.00  0.00    -0.550 OA
ENDBRANCH   5   6
ENDBRANCH   4   5
ENDBRANCH   3   4
ENDBRANCH   2   3
ENDBRANCH   1   2
BRANCH   1   9
ATOM      9  C   UNL     1       5.313  38.128  -4.953  1.00  0.00     0.000 C 
BRANCH   9  10
ATOM     10  C   UNL     1       6.105  38.028  -6.275  1.00  0.00    -0.000 C 
BRANCH  10  11
ATOM     11  C   UNL     1       6.090  39.323  -7.104  1.00  0.00    -0.000 C 
BRANCH  11  12
ATOM     12  C   UNL     1       4.668  39.803  -7.434  1.00  0.00    -0.000 C 
BRANCH  12  13
ATOM     13  C   UNL     1       3.887  38.790  -8.286  1.00  0.00    -0.003 C 
ATOM     14  C   UNL     1       2.629  38.273  -7.588  1.00  0.00     0.004 C 
ENDBRANCH  12  13
ENDBRANCH  11  12
ENDBRANCH  10  11
ENDBRANCH   9  10
ENDBRANCH   1   9
TORSDOF 10
ENDMDL
MODEL 3
REMARK VINA RESULT:    -3.511      2.473      4.084
REMARK INTER + INTRA:          -6.984
REMARK INTER:                  -5.393
REMARK INTRA:                  -1.591
REMARK UNBOUND:                -1.420
REMARK SMILES CCCCCCCCCCCC(=O)[O-]
REMARK SMILES IDX 7 1 8 2 9 3 10 4 11 5 12 6 13 7 14 8 6 9 5 10 4 11 3 12 2 13
REMARK SMILES IDX 1 14
REMARK H PARENT
REMARK Flexibility Score: inf
ROOT
ATOM      1  C   UNL     1       3.449  35.731  -5.085  1.00  0.00     0.000 C 
ENDROOT
BRANCH   1   2
ATOM      2  C   UNL     1       4.427  36.772  -4.496  1.00  0.00     0.000 C 
BRANCH   2   3
ATOM      3  C   UNL     1       4.332  38.155  -5.163  1.00  0.00     0.000 C 
BRANCH   3   4
ATOM      4  C   UNL     1       5.668  38.622  -5.761  1.00  0.00     0.006 C 
BRANCH   4   5
ATOM      5  C   UNL     1       5.586  38.817  -7.281  1.00  0.00     0.053 C 
BRANCH   5   6
ATOM      6  C   UNL     1       4.410  39.658  -7.673  1.00  0.00     0.041 C 
ATOM      7  O   UNL     1       4.365  40.875  -7.352  1.00  0.00    -0.550 OA
ATOM      8  O   UNL     1       3.349  39.091  -8.368  1.00  0.00    -0.550 OA
ENDBRANCH   5   6
ENDBRANCH   4   5
ENDBRANCH   3   4
ENDBRANCH   2   3
ENDBRANCH   1   2
BRANCH   1   9
ATOM      9  C   UNL     1       3.379  35.802  -6.620  1.00  0.00     0.000 C 
BRANCH   9  10
ATOM     10  C   UNL     1       4.205  34.684  -7.294  1.00  0.00    -0.000 C 
BRANCH  10  11
ATOM     11  C   UNL     1       5.536  35.173  -7.890  1.00  0.00    -0.000 C 
BRANCH  11  12
ATOM     12  C   UNL     1       6.702  35.087  -6.892  1.00  0.00    -0.000 C 
BRANCH  12  13
ATOM     13  C   UNL     1       6.730  33.752  -6.131  1.00  0.00    -0.003 C 
ATOM     14  C   UNL     1       6.754  33.936  -4.614  1.00  0.00     0.004 C 
ENDBRANCH  12  13
ENDBRANCH  11  12
ENDBRANCH  10  11
ENDBRANCH   9  10
ENDBRANCH   1   9
TORSDOF 10
ENDMDL
MODEL 4
REMARK VINA RESULT:    -3.482      2.764      4.658
REMARK INTER + INTRA:          -6.937
REMARK INTER:                  -5.571
REMARK INTRA:                  -1.366
REMARK UNBOUND:                -1.420
REMARK SMILES CCCCCCCCCCCC(=O)[O-]
REMARK SMILES IDX 7 1 8 2 9 3 10 4 11 5 12 6 13 7 14 8 6 9 5 10 4 11 3 12 2 13
REMARK SMILES IDX 1 14
REMARK H PARENT
REMARK Flexibility Score: inf
ROOT
ATOM      1  C   UNL     1       6.054  38.485  -5.795  1.00  0.00     0.000 C 
ENDROOT
BRANCH   1   2
ATOM      2  C   UNL     1       4.703  38.490  -5.045  1.00  0.00     0.000 C 
BRANCH   2   3
ATOM      3  C   UNL     1       4.232  37.091  -4.613  1.00  0.00     0.000 C 
BRANCH   3   4
ATOM      4  C   UNL     1       4.812  35.969  -5.490  1.00  0.00     0.006 C 
BRANCH   4   5
ATOM      5  C   UNL     1       5.565  34.919  -4.663  1.00  0.00     0.053 C 
BRANCH   5   6
ATOM      6  C   UNL     1       6.539  34.145  -5.498  1.00  0.00     0.041 C 
ATOM      7  O   UNL     1       7.126  34.699  -6.465  1.00  0.00    -0.550 OA
ATOM      8  O   UNL     1       6.777  32.803  -5.228  1.00  0.00    -0.550 OA
ENDBRANCH   5   6
ENDBRANCH   4   5
ENDBRANCH   3   4
ENDBRANCH   2   3
ENDBRANCH   1   2
BRANCH   1   9
ATOM      9  C   UNL     1       5.950  39.137  -7.184  1.00  0.00     0.000 C 
BRANCH   9  10
ATOM     10  C   UNL     1       4.685  40.013  -7.325  1.00  0.00    -0.000 C 
BRANCH  10  11
ATOM     11  C   UNL     1       3.691  39.498  -8.379  1.00  0.00    -0.000 C 
BRANCH  11  12
ATOM     12  C   UNL     1       3.893  38.011  -8.712  1.00  0.00    -0.000 C 
BRANCH  12  13
ATOM     13  C   UNL     1       2.645  37.165  -8.413  1.00  0.00    -0.003 C 
ATOM     14  C   UNL     1       1.787  37.751  -7.291  1.00  0.00     0.004 C 
ENDBRANCH  12  13
ENDBRANCH  11  12
ENDBRANCH  10  11
ENDBRANCH   9  10
ENDBRANCH   1   9
TORSDOF 10
ENDMDL
MODEL 5
REMARK VINA RESULT:    -3.449      2.500      4.568
REMARK INTER + INTRA:          -6.886
REMARK INTER:                  -5.367
REMARK INTRA:                  -1.519
REMARK UNBOUND:                -1.420
REMARK SMILES CCCCCCCCCCCC(=O)[O-]
REMARK SMILES IDX 7 1 8 2 9 3 10 4 11 5 12 6 13 7 14 8 6 9 5 10 4 11 3 12 2 13
REMARK SMILES IDX 1 14
REMARK H PARENT
REMARK Flexibility Score: inf
ROOT
ATOM      1  C   UNL     1       4.152  40.139  -7.731  1.00  0.00     0.000 C 
ENDROOT
BRANCH   1   2
ATOM      2  C   UNL     1       4.690  39.664  -6.363  1.00  0.00     0.000 C 
BRANCH   2   3
ATOM      3  C   UNL     1       5.910  38.733  -6.469  1.00  0.00     0.000 C 
BRANCH   3   4
ATOM      4  C   UNL     1       5.657  37.347  -5.855  1.00  0.00     0.006 C 
BRANCH   4   5
ATOM      5  C   UNL     1       6.087  36.211  -6.793  1.00  0.00     0.053 C 
BRANCH   5   6
ATOM      6  C   UNL     1       6.423  34.961  -6.039  1.00  0.00     0.041 C 
ATOM      7  O   UNL     1       6.017  34.806  -4.856  1.00  0.00    -0.550 OA
ATOM      8  O   UNL     1       7.209  33.980  -6.630  1.00  0.00    -0.550 OA
ENDBRANCH   5   6
ENDBRANCH   4   5
ENDBRANCH   3   4
ENDBRANCH   2   3
ENDBRANCH   1   2
BRANCH   1   9
ATOM      9  C   UNL     1       3.795  38.962  -8.656  1.00  0.00     0.000 C 
BRANCH   9  10
ATOM     10  C   UNL     1       2.436  38.324  -8.290  1.00  0.00    -0.000 C 
BRANCH  10  11
ATOM     11  C   UNL     1       2.549  36.872  -7.796  1.00  0.00    -0.000 C 
BRANCH  11  12
ATOM     12  C   UNL     1       1.754  36.620  -6.504  1.00  0.00    -0.000 C 
BRANCH  12  13
ATOM     13  C   UNL     1       1.509  37.907  -5.702  1.00  0.00    -0.003 C 
ATOM     14  C   UNL     1       2.251  37.922  -4.365  1.00  0.00     0.004 C 
ENDBRANCH  12  13
ENDBRANCH  11  12
ENDBRANCH  10  11
ENDBRANCH   9  10
ENDBRANCH   1   9
TORSDOF 10
ENDMDL
MODEL 6
REMARK VINA RESULT:    -3.449      2.529      4.071
REMARK INTER + INTRA:          -6.886
REMARK INTER:                  -6.007
REMARK INTRA:                  -0.878
REMARK UNBOUND:                -1.420
REMARK SMILES CCCCCCCCCCCC(=O)[O-]
REMARK SMILES IDX 7 1 8 2 9 3 10 4 11 5 12 6 13 7 14 8 6 9 5 10 4 11 3 12 2 13
REMARK SMILES IDX 1 14
REMARK H PARENT
REMARK Flexibility Score: inf
ROOT
ATOM      1  C   UNL     1       5.646  36.161  -6.746  1.00  0.00     0.000 C 
ENDROOT
BRANCH   1   2
ATOM      2  C   UNL     1       5.233  36.502  -5.298  1.00  0.00     0.000 C 
BRANCH   2   3
ATOM      3  C   UNL     1       5.242  38.009  -4.992  1.00  0.00     0.000 C 
BRANCH   3   4
ATOM      4  C   UNL     1       5.639  38.862  -6.208  1.00  0.00     0.006 C 
BRANCH   4   5
ATOM      5  C   UNL     1       4.552  39.880  -6.581  1.00  0.00     0.053 C 
BRANCH   5   6
ATOM      6  C   UNL     1       3.667  39.374  -7.678  1.00  0.00     0.041 C 
ATOM      7  O   UNL     1       3.695  39.914  -8.816  1.00  0.00    -0.550 OA
ATOM      8  O   UNL     1       2.788  38.325  -7.437  1.00  0.00    -0.550 OA
ENDBRANCH   5   6
ENDBRANCH   4   5
ENDBRANCH   3   4
ENDBRANCH   2   3
ENDBRANCH   1   2
BRANCH   1   9
ATOM      9  C   UNL     1       6.758  35.099  -6.800  1.00  0.00     0.000 C 
BRANCH   9  10
ATOM     10  C   UNL     1       6.855  34.290  -5.488  1.00  0.00    -0.000 C 
BRANCH  10  11
ATOM     11  C   UNL     1       6.468  32.810  -5.645  1.00  0.00    -0.000 C 
BRANCH  11  12
ATOM     12  C   UNL     1       6.283  32.395  -7.113  1.00  0.00    -0.000 C 
BRANCH  12  13
ATOM     13  C   UNL     1       7.397  31.455  -7.604  1.00  0.00    -0.003 C 
ATOM     14  C   UNL     1       8.316  32.114  -8.633  1.00  0.00     0.004 C 
ENDBRANCH  12  13
ENDBRANCH  11  12
ENDBRANCH  10  11
ENDBRANCH   9  10
ENDBRANCH   1   9
TORSDOF 10
ENDMDL
MODEL 7
REMARK VINA RESULT:    -3.425      2.812      4.791
REMARK INTER + INTRA:          -6.847
REMARK INTER:                  -5.251
REMARK INTRA:                  -1.596
REMARK UNBOUND:                -1.420
REMARK SMILES CCCCCCCCCCCC(=O)[O-]
REMARK SMILES IDX 7 1 8 2 9 3 10 4 11 5 12 6 13 7 14 8 6 9 5 10 4 11 3 12 2 13
REMARK SMILES IDX 1 14
REMARK H PARENT
REMARK Flexibility Score: inf
ROOT
ATOM      1  C   UNL     1       2.994  36.341  -6.023  1.00  0.00     0.000 C 
ENDROOT
BRANCH   1   2
ATOM      2  C   UNL     1       3.296  35.525  -7.299  1.00  0.00     0.000 C 
BRANCH   2   3
ATOM      3  C   UNL     1       4.646  35.874  -7.950  1.00  0.00     0.000 C 
BRANCH   3   4
ATOM      4  C   UNL     1       5.636  34.699  -7.936  1.00  0.00     0.006 C 
BRANCH   4   5
ATOM      5  C   UNL     1       6.762  34.903  -6.913  1.00  0.00     0.053 C 
BRANCH   5   6
ATOM      6  C   UNL     1       6.829  33.778  -5.926  1.00  0.00     0.041 C 
ATOM      7  O   UNL     1       6.789  32.583  -6.322  1.00  0.00    -0.550 OA
ATOM      8  O   UNL     1       6.904  34.049  -4.565  1.00  0.00    -0.550 OA
ENDBRANCH   5   6
ENDBRANCH   4   5
ENDBRANCH   3   4
ENDBRANCH   2   3
ENDBRANCH   1   2
BRANCH   1   9
ATOM      9  C   UNL     1       3.824  35.865  -4.818  1.00  0.00     0.000 C 
BRANCH   9  10
ATOM     10  C   UNL     1       4.870  36.915  -4.380  1.00  0.00    -0.000 C 
BRANCH  10  11
ATOM     11  C   UNL     1       4.759  38.250  -5.135  1.00  0.00    -0.000 C 
BRANCH  11  12
ATOM     12  C   UNL     1       6.007  38.563  -5.977  1.00  0.00    -0.000 C 
BRANCH  12  13
ATOM     13  C   UNL     1       5.693  39.467  -7.180  1.00  0.00    -0.003 C 
ATOM     14  C   UNL     1       4.194  39.681  -7.385  1.00  0.00     0.004 C 
ENDBRANCH  12  13
ENDBRANCH  11  12
ENDBRANCH  10  11
ENDBRANCH   9  10
ENDBRANCH   1   9
TORSDOF 10
ENDMDL
MODEL 8
REMARK VINA RESULT:    -3.419      1.322      2.006
REMARK INTER + INTRA:          -6.838
REMARK INTER:                  -5.645
REMARK INTRA:                  -1.194
REMARK UNBOUND:                -1.420
REMARK SMILES CCCCCCCCCCCC(=O)[O-]
REMARK SMILES IDX 7 1 8 2 9 3 10 4 11 5 12 6 13 7 14 8 6 9 5 10 4 11 3 12 2 13
REMARK SMILES IDX 1 14
REMARK H PARENT
REMARK Flexibility Score: inf
ROOT
ATOM      1  C   UNL     1       5.709  38.792  -6.913  1.00  0.00     0.000 C 
ENDROOT
BRANCH   1   2
ATOM      2  C   UNL     1       4.828  40.027  -7.206  1.00  0.00     0.000 C 
BRANCH   2   3
ATOM      3  C   UNL     1       3.839  39.818  -8.365  1.00  0.00     0.000 C 
BRANCH   3   4
ATOM      4  C   UNL     1       3.521  38.336  -8.618  1.00  0.00     0.006 C 
BRANCH   4   5
ATOM      5  C   UNL     1       2.093  37.968  -8.195  1.00  0.00     0.053 C 
BRANCH   5   6
ATOM      6  C   UNL     1       2.031  37.529  -6.764  1.00  0.00     0.041 C 
ATOM      7  O   UNL     1       1.929  38.381  -5.842  1.00  0.00    -0.550 OA
ATOM      8  O   UNL     1       2.115  36.179  -6.445  1.00  0.00    -0.550 OA
ENDBRANCH   5   6
ENDBRANCH   4   5
ENDBRANCH   3   4
ENDBRANCH   2   3
ENDBRANCH   1   2
BRANCH   1   9
ATOM      9  C   UNL     1       5.550  38.294  -5.466  1.00  0.00     0.000 C 
BRANCH   9  10
ATOM     10  C   UNL     1       5.432  36.755  -5.389  1.00  0.00    -0.000 C 
BRANCH  10  11
ATOM     11  C   UNL     1       5.737  36.045  -6.719  1.00  0.00    -0.000 C 
BRANCH  11  12
ATOM     12  C   UNL     1       6.820  34.964  -6.582  1.00  0.00    -0.000 C 
BRANCH  12  13
ATOM     13  C   UNL     1       6.739  34.214  -5.243  1.00  0.00    -0.003 C 
ATOM     14  C   UNL     1       6.486  32.716  -5.417  1.00  0.00     0.004 C 
ENDBRANCH  12  13
ENDBRANCH  11  12
ENDBRANCH  10  11
ENDBRANCH   9  10
ENDBRANCH   1   9
TORSDOF 10
ENDMDL
MODEL 9
REMARK VINA RESULT:    -3.419      1.952      2.946
REMARK INTER + INTRA:          -6.837
REMARK INTER:                  -5.604
REMARK INTRA:                  -1.234
REMARK UNBOUND:                -1.420
REMARK SMILES CCCCCCCCCCCC(=O)[O-]
REMARK SMILES IDX 7 1 8 2 9 3 10 4 11 5 12 6 13 7 14 8 6 9 5 10 4 11 3 12 2 13
REMARK SMILES IDX 1 14
REMARK H PARENT
REMARK Flexibility Score: inf
ROOT
ATOM      1  C   UNL     1       5.731  38.519  -5.786  1.00  0.00     0.000 C 
ENDROOT
BRANCH   1   2
ATOM      2  C   UNL     1       4.947  37.910  -4.603  1.00  0.00     0.000 C 
BRANCH   2   3
ATOM      3  C   UNL     1       3.518  38.462  -4.460  1.00  0.00     0.000 C 
BRANCH   3   4
ATOM      4  C   UNL     1       2.456  37.533  -5.070  1.00  0.00     0.006 C 
BRANCH   4   5
ATOM      5  C   UNL     1       1.750  38.172  -6.273  1.00  0.00     0.053 C 
BRANCH   5   6
ATOM      6  C   UNL     1       2.484  37.911  -7.554  1.00  0.00     0.041 C 
ATOM      7  O   UNL     1       2.563  36.741  -8.012  1.00  0.00    -0.550 OA
ATOM      8  O   UNL     1       3.106  38.956  -8.226  1.00  0.00    -0.550 OA
ENDBRANCH   5   6
ENDBRANCH   4   5
ENDBRANCH   3   4
ENDBRANCH   2   3
ENDBRANCH   1   2
BRANCH   1   9
ATOM      9  C   UNL     1       6.112  37.463  -6.838  1.00  0.00     0.000 C 
BRANCH   9  10
ATOM     10  C   UNL     1       5.695  36.038  -6.410  1.00  0.00    -0.000 C 
BRANCH  10  11
ATOM     11  C   UNL     1       6.830  35.006  -6.510  1.00  0.00    -0.000 C 
BRANCH  11  12
ATOM     12  C   UNL     1       6.690  33.865  -5.490  1.00  0.00    -0.000 C 
BRANCH  12  13
ATOM     13  C   UNL     1       6.014  34.320  -4.187  1.00  0.00    -0.003 C 
ATOM     14  C   UNL     1       4.861  33.408  -3.768  1.00  0.00     0.004 C 
ENDBRANCH  12  13
ENDBRANCH  11  12
ENDBRANCH  10  11
ENDBRANCH   9  10
ENDBRANCH   1   9
TORSDOF 10
ENDMDL
