MODEL 1
REMARK VINA RESULT:    -3.273      0.000      0.000
REMARK INTER + INTRA:          -4.903
REMARK INTER:                  -4.421
REMARK INTRA:                  -0.482
REMARK UNBOUND:                -0.482
REMARK SMILES O=C[C@@H](O)[C@@H](O)[C@@H](O)CO
REMARK SMILES IDX 7 1 9 2 10 3 5 5 3 6 2 7 1 8 4 9 6 11 8 13
REMARK H PARENT 10 4 4 10 6 12 8 14
REMARK Flexibility Score: inf
ROOT
ATOM      1  C   UNL     1      51.943  58.842  25.536  1.00  0.00     0.171 C 
ENDROOT
BRANCH   1   2
ATOM      2  C   UNL     1      50.815  59.643  24.845  1.00  0.00     0.190 C 
BRANCH   2   3
ATOM      3  O   UNL     1      49.761  58.804  24.455  1.00  0.00    -0.394 OA
ATOM      4  H   UNL     1      49.133  59.362  23.925  1.00  0.00     0.210 HD
ENDBRANCH   2   3
ENDBRANCH   1   2
BRANCH   1   5
ATOM      5  C   UNL     1      52.308  59.352  26.959  1.00  0.00     0.181 C 
BRANCH   5   6
ATOM      6  C   UNL     1      52.955  58.270  27.851  1.00  0.00     0.209 C 
BRANCH   6   7
ATOM      7  C   UNL     1      53.770  58.903  28.947  1.00  0.00     0.258 C 
ATOM      8  O   UNL     1      53.249  59.654  29.757  1.00  0.00    -0.300 OA
ENDBRANCH   6   7
BRANCH   6   9
ATOM      9  O   UNL     1      51.963  57.455  28.420  1.00  0.00    -0.383 OA
ATOM     10  H   UNL     1      52.318  56.528  28.417  1.00  0.00     0.211 HD
ENDBRANCH   6   9
ENDBRANCH   5   6
BRANCH   5  11
ATOM     11  O   UNL     1      53.175  60.457  26.873  1.00  0.00    -0.387 OA
ATOM     12  H   UNL     1      53.795  60.407  27.648  1.00  0.00     0.211 HD
ENDBRANCH   5  11
ENDBRANCH   1   5
BRANCH   1  13
ATOM     13  O   UNL     1      51.602  57.479  25.592  1.00  0.00    -0.388 OA
ATOM     14  H   UNL     1      50.644  57.415  25.846  1.00  0.00     0.211 HD
ENDBRANCH   1  13
TORSDOF 8
ENDMDL
MODEL 2
REMARK VINA RESULT:    -3.207      0.987      2.304
REMARK INTER + INTRA:          -4.814
REMARK INTER:                  -4.313
REMARK INTRA:                  -0.502
REMARK UNBOUND:                -0.482
REMARK SMILES O=C[C@@H](O)[C@@H](O)[C@@H](O)CO
REMARK SMILES IDX 7 1 9 2 10 3 5 5 3 6 2 7 1 8 4 9 6 11 8 13
REMARK H PARENT 10 4 4 10 6 12 8 14
REMARK Flexibility Score: inf
ROOT
ATOM      1  C   UNL     1      51.560  59.721  24.358  1.00  0.00     0.171 C 
ENDROOT
BRANCH   1   2
ATOM      2  C   UNL     1      50.018  59.770  24.469  1.00  0.00     0.190 C 
BRANCH   2   3
ATOM      3  O   UNL     1      49.449  58.515  24.207  1.00  0.00    -0.394 OA
ATOM      4  H   UNL     1      49.989  57.846  24.704  1.00  0.00     0.210 HD
ENDBRANCH   2   3
ENDBRANCH   1   2
BRANCH   1   5
ATOM      5  C   UNL     1      52.254  58.899  25.481  1.00  0.00     0.181 C 
BRANCH   5   6
ATOM      6  C   UNL     1      52.237  59.603  26.855  1.00  0.00     0.209 C 
BRANCH   6   7
ATOM      7  C   UNL     1      52.895  58.744  27.901  1.00  0.00     0.258 C 
ATOM      8  O   UNL     1      52.274  57.850  28.455  1.00  0.00    -0.300 OA
ENDBRANCH   6   7
BRANCH   6   9
ATOM      9  O   UNL     1      52.906  60.836  26.776  1.00  0.00    -0.383 OA
ATOM     10  H   UNL     1      53.864  60.654  26.964  1.00  0.00     0.211 HD
ENDBRANCH   6   9
ENDBRANCH   5   6
BRANCH   5  11
ATOM     11  O   UNL     1      51.650  57.634  25.605  1.00  0.00    -0.387 OA
ATOM     12  H   UNL     1      50.692  57.785  25.823  1.00  0.00     0.211 HD
ENDBRANCH   5  11
ENDBRANCH   1   5
BRANCH   1  13
ATOM     13  O   UNL     1      51.937  59.221  23.099  1.00  0.00    -0.388 OA
ATOM     14  H   UNL     1      52.908  59.017  23.132  1.00  0.00     0.211 HD
ENDBRANCH   1  13
TORSDOF 8
ENDMDL
MODEL 3
REMARK VINA RESULT:    -3.164      1.437      2.197
REMARK INTER + INTRA:          -4.756
REMARK INTER:                  -3.996
REMARK INTRA:                  -0.760
REMARK UNBOUND:                -0.482
REMARK SMILES O=C[C@@H](O)[C@@H](O)[C@@H](O)CO
REMARK SMILES IDX 7 1 9 2 10 3 5 5 3 6 2 7 1 8 4 9 6 11 8 13
REMARK H PARENT 10 4 4 10 6 12 8 14
REMARK Flexibility Score: inf
ROOT
ATOM      1  C   UNL     1      51.071  60.056  23.798  1.00  0.00     0.171 C 
ENDROOT
BRANCH   1   2
ATOM      2  C   UNL     1      49.627  59.619  23.456  1.00  0.00     0.190 C 
BRANCH   2   3
ATOM      3  O   UNL     1      49.288  58.425  24.109  1.00  0.00    -0.394 OA
ATOM      4  H   UNL     1      49.911  57.728  23.773  1.00  0.00     0.210 HD
ENDBRANCH   2   3
ENDBRANCH   1   2
BRANCH   1   5
ATOM      5  C   UNL     1      51.383  60.088  25.321  1.00  0.00     0.181 C 
BRANCH   5   6
ATOM      6  C   UNL     1      52.310  58.942  25.781  1.00  0.00     0.209 C 
BRANCH   6   7
ATOM      7  C   UNL     1      52.685  59.110  27.229  1.00  0.00     0.258 C 
ATOM      8  O   UNL     1      51.902  59.611  28.021  1.00  0.00    -0.300 OA
ENDBRANCH   6   7
BRANCH   6   9
ATOM      9  O   UNL     1      51.671  57.704  25.605  1.00  0.00    -0.383 OA
ATOM     10  H   UNL     1      51.209  57.741  24.727  1.00  0.00     0.211 HD
ENDBRANCH   6   9
ENDBRANCH   5   6
BRANCH   5  11
ATOM     11  O   UNL     1      51.967  61.320  25.673  1.00  0.00    -0.387 OA
ATOM     12  H   UNL     1      51.262  62.015  25.589  1.00  0.00     0.211 HD
ENDBRANCH   5  11
ENDBRANCH   1   5
BRANCH   1  13
ATOM     13  O   UNL     1      51.995  59.225  23.140  1.00  0.00    -0.388 OA
ATOM     14  H   UNL     1      52.875  59.339  23.584  1.00  0.00     0.211 HD
ENDBRANCH   1  13
TORSDOF 8
ENDMDL
MODEL 4
REMARK VINA RESULT:    -3.110      2.483      5.141
REMARK INTER + INTRA:          -4.683
REMARK INTER:                  -3.928
REMARK INTRA:                  -0.755
REMARK UNBOUND:                -0.482
REMARK SMILES O=C[C@@H](O)[C@@H](O)[C@@H](O)CO
REMARK SMILES IDX 7 1 9 2 10 3 5 5 3 6 2 7 1 8 4 9 6 11 8 13
REMARK H PARENT 10 4 4 10 6 12 8 14
REMARK Flexibility Score: inf
ROOT
ATOM      1  C   UNL     1      51.423  60.117  25.200  1.00  0.00     0.171 C 
ENDROOT
BRANCH   1   2
ATOM      2  C   UNL     1      52.328  58.967  25.701  1.00  0.00     0.190 C 
BRANCH   2   3
ATOM      3  O   UNL     1      51.673  57.730  25.615  1.00  0.00    -0.394 OA
ATOM      4  H   UNL     1      50.713  57.925  25.455  1.00  0.00     0.210 HD
ENDBRANCH   2   3
ENDBRANCH   1   2
BRANCH   1   5
ATOM      5  C   UNL     1      50.991  59.986  23.712  1.00  0.00     0.181 C 
BRANCH   5   6
ATOM      6  C   UNL     1      49.513  59.578  23.537  1.00  0.00     0.209 C 
BRANCH   6   7
ATOM      7  C   UNL     1      49.140  59.545  22.079  1.00  0.00     0.258 C 
ATOM      8  O   UNL     1      49.959  59.219  21.234  1.00  0.00    -0.300 OA
ENDBRANCH   6   7
BRANCH   6   9
ATOM      9  O   UNL     1      49.291  58.312  24.104  1.00  0.00    -0.383 OA
ATOM     10  H   UNL     1      49.803  58.284  24.954  1.00  0.00     0.211 HD
ENDBRANCH   6   9
ENDBRANCH   5   6
BRANCH   5  11
ATOM     11  O   UNL     1      51.218  61.197  23.031  1.00  0.00    -0.387 OA
ATOM     12  H   UNL     1      50.390  61.741  23.112  1.00  0.00     0.211 HD
ENDBRANCH   5  11
ENDBRANCH   1   5
BRANCH   1  13
ATOM     13  O   UNL     1      50.285  60.226  26.019  1.00  0.00    -0.388 OA
ATOM     14  H   UNL     1      50.501  59.815  26.896  1.00  0.00     0.211 HD
ENDBRANCH   1  13
TORSDOF 8
ENDMDL
MODEL 5
REMARK VINA RESULT:    -3.104      1.636      4.485
REMARK INTER + INTRA:          -4.675
REMARK INTER:                  -3.980
REMARK INTRA:                  -0.695
REMARK UNBOUND:                -0.482
REMARK SMILES O=C[C@@H](O)[C@@H](O)[C@@H](O)CO
REMARK SMILES IDX 7 1 9 2 10 3 5 5 3 6 2 7 1 8 4 9 6 11 8 13
REMARK H PARENT 10 4 4 10 6 12 8 14
REMARK Flexibility Score: inf
ROOT
ATOM      1  C   UNL     1      51.890  58.761  25.519  1.00  0.00     0.171 C 
ENDROOT
BRANCH   1   2
ATOM      2  C   UNL     1      52.728  58.827  26.817  1.00  0.00     0.190 C 
BRANCH   2   3
ATOM      3  O   UNL     1      52.020  58.303  27.908  1.00  0.00    -0.394 OA
ATOM      4  H   UNL     1      51.217  58.875  28.029  1.00  0.00     0.210 HD
ENDBRANCH   2   3
ENDBRANCH   1   2
BRANCH   1   5
ATOM      5  C   UNL     1      50.999  60.011  25.272  1.00  0.00     0.181 C 
BRANCH   5   6
ATOM      6  C   UNL     1      49.819  59.742  24.312  1.00  0.00     0.209 C 
BRANCH   6   7
ATOM      7  C   UNL     1      50.116  60.286  22.940  1.00  0.00     0.258 C 
ATOM      8  O   UNL     1      51.128  59.953  22.343  1.00  0.00    -0.300 OA
ENDBRANCH   6   7
BRANCH   6   9
ATOM      9  O   UNL     1      49.574  58.362  24.223  1.00  0.00    -0.383 OA
ATOM     10  H   UNL     1      49.900  58.070  23.331  1.00  0.00     0.211 HD
ENDBRANCH   6   9
ENDBRANCH   5   6
BRANCH   5  11
ATOM     11  O   UNL     1      50.496  60.500  26.492  1.00  0.00    -0.387 OA
ATOM     12  H   UNL     1      51.120  60.207  27.207  1.00  0.00     0.211 HD
ENDBRANCH   5  11
ENDBRANCH   1   5
BRANCH   1  13
ATOM     13  O   UNL     1      52.731  58.549  24.412  1.00  0.00    -0.388 OA
ATOM     14  H   UNL     1      53.295  57.756  24.607  1.00  0.00     0.211 HD
ENDBRANCH   1  13
TORSDOF 8
ENDMDL
MODEL 6
REMARK VINA RESULT:    -3.077      5.810      6.718
REMARK INTER + INTRA:          -4.639
REMARK INTER:                  -4.074
REMARK INTRA:                  -0.565
REMARK UNBOUND:                -0.482
REMARK SMILES O=C[C@@H](O)[C@@H](O)[C@@H](O)CO
REMARK SMILES IDX 7 1 9 2 10 3 5 5 3 6 2 7 1 8 4 9 6 11 8 13
REMARK H PARENT 10 4 4 10 6 12 8 14
REMARK Flexibility Score: inf
ROOT
ATOM      1  C   UNL     1      47.131  62.441  30.064  1.00  0.00     0.171 C 
ENDROOT
BRANCH   1   2
ATOM      2  C   UNL     1      46.010  63.298  29.429  1.00  0.00     0.190 C 
BRANCH   2   3
ATOM      3  O   UNL     1      44.948  62.498  28.985  1.00  0.00    -0.394 OA
ATOM      4  H   UNL     1      44.129  63.059  29.030  1.00  0.00     0.210 HD
ENDBRANCH   2   3
ENDBRANCH   1   2
BRANCH   1   5
ATOM      5  C   UNL     1      48.394  62.282  29.170  1.00  0.00     0.181 C 
BRANCH   5   6
ATOM      6  C   UNL     1      48.426  60.951  28.387  1.00  0.00     0.209 C 
BRANCH   6   7
ATOM      7  C   UNL     1      47.926  61.151  26.981  1.00  0.00     0.258 C 
ATOM      8  O   UNL     1      46.730  61.251  26.754  1.00  0.00    -0.300 OA
ENDBRANCH   6   7
BRANCH   6   9
ATOM      9  O   UNL     1      49.736  60.445  28.348  1.00  0.00    -0.383 OA
ATOM     10  H   UNL     1      49.798  59.876  27.536  1.00  0.00     0.211 HD
ENDBRANCH   6   9
ENDBRANCH   5   6
BRANCH   5  11
ATOM     11  O   UNL     1      48.488  63.353  28.262  1.00  0.00    -0.387 OA
ATOM     12  H   UNL     1      49.160  63.988  28.623  1.00  0.00     0.211 HD
ENDBRANCH   5  11
ENDBRANCH   1   5
BRANCH   1  13
ATOM     13  O   UNL     1      47.495  62.972  31.313  1.00  0.00    -0.388 OA
ATOM     14  H   UNL     1      46.920  62.549  32.003  1.00  0.00     0.211 HD
ENDBRANCH   1  13
TORSDOF 8
ENDMDL
MODEL 7
REMARK VINA RESULT:    -3.071      1.554      3.813
REMARK INTER + INTRA:          -4.630
REMARK INTER:                  -3.878
REMARK INTRA:                  -0.752
REMARK UNBOUND:                -0.482
REMARK SMILES O=C[C@@H](O)[C@@H](O)[C@@H](O)CO
REMARK SMILES IDX 7 1 9 2 10 3 5 5 3 6 2 7 1 8 4 9 6 11 8 13
REMARK H PARENT 10 4 4 10 6 12 8 14
REMARK Flexibility Score: inf
ROOT
ATOM      1  C   UNL     1      52.360  59.659  27.783  1.00  0.00     0.171 C 
ENDROOT
BRANCH   1   2
ATOM      2  C   UNL     1      52.774  58.401  28.582  1.00  0.00     0.190 C 
BRANCH   2   3
ATOM      3  O   UNL     1      52.047  57.275  28.170  1.00  0.00    -0.394 OA
ATOM      4  H   UNL     1      51.405  57.586  27.479  1.00  0.00     0.210 HD
ENDBRANCH   2   3
ENDBRANCH   1   2
BRANCH   1   5
ATOM      5  C   UNL     1      52.872  59.679  26.315  1.00  0.00     0.181 C 
BRANCH   5   6
ATOM      6  C   UNL     1      51.778  59.341  25.280  1.00  0.00     0.209 C 
BRANCH   6   7
ATOM      7  C   UNL     1      52.257  59.635  23.884  1.00  0.00     0.258 C 
ATOM      8  O   UNL     1      53.395  59.351  23.543  1.00  0.00    -0.300 OA
ENDBRANCH   6   7
BRANCH   6   9
ATOM      9  O   UNL     1      51.424  57.985  25.375  1.00  0.00    -0.383 OA
ATOM     10  H   UNL     1      50.924  57.879  26.226  1.00  0.00     0.211 HD
ENDBRANCH   6   9
ENDBRANCH   5   6
BRANCH   5  11
ATOM     11  O   UNL     1      53.423  60.938  26.008  1.00  0.00    -0.387 OA
ATOM     12  H   UNL     1      54.299  60.998  26.471  1.00  0.00     0.211 HD
ENDBRANCH   5  11
ENDBRANCH   1   5
BRANCH   1  13
ATOM     13  O   UNL     1      50.962  59.804  27.802  1.00  0.00    -0.388 OA
ATOM     14  H   UNL     1      50.742  60.550  28.419  1.00  0.00     0.211 HD
ENDBRANCH   1  13
TORSDOF 8
ENDMDL
MODEL 8
REMARK VINA RESULT:    -3.036     12.435     14.265
REMARK INTER + INTRA:          -4.584
REMARK INTER:                  -3.868
REMARK INTRA:                  -0.716
REMARK UNBOUND:                -0.482
REMARK SMILES O=C[C@@H](O)[C@@H](O)[C@@H](O)CO
REMARK SMILES IDX 7 1 9 2 10 3 5 5 3 6 2 7 1 8 4 9 6 11 8 13
REMARK H PARENT 10 4 4 10 6 12 8 14
REMARK Flexibility Score: inf
ROOT
ATOM      1  C   UNL     1      47.174  50.236  15.894  1.00  0.00     0.171 C 
ENDROOT
BRANCH   1   2
ATOM      2  C   UNL     1      47.004  48.885  15.160  1.00  0.00     0.190 C 
BRANCH   2   3
ATOM      3  O   UNL     1      48.198  48.490  14.539  1.00  0.00    -0.394 OA
ATOM      4  H   UNL     1      48.019  47.614  14.106  1.00  0.00     0.210 HD
ENDBRANCH   2   3
ENDBRANCH   1   2
BRANCH   1   5
ATOM      5  C   UNL     1      48.622  50.518  16.383  1.00  0.00     0.181 C 
BRANCH   5   6
ATOM      6  C   UNL     1      48.718  51.714  17.356  1.00  0.00     0.209 C 
BRANCH   6   7
ATOM      7  C   UNL     1      49.406  52.880  16.698  1.00  0.00     0.258 C 
ATOM      8  O   UNL     1      49.322  53.054  15.492  1.00  0.00    -0.300 OA
ENDBRANCH   6   7
BRANCH   6   9
ATOM      9  O   UNL     1      47.434  52.104  17.771  1.00  0.00    -0.383 OA
ATOM     10  H   UNL     1      47.195  51.527  18.543  1.00  0.00     0.211 HD
ENDBRANCH   6   9
ENDBRANCH   5   6
BRANCH   5  11
ATOM     11  O   UNL     1      49.158  49.375  17.006  1.00  0.00    -0.387 OA
ATOM     12  H   UNL     1      50.050  49.625  17.364  1.00  0.00     0.211 HD
ENDBRANCH   5  11
ENDBRANCH   1   5
BRANCH   1  13
ATOM     13  O   UNL     1      46.735  51.289  15.072  1.00  0.00    -0.388 OA
ATOM     14  H   UNL     1      46.785  52.128  15.601  1.00  0.00     0.211 HD
ENDBRANCH   1  13
TORSDOF 8
ENDMDL
MODEL 9
REMARK VINA RESULT:    -3.003      6.254      6.674
REMARK INTER + INTRA:          -4.538
REMARK INTER:                  -4.133
REMARK INTRA:                  -0.406
REMARK UNBOUND:                -0.482
REMARK SMILES O=C[C@@H](O)[C@@H](O)[C@@H](O)CO
REMARK SMILES IDX 7 1 9 2 10 3 5 5 3 6 2 7 1 8 4 9 6 11 8 13
REMARK H PARENT 10 4 4 10 6 12 8 14
REMARK Flexibility Score: inf
ROOT
ATOM      1  C   UNL     1      47.395  62.577  28.991  1.00  0.00     0.171 C 
ENDROOT
BRANCH   1   2
ATOM      2  C   UNL     1      45.956  63.123  28.840  1.00  0.00     0.190 C 
BRANCH   2   3
ATOM      3  O   UNL     1      45.017  62.252  29.411  1.00  0.00    -0.394 OA
ATOM      4  H   UNL     1      45.104  61.385  28.934  1.00  0.00     0.210 HD
ENDBRANCH   2   3
ENDBRANCH   1   2
BRANCH   1   5
ATOM      5  C   UNL     1      47.950  62.640  30.443  1.00  0.00     0.181 C 
BRANCH   5   6
ATOM      6  C   UNL     1      49.356  63.273  30.533  1.00  0.00     0.209 C 
BRANCH   6   7
ATOM      7  C   UNL     1      50.140  62.666  31.666  1.00  0.00     0.258 C 
ATOM      8  O   UNL     1      50.943  63.336  32.297  1.00  0.00    -0.300 OA
ENDBRANCH   6   7
BRANCH   6   9
ATOM      9  O   UNL     1      50.052  63.080  29.329  1.00  0.00    -0.383 OA
ATOM     10  H   UNL     1      50.695  63.832  29.245  1.00  0.00     0.211 HD
ENDBRANCH   6   9
ENDBRANCH   5   6
BRANCH   5  11
ATOM     11  O   UNL     1      47.068  63.358  31.272  1.00  0.00    -0.387 OA
ATOM     12  H   UNL     1      46.604  64.025  30.701  1.00  0.00     0.211 HD
ENDBRANCH   5  11
ENDBRANCH   1   5
BRANCH   1  13
ATOM     13  O   UNL     1      47.462  61.257  28.512  1.00  0.00    -0.388 OA
ATOM     14  H   UNL     1      46.849  60.702  29.062  1.00  0.00     0.211 HD
ENDBRANCH   1  13
TORSDOF 8
ENDMDL
