MODEL 1
REMARK VINA RESULT:    -3.748      0.000      0.000
REMARK INTER + INTRA:          -6.336
REMARK INTER:                  -5.720
REMARK INTRA:                  -0.616
REMARK UNBOUND:                -0.616
REMARK SMILES CC1=CCC[C@@H](C)C(=O)C[C@@H](C(C)C)C(=O)C1
REMARK SMILES IDX 8 1 9 2 6 3 7 4 5 5 4 6 3 7 2 8 1 9 10 11 11 12 15 13 16 14
REMARK SMILES IDX 17 15 12 17 13 18 14 19
REMARK H PARENT
REMARK Flexibility Score: 70.00
ROOT
ATOM      1  C   UNL     1       9.122 -20.676  21.673  1.00  0.00     0.136 C 
ATOM      2  O   UNL     1       8.026 -20.492  22.182  1.00  0.00    -0.299 OA
ENDROOT
BRANCH   1   3
ATOM      3  C   UNL     1      10.060 -21.708  22.314  1.00  0.00     0.053 C 
ATOM      4  C   UNL     1       9.404 -23.091  22.341  1.00  0.00     0.016 C 
BRANCH   3   5
ATOM      5  C   UNL     1      10.373 -21.200  23.705  1.00  0.00     0.015 C 
BRANCH   5   6
ATOM      6  C   UNL     1      11.239 -20.015  24.038  1.00  0.00     0.028 C 
BRANCH   6   7
ATOM      7  C   UNL     1      10.366 -18.946  24.700  1.00  0.00    -0.028 C 
ATOM      8  C   UNL     1       9.951 -17.730  24.200  1.00  0.00    -0.070 CG0
ATOM      9  C   UNL     1       8.981 -16.953  25.059  1.00  0.00     0.039 C 
ATOM     10  G   UNL     1      10.393 -17.070  22.874  1.00  0.00     0.000 G0
ENDBRANCH   6   7
ENDBRANCH   5   6
ENDBRANCH   3   5
ENDBRANCH   1   3
BRANCH   1  11
ATOM     11  C   UNL     1       9.492 -19.867  20.413  1.00  0.00     0.087 C 
BRANCH  11  12
ATOM     12  C   UNL     1      10.380 -18.580  20.663  1.00  0.00     0.066 C 
BRANCH  12  13
ATOM     13  C   UNL     1       9.713 -17.553  21.609  1.00  0.00     0.140 C 
ATOM     14  O   UNL     1       8.600 -17.126  21.339  1.00  0.00    -0.299 OA
BRANCH  13  15
ATOM     15  C   UNL     1      10.400 -17.038  22.881  1.00  0.00     0.106 CG0
ATOM     16  G   UNL     1       9.958 -17.747  24.182  1.00  0.00     0.000 G0
ENDBRANCH  13  15
ENDBRANCH  12  13
BRANCH  12  17
ATOM     17  C   UNL     1      10.840 -17.874  19.348  1.00  0.00    -0.006 C 
ATOM     18  C   UNL     1      12.348 -18.053  19.102  1.00  0.00     0.008 C 
ATOM     19  C   UNL     1      10.043 -18.289  18.096  1.00  0.00     0.008 C 
ENDBRANCH  12  17
ENDBRANCH  11  12
ENDBRANCH   1  11
TORSDOF 1
ENDMDL
MODEL 2
REMARK VINA RESULT:    -3.640      2.334      4.351
REMARK INTER + INTRA:          -6.171
REMARK INTER:                  -5.779
REMARK INTRA:                  -0.392
REMARK UNBOUND:                -0.616
REMARK SMILES CC1=CCC[C@@H](C)C(=O)C[C@@H](C(C)C)C(=O)C1
REMARK SMILES IDX 8 1 9 2 6 3 7 4 5 5 4 6 3 7 2 8 1 9 10 11 11 12 15 13 16 14
REMARK SMILES IDX 17 15 12 17 13 18 14 19
REMARK H PARENT
REMARK Flexibility Score: 70.00
ROOT
ATOM      1  C   UNL     1      11.250 -18.244  19.334  1.00  0.00     0.136 C 
ATOM      2  O   UNL     1      12.217 -18.227  18.586  1.00  0.00    -0.299 OA
ENDROOT
BRANCH   1   3
ATOM      3  C   UNL     1       9.946 -18.876  18.827  1.00  0.00     0.053 C 
ATOM      4  C   UNL     1      10.131 -19.437  17.415  1.00  0.00     0.016 C 
BRANCH   3   5
ATOM      5  C   UNL     1       8.895 -17.788  18.872  1.00  0.00     0.015 C 
BRANCH   5   6
ATOM      6  C   UNL     1       7.759 -17.697  19.855  1.00  0.00     0.028 C 
BRANCH   6   7
ATOM      7  C   UNL     1       7.681 -19.016  20.629  1.00  0.00    -0.028 C 
ATOM      8  C   UNL     1       8.256 -19.352  21.836  1.00  0.00    -0.070 CG0
ATOM      9  C   UNL     1       7.880 -20.703  22.399  1.00  0.00     0.039 C 
ATOM     10  G   UNL     1       9.261 -18.509  22.654  1.00  0.00     0.000 G0
ENDBRANCH   6   7
ENDBRANCH   5   6
ENDBRANCH   3   5
ENDBRANCH   1   3
BRANCH   1  11
ATOM     11  C   UNL     1      11.401 -17.640  20.745  1.00  0.00     0.087 C 
BRANCH  11  12
ATOM     12  C   UNL     1      11.845 -18.652  21.878  1.00  0.00     0.066 C 
BRANCH  12  13
ATOM     13  C   UNL     1      10.673 -19.114  22.776  1.00  0.00     0.140 C 
ATOM     14  O   UNL     1      10.862 -19.998  23.600  1.00  0.00    -0.299 OA
BRANCH  13  15
ATOM     15  C   UNL     1       9.267 -18.509  22.671  1.00  0.00     0.106 CG0
ATOM     16  G   UNL     1       8.273 -19.336  21.823  1.00  0.00     0.000 G0
ENDBRANCH  13  15
ENDBRANCH  12  13
BRANCH  12  17
ATOM     17  C   UNL     1      13.018 -18.121  22.764  1.00  0.00    -0.006 C 
ATOM     18  C   UNL     1      14.330 -18.013  21.967  1.00  0.00     0.008 C 
ATOM     19  C   UNL     1      12.718 -16.790  23.479  1.00  0.00     0.008 C 
ENDBRANCH  12  17
ENDBRANCH  11  12
ENDBRANCH   1  11
TORSDOF 1
ENDMDL
MODEL 3
REMARK VINA RESULT:    -3.629      2.410      4.261
REMARK INTER + INTRA:          -6.153
REMARK INTER:                  -5.664
REMARK INTRA:                  -0.489
REMARK UNBOUND:                -0.616
REMARK SMILES CC1=CCC[C@@H](C)C(=O)C[C@@H](C(C)C)C(=O)C1
REMARK SMILES IDX 8 1 9 2 6 3 7 4 5 5 4 6 3 7 2 8 1 9 10 11 11 12 15 13 16 14
REMARK SMILES IDX 17 15 12 17 13 18 14 19
REMARK H PARENT
REMARK Flexibility Score: 70.00
ROOT
ATOM      1  C   UNL     1      10.085 -18.082  19.637  1.00  0.00     0.136 C 
ATOM      2  O   UNL     1      10.470 -18.275  18.493  1.00  0.00    -0.299 OA
ENDROOT
BRANCH   1   3
ATOM      3  C   UNL     1       8.598 -18.299  19.952  1.00  0.00     0.053 C 
ATOM      4  C   UNL     1       7.718 -17.645  18.885  1.00  0.00     0.016 C 
BRANCH   3   5
ATOM      5  C   UNL     1       8.359 -17.709  21.326  1.00  0.00     0.015 C 
BRANCH   5   6
ATOM      6  C   UNL     1       8.247 -18.483  22.612  1.00  0.00     0.028 C 
BRANCH   6   7
ATOM      7  C   UNL     1       8.220 -19.977  22.279  1.00  0.00    -0.028 C 
ATOM      8  C   UNL     1       9.248 -20.895  22.316  1.00  0.00    -0.070 CG0
ATOM      9  C   UNL     1       8.866 -22.332  22.050  1.00  0.00     0.039 C 
ATOM     10  G   UNL     1      10.745 -20.605  22.571  1.00  0.00     0.000 G0
ENDBRANCH   6   7
ENDBRANCH   5   6
ENDBRANCH   3   5
ENDBRANCH   1   3
BRANCH   1  11
ATOM     11  C   UNL     1      11.116 -17.642  20.696  1.00  0.00     0.087 C 
BRANCH  11  12
ATOM     12  C   UNL     1      12.147 -18.754  21.150  1.00  0.00     0.066 C 
BRANCH  12  13
ATOM     13  C   UNL     1      11.508 -20.156  21.294  1.00  0.00     0.140 C 
ATOM     14  O   UNL     1      11.616 -20.961  20.380  1.00  0.00    -0.299 OA
BRANCH  13  15
ATOM     15  C   UNL     1      10.731 -20.581  22.547  1.00  0.00     0.106 CG0
ATOM     16  G   UNL     1       9.236 -20.891  22.302  1.00  0.00     0.000 G0
ENDBRANCH  13  15
ENDBRANCH  12  13
BRANCH  12  17
ATOM     17  C   UNL     1      12.928 -18.387  22.452  1.00  0.00    -0.006 C 
ATOM     18  C   UNL     1      14.400 -18.049  22.157  1.00  0.00     0.008 C 
ATOM     19  C   UNL     1      12.280 -17.263  23.282  1.00  0.00     0.008 C 
ENDBRANCH  12  17
ENDBRANCH  11  12
ENDBRANCH   1  11
TORSDOF 1
ENDMDL
MODEL 4
REMARK VINA RESULT:    -3.587      1.808      4.149
REMARK INTER + INTRA:          -6.090
REMARK INTER:                  -5.780
REMARK INTRA:                  -0.310
REMARK UNBOUND:                -0.616
REMARK SMILES CC1=CCC[C@@H](C)C(=O)C[C@@H](C(C)C)C(=O)C1
REMARK SMILES IDX 8 1 9 2 6 3 7 4 5 5 4 6 3 7 2 8 1 9 10 11 11 12 15 13 16 14
REMARK SMILES IDX 17 15 12 17 13 18 14 19
REMARK H PARENT
REMARK Flexibility Score: 70.00
ROOT
ATOM      1  C   UNL     1       9.198 -17.760  20.642  1.00  0.00     0.136 C 
ATOM      2  O   UNL     1       8.063 -17.755  20.186  1.00  0.00    -0.299 OA
ENDROOT
BRANCH   1   3
ATOM      3  C   UNL     1      10.338 -18.274  19.753  1.00  0.00     0.053 C 
ATOM      4  C   UNL     1      10.105 -17.882  18.292  1.00  0.00     0.016 C 
BRANCH   3   5
ATOM      5  C   UNL     1      10.385 -19.776  19.938  1.00  0.00     0.015 C 
BRANCH   5   6
ATOM      6  C   UNL     1      11.410 -20.536  20.737  1.00  0.00     0.028 C 
BRANCH   6   7
ATOM      7  C   UNL     1      10.693 -21.273  21.870  1.00  0.00    -0.028 C 
ATOM      8  C   UNL     1      10.645 -20.967  23.214  1.00  0.00    -0.070 CG0
ATOM      9  C   UNL     1       9.738 -21.829  24.061  1.00  0.00     0.039 C 
ATOM     10  G   UNL     1      11.440 -19.860  23.944  1.00  0.00     0.000 G0
ENDBRANCH   6   7
ENDBRANCH   5   6
ENDBRANCH   3   5
ENDBRANCH   1   3
BRANCH   1  11
ATOM     11  C   UNL     1       9.415 -17.241  22.078  1.00  0.00     0.087 C 
BRANCH  11  12
ATOM     12  C   UNL     1      10.836 -17.543  22.706  1.00  0.00     0.066 C 
BRANCH  12  13
ATOM     13  C   UNL     1      10.773 -18.479  23.936  1.00  0.00     0.140 C 
ATOM     14  O   UNL     1      10.176 -18.112  24.938  1.00  0.00    -0.299 OA
BRANCH  13  15
ATOM     15  C   UNL     1      11.439 -19.861  23.955  1.00  0.00     0.106 CG0
ATOM     16  G   UNL     1      10.650 -20.966  23.214  1.00  0.00     0.000 G0
ENDBRANCH  13  15
ENDBRANCH  12  13
BRANCH  12  17
ATOM     17  C   UNL     1      11.651 -16.257  23.057  1.00  0.00    -0.006 C 
ATOM     18  C   UNL     1      10.742 -15.134  23.588  1.00  0.00     0.008 C 
ATOM     19  C   UNL     1      12.824 -16.496  24.026  1.00  0.00     0.008 C 
ENDBRANCH  12  17
ENDBRANCH  11  12
ENDBRANCH   1  11
TORSDOF 1
ENDMDL
MODEL 5
REMARK VINA RESULT:    -3.548      4.283      7.045
REMARK INTER + INTRA:          -6.030
REMARK INTER:                  -5.433
REMARK INTRA:                  -0.598
REMARK UNBOUND:                -0.616
REMARK SMILES CC1=CCC[C@@H](C)C(=O)C[C@@H](C(C)C)C(=O)C1
REMARK SMILES IDX 8 1 9 2 6 3 7 4 5 5 4 6 3 7 2 8 1 9 10 11 11 12 15 13 16 14
REMARK SMILES IDX 17 15 12 17 13 18 14 19
REMARK H PARENT
REMARK Flexibility Score: 70.00
ROOT
ATOM      1  C   UNL     1       7.465 -21.618  22.806  1.00  0.00     0.136 C 
ATOM      2  O   UNL     1       6.600 -21.786  21.959  1.00  0.00    -0.299 OA
ENDROOT
BRANCH   1   3
ATOM      3  C   UNL     1       8.887 -22.113  22.505  1.00  0.00     0.053 C 
ATOM      4  C   UNL     1       9.470 -21.380  21.295  1.00  0.00     0.016 C 
BRANCH   3   5
ATOM      5  C   UNL     1       8.782 -23.605  22.270  1.00  0.00     0.015 C 
BRANCH   5   6
ATOM      6  C   UNL     1       8.597 -24.655  23.332  1.00  0.00     0.028 C 
BRANCH   6   7
ATOM      7  C   UNL     1       7.187 -25.238  23.197  1.00  0.00    -0.028 C 
ATOM      8  C   UNL     1       6.098 -25.079  24.027  1.00  0.00    -0.070 CG0
ATOM      9  C   UNL     1       4.801 -25.686  23.546  1.00  0.00     0.039 C 
ATOM     10  G   UNL     1       6.071 -24.375  25.403  1.00  0.00     0.000 G0
ENDBRANCH   6   7
ENDBRANCH   5   6
ENDBRANCH   3   5
ENDBRANCH   1   3
BRANCH   1  11
ATOM     11  C   UNL     1       7.079 -20.911  24.121  1.00  0.00     0.087 C 
BRANCH  11  12
ATOM     12  C   UNL     1       7.007 -21.839  25.401  1.00  0.00     0.066 C 
BRANCH  12  13
ATOM     13  C   UNL     1       5.845 -22.859  25.351  1.00  0.00     0.140 C 
ATOM     14  O   UNL     1       4.695 -22.452  25.270  1.00  0.00    -0.299 OA
BRANCH  13  15
ATOM     15  C   UNL     1       6.076 -24.375  25.406  1.00  0.00     0.106 CG0
ATOM     16  G   UNL     1       6.069 -25.076  24.029  1.00  0.00     0.000 G0
ENDBRANCH  13  15
ENDBRANCH  12  13
BRANCH  12  17
ATOM     17  C   UNL     1       6.963 -21.046  26.746  1.00  0.00    -0.006 C 
ATOM     18  C   UNL     1       8.164 -21.383  27.647  1.00  0.00     0.008 C 
ATOM     19  C   UNL     1       6.838 -19.520  26.575  1.00  0.00     0.008 C 
ENDBRANCH  12  17
ENDBRANCH  11  12
ENDBRANCH   1  11
TORSDOF 1
ENDMDL
MODEL 6
REMARK VINA RESULT:    -3.535      2.565      4.504
REMARK INTER + INTRA:          -6.011
REMARK INTER:                  -5.796
REMARK INTRA:                  -0.215
REMARK UNBOUND:                -0.616
REMARK SMILES CC1=CCC[C@@H](C)C(=O)C[C@@H](C(C)C)C(=O)C1
REMARK SMILES IDX 8 1 9 2 6 3 7 4 5 5 4 6 3 7 2 8 1 9 10 11 11 12 15 13 16 14
REMARK SMILES IDX 17 15 12 17 13 18 14 19
REMARK H PARENT
REMARK Flexibility Score: 70.00
ROOT
ATOM      1  C   UNL     1      12.988 -17.209  24.171  1.00  0.00     0.136 C 
ATOM      2  O   UNL     1      12.687 -17.922  25.118  1.00  0.00    -0.299 OA
ENDROOT
BRANCH   1   3
ATOM      3  C   UNL     1      12.954 -15.687  24.366  1.00  0.00     0.053 C 
ATOM      4  C   UNL     1      13.001 -15.330  25.853  1.00  0.00     0.016 C 
BRANCH   3   5
ATOM      5  C   UNL     1      11.684 -15.196  23.704  1.00  0.00     0.015 C 
BRANCH   5   6
ATOM      6  C   UNL     1      10.280 -15.549  24.117  1.00  0.00     0.028 C 
BRANCH   6   7
ATOM      7  C   UNL     1       9.515 -16.027  22.881  1.00  0.00    -0.028 C 
ATOM      8  C   UNL     1       9.274 -17.315  22.452  1.00  0.00    -0.070 CG0
ATOM      9  C   UNL     1       8.370 -17.457  21.249  1.00  0.00     0.039 C 
ATOM     10  G   UNL     1       9.850 -18.618  23.050  1.00  0.00     0.000 G0
ENDBRANCH   6   7
ENDBRANCH   5   6
ENDBRANCH   3   5
ENDBRANCH   1   3
BRANCH   1  11
ATOM     11  C   UNL     1      13.391 -17.881  22.843  1.00  0.00     0.087 C 
BRANCH  11  12
ATOM     12  C   UNL     1      12.205 -18.164  21.833  1.00  0.00     0.066 C 
BRANCH  12  13
ATOM     13  C   UNL     1      11.136 -19.127  22.401  1.00  0.00     0.140 C 
ATOM     14  O   UNL     1      11.320 -20.334  22.334  1.00  0.00    -0.299 OA
BRANCH  13  15
ATOM     15  C   UNL     1       9.837 -18.627  23.047  1.00  0.00     0.106 CG0
ATOM     16  G   UNL     1       9.281 -17.318  22.440  1.00  0.00     0.000 G0
ENDBRANCH  13  15
ENDBRANCH  12  13
BRANCH  12  17
ATOM     17  C   UNL     1      12.685 -18.666  20.433  1.00  0.00    -0.006 C 
ATOM     18  C   UNL     1      12.113 -17.806  19.293  1.00  0.00     0.008 C 
ATOM     19  C   UNL     1      14.215 -18.784  20.294  1.00  0.00     0.008 C 
ENDBRANCH  12  17
ENDBRANCH  11  12
ENDBRANCH   1  11
TORSDOF 1
ENDMDL
MODEL 7
REMARK VINA RESULT:    -3.531      2.136      3.344
REMARK INTER + INTRA:          -6.005
REMARK INTER:                  -5.508
REMARK INTRA:                  -0.496
REMARK UNBOUND:                -0.616
REMARK SMILES CC1=CCC[C@@H](C)C(=O)C[C@@H](C(C)C)C(=O)C1
REMARK SMILES IDX 8 1 9 2 6 3 7 4 5 5 4 6 3 7 2 8 1 9 10 11 11 12 15 13 16 14
REMARK SMILES IDX 17 15 12 17 13 18 14 19
REMARK H PARENT
REMARK Flexibility Score: 70.00
ROOT
ATOM      1  C   UNL     1      13.066 -18.298  20.619  1.00  0.00     0.136 C 
ATOM      2  O   UNL     1      13.223 -18.056  19.431  1.00  0.00    -0.299 OA
ENDROOT
BRANCH   1   3
ATOM      3  C   UNL     1      14.222 -17.999  21.583  1.00  0.00     0.053 C 
ATOM      4  C   UNL     1      15.362 -19.001  21.387  1.00  0.00     0.016 C 
BRANCH   3   5
ATOM      5  C   UNL     1      13.645 -18.062  22.981  1.00  0.00     0.015 C 
BRANCH   5   6
ATOM      6  C   UNL     1      13.030 -16.914  23.735  1.00  0.00     0.028 C 
BRANCH   6   7
ATOM      7  C   UNL     1      11.823 -17.438  24.518  1.00  0.00    -0.028 C 
ATOM      8  C   UNL     1      10.491 -17.442  24.163  1.00  0.00    -0.070 CG0
ATOM      9  C   UNL     1       9.552 -18.154  25.110  1.00  0.00     0.039 C 
ATOM     10  G   UNL     1       9.857 -16.776  22.921  1.00  0.00     0.000 G0
ENDBRANCH   6   7
ENDBRANCH   5   6
ENDBRANCH   3   5
ENDBRANCH   1   3
BRANCH   1  11
ATOM     11  C   UNL     1      11.713 -18.878  21.079  1.00  0.00     0.087 C 
BRANCH  11  12
ATOM     12  C   UNL     1      10.431 -18.072  20.617  1.00  0.00     0.066 C 
BRANCH  12  13
ATOM     13  C   UNL     1       9.465 -17.745  21.780  1.00  0.00     0.140 C 
ATOM     14  O   UNL     1       8.359 -18.266  21.805  1.00  0.00    -0.299 OA
BRANCH  13  15
ATOM     15  C   UNL     1       9.837 -16.779  22.913  1.00  0.00     0.106 CG0
ATOM     16  G   UNL     1      10.492 -17.450  24.141  1.00  0.00     0.000 G0
ENDBRANCH  13  15
ENDBRANCH  12  13
BRANCH  12  17
ATOM     17  C   UNL     1       9.649 -18.758  19.451  1.00  0.00    -0.006 C 
ATOM     18  C   UNL     1       9.711 -17.928  18.157  1.00  0.00     0.008 C 
ATOM     19  C   UNL     1      10.077 -20.212  19.172  1.00  0.00     0.008 C 
ENDBRANCH  12  17
ENDBRANCH  11  12
ENDBRANCH   1  11
TORSDOF 1
ENDMDL
MODEL 8
REMARK VINA RESULT:    -3.514      2.155      3.928
REMARK INTER + INTRA:          -5.978
REMARK INTER:                  -5.372
REMARK INTRA:                  -0.606
REMARK UNBOUND:                -0.616
REMARK SMILES CC1=CCC[C@@H](C)C(=O)C[C@@H](C(C)C)C(=O)C1
REMARK SMILES IDX 8 1 9 2 6 3 7 4 5 5 4 6 3 7 2 8 1 9 10 11 11 12 15 13 16 14
REMARK SMILES IDX 17 15 12 17 13 18 14 19
REMARK H PARENT
REMARK Flexibility Score: 70.00
ROOT
ATOM      1  C   UNL     1      12.400 -17.968  22.651  1.00  0.00     0.136 C 
ATOM      2  O   UNL     1      13.499 -17.959  23.186  1.00  0.00    -0.299 OA
ENDROOT
BRANCH   1   3
ATOM      3  C   UNL     1      11.407 -16.853  23.007  1.00  0.00     0.053 C 
ATOM      4  C   UNL     1      12.144 -15.619  23.531  1.00  0.00     0.016 C 
BRANCH   3   5
ATOM      5  C   UNL     1      10.463 -17.431  24.040  1.00  0.00     0.015 C 
BRANCH   5   6
ATOM      6  C   UNL     1       8.996 -17.701  23.843  1.00  0.00     0.028 C 
BRANCH   6   7
ATOM      7  C   UNL     1       8.759 -19.209  23.959  1.00  0.00    -0.028 C 
ATOM      8  C   UNL     1       8.605 -20.145  22.959  1.00  0.00    -0.070 CG0
ATOM      9  C   UNL     1       8.513 -21.586  23.405  1.00  0.00     0.039 C 
ATOM     10  G   UNL     1       8.488 -19.874  21.442  1.00  0.00     0.000 G0
ENDBRANCH   6   7
ENDBRANCH   5   6
ENDBRANCH   3   5
ENDBRANCH   1   3
BRANCH   1  11
ATOM     11  C   UNL     1      12.081 -19.092  21.644  1.00  0.00     0.087 C 
BRANCH  11  12
ATOM     12  C   UNL     1      10.855 -18.819  20.681  1.00  0.00     0.066 C 
BRANCH  12  13
ATOM     13  C   UNL     1       9.819 -19.968  20.671  1.00  0.00     0.140 C 
ATOM     14  O   UNL     1      10.054 -20.981  20.029  1.00  0.00    -0.299 OA
BRANCH  13  15
ATOM     15  C   UNL     1       8.492 -19.886  21.436  1.00  0.00     0.106 CG0
ATOM     16  G   UNL     1       8.612 -20.126  22.959  1.00  0.00     0.000 G0
ENDBRANCH  13  15
ENDBRANCH  12  13
BRANCH  12  17
ATOM     17  C   UNL     1      11.277 -18.469  19.218  1.00  0.00    -0.006 C 
ATOM     18  C   UNL     1      10.107 -17.877  18.413  1.00  0.00     0.008 C 
ATOM     19  C   UNL     1      12.510 -17.550  19.118  1.00  0.00     0.008 C 
ENDBRANCH  12  17
ENDBRANCH  11  12
ENDBRANCH   1  11
TORSDOF 1
ENDMDL
MODEL 9
REMARK VINA RESULT:    -3.331      1.952      2.725
REMARK INTER + INTRA:          -5.699
REMARK INTER:                  -5.300
REMARK INTRA:                  -0.399
REMARK UNBOUND:                -0.616
REMARK SMILES CC1=CCC[C@@H](C)C(=O)C[C@@H](C(C)C)C(=O)C1
REMARK SMILES IDX 8 1 9 2 6 3 7 4 5 5 4 6 3 7 2 8 1 9 10 11 11 12 15 13 16 14
REMARK SMILES IDX 17 15 12 17 13 18 14 19
REMARK H PARENT
REMARK Flexibility Score: 70.00
ROOT
ATOM      1  C   UNL     1       9.276 -20.667  21.965  1.00  0.00     0.136 C 
ATOM      2  O   UNL     1       9.599 -21.845  22.008  1.00  0.00    -0.299 OA
ENDROOT
BRANCH   1   3
ATOM      3  C   UNL     1       9.207 -19.882  23.282  1.00  0.00     0.053 C 
ATOM      4  C   UNL     1       8.372 -20.636  24.319  1.00  0.00     0.016 C 
BRANCH   3   5
ATOM      5  C   UNL     1       8.610 -18.531  22.946  1.00  0.00     0.015 C 
BRANCH   5   6
ATOM      6  C   UNL     1       9.255 -17.194  23.197  1.00  0.00     0.028 C 
BRANCH   6   7
ATOM      7  C   UNL     1      10.754 -17.412  23.418  1.00  0.00    -0.028 C 
ATOM      8  C   UNL     1      11.754 -17.587  22.485  1.00  0.00    -0.070 CG0
ATOM      9  C   UNL     1      13.164 -17.650  23.026  1.00  0.00     0.039 C 
ATOM     10  G   UNL     1      11.584 -17.752  20.958  1.00  0.00     0.000 G0
ENDBRANCH   6   7
ENDBRANCH   5   6
ENDBRANCH   3   5
ENDBRANCH   1   3
BRANCH   1  11
ATOM     11  C   UNL     1       8.967 -20.040  20.591  1.00  0.00     0.087 C 
BRANCH  11  12
ATOM     12  C   UNL     1      10.226 -19.721  19.685  1.00  0.00     0.066 C 
BRANCH  12  13
ATOM     13  C   UNL     1      11.449 -19.225  20.493  1.00  0.00     0.140 C 
ATOM     14  O   UNL     1      12.335 -20.015  20.783  1.00  0.00    -0.299 OA
BRANCH  13  15
ATOM     15  C   UNL     1      11.594 -17.769  20.957  1.00  0.00     0.106 CG0
ATOM     16  G   UNL     1      11.742 -17.593  22.485  1.00  0.00     0.000 G0
ENDBRANCH  13  15
ENDBRANCH  12  13
BRANCH  12  17
ATOM     17  C   UNL     1       9.920 -18.730  18.518  1.00  0.00    -0.006 C 
ATOM     18  C   UNL     1      10.167 -19.375  17.143  1.00  0.00     0.008 C 
ATOM     19  C   UNL     1       8.512 -18.108  18.569  1.00  0.00     0.008 C 
ENDBRANCH  12  17
ENDBRANCH  11  12
ENDBRANCH   1  11
TORSDOF 1
ENDMDL
