MODEL 1
REMARK VINA RESULT:    -3.709      0.000      0.000
REMARK INTER + INTRA:          -4.646
REMARK INTER:                  -4.576
REMARK INTRA:                  -0.070
REMARK UNBOUND:                -0.070
REMARK SMILES CCCCCC(=O)[O-]
REMARK SMILES IDX 4 1 5 2 6 3 7 4 8 5 3 6 2 7 1 8
REMARK H PARENT
REMARK Flexibility Score: inf
ROOT
ATOM      1  C   UNL     1      -4.076  -0.751  -1.009  1.00  0.00     0.006 C 
ENDROOT
BRANCH   1   2
ATOM      2  C   UNL     1      -3.756  -1.477  -2.323  1.00  0.00     0.053 C 
BRANCH   2   3
ATOM      3  C   UNL     1      -3.791  -2.965  -2.158  1.00  0.00     0.041 C 
ATOM      4  O   UNL     1      -3.868  -3.713  -3.168  1.00  0.00    -0.550 OA
ATOM      5  O   UNL     1      -3.770  -3.526  -0.887  1.00  0.00    -0.550 OA
ENDBRANCH   2   3
ENDBRANCH   1   2
BRANCH   1   6
ATOM      6  C   UNL     1      -3.047   0.343  -0.684  1.00  0.00     0.000 C 
BRANCH   6   7
ATOM      7  C   UNL     1      -3.709   1.520   0.042  1.00  0.00    -0.003 C 
ATOM      8  C   UNL     1      -3.010   2.835  -0.288  1.00  0.00     0.004 C 
ENDBRANCH   6   7
ENDBRANCH   1   6
TORSDOF 4
ENDMDL
MODEL 2
REMARK VINA RESULT:    -3.498      2.969      4.810
REMARK INTER + INTRA:          -4.385
REMARK INTER:                  -4.288
REMARK INTRA:                  -0.097
REMARK UNBOUND:                -0.070
REMARK SMILES CCCCCC(=O)[O-]
REMARK SMILES IDX 4 1 5 2 6 3 7 4 8 5 3 6 2 7 1 8
REMARK H PARENT
REMARK Flexibility Score: inf
ROOT
ATOM      1  C   UNL     1      -3.401  -0.827  -1.141  1.00  0.00     0.006 C 
ENDROOT
BRANCH   1   2
ATOM      2  C   UNL     1      -4.177   0.415  -0.685  1.00  0.00     0.053 C 
BRANCH   2   3
ATOM      3  C   UNL     1      -3.269   1.455  -0.103  1.00  0.00     0.041 C 
ATOM      4  O   UNL     1      -2.033   1.238  -0.011  1.00  0.00    -0.550 OA
ATOM      5  O   UNL     1      -3.794   2.653   0.367  1.00  0.00    -0.550 OA
ENDBRANCH   2   3
ENDBRANCH   1   2
BRANCH   1   6
ATOM      6  C   UNL     1      -4.118  -1.576  -2.275  1.00  0.00     0.000 C 
BRANCH   6   7
ATOM      7  C   UNL     1      -3.748  -3.064  -2.270  1.00  0.00    -0.003 C 
ATOM      8  C   UNL     1      -3.785  -3.637  -0.856  1.00  0.00     0.004 C 
ENDBRANCH   6   7
ENDBRANCH   1   6
TORSDOF 4
ENDMDL
MODEL 3
REMARK VINA RESULT:    -3.306      4.603      6.123
REMARK INTER + INTRA:          -4.149
REMARK INTER:                  -4.039
REMARK INTRA:                  -0.110
REMARK UNBOUND:                -0.070
REMARK SMILES CCCCCC(=O)[O-]
REMARK SMILES IDX 4 1 5 2 6 3 7 4 8 5 3 6 2 7 1 8
REMARK H PARENT
REMARK Flexibility Score: inf
ROOT
ATOM      1  C   UNL     1      -3.860   2.923   0.558  1.00  0.00     0.006 C 
ENDROOT
BRANCH   1   2
ATOM      2  C   UNL     1      -2.739   3.368  -0.391  1.00  0.00     0.053 C 
BRANCH   2   3
ATOM      3  C   UNL     1      -2.926   4.782  -0.849  1.00  0.00     0.041 C 
ATOM      4  O   UNL     1      -2.993   5.717  -0.009  1.00  0.00    -0.550 OA
ATOM      5  O   UNL     1      -3.060   5.063  -2.203  1.00  0.00    -0.550 OA
ENDBRANCH   2   3
ENDBRANCH   1   2
BRANCH   1   6
ATOM      6  C   UNL     1      -4.166   1.423   0.434  1.00  0.00     0.000 C 
BRANCH   6   7
ATOM      7  C   UNL     1      -3.112   0.717  -0.428  1.00  0.00    -0.003 C 
ATOM      8  C   UNL     1      -3.656  -0.585  -1.008  1.00  0.00     0.004 C 
ENDBRANCH   6   7
ENDBRANCH   1   6
TORSDOF 4
ENDMDL
MODEL 4
REMARK VINA RESULT:    -3.247      3.523      4.890
REMARK INTER + INTRA:          -4.075
REMARK INTER:                  -3.934
REMARK INTRA:                  -0.141
REMARK UNBOUND:                -0.070
REMARK SMILES CCCCCC(=O)[O-]
REMARK SMILES IDX 4 1 5 2 6 3 7 4 8 5 3 6 2 7 1 8
REMARK H PARENT
REMARK Flexibility Score: inf
ROOT
ATOM      1  C   UNL     1      -3.004   3.859  -1.257  1.00  0.00     0.006 C 
ENDROOT
BRANCH   1   2
ATOM      2  C   UNL     1      -2.498   2.765  -0.307  1.00  0.00     0.053 C 
BRANCH   2   3
ATOM      3  C   UNL     1      -3.579   1.789   0.045  1.00  0.00     0.041 C 
ATOM      4  O   UNL     1      -3.717   0.729  -0.619  1.00  0.00    -0.550 OA
ATOM      5  O   UNL     1      -4.455   2.068   1.086  1.00  0.00    -0.550 OA
ENDBRANCH   2   3
ENDBRANCH   1   2
BRANCH   1   6
ATOM      6  C   UNL     1      -3.061   5.236  -0.579  1.00  0.00     0.000 C 
BRANCH   6   7
ATOM      7  C   UNL     1      -2.592   5.151   0.878  1.00  0.00    -0.003 C 
ATOM      8  C   UNL     1      -1.864   6.424   1.299  1.00  0.00     0.004 C 
ENDBRANCH   6   7
ENDBRANCH   1   6
TORSDOF 4
ENDMDL
MODEL 5
REMARK VINA RESULT:    -3.074     10.830     11.772
REMARK INTER + INTRA:          -3.862
REMARK INTER:                  -3.589
REMARK INTRA:                  -0.273
REMARK UNBOUND:                -0.070
REMARK SMILES CCCCCC(=O)[O-]
REMARK SMILES IDX 4 1 5 2 6 3 7 4 8 5 3 6 2 7 1 8
REMARK H PARENT
REMARK Flexibility Score: inf
ROOT
ATOM      1  C   UNL     1      -7.881   8.380  -9.021  1.00  0.00     0.006 C 
ENDROOT
BRANCH   1   2
ATOM      2  C   UNL     1      -8.529   7.065  -8.565  1.00  0.00     0.053 C 
BRANCH   2   3
ATOM      3  C   UNL     1      -7.614   6.272  -7.683  1.00  0.00     0.041 C 
ATOM      4  O   UNL     1      -7.929   6.041  -6.486  1.00  0.00    -0.550 OA
ATOM      5  O   UNL     1      -6.397   5.815  -8.173  1.00  0.00    -0.550 OA
ENDBRANCH   2   3
ENDBRANCH   1   2
BRANCH   1   6
ATOM      6  C   UNL     1      -7.535   9.298  -7.839  1.00  0.00     0.000 C 
BRANCH   6   7
ATOM      7  C   UNL     1      -6.050   9.678  -7.856  1.00  0.00    -0.003 C 
ATOM      8  C   UNL     1      -5.386   9.251  -9.161  1.00  0.00     0.004 C 
ENDBRANCH   6   7
ENDBRANCH   1   6
TORSDOF 4
ENDMDL
MODEL 6
REMARK VINA RESULT:    -2.841      5.172      6.370
REMARK INTER + INTRA:          -3.575
REMARK INTER:                  -3.475
REMARK INTRA:                  -0.100
REMARK UNBOUND:                -0.070
REMARK SMILES CCCCCC(=O)[O-]
REMARK SMILES IDX 4 1 5 2 6 3 7 4 8 5 3 6 2 7 1 8
REMARK H PARENT
REMARK Flexibility Score: inf
ROOT
ATOM      1  C   UNL     1      -3.085   2.777  -0.585  1.00  0.00     0.006 C 
ENDROOT
BRANCH   1   2
ATOM      2  C   UNL     1      -3.369   3.873   0.450  1.00  0.00     0.053 C 
BRANCH   2   3
ATOM      3  C   UNL     1      -2.832   5.202   0.014  1.00  0.00     0.041 C 
ATOM      4  O   UNL     1      -2.983   5.587  -1.175  1.00  0.00    -0.550 OA
ATOM      5  O   UNL     1      -2.137   6.001   0.913  1.00  0.00    -0.550 OA
ENDBRANCH   2   3
ENDBRANCH   1   2
BRANCH   1   6
ATOM      6  C   UNL     1      -3.119   1.371   0.033  1.00  0.00     0.000 C 
BRANCH   6   7
ATOM      7  C   UNL     1      -1.888   0.558  -0.386  1.00  0.00    -0.003 C 
ATOM      8  C   UNL     1      -0.597   1.280  -0.013  1.00  0.00     0.004 C 
ENDBRANCH   6   7
ENDBRANCH   1   6
TORSDOF 4
ENDMDL
MODEL 7
REMARK VINA RESULT:    -2.818     11.019     11.951
REMARK INTER + INTRA:          -3.547
REMARK INTER:                  -3.314
REMARK INTRA:                  -0.233
REMARK UNBOUND:                -0.070
REMARK SMILES CCCCCC(=O)[O-]
REMARK SMILES IDX 4 1 5 2 6 3 7 4 8 5 3 6 2 7 1 8
REMARK H PARENT
REMARK Flexibility Score: inf
ROOT
ATOM      1  C   UNL     1      -8.218   7.049  -8.555  1.00  0.00     0.006 C 
ENDROOT
BRANCH   1   2
ATOM      2  C   UNL     1      -7.720   8.444  -8.956  1.00  0.00     0.053 C 
BRANCH   2   3
ATOM      3  C   UNL     1      -7.305   9.250  -7.764  1.00  0.00     0.041 C 
ATOM      4  O   UNL     1      -6.103   9.596  -7.619  1.00  0.00    -0.550 OA
ATOM      5  O   UNL     1      -8.240   9.592  -6.795  1.00  0.00    -0.550 OA
ENDBRANCH   2   3
ENDBRANCH   1   2
BRANCH   1   6
ATOM      6  C   UNL     1      -7.119   6.209  -7.886  1.00  0.00     0.000 C 
BRANCH   6   7
ATOM      7  C   UNL     1      -7.507   5.843  -6.449  1.00  0.00    -0.003 C 
ATOM      8  C   UNL     1      -6.387   6.184  -5.470  1.00  0.00     0.004 C 
ENDBRANCH   6   7
ENDBRANCH   1   6
TORSDOF 4
ENDMDL
MODEL 8
REMARK VINA RESULT:    -2.793     13.613     14.046
REMARK INTER + INTRA:          -3.516
REMARK INTER:                  -3.420
REMARK INTRA:                  -0.095
REMARK UNBOUND:                -0.070
REMARK SMILES CCCCCC(=O)[O-]
REMARK SMILES IDX 4 1 5 2 6 3 7 4 8 5 3 6 2 7 1 8
REMARK H PARENT
REMARK Flexibility Score: inf
ROOT
ATOM      1  C   UNL     1       2.272  -7.521   9.196  1.00  0.00     0.006 C 
ENDROOT
BRANCH   1   2
ATOM      2  C   UNL     1       3.707  -7.554   9.740  1.00  0.00     0.053 C 
BRANCH   2   3
ATOM      3  C   UNL     1       4.679  -8.051   8.714  1.00  0.00     0.041 C 
ATOM      4  O   UNL     1       4.474  -7.837   7.490  1.00  0.00    -0.550 OA
ATOM      5  O   UNL     1       5.794  -8.780   9.107  1.00  0.00    -0.550 OA
ENDBRANCH   2   3
ENDBRANCH   1   2
BRANCH   1   6
ATOM      6  C   UNL     1       1.316  -6.757  10.125  1.00  0.00     0.000 C 
BRANCH   6   7
ATOM      7  C   UNL     1       0.696  -5.554   9.405  1.00  0.00    -0.003 C 
ATOM      8  C   UNL     1       1.374  -4.252   9.822  1.00  0.00     0.004 C 
ENDBRANCH   6   7
ENDBRANCH   1   6
TORSDOF 4
ENDMDL
MODEL 9
REMARK VINA RESULT:    -2.731     11.217     12.210
REMARK INTER + INTRA:          -3.439
REMARK INTER:                  -3.199
REMARK INTRA:                  -0.240
REMARK UNBOUND:                -0.070
REMARK SMILES CCCCCC(=O)[O-]
REMARK SMILES IDX 4 1 5 2 6 3 7 4 8 5 3 6 2 7 1 8
REMARK H PARENT
REMARK Flexibility Score: inf
ROOT
ATOM      1  C   UNL     1      -7.085   8.610  -8.846  1.00  0.00     0.006 C 
ENDROOT
BRANCH   1   2
ATOM      2  C   UNL     1      -6.783   8.043  -7.453  1.00  0.00     0.053 C 
BRANCH   2   3
ATOM      3  C   UNL     1      -7.127   6.588  -7.358  1.00  0.00     0.041 C 
ATOM      4  O   UNL     1      -7.966   6.189  -6.508  1.00  0.00    -0.550 OA
ATOM      5  O   UNL     1      -6.497   5.669  -8.186  1.00  0.00    -0.550 OA
ENDBRANCH   2   3
ENDBRANCH   1   2
BRANCH   1   6
ATOM      6  C   UNL     1      -8.561   9.003  -9.006  1.00  0.00     0.000 C 
BRANCH   6   7
ATOM      7  C   UNL     1      -9.227   8.193 -10.125  1.00  0.00    -0.003 C 
ATOM      8  C   UNL     1     -10.124   7.099  -9.555  1.00  0.00     0.004 C 
ENDBRANCH   6   7
ENDBRANCH   1   6
TORSDOF 4
ENDMDL
