MODEL 1
REMARK VINA RESULT:    -7.807      0.000      0.000
REMARK INTER + INTRA:          -9.100
REMARK INTER:                  -9.176
REMARK INTRA:                   0.076
REMARK UNBOUND:                 0.076
REMARK SMILES O=c1c(O)c(-c2ccc(O)cc2)oc2cc(O)cc(O)c12
REMARK SMILES IDX 5 1 3 2 2 3 1 4 21 5 19 6 18 7 16 8 15 9 14 10 13 11 6 12
REMARK SMILES IDX 7 13 8 14 9 15 12 16 11 17 10 18 4 20 20 22 17 24
REMARK H PARENT 10 19 4 21 20 23 17 25
REMARK Flexibility Score: inf
ROOT
ATOM      1  C   UNL     1      33.793  27.956  20.278  1.00  0.00     0.180 A 
ATOM      2  C   UNL     1      33.233  28.785  19.291  1.00  0.00     0.208 A 
ATOM      3  C   UNL     1      32.963  28.248  18.022  1.00  0.00     0.238 A 
ATOM      4  O   UNL     1      32.413  28.981  17.160  1.00  0.00    -0.285 OA
ATOM      5  C   UNL     1      33.270  26.893  17.751  1.00  0.00     0.111 A 
ATOM      6  C   UNL     1      33.077  26.255  16.489  1.00  0.00     0.134 A 
ATOM      7  C   UNL     1      33.294  24.877  16.372  1.00  0.00     0.093 A 
ATOM      8  C   UNL     1      33.759  24.126  17.454  1.00  0.00     0.123 A 
ATOM      9  C   UNL     1      34.009  24.751  18.673  1.00  0.00     0.094 A 
ATOM     10  C   UNL     1      33.767  26.118  18.830  1.00  0.00     0.146 A 
ATOM     11  O   UNL     1      34.009  26.672  20.013  1.00  0.00    -0.452 OA
ENDROOT
BRANCH   1  12
ATOM     12  C   UNL     1      34.129  28.457  21.631  1.00  0.00     0.021 A 
ATOM     13  C   UNL     1      34.790  29.684  21.815  1.00  0.00     0.016 A 
ATOM     14  C   UNL     1      35.118  30.124  23.100  1.00  0.00     0.047 A 
ATOM     15  C   UNL     1      34.802  29.338  24.216  1.00  0.00     0.115 A 
ATOM     16  C   UNL     1      33.834  27.665  22.754  1.00  0.00     0.016 A 
ATOM     17  C   UNL     1      34.163  28.108  24.038  1.00  0.00     0.047 A 
BRANCH  15  18
ATOM     18  O   UNL     1      35.124  29.767  25.502  1.00  0.00    -0.508 OA
ATOM     19  H   UNL     1      35.948  30.329  25.681  1.00  0.00     0.293 HD
ENDBRANCH  15  18
ENDBRANCH   1  12
BRANCH   2  20
ATOM     20  O   UNL     1      32.917  30.115  19.586  1.00  0.00    -0.502 OA
ATOM     21  H   UNL     1      32.538  30.750  18.895  1.00  0.00     0.293 HD
ENDBRANCH   2  20
BRANCH   6  22
ATOM     22  O   UNL     1      32.701  26.930  15.323  1.00  0.00    -0.507 OA
ATOM     23  H   UNL     1      32.777  27.925  15.185  1.00  0.00     0.293 HD
ENDBRANCH   6  22
BRANCH   8  24
ATOM     24  O   UNL     1      33.988  22.757  17.324  1.00  0.00    -0.508 OA
ATOM     25  H   UNL     1      34.601  22.261  17.959  1.00  0.00     0.293 HD
ENDBRANCH   8  24
TORSDOF 5
ENDMDL
MODEL 2
REMARK VINA RESULT:    -7.318      1.962      6.240
REMARK INTER + INTRA:          -8.526
REMARK INTER:                  -8.983
REMARK INTRA:                   0.457
REMARK UNBOUND:                 0.076
REMARK SMILES O=c1c(O)c(-c2ccc(O)cc2)oc2cc(O)cc(O)c12
REMARK SMILES IDX 5 1 3 2 2 3 1 4 21 5 19 6 18 7 16 8 15 9 14 10 13 11 6 12
REMARK SMILES IDX 7 13 8 14 9 15 12 16 11 17 10 18 4 20 20 22 17 24
REMARK H PARENT 10 19 4 21 20 23 17 25
REMARK Flexibility Score: inf
ROOT
ATOM      1  C   UNL     1      33.833  25.073  18.927  1.00  0.00     0.180 A 
ATOM      2  C   UNL     1      33.397  25.790  17.799  1.00  0.00     0.208 A 
ATOM      3  C   UNL     1      33.265  27.184  17.888  1.00  0.00     0.238 A 
ATOM      4  O   UNL     1      32.926  27.826  16.859  1.00  0.00    -0.285 OA
ATOM      5  C   UNL     1      33.554  27.844  19.107  1.00  0.00     0.111 A 
ATOM      6  C   UNL     1      33.415  29.248  19.322  1.00  0.00     0.134 A 
ATOM      7  C   UNL     1      33.854  29.808  20.527  1.00  0.00     0.093 A 
ATOM      8  C   UNL     1      34.367  29.007  21.550  1.00  0.00     0.123 A 
ATOM      9  C   UNL     1      34.450  27.628  21.373  1.00  0.00     0.094 A 
ATOM     10  C   UNL     1      34.053  27.044  20.167  1.00  0.00     0.146 A 
ATOM     11  O   UNL     1      34.159  25.727  20.036  1.00  0.00    -0.452 OA
ENDROOT
BRANCH   1  12
ATOM     12  C   UNL     1      33.973  23.598  18.918  1.00  0.00     0.021 A 
ATOM     13  C   UNL     1      33.447  22.818  17.873  1.00  0.00     0.016 A 
ATOM     14  C   UNL     1      33.570  21.426  17.899  1.00  0.00     0.047 A 
ATOM     15  C   UNL     1      34.208  20.796  18.974  1.00  0.00     0.115 A 
ATOM     16  C   UNL     1      34.593  22.956  20.003  1.00  0.00     0.016 A 
ATOM     17  C   UNL     1      34.716  21.564  20.026  1.00  0.00     0.047 A 
BRANCH  15  18
ATOM     18  O   UNL     1      34.338  19.408  19.011  1.00  0.00    -0.508 OA
ATOM     19  H   UNL     1      35.138  18.941  18.601  1.00  0.00     0.293 HD
ENDBRANCH  15  18
ENDBRANCH   1  12
BRANCH   2  20
ATOM     20  O   UNL     1      33.138  25.122  16.598  1.00  0.00    -0.502 OA
ATOM     21  H   UNL     1      32.317  24.545  16.463  1.00  0.00     0.293 HD
ENDBRANCH   2  20
BRANCH   6  22
ATOM     22  O   UNL     1      32.832  30.125  18.401  1.00  0.00    -0.507 OA
ATOM     23  H   UNL     1      31.891  30.481  18.463  1.00  0.00     0.293 HD
ENDBRANCH   6  22
BRANCH   8  24
ATOM     24  O   UNL     1      34.787  29.572  22.753  1.00  0.00    -0.508 OA
ATOM     25  H   UNL     1      35.758  29.811  22.914  1.00  0.00     0.293 HD
ENDBRANCH   8  24
TORSDOF 5
ENDMDL
MODEL 3
REMARK VINA RESULT:    -7.112      1.965      6.251
REMARK INTER + INTRA:          -8.283
REMARK INTER:                  -8.837
REMARK INTRA:                   0.554
REMARK UNBOUND:                 0.076
REMARK SMILES O=c1c(O)c(-c2ccc(O)cc2)oc2cc(O)cc(O)c12
REMARK SMILES IDX 5 1 3 2 2 3 1 4 21 5 19 6 18 7 16 8 15 9 14 10 13 11 6 12
REMARK SMILES IDX 7 13 8 14 9 15 12 16 11 17 10 18 4 20 20 22 17 24
REMARK H PARENT 10 19 4 21 20 23 17 25
REMARK Flexibility Score: inf
ROOT
ATOM      1  C   UNL     1      33.820  25.079  18.971  1.00  0.00     0.180 A 
ATOM      2  C   UNL     1      33.382  25.776  17.832  1.00  0.00     0.208 A 
ATOM      3  C   UNL     1      33.254  27.173  17.895  1.00  0.00     0.238 A 
ATOM      4  O   UNL     1      32.913  27.796  16.856  1.00  0.00    -0.285 OA
ATOM      5  C   UNL     1      33.551  27.854  19.101  1.00  0.00     0.111 A 
ATOM      6  C   UNL     1      33.417  29.262  19.290  1.00  0.00     0.134 A 
ATOM      7  C   UNL     1      33.864  29.843  20.482  1.00  0.00     0.093 A 
ATOM      8  C   UNL     1      34.378  29.060  21.518  1.00  0.00     0.123 A 
ATOM      9  C   UNL     1      34.456  27.677  21.366  1.00  0.00     0.094 A 
ATOM     10  C   UNL     1      34.052  27.072  20.173  1.00  0.00     0.146 A 
ATOM     11  O   UNL     1      34.154  25.752  20.066  1.00  0.00    -0.452 OA
ENDROOT
BRANCH   1  12
ATOM     12  C   UNL     1      33.956  23.604  18.989  1.00  0.00     0.021 A 
ATOM     13  C   UNL     1      34.604  22.940  20.046  1.00  0.00     0.016 A 
ATOM     14  C   UNL     1      34.742  21.550  20.028  1.00  0.00     0.047 A 
ATOM     15  C   UNL     1      34.245  20.806  18.950  1.00  0.00     0.115 A 
ATOM     16  C   UNL     1      33.479  22.853  17.901  1.00  0.00     0.016 A 
ATOM     17  C   UNL     1      33.617  21.461  17.887  1.00  0.00     0.047 A 
BRANCH  15  18
ATOM     18  O   UNL     1      34.375  19.419  18.923  1.00  0.00    -0.508 OA
ATOM     19  H   UNL     1      33.582  18.817  18.735  1.00  0.00     0.293 HD
ENDBRANCH  15  18
ENDBRANCH   1  12
BRANCH   2  20
ATOM     20  O   UNL     1      33.115  25.087  16.645  1.00  0.00    -0.502 OA
ATOM     21  H   UNL     1      33.701  25.171  15.823  1.00  0.00     0.293 HD
ENDBRANCH   2  20
BRANCH   6  22
ATOM     22  O   UNL     1      32.833  30.123  18.355  1.00  0.00    -0.507 OA
ATOM     23  H   UNL     1      32.197  29.835  17.628  1.00  0.00     0.293 HD
ENDBRANCH   6  22
BRANCH   8  24
ATOM     24  O   UNL     1      34.806  29.645  22.708  1.00  0.00    -0.508 OA
ATOM     25  H   UNL     1      34.221  30.298  23.216  1.00  0.00     0.293 HD
ENDBRANCH   8  24
TORSDOF 5
ENDMDL
MODEL 4
REMARK VINA RESULT:    -7.044      1.535      3.529
REMARK INTER + INTRA:          -8.203
REMARK INTER:                  -8.625
REMARK INTRA:                   0.422
REMARK UNBOUND:                 0.076
REMARK SMILES O=c1c(O)c(-c2ccc(O)cc2)oc2cc(O)cc(O)c12
REMARK SMILES IDX 5 1 3 2 2 3 1 4 21 5 19 6 18 7 16 8 15 9 14 10 13 11 6 12
REMARK SMILES IDX 7 13 8 14 9 15 12 16 11 17 10 18 4 20 20 22 17 24
REMARK H PARENT 10 19 4 21 20 23 17 25
REMARK Flexibility Score: inf
ROOT
ATOM      1  C   UNL     1      33.961  26.663  20.342  1.00  0.00     0.180 A 
ATOM      2  C   UNL     1      34.353  25.521  19.622  1.00  0.00     0.208 A 
ATOM      3  C   UNL     1      34.149  25.487  18.234  1.00  0.00     0.238 A 
ATOM      4  O   UNL     1      34.550  24.484  17.588  1.00  0.00    -0.285 OA
ATOM      5  C   UNL     1      33.540  26.588  17.584  1.00  0.00     0.111 A 
ATOM      6  C   UNL     1      33.247  26.644  16.189  1.00  0.00     0.134 A 
ATOM      7  C   UNL     1      32.763  27.834  15.632  1.00  0.00     0.093 A 
ATOM      8  C   UNL     1      32.501  28.949  16.432  1.00  0.00     0.123 A 
ATOM      9  C   UNL     1      32.726  28.884  17.805  1.00  0.00     0.094 A 
ATOM     10  C   UNL     1      33.243  27.721  18.384  1.00  0.00     0.146 A 
ATOM     11  O   UNL     1      33.453  27.705  19.695  1.00  0.00    -0.452 OA
ENDROOT
BRANCH   1  12
ATOM     12  C   UNL     1      34.122  26.763  21.811  1.00  0.00     0.021 A 
ATOM     13  C   UNL     1      34.358  25.624  22.602  1.00  0.00     0.016 A 
ATOM     14  C   UNL     1      34.481  25.740  23.989  1.00  0.00     0.047 A 
ATOM     15  C   UNL     1      34.358  26.992  24.605  1.00  0.00     0.115 A 
ATOM     16  C   UNL     1      33.979  28.012  22.439  1.00  0.00     0.016 A 
ATOM     17  C   UNL     1      34.104  28.125  23.827  1.00  0.00     0.047 A 
BRANCH  15  18
ATOM     18  O   UNL     1      34.480  27.120  25.987  1.00  0.00    -0.508 OA
ATOM     19  H   UNL     1      34.319  28.006  26.452  1.00  0.00     0.293 HD
ENDBRANCH  15  18
ENDBRANCH   1  12
BRANCH   2  20
ATOM     20  O   UNL     1      34.973  24.454  20.280  1.00  0.00    -0.502 OA
ATOM     21  H   UNL     1      34.797  23.488  20.035  1.00  0.00     0.293 HD
ENDBRANCH   2  20
BRANCH   6  22
ATOM     22  O   UNL     1      33.386  25.559  15.317  1.00  0.00    -0.507 OA
ATOM     23  H   UNL     1      33.577  25.636  14.330  1.00  0.00     0.293 HD
ENDBRANCH   6  22
BRANCH   8  24
ATOM     24  O   UNL     1      32.005  30.125  15.873  1.00  0.00    -0.508 OA
ATOM     25  H   UNL     1      32.623  30.853  15.536  1.00  0.00     0.293 HD
ENDBRANCH   8  24
TORSDOF 5
ENDMDL
MODEL 5
REMARK VINA RESULT:    -6.912      1.817      7.004
REMARK INTER + INTRA:          -8.048
REMARK INTER:                  -8.505
REMARK INTRA:                   0.457
REMARK UNBOUND:                 0.076
REMARK SMILES O=c1c(O)c(-c2ccc(O)cc2)oc2cc(O)cc(O)c12
REMARK SMILES IDX 5 1 3 2 2 3 1 4 21 5 19 6 18 7 16 8 15 9 14 10 13 11 6 12
REMARK SMILES IDX 7 13 8 14 9 15 12 16 11 17 10 18 4 20 20 22 17 24
REMARK H PARENT 10 19 4 21 20 23 17 25
REMARK Flexibility Score: inf
ROOT
ATOM      1  C   UNL     1      33.964  26.486  19.355  1.00  0.00     0.180 A 
ATOM      2  C   UNL     1      34.315  25.259  19.945  1.00  0.00     0.208 A 
ATOM      3  C   UNL     1      34.695  25.237  21.296  1.00  0.00     0.238 A 
ATOM      4  O   UNL     1      34.957  24.128  21.833  1.00  0.00    -0.285 OA
ATOM      5  C   UNL     1      34.734  26.443  22.037  1.00  0.00     0.111 A 
ATOM      6  C   UNL     1      35.144  26.543  23.401  1.00  0.00     0.134 A 
ATOM      7  C   UNL     1      35.018  27.766  24.071  1.00  0.00     0.093 A 
ATOM      8  C   UNL     1      34.560  28.907  23.408  1.00  0.00     0.123 A 
ATOM      9  C   UNL     1      34.216  28.833  22.061  1.00  0.00     0.094 A 
ATOM     10  C   UNL     1      34.296  27.618  21.375  1.00  0.00     0.146 A 
ATOM     11  O   UNL     1      33.948  27.590  20.094  1.00  0.00    -0.452 OA
ENDROOT
BRANCH   1  12
ATOM     12  C   UNL     1      33.578  26.593  17.930  1.00  0.00     0.021 A 
ATOM     13  C   UNL     1      33.767  25.523  17.036  1.00  0.00     0.016 A 
ATOM     14  C   UNL     1      33.416  25.657  15.689  1.00  0.00     0.047 A 
ATOM     15  C   UNL     1      32.885  26.864  15.216  1.00  0.00     0.115 A 
ATOM     16  C   UNL     1      33.064  27.807  17.442  1.00  0.00     0.016 A 
ATOM     17  C   UNL     1      32.713  27.937  16.095  1.00  0.00     0.047 A 
BRANCH  15  18
ATOM     18  O   UNL     1      32.532  27.008  13.876  1.00  0.00    -0.508 OA
ATOM     19  H   UNL     1      32.772  26.305  13.187  1.00  0.00     0.293 HD
ENDBRANCH  15  18
ENDBRANCH   1  12
BRANCH   2  20
ATOM     20  O   UNL     1      34.248  24.077  19.201  1.00  0.00    -0.502 OA
ATOM     21  H   UNL     1      33.416  23.503  19.167  1.00  0.00     0.293 HD
ENDBRANCH   2  20
BRANCH   6  22
ATOM     22  O   UNL     1      35.700  25.486  24.129  1.00  0.00    -0.507 OA
ATOM     23  H   UNL     1      35.984  25.540  25.094  1.00  0.00     0.293 HD
ENDBRANCH   6  22
BRANCH   8  24
ATOM     24  O   UNL     1      34.454  30.124  24.079  1.00  0.00    -0.508 OA
ATOM     25  H   UNL     1      34.829  30.249  25.011  1.00  0.00     0.293 HD
ENDBRANCH   8  24
TORSDOF 5
ENDMDL
MODEL 6
REMARK VINA RESULT:    -6.884      2.347      6.545
REMARK INTER + INTRA:          -8.016
REMARK INTER:                  -8.297
REMARK INTRA:                   0.282
REMARK UNBOUND:                 0.076
REMARK SMILES O=c1c(O)c(-c2ccc(O)cc2)oc2cc(O)cc(O)c12
REMARK SMILES IDX 5 1 3 2 2 3 1 4 21 5 19 6 18 7 16 8 15 9 14 10 13 11 6 12
REMARK SMILES IDX 7 13 8 14 9 15 12 16 11 17 10 18 4 20 20 22 17 24
REMARK H PARENT 10 19 4 21 20 23 17 25
REMARK Flexibility Score: inf
ROOT
ATOM      1  C   UNL     1      34.508  25.108  20.019  1.00  0.00     0.180 A 
ATOM      2  C   UNL     1      33.613  26.076  19.531  1.00  0.00     0.208 A 
ATOM      3  C   UNL     1      33.745  27.405  19.963  1.00  0.00     0.238 A 
ATOM      4  O   UNL     1      32.975  28.277  19.483  1.00  0.00    -0.285 OA
ATOM      5  C   UNL     1      34.760  27.747  20.891  1.00  0.00     0.111 A 
ATOM      6  C   UNL     1      34.959  29.054  21.428  1.00  0.00     0.134 A 
ATOM      7  C   UNL     1      36.074  29.305  22.236  1.00  0.00     0.093 A 
ATOM      8  C   UNL     1      36.961  28.281  22.580  1.00  0.00     0.123 A 
ATOM      9  C   UNL     1      36.741  26.989  22.109  1.00  0.00     0.094 A 
ATOM     10  C   UNL     1      35.656  26.716  21.271  1.00  0.00     0.146 A 
ATOM     11  O   UNL     1      35.490  25.472  20.836  1.00  0.00    -0.452 OA
ENDROOT
BRANCH   1  12
ATOM     12  C   UNL     1      34.416  23.682  19.628  1.00  0.00     0.021 A 
ATOM     13  C   UNL     1      33.965  23.299  18.353  1.00  0.00     0.016 A 
ATOM     14  C   UNL     1      33.864  21.946  18.016  1.00  0.00     0.047 A 
ATOM     15  C   UNL     1      34.200  20.960  18.952  1.00  0.00     0.115 A 
ATOM     16  C   UNL     1      34.732  22.686  20.569  1.00  0.00     0.016 A 
ATOM     17  C   UNL     1      34.631  21.334  20.228  1.00  0.00     0.047 A 
BRANCH  15  18
ATOM     18  O   UNL     1      34.104  19.608  18.627  1.00  0.00    -0.508 OA
ATOM     19  H   UNL     1      34.361  19.266  17.708  1.00  0.00     0.293 HD
ENDBRANCH  15  18
ENDBRANCH   1  12
BRANCH   2  20
ATOM     20  O   UNL     1      32.633  25.721  18.600  1.00  0.00    -0.502 OA
ATOM     21  H   UNL     1      31.669  25.557  18.860  1.00  0.00     0.293 HD
ENDBRANCH   2  20
BRANCH   6  22
ATOM     22  O   UNL     1      34.084  30.125  21.222  1.00  0.00    -0.507 OA
ATOM     23  H   UNL     1      33.105  30.122  21.464  1.00  0.00     0.293 HD
ENDBRANCH   6  22
BRANCH   8  24
ATOM     24  O   UNL     1      38.060  28.536  23.398  1.00  0.00    -0.508 OA
ATOM     25  H   UNL     1      38.901  27.976  23.343  1.00  0.00     0.293 HD
ENDBRANCH   8  24
TORSDOF 5
ENDMDL
MODEL 7
REMARK VINA RESULT:    -6.639      2.373      6.309
REMARK INTER + INTRA:          -7.727
REMARK INTER:                  -8.310
REMARK INTRA:                   0.584
REMARK UNBOUND:                 0.076
REMARK SMILES O=c1c(O)c(-c2ccc(O)cc2)oc2cc(O)cc(O)c12
REMARK SMILES IDX 5 1 3 2 2 3 1 4 21 5 19 6 18 7 16 8 15 9 14 10 13 11 6 12
REMARK SMILES IDX 7 13 8 14 9 15 12 16 11 17 10 18 4 20 20 22 17 24
REMARK H PARENT 10 19 4 21 20 23 17 25
REMARK Flexibility Score: inf
ROOT
ATOM      1  C   UNL     1      34.000  25.137  19.528  1.00  0.00     0.180 A 
ATOM      2  C   UNL     1      34.494  25.723  20.706  1.00  0.00     0.208 A 
ATOM      3  C   UNL     1      34.383  27.112  20.874  1.00  0.00     0.238 A 
ATOM      4  O   UNL     1      34.779  27.624  21.954  1.00  0.00    -0.285 OA
ATOM      5  C   UNL     1      33.794  27.901  19.856  1.00  0.00     0.111 A 
ATOM      6  C   UNL     1      33.667  29.322  19.903  1.00  0.00     0.134 A 
ATOM      7  C   UNL     1      32.951  29.984  18.899  1.00  0.00     0.093 A 
ATOM      8  C   UNL     1      32.413  29.284  17.816  1.00  0.00     0.123 A 
ATOM      9  C   UNL     1      32.583  27.904  17.730  1.00  0.00     0.094 A 
ATOM     10  C   UNL     1      33.263  27.211  18.736  1.00  0.00     0.146 A 
ATOM     11  O   UNL     1      33.394  25.894  18.620  1.00  0.00    -0.452 OA
ENDROOT
BRANCH   1  12
ATOM     12  C   UNL     1      34.103  23.683  19.267  1.00  0.00     0.021 A 
ATOM     13  C   UNL     1      33.617  23.115  18.076  1.00  0.00     0.016 A 
ATOM     14  C   UNL     1      33.703  21.736  17.863  1.00  0.00     0.047 A 
ATOM     15  C   UNL     1      34.265  20.907  18.843  1.00  0.00     0.115 A 
ATOM     16  C   UNL     1      34.646  22.840  20.253  1.00  0.00     0.016 A 
ATOM     17  C   UNL     1      34.732  21.462  20.037  1.00  0.00     0.047 A 
BRANCH  15  18
ATOM     18  O   UNL     1      34.357  19.530  18.641  1.00  0.00    -0.508 OA
ATOM     19  H   UNL     1      33.543  18.976  18.403  1.00  0.00     0.293 HD
ENDBRANCH  15  18
ENDBRANCH   1  12
BRANCH   2  20
ATOM     20  O   UNL     1      35.052  24.924  21.708  1.00  0.00    -0.502 OA
ATOM     21  H   UNL     1      34.487  24.406  22.369  1.00  0.00     0.293 HD
ENDBRANCH   2  20
BRANCH   6  22
ATOM     22  O   UNL     1      34.245  30.125  20.891  1.00  0.00    -0.507 OA
ATOM     23  H   UNL     1      33.876  31.011  21.199  1.00  0.00     0.293 HD
ENDBRANCH   6  22
BRANCH   8  24
ATOM     24  O   UNL     1      31.714  29.953  16.813  1.00  0.00    -0.508 OA
ATOM     25  H   UNL     1      31.072  29.465  16.200  1.00  0.00     0.293 HD
ENDBRANCH   8  24
TORSDOF 5
ENDMDL
MODEL 8
REMARK VINA RESULT:    -6.537      1.771      6.344
REMARK INTER + INTRA:          -7.607
REMARK INTER:                  -8.141
REMARK INTRA:                   0.534
REMARK UNBOUND:                 0.076
REMARK SMILES O=c1c(O)c(-c2ccc(O)cc2)oc2cc(O)cc(O)c12
REMARK SMILES IDX 5 1 3 2 2 3 1 4 21 5 19 6 18 7 16 8 15 9 14 10 13 11 6 12
REMARK SMILES IDX 7 13 8 14 9 15 12 16 11 17 10 18 4 20 20 22 17 24
REMARK H PARENT 10 19 4 21 20 23 17 25
REMARK Flexibility Score: inf
ROOT
ATOM      1  C   UNL     1      33.629  27.534  19.421  1.00  0.00     0.180 A 
ATOM      2  C   UNL     1      33.710  28.825  19.972  1.00  0.00     0.208 A 
ATOM      3  C   UNL     1      34.010  28.966  21.336  1.00  0.00     0.238 A 
ATOM      4  O   UNL     1      34.134  30.125  21.811  1.00  0.00    -0.285 OA
ATOM      5  C   UNL     1      34.210  27.815  22.136  1.00  0.00     0.111 A 
ATOM      6  C   UNL     1      34.479  27.839  23.538  1.00  0.00     0.134 A 
ATOM      7  C   UNL     1      34.789  26.646  24.201  1.00  0.00     0.093 A 
ATOM      8  C   UNL     1      34.776  25.422  23.528  1.00  0.00     0.123 A 
ATOM      9  C   UNL     1      34.455  25.381  22.173  1.00  0.00     0.094 A 
ATOM     10  C   UNL     1      34.177  26.560  21.476  1.00  0.00     0.146 A 
ATOM     11  O   UNL     1      33.886  26.477  20.182  1.00  0.00    -0.452 OA
ENDROOT
BRANCH   1  12
ATOM     12  C   UNL     1      33.292  27.305  17.997  1.00  0.00     0.021 A 
ATOM     13  C   UNL     1      33.496  26.053  17.388  1.00  0.00     0.016 A 
ATOM     14  C   UNL     1      33.194  25.868  16.036  1.00  0.00     0.047 A 
ATOM     15  C   UNL     1      32.697  26.932  15.273  1.00  0.00     0.115 A 
ATOM     16  C   UNL     1      32.813  28.373  17.219  1.00  0.00     0.016 A 
ATOM     17  C   UNL     1      32.511  28.183  15.867  1.00  0.00     0.047 A 
BRANCH  15  18
ATOM     18  O   UNL     1      32.391  26.758  13.924  1.00  0.00    -0.508 OA
ATOM     19  H   UNL     1      32.414  25.842  13.491  1.00  0.00     0.293 HD
ENDBRANCH  15  18
ENDBRANCH   1  12
BRANCH   2  20
ATOM     20  O   UNL     1      33.531  29.949  19.159  1.00  0.00    -0.502 OA
ATOM     21  H   UNL     1      32.643  30.173  18.730  1.00  0.00     0.293 HD
ENDBRANCH   2  20
BRANCH   6  22
ATOM     22  O   UNL     1      34.428  28.996  24.322  1.00  0.00    -0.507 OA
ATOM     23  H   UNL     1      33.812  29.130  25.109  1.00  0.00     0.293 HD
ENDBRANCH   6  22
BRANCH   8  24
ATOM     24  O   UNL     1      35.070  24.238  24.200  1.00  0.00    -0.508 OA
ATOM     25  H   UNL     1      34.344  23.685  24.640  1.00  0.00     0.293 HD
ENDBRANCH   8  24
TORSDOF 5
ENDMDL
