MODEL 1
REMARK VINA RESULT:    -4.994      0.000      0.000
REMARK INTER + INTRA:          -5.865
REMARK INTER:                  -5.578
REMARK INTRA:                  -0.287
REMARK UNBOUND:                -0.287
REMARK SMILES CC(=O)c1ccc(O)cc1O
REMARK SMILES IDX 4 1 10 2 9 3 7 4 6 5 5 6 2 7 1 8 3 9 11 10 8 12
REMARK H PARENT 11 11 8 13
REMARK Flexibility Score: inf
ROOT
ATOM      1  C   UNL     1      72.928  34.143  55.042  1.00  0.00     0.059 A 
ATOM      2  C   UNL     1      73.120  33.318  53.908  1.00  0.00     0.130 A 
ATOM      3  C   UNL     1      73.759  33.829  52.767  1.00  0.00     0.093 A 
ATOM      4  C   UNL     1      74.214  35.148  52.737  1.00  0.00     0.119 A 
ATOM      5  C   UNL     1      74.031  35.969  53.854  1.00  0.00     0.047 A 
ATOM      6  C   UNL     1      73.396  35.474  54.995  1.00  0.00     0.019 A 
ENDROOT
BRANCH   1   7
ATOM      7  C   UNL     1      72.244  33.632  56.265  1.00  0.00     0.163 C 
ATOM      8  C   UNL     1      70.911  34.160  56.702  1.00  0.00     0.093 C 
ATOM      9  O   UNL     1      72.771  32.712  56.947  1.00  0.00    -0.294 OA
ENDBRANCH   1   7
BRANCH   2  10
ATOM     10  O   UNL     1      72.691  31.991  53.912  1.00  0.00    -0.507 OA
ATOM     11  H   UNL     1      72.046  31.640  54.611  1.00  0.00     0.293 HD
ENDBRANCH   2  10
BRANCH   4  12
ATOM     12  O   UNL     1      74.846  35.633  51.595  1.00  0.00    -0.508 OA
ATOM     13  H   UNL     1      74.846  35.109  50.727  1.00  0.00     0.293 HD
ENDBRANCH   4  12
TORSDOF 3
ENDMDL
MODEL 2
REMARK VINA RESULT:    -4.676     16.566     17.730
REMARK INTER + INTRA:          -5.509
REMARK INTER:                  -5.207
REMARK INTRA:                  -0.302
REMARK UNBOUND:                -0.287
REMARK SMILES CC(=O)c1ccc(O)cc1O
REMARK SMILES IDX 4 1 10 2 9 3 7 4 6 5 5 6 2 7 1 8 3 9 11 10 8 12
REMARK H PARENT 11 11 8 13
REMARK Flexibility Score: inf
ROOT
ATOM      1  C   UNL     1      85.913  31.932  65.848  1.00  0.00     0.059 A 
ATOM      2  C   UNL     1      85.718  31.897  67.250  1.00  0.00     0.130 A 
ATOM      3  C   UNL     1      84.452  31.597  67.776  1.00  0.00     0.093 A 
ATOM      4  C   UNL     1      83.376  31.326  66.929  1.00  0.00     0.119 A 
ATOM      5  C   UNL     1      83.560  31.355  65.544  1.00  0.00     0.047 A 
ATOM      6  C   UNL     1      84.814  31.654  65.007  1.00  0.00     0.019 A 
ENDROOT
BRANCH   1   7
ATOM      7  C   UNL     1      87.245  32.258  65.259  1.00  0.00     0.163 C 
ATOM      8  C   UNL     1      87.931  31.333  64.300  1.00  0.00     0.093 C 
ATOM      9  O   UNL     1      87.812  33.347  65.543  1.00  0.00    -0.294 OA
ENDBRANCH   1   7
BRANCH   2  10
ATOM     10  O   UNL     1      86.777  32.147  68.122  1.00  0.00    -0.507 OA
ATOM     11  H   UNL     1      86.877  33.036  68.600  1.00  0.00     0.293 HD
ENDBRANCH   2  10
BRANCH   4  12
ATOM     12  O   UNL     1      82.129  31.030  67.474  1.00  0.00    -0.508 OA
ATOM     13  H   UNL     1      81.299  31.549  67.212  1.00  0.00     0.293 HD
ENDBRANCH   4  12
TORSDOF 3
ENDMDL
MODEL 3
REMARK VINA RESULT:    -4.508     15.307     16.361
REMARK INTER + INTRA:          -5.322
REMARK INTER:                  -5.019
REMARK INTRA:                  -0.303
REMARK UNBOUND:                -0.287
REMARK SMILES CC(=O)c1ccc(O)cc1O
REMARK SMILES IDX 4 1 10 2 9 3 7 4 6 5 5 6 2 7 1 8 3 9 11 10 8 12
REMARK H PARENT 11 11 8 13
REMARK Flexibility Score: inf
ROOT
ATOM      1  C   UNL     1      85.162  30.979  64.603  1.00  0.00     0.059 A 
ATOM      2  C   UNL     1      83.770  30.727  64.535  1.00  0.00     0.130 A 
ATOM      3  C   UNL     1      83.288  29.413  64.641  1.00  0.00     0.093 A 
ATOM      4  C   UNL     1      84.169  28.344  64.818  1.00  0.00     0.119 A 
ATOM      5  C   UNL     1      85.544  28.584  64.889  1.00  0.00     0.047 A 
ATOM      6  C   UNL     1      86.037  29.887  64.783  1.00  0.00     0.019 A 
ENDROOT
BRANCH   1   7
ATOM      7  C   UNL     1      85.704  32.363  64.482  1.00  0.00     0.163 C 
ATOM      8  C   UNL     1      86.797  32.863  65.379  1.00  0.00     0.093 C 
ATOM      9  O   UNL     1      85.264  33.140  63.592  1.00  0.00    -0.294 OA
ENDBRANCH   1   7
BRANCH   2  10
ATOM     10  O   UNL     1      82.864  31.775  64.374  1.00  0.00    -0.507 OA
ATOM     11  H   UNL     1      81.862  31.627  64.425  1.00  0.00     0.293 HD
ENDBRANCH   2  10
BRANCH   4  12
ATOM     12  O   UNL     1      83.667  27.049  64.922  1.00  0.00    -0.508 OA
ATOM     13  H   UNL     1      83.657  26.420  64.128  1.00  0.00     0.293 HD
ENDBRANCH   4  12
TORSDOF 3
ENDMDL
MODEL 4
REMARK VINA RESULT:    -4.392     16.097     17.183
REMARK INTER + INTRA:          -5.193
REMARK INTER:                  -4.890
REMARK INTRA:                  -0.303
REMARK UNBOUND:                -0.287
REMARK SMILES CC(=O)c1ccc(O)cc1O
REMARK SMILES IDX 4 1 10 2 9 3 7 4 6 5 5 6 2 7 1 8 3 9 11 10 8 12
REMARK H PARENT 11 11 8 13
REMARK Flexibility Score: inf
ROOT
ATOM      1  C   UNL     1      85.849  32.013  65.713  1.00  0.00     0.059 A 
ATOM      2  C   UNL     1      84.730  31.689  64.909  1.00  0.00     0.130 A 
ATOM      3  C   UNL     1      83.505  31.356  65.510  1.00  0.00     0.093 A 
ATOM      4  C   UNL     1      83.375  31.344  66.900  1.00  0.00     0.119 A 
ATOM      5  C   UNL     1      84.474  31.666  67.701  1.00  0.00     0.047 A 
ATOM      6  C   UNL     1      85.698  31.998  67.116  1.00  0.00     0.019 A 
ENDROOT
BRANCH   1   7
ATOM      7  C   UNL     1      87.165  32.361  65.103  1.00  0.00     0.163 C 
ATOM      8  C   UNL     1      87.863  33.650  65.416  1.00  0.00     0.093 C 
ATOM      9  O   UNL     1      87.734  31.551  64.322  1.00  0.00    -0.294 OA
ENDBRANCH   1   7
BRANCH   2  10
ATOM     10  O   UNL     1      84.823  31.707  63.518  1.00  0.00    -0.507 OA
ATOM     11  H   UNL     1      84.204  31.156  62.934  1.00  0.00     0.293 HD
ENDBRANCH   2  10
BRANCH   4  12
ATOM     12  O   UNL     1      82.151  31.012  67.474  1.00  0.00    -0.508 OA
ATOM     13  H   UNL     1      81.723  30.106  67.321  1.00  0.00     0.293 HD
ENDBRANCH   4  12
TORSDOF 3
ENDMDL
MODEL 5
REMARK VINA RESULT:    -4.348      4.860      6.322
REMARK INTER + INTRA:          -5.143
REMARK INTER:                  -4.856
REMARK INTRA:                  -0.288
REMARK UNBOUND:                -0.287
REMARK SMILES CC(=O)c1ccc(O)cc1O
REMARK SMILES IDX 4 1 10 2 9 3 7 4 6 5 5 6 2 7 1 8 3 9 11 10 8 12
REMARK H PARENT 11 11 8 13
REMARK Flexibility Score: inf
ROOT
ATOM      1  C   UNL     1      77.835  34.316  51.890  1.00  0.00     0.059 A 
ATOM      2  C   UNL     1      77.971  32.912  52.011  1.00  0.00     0.130 A 
ATOM      3  C   UNL     1      79.239  32.343  52.209  1.00  0.00     0.093 A 
ATOM      4  C   UNL     1      80.375  33.150  52.292  1.00  0.00     0.119 A 
ATOM      5  C   UNL     1      80.249  34.537  52.177  1.00  0.00     0.047 A 
ATOM      6  C   UNL     1      78.994  35.116  51.978  1.00  0.00     0.019 A 
ENDROOT
BRANCH   1   7
ATOM      7  C   UNL     1      76.502  34.948  51.668  1.00  0.00     0.163 C 
ATOM      8  C   UNL     1      76.329  36.123  50.754  1.00  0.00     0.093 C 
ATOM      9  O   UNL     1      75.478  34.480  52.236  1.00  0.00    -0.294 OA
ENDBRANCH   1   7
BRANCH   2  10
ATOM     10  O   UNL     1      76.853  32.080  51.947  1.00  0.00    -0.507 OA
ATOM     11  H   UNL     1      76.858  31.219  51.411  1.00  0.00     0.293 HD
ENDBRANCH   2  10
BRANCH   4  12
ATOM     12  O   UNL     1      81.622  32.563  52.490  1.00  0.00    -0.508 OA
ATOM     13  H   UNL     1      81.726  31.560  52.592  1.00  0.00     0.293 HD
ENDBRANCH   4  12
TORSDOF 3
ENDMDL
MODEL 6
REMARK VINA RESULT:    -4.305     16.334     17.237
REMARK INTER + INTRA:          -5.095
REMARK INTER:                  -4.880
REMARK INTRA:                  -0.215
REMARK UNBOUND:                -0.287
REMARK SMILES CC(=O)c1ccc(O)cc1O
REMARK SMILES IDX 4 1 10 2 9 3 7 4 6 5 5 6 2 7 1 8 3 9 11 10 8 12
REMARK H PARENT 11 11 8 13
REMARK Flexibility Score: inf
ROOT
ATOM      1  C   UNL     1      85.972  30.875  65.893  1.00  0.00     0.059 A 
ATOM      2  C   UNL     1      85.716  29.765  65.052  1.00  0.00     0.130 A 
ATOM      3  C   UNL     1      84.437  29.581  64.503  1.00  0.00     0.093 A 
ATOM      4  C   UNL     1      83.409  30.485  64.774  1.00  0.00     0.119 A 
ATOM      5  C   UNL     1      83.655  31.585  65.600  1.00  0.00     0.047 A 
ATOM      6  C   UNL     1      84.922  31.780  66.155  1.00  0.00     0.019 A 
ENDROOT
BRANCH   1   7
ATOM      7  C   UNL     1      87.318  31.092  66.499  1.00  0.00     0.163 C 
ATOM      8  C   UNL     1      87.750  32.437  67.000  1.00  0.00     0.093 C 
ATOM      9  O   UNL     1      88.118  30.125  66.627  1.00  0.00    -0.294 OA
ENDBRANCH   1   7
BRANCH   2  10
ATOM     10  O   UNL     1      86.725  28.852  64.750  1.00  0.00    -0.507 OA
ATOM     11  H   UNL     1      86.985  28.111  65.392  1.00  0.00     0.293 HD
ENDBRANCH   2  10
BRANCH   4  12
ATOM     12  O   UNL     1      82.149  30.282  64.217  1.00  0.00    -0.508 OA
ATOM     13  H   UNL     1      82.000  29.607  63.477  1.00  0.00     0.293 HD
ENDBRANCH   4  12
TORSDOF 3
ENDMDL
MODEL 7
REMARK VINA RESULT:    -4.270      4.490      6.479
REMARK INTER + INTRA:          -5.056
REMARK INTER:                  -4.750
REMARK INTRA:                  -0.306
REMARK UNBOUND:                -0.287
REMARK SMILES CC(=O)c1ccc(O)cc1O
REMARK SMILES IDX 4 1 10 2 9 3 7 4 6 5 5 6 2 7 1 8 3 9 11 10 8 12
REMARK H PARENT 11 11 8 13
REMARK Flexibility Score: inf
ROOT
ATOM      1  C   UNL     1      78.355  33.878  51.693  1.00  0.00     0.059 A 
ATOM      2  C   UNL     1      77.819  32.618  52.053  1.00  0.00     0.130 A 
ATOM      3  C   UNL     1      76.459  32.501  52.382  1.00  0.00     0.093 A 
ATOM      4  C   UNL     1      75.622  33.618  52.355  1.00  0.00     0.119 A 
ATOM      5  C   UNL     1      76.143  34.865  51.997  1.00  0.00     0.047 A 
ATOM      6  C   UNL     1      77.494  34.996  51.669  1.00  0.00     0.019 A 
ENDROOT
BRANCH   1   7
ATOM      7  C   UNL     1      79.798  34.035  51.349  1.00  0.00     0.163 C 
ATOM      8  C   UNL     1      80.237  34.687  50.073  1.00  0.00     0.093 C 
ATOM      9  O   UNL     1      80.687  33.640  52.151  1.00  0.00    -0.294 OA
ENDBRANCH   1   7
BRANCH   2  10
ATOM     10  O   UNL     1      78.625  31.481  52.075  1.00  0.00    -0.507 OA
ATOM     11  H   UNL     1      78.883  30.992  51.225  1.00  0.00     0.293 HD
ENDBRANCH   2  10
BRANCH   4  12
ATOM     12  O   UNL     1      74.276  33.477  52.684  1.00  0.00    -0.508 OA
ATOM     13  H   UNL     1      73.553  33.977  52.179  1.00  0.00     0.293 HD
ENDBRANCH   4  12
TORSDOF 3
ENDMDL
MODEL 8
REMARK VINA RESULT:    -4.024      3.158      4.357
REMARK INTER + INTRA:          -4.781
REMARK INTER:                  -4.474
REMARK INTRA:                  -0.307
REMARK UNBOUND:                -0.287
REMARK SMILES CC(=O)c1ccc(O)cc1O
REMARK SMILES IDX 4 1 10 2 9 3 7 4 6 5 5 6 2 7 1 8 3 9 11 10 8 12
REMARK H PARENT 11 11 8 13
REMARK Flexibility Score: inf
ROOT
ATOM      1  C   UNL     1      75.729  34.867  52.166  1.00  0.00     0.059 A 
ATOM      2  C   UNL     1      76.570  33.729  52.177  1.00  0.00     0.130 A 
ATOM      3  C   UNL     1      77.860  33.804  51.629  1.00  0.00     0.093 A 
ATOM      4  C   UNL     1      78.329  34.995  51.073  1.00  0.00     0.119 A 
ATOM      5  C   UNL     1      77.507  36.125  51.062  1.00  0.00     0.047 A 
ATOM      6  C   UNL     1      76.220  36.064  51.602  1.00  0.00     0.019 A 
ENDROOT
BRANCH   1   7
ATOM      7  C   UNL     1      74.349  34.816  52.732  1.00  0.00     0.163 C 
ATOM      8  C   UNL     1      73.856  35.846  53.702  1.00  0.00     0.093 C 
ATOM      9  O   UNL     1      73.553  33.905  52.376  1.00  0.00    -0.294 OA
ENDBRANCH   1   7
BRANCH   2  10
ATOM     10  O   UNL     1      76.137  32.528  52.738  1.00  0.00    -0.507 OA
ATOM     11  H   UNL     1      76.618  31.653  52.565  1.00  0.00     0.293 HD
ENDBRANCH   2  10
BRANCH   4  12
ATOM     12  O   UNL     1      79.613  35.046  50.537  1.00  0.00    -0.508 OA
ATOM     13  H   UNL     1      80.380  35.480  51.038  1.00  0.00     0.293 HD
ENDBRANCH   4  12
TORSDOF 3
ENDMDL
