MODEL 1
REMARK VINA RESULT:    -5.154      0.000      0.000
REMARK INTER + INTRA:          -6.196
REMARK INTER:                  -6.058
REMARK INTRA:                  -0.138
REMARK UNBOUND:                -0.138
REMARK SMILES O=C([O-])C=Cc1ccc(O)c(O)c1
REMARK SMILES IDX 6 1 13 2 7 3 11 4 8 5 9 6 5 7 4 8 2 9 1 10 3 11 12 12 10 14
REMARK H PARENT 12 13 10 15
REMARK Flexibility Score: inf
ROOT
ATOM      1  C   UNL     1      11.614 -15.547   8.064  1.00  0.00    -0.022 A 
ATOM      2  C   UNL     1      12.859 -16.142   8.320  1.00  0.00     0.058 A 
ATOM      3  C   UNL     1      11.582 -14.251   7.517  1.00  0.00     0.012 A 
ATOM      4  C   UNL     1      14.056 -15.480   8.017  1.00  0.00     0.157 A 
ATOM      5  C   UNL     1      12.770 -13.584   7.212  1.00  0.00     0.051 A 
ATOM      6  C   UNL     1      14.010 -14.185   7.453  1.00  0.00     0.157 A 
ENDROOT
BRANCH   1   7
ATOM      7  C   UNL     1      10.382 -16.295   8.417  1.00  0.00     0.010 C 
ATOM      8  C   UNL     1       9.154 -15.943   8.009  1.00  0.00     0.025 C 
BRANCH   8   9
ATOM      9  C   UNL     1       7.955 -16.717   8.369  1.00  0.00     0.064 C 
ATOM     10  O   UNL     1       6.987 -16.180   8.972  1.00  0.00    -0.545 OA
ATOM     11  O   UNL     1       7.886 -18.064   8.037  1.00  0.00    -0.545 OA
ENDBRANCH   8   9
ENDBRANCH   1   7
BRANCH   4  12
ATOM     12  O   UNL     1      15.254 -16.142   8.293  1.00  0.00    -0.504 OA
ATOM     13  H   UNL     1      15.453 -17.091   8.011  1.00  0.00     0.293 HD
ENDBRANCH   4  12
BRANCH   6  14
ATOM     14  O   UNL     1      15.159 -13.464   7.121  1.00  0.00    -0.504 OA
ATOM     15  H   UNL     1      15.904 -13.824   6.542  1.00  0.00     0.293 HD
ENDBRANCH   6  14
TORSDOF 4
ENDMDL
MODEL 2
REMARK VINA RESULT:    -4.924      1.586      2.502
REMARK INTER + INTRA:          -5.926
REMARK INTER:                  -5.794
REMARK INTRA:                  -0.132
REMARK UNBOUND:                -0.138
REMARK SMILES O=C([O-])C=Cc1ccc(O)c(O)c1
REMARK SMILES IDX 6 1 13 2 7 3 11 4 8 5 9 6 5 7 4 8 2 9 1 10 3 11 12 12 10 14
REMARK H PARENT 12 13 10 15
REMARK Flexibility Score: inf
ROOT
ATOM      1  C   UNL     1      10.583 -16.204   8.014  1.00  0.00    -0.022 A 
ATOM      2  C   UNL     1      10.356 -14.916   7.505  1.00  0.00     0.058 A 
ATOM      3  C   UNL     1      11.906 -16.609   8.269  1.00  0.00     0.012 A 
ATOM      4  C   UNL     1      11.415 -14.030   7.274  1.00  0.00     0.157 A 
ATOM      5  C   UNL     1      12.969 -15.732   8.040  1.00  0.00     0.051 A 
ATOM      6  C   UNL     1      12.739 -14.443   7.549  1.00  0.00     0.157 A 
ENDROOT
BRANCH   1   7
ATOM      7  C   UNL     1       9.420 -17.100   8.228  1.00  0.00     0.010 C 
ATOM      8  C   UNL     1       8.147 -16.679   8.243  1.00  0.00     0.025 C 
BRANCH   8   9
ATOM      9  C   UNL     1       7.016 -17.600   8.446  1.00  0.00     0.064 C 
ATOM     10  O   UNL     1       6.419 -18.125   7.469  1.00  0.00    -0.545 OA
ATOM     11  O   UNL     1       6.602 -17.898   9.737  1.00  0.00    -0.545 OA
ENDBRANCH   8   9
ENDBRANCH   1   7
BRANCH   4  12
ATOM     12  O   UNL     1      11.108 -12.763   6.774  1.00  0.00    -0.504 OA
ATOM     13  H   UNL     1      11.489 -11.903   7.143  1.00  0.00     0.293 HD
ENDBRANCH   4  12
BRANCH   6  14
ATOM     14  O   UNL     1      13.846 -13.615   7.347  1.00  0.00    -0.504 OA
ATOM     15  H   UNL     1      14.787 -13.853   7.624  1.00  0.00     0.293 HD
ENDBRANCH   6  14
TORSDOF 4
ENDMDL
MODEL 3
REMARK VINA RESULT:    -4.637      1.004      2.060
REMARK INTER + INTRA:          -5.589
REMARK INTER:                  -5.457
REMARK INTRA:                  -0.132
REMARK UNBOUND:                -0.138
REMARK SMILES O=C([O-])C=Cc1ccc(O)c(O)c1
REMARK SMILES IDX 6 1 13 2 7 3 11 4 8 5 9 6 5 7 4 8 2 9 1 10 3 11 12 12 10 14
REMARK H PARENT 12 13 10 15
REMARK Flexibility Score: inf
ROOT
ATOM      1  C   UNL     1      11.073 -16.135   7.824  1.00  0.00    -0.022 A 
ATOM      2  C   UNL     1      11.768 -14.915   7.803  1.00  0.00     0.058 A 
ATOM      3  C   UNL     1      11.804 -17.330   7.949  1.00  0.00     0.012 A 
ATOM      4  C   UNL     1      13.163 -14.873   7.929  1.00  0.00     0.157 A 
ATOM      5  C   UNL     1      13.195 -17.297   8.075  1.00  0.00     0.051 A 
ATOM      6  C   UNL     1      13.885 -16.081   8.071  1.00  0.00     0.157 A 
ENDROOT
BRANCH   1   7
ATOM      7  C   UNL     1       9.597 -16.114   7.675  1.00  0.00     0.010 C 
ATOM      8  C   UNL     1       8.766 -16.899   8.377  1.00  0.00     0.025 C 
BRANCH   8   9
ATOM      9  C   UNL     1       7.304 -16.842   8.211  1.00  0.00     0.064 C 
ATOM     10  O   UNL     1       6.626 -15.903   8.707  1.00  0.00    -0.545 OA
ATOM     11  O   UNL     1       6.659 -17.840   7.492  1.00  0.00    -0.545 OA
ENDBRANCH   8   9
ENDBRANCH   1   7
BRANCH   4  12
ATOM     12  O   UNL     1      13.781 -13.622   7.908  1.00  0.00    -0.504 OA
ATOM     13  H   UNL     1      14.651 -13.414   8.377  1.00  0.00     0.293 HD
ENDBRANCH   4  12
BRANCH   6  14
ATOM     14  O   UNL     1      15.274 -16.118   8.205  1.00  0.00    -0.504 OA
ATOM     15  H   UNL     1      15.806 -15.461   8.756  1.00  0.00     0.293 HD
ENDBRANCH   6  14
TORSDOF 4
ENDMDL
MODEL 4
REMARK VINA RESULT:    -4.403      1.138      6.148
REMARK INTER + INTRA:          -5.313
REMARK INTER:                  -5.178
REMARK INTRA:                  -0.135
REMARK UNBOUND:                -0.138
REMARK SMILES O=C([O-])C=Cc1ccc(O)c(O)c1
REMARK SMILES IDX 6 1 13 2 7 3 11 4 8 5 9 6 5 7 4 8 2 9 1 10 3 11 12 12 10 14
REMARK H PARENT 12 13 10 15
REMARK Flexibility Score: inf
ROOT
ATOM      1  C   UNL     1      10.199 -16.366   7.902  1.00  0.00    -0.022 A 
ATOM      2  C   UNL     1       9.055 -15.871   8.548  1.00  0.00     0.058 A 
ATOM      3  C   UNL     1      10.064 -17.459   7.027  1.00  0.00     0.012 A 
ATOM      4  C   UNL     1       7.792 -16.429   8.315  1.00  0.00     0.157 A 
ATOM      5  C   UNL     1       8.808 -18.022   6.790  1.00  0.00     0.051 A 
ATOM      6  C   UNL     1       7.667 -17.517   7.421  1.00  0.00     0.157 A 
ENDROOT
BRANCH   1   7
ATOM      7  C   UNL     1      11.511 -15.739   8.199  1.00  0.00     0.010 C 
ATOM      8  C   UNL     1      12.572 -15.809   7.383  1.00  0.00     0.025 C 
BRANCH   8   9
ATOM      9  C   UNL     1      13.855 -15.163   7.705  1.00  0.00     0.064 C 
ATOM     10  O   UNL     1      14.125 -14.004   7.291  1.00  0.00    -0.545 OA
ATOM     11  O   UNL     1      14.786 -15.842   8.480  1.00  0.00    -0.545 OA
ENDBRANCH   8   9
ENDBRANCH   1   7
BRANCH   4  12
ATOM     12  O   UNL     1       6.701 -15.876   8.988  1.00  0.00    -0.504 OA
ATOM     13  H   UNL     1       6.395 -14.919   8.878  1.00  0.00     0.293 HD
ENDBRANCH   4  12
BRANCH   6  14
ATOM     14  O   UNL     1       6.441 -18.124   7.136  1.00  0.00    -0.504 OA
ATOM     15  H   UNL     1       5.581 -17.912   7.620  1.00  0.00     0.293 HD
ENDBRANCH   6  14
TORSDOF 4
ENDMDL
MODEL 5
REMARK VINA RESULT:    -4.014      1.852      2.411
REMARK INTER + INTRA:          -4.856
REMARK INTER:                  -4.728
REMARK INTRA:                  -0.127
REMARK UNBOUND:                -0.138
REMARK SMILES O=C([O-])C=Cc1ccc(O)c(O)c1
REMARK SMILES IDX 6 1 13 2 7 3 11 4 8 5 9 6 5 7 4 8 2 9 1 10 3 11 12 12 10 14
REMARK H PARENT 12 13 10 15
REMARK Flexibility Score: inf
ROOT
ATOM      1  C   UNL     1      10.407 -17.108   8.179  1.00  0.00    -0.022 A 
ATOM      2  C   UNL     1      11.101 -17.643   7.082  1.00  0.00     0.058 A 
ATOM      3  C   UNL     1      10.990 -16.048   8.898  1.00  0.00     0.012 A 
ATOM      4  C   UNL     1      12.340 -17.125   6.685  1.00  0.00     0.157 A 
ATOM      5  C   UNL     1      12.225 -15.526   8.509  1.00  0.00     0.051 A 
ATOM      6  C   UNL     1      12.908 -16.049   7.406  1.00  0.00     0.157 A 
ENDROOT
BRANCH   1   7
ATOM      7  C   UNL     1       9.104 -17.708   8.557  1.00  0.00     0.010 C 
ATOM      8  C   UNL     1       7.936 -17.050   8.501  1.00  0.00     0.025 C 
BRANCH   8   9
ATOM      9  C   UNL     1       6.660 -17.683   8.874  1.00  0.00     0.064 C 
ATOM     10  O   UNL     1       5.736 -17.834   8.030  1.00  0.00    -0.545 OA
ATOM     11  O   UNL     1       6.471 -18.123  10.177  1.00  0.00    -0.545 OA
ENDBRANCH   8   9
ENDBRANCH   1   7
BRANCH   4  12
ATOM     12  O   UNL     1      12.964 -17.705   5.579  1.00  0.00    -0.504 OA
ATOM     13  H   UNL     1      13.902 -18.081   5.593  1.00  0.00     0.293 HD
ENDBRANCH   4  12
BRANCH   6  14
ATOM     14  O   UNL     1      14.136 -15.478   7.068  1.00  0.00    -0.504 OA
ATOM     15  H   UNL     1      14.681 -15.746   6.261  1.00  0.00     0.293 HD
ENDBRANCH   6  14
TORSDOF 4
ENDMDL
MODEL 6
REMARK VINA RESULT:    -3.959      1.152      6.044
REMARK INTER + INTRA:          -4.791
REMARK INTER:                  -4.653
REMARK INTRA:                  -0.138
REMARK UNBOUND:                -0.138
REMARK SMILES O=C([O-])C=Cc1ccc(O)c(O)c1
REMARK SMILES IDX 6 1 13 2 7 3 11 4 8 5 9 6 5 7 4 8 2 9 1 10 3 11 12 12 10 14
REMARK H PARENT 12 13 10 15
REMARK Flexibility Score: inf
ROOT
ATOM      1  C   UNL     1      10.342 -16.157   7.649  1.00  0.00    -0.022 A 
ATOM      2  C   UNL     1       9.654 -16.988   6.750  1.00  0.00     0.058 A 
ATOM      3  C   UNL     1       9.636 -15.598   8.730  1.00  0.00     0.012 A 
ATOM      4  C   UNL     1       8.297 -17.284   6.929  1.00  0.00     0.157 A 
ATOM      5  C   UNL     1       8.283 -15.887   8.915  1.00  0.00     0.051 A 
ATOM      6  C   UNL     1       7.603 -16.728   8.029  1.00  0.00     0.157 A 
ENDROOT
BRANCH   1   7
ATOM      7  C   UNL     1      11.777 -15.873   7.400  1.00  0.00     0.010 C 
ATOM      8  C   UNL     1      12.566 -15.212   8.259  1.00  0.00     0.025 C 
BRANCH   8   9
ATOM      9  C   UNL     1      13.990 -14.959   7.983  1.00  0.00     0.064 C 
ATOM     10  O   UNL     1      14.869 -15.823   8.245  1.00  0.00    -0.545 OA
ATOM     11  O   UNL     1      14.372 -13.748   7.422  1.00  0.00    -0.545 OA
ENDBRANCH   8   9
ENDBRANCH   1   7
BRANCH   4  12
ATOM     12  O   UNL     1       7.686 -18.125   5.997  1.00  0.00    -0.504 OA
ATOM     13  H   UNL     1       8.170 -18.853   5.491  1.00  0.00     0.293 HD
ENDBRANCH   4  12
BRANCH   6  14
ATOM     14  O   UNL     1       6.251 -16.979   8.274  1.00  0.00    -0.504 OA
ATOM     15  H   UNL     1       5.500 -16.386   7.953  1.00  0.00     0.293 HD
ENDBRANCH   6  14
TORSDOF 4
ENDMDL
MODEL 7
REMARK VINA RESULT:    -3.328      2.097      3.005
REMARK INTER + INTRA:          -4.050
REMARK INTER:                  -3.912
REMARK INTRA:                  -0.138
REMARK UNBOUND:                -0.138
REMARK SMILES O=C([O-])C=Cc1ccc(O)c(O)c1
REMARK SMILES IDX 6 1 13 2 7 3 11 4 8 5 9 6 5 7 4 8 2 9 1 10 3 11 12 12 10 14
REMARK H PARENT 12 13 10 15
REMARK Flexibility Score: inf
ROOT
ATOM      1  C   UNL     1       9.714 -17.209   8.050  1.00  0.00    -0.022 A 
ATOM      2  C   UNL     1      10.569 -16.204   8.530  1.00  0.00     0.058 A 
ATOM      3  C   UNL     1      10.208 -18.120   7.098  1.00  0.00     0.012 A 
ATOM      4  C   UNL     1      11.898 -16.114   8.098  1.00  0.00     0.157 A 
ATOM      5  C   UNL     1      11.532 -18.037   6.661  1.00  0.00     0.051 A 
ATOM      6  C   UNL     1      12.386 -17.045   7.153  1.00  0.00     0.157 A 
ENDROOT
BRANCH   1   7
ATOM      7  C   UNL     1       8.314 -17.245   8.539  1.00  0.00     0.010 C 
ATOM      8  C   UNL     1       7.255 -17.473   7.749  1.00  0.00     0.025 C 
BRANCH   8   9
ATOM      9  C   UNL     1       5.879 -17.514   8.272  1.00  0.00     0.064 C 
ATOM     10  O   UNL     1       5.589 -17.003   9.387  1.00  0.00    -0.545 OA
ATOM     11  O   UNL     1       4.882 -18.124   7.523  1.00  0.00    -0.545 OA
ENDBRANCH   8   9
ENDBRANCH   1   7
BRANCH   4  12
ATOM     12  O   UNL     1      12.688 -15.092   8.628  1.00  0.00    -0.504 OA
ATOM     13  H   UNL     1      13.631 -14.893   8.326  1.00  0.00     0.293 HD
ENDBRANCH   4  12
BRANCH   6  14
ATOM     14  O   UNL     1      13.699 -17.021   6.677  1.00  0.00    -0.504 OA
ATOM     15  H   UNL     1      14.362 -17.771   6.810  1.00  0.00     0.293 HD
ENDBRANCH   6  14
TORSDOF 4
ENDMDL
MODEL 8
REMARK VINA RESULT:    -2.602      1.306      5.757
REMARK INTER + INTRA:          -3.197
REMARK INTER:                  -3.065
REMARK INTRA:                  -0.132
REMARK UNBOUND:                -0.138
REMARK SMILES O=C([O-])C=Cc1ccc(O)c(O)c1
REMARK SMILES IDX 6 1 13 2 7 3 11 4 8 5 9 6 5 7 4 8 2 9 1 10 3 11 12 12 10 14
REMARK H PARENT 12 13 10 15
REMARK Flexibility Score: inf
ROOT
ATOM      1  C   UNL     1      10.999 -15.548   7.504  1.00  0.00    -0.022 A 
ATOM      2  C   UNL     1      11.105 -16.476   8.553  1.00  0.00     0.058 A 
ATOM      3  C   UNL     1       9.761 -15.402   6.852  1.00  0.00     0.012 A 
ATOM      4  C   UNL     1      10.001 -17.230   8.969  1.00  0.00     0.157 A 
ATOM      5  C   UNL     1       8.655 -16.151   7.260  1.00  0.00     0.051 A 
ATOM      6  C   UNL     1       8.758 -17.062   8.316  1.00  0.00     0.157 A 
ENDROOT
BRANCH   1   7
ATOM      7  C   UNL     1      12.207 -14.787   7.102  1.00  0.00     0.010 C 
ATOM      8  C   UNL     1      13.265 -14.591   7.902  1.00  0.00     0.025 C 
BRANCH   8   9
ATOM      9  C   UNL     1      14.453 -13.840   7.464  1.00  0.00     0.064 C 
ATOM     10  O   UNL     1      15.059 -14.139   6.400  1.00  0.00    -0.545 OA
ATOM     11  O   UNL     1      14.915 -12.782   8.236  1.00  0.00    -0.545 OA
ENDBRANCH   8   9
ENDBRANCH   1   7
BRANCH   4  12
ATOM     12  O   UNL     1      10.184 -18.125  10.025  1.00  0.00    -0.504 OA
ATOM     13  H   UNL     1      10.651 -19.016   9.934  1.00  0.00     0.293 HD
ENDBRANCH   4  12
BRANCH   6  14
ATOM     14  O   UNL     1       7.613 -17.775   8.677  1.00  0.00    -0.504 OA
ATOM     15  H   UNL     1       7.336 -17.953   9.631  1.00  0.00     0.293 HD
ENDBRANCH   6  14
TORSDOF 4
ENDMDL
MODEL 9
REMARK VINA RESULT:    -2.493      2.811      3.929
REMARK INTER + INTRA:          -3.069
REMARK INTER:                  -2.943
REMARK INTRA:                  -0.126
REMARK UNBOUND:                -0.138
REMARK SMILES O=C([O-])C=Cc1ccc(O)c(O)c1
REMARK SMILES IDX 6 1 13 2 7 3 11 4 8 5 9 6 5 7 4 8 2 9 1 10 3 11 12 12 10 14
REMARK H PARENT 12 13 10 15
REMARK Flexibility Score: inf
ROOT
ATOM      1  C   UNL     1       8.434 -16.892   8.207  1.00  0.00    -0.022 A 
ATOM      2  C   UNL     1       8.998 -17.521   7.086  1.00  0.00     0.058 A 
ATOM      3  C   UNL     1       9.285 -16.228   9.110  1.00  0.00     0.012 A 
ATOM      4  C   UNL     1      10.376 -17.476   6.844  1.00  0.00     0.157 A 
ATOM      5  C   UNL     1      10.662 -16.178   8.876  1.00  0.00     0.051 A 
ATOM      6  C   UNL     1      11.219 -16.791   7.750  1.00  0.00     0.157 A 
ENDROOT
BRANCH   1   7
ATOM      7  C   UNL     1       6.968 -16.985   8.414  1.00  0.00     0.010 C 
ATOM      8  C   UNL     1       6.359 -18.044   8.966  1.00  0.00     0.025 C 
BRANCH   8   9
ATOM      9  C   UNL     1       4.901 -18.096   9.167  1.00  0.00     0.064 C 
ATOM     10  O   UNL     1       4.402 -18.117  10.323  1.00  0.00    -0.545 OA
ATOM     11  O   UNL     1       4.061 -18.120   8.062  1.00  0.00    -0.545 OA
ENDBRANCH   8   9
ENDBRANCH   1   7
BRANCH   4  12
ATOM     12  O   UNL     1      10.859 -18.119   5.703  1.00  0.00    -0.504 OA
ATOM     13  H   UNL     1      11.149 -17.637   4.863  1.00  0.00     0.293 HD
ENDBRANCH   4  12
BRANCH   6  14
ATOM     14  O   UNL     1      12.601 -16.700   7.575  1.00  0.00    -0.504 OA
ATOM     15  H   UNL     1      13.071 -16.862   6.695  1.00  0.00     0.293 HD
ENDBRANCH   6  14
TORSDOF 4
ENDMDL
