MODEL 1
REMARK VINA RESULT:    -5.071      0.000      0.000
REMARK INTER + INTRA:          -9.744
REMARK INTER:                  -9.222
REMARK INTRA:                  -0.523
REMARK UNBOUND:                -0.523
REMARK SMILES CCCCCCCCCCCCCCCC(=O)[O-]
REMARK SMILES IDX 9 1 10 2 11 3 12 4 13 5 14 6 15 7 16 8 17 9 18 10 8 11 7 12
REMARK SMILES IDX 6 13 5 14 4 15 3 16 2 17 1 18
REMARK H PARENT
REMARK Flexibility Score: inf
ROOT
ATOM      1  C   UNL     1       3.021   9.357  15.989  1.00  0.00     0.000 C 
ENDROOT
BRANCH   1   2
ATOM      2  C   UNL     1       4.259   9.763  15.166  1.00  0.00     0.000 C 
BRANCH   2   3
ATOM      3  C   UNL     1       5.566   9.880  15.972  1.00  0.00     0.000 C 
BRANCH   3   4
ATOM      4  C   UNL     1       6.776  10.242  15.101  1.00  0.00     0.000 C 
BRANCH   4   5
ATOM      5  C   UNL     1       7.109  11.735  15.213  1.00  0.00     0.000 C 
BRANCH   5   6
ATOM      6  C   UNL     1       8.346  11.959  16.095  1.00  0.00     0.006 C 
BRANCH   6   7
ATOM      7  C   UNL     1       7.974  12.394  17.518  1.00  0.00     0.053 C 
BRANCH   7   8
ATOM      8  C   UNL     1       9.135  12.269  18.456  1.00  0.00     0.041 C 
ATOM      9  O   UNL     1       9.618  13.292  19.009  1.00  0.00    -0.550 OA
ATOM     10  O   UNL     1       9.702  11.023  18.698  1.00  0.00    -0.550 OA
ENDBRANCH   7   8
ENDBRANCH   6   7
ENDBRANCH   5   6
ENDBRANCH   4   5
ENDBRANCH   3   4
ENDBRANCH   2   3
ENDBRANCH   1   2
BRANCH   1  11
ATOM     11  C   UNL     1       2.013   8.455  15.251  1.00  0.00     0.000 C 
BRANCH  11  12
ATOM     12  C   UNL     1       0.620   8.404  15.913  1.00  0.00    -0.000 C 
BRANCH  12  13
ATOM     13  C   UNL     1       0.449   9.470  17.010  1.00  0.00    -0.000 C 
BRANCH  13  14
ATOM     14  C   UNL     1      -0.943   9.440  17.665  1.00  0.00    -0.000 C 
BRANCH  14  15
ATOM     15  C   UNL     1      -1.211  10.563  18.684  1.00  0.00    -0.000 C 
BRANCH  15  16
ATOM     16  C   UNL     1      -2.635  10.518  19.264  1.00  0.00    -0.000 C 
BRANCH  16  17
ATOM     17  C   UNL     1      -2.776   9.492  20.400  1.00  0.00    -0.003 C 
ATOM     18  C   UNL     1      -1.526   9.406  21.277  1.00  0.00     0.004 C 
ENDBRANCH  16  17
ENDBRANCH  15  16
ENDBRANCH  14  15
ENDBRANCH  13  14
ENDBRANCH  12  13
ENDBRANCH  11  12
ENDBRANCH   1  11
TORSDOF 14
ENDMDL
MODEL 2
REMARK VINA RESULT:    -4.951     15.366     17.912
REMARK INTER + INTRA:          -9.526
REMARK INTER:                  -8.701
REMARK INTRA:                  -0.825
REMARK UNBOUND:                -0.523
REMARK SMILES CCCCCCCCCCCCCCCC(=O)[O-]
REMARK SMILES IDX 9 1 10 2 11 3 12 4 13 5 14 6 15 7 16 8 17 9 18 10 8 11 7 12
REMARK SMILES IDX 6 13 5 14 4 15 3 16 2 17 1 18
REMARK H PARENT
REMARK Flexibility Score: inf
ROOT
ATOM      1  C   UNL     1       0.277  22.130  33.400  1.00  0.00     0.000 C 
ENDROOT
BRANCH   1   2
ATOM      2  C   UNL     1       0.923  20.821  33.897  1.00  0.00     0.000 C 
BRANCH   2   3
ATOM      3  C   UNL     1       2.131  21.008  34.833  1.00  0.00     0.000 C 
BRANCH   3   4
ATOM      4  C   UNL     1       3.259  20.002  34.562  1.00  0.00     0.000 C 
BRANCH   4   5
ATOM      5  C   UNL     1       3.354  19.672  33.067  1.00  0.00     0.000 C 
BRANCH   5   6
ATOM      6  C   UNL     1       4.547  18.749  32.782  1.00  0.00     0.006 C 
BRANCH   6   7
ATOM      7  C   UNL     1       4.700  17.653  33.843  1.00  0.00     0.053 C 
BRANCH   7   8
ATOM      8  C   UNL     1       5.931  16.829  33.615  1.00  0.00     0.041 C 
ATOM      9  O   UNL     1       6.222  16.430  32.456  1.00  0.00    -0.550 OA
ATOM     10  O   UNL     1       6.742  16.479  34.688  1.00  0.00    -0.550 OA
ENDBRANCH   7   8
ENDBRANCH   6   7
ENDBRANCH   5   6
ENDBRANCH   4   5
ENDBRANCH   3   4
ENDBRANCH   2   3
ENDBRANCH   1   2
BRANCH   1  11
ATOM     11  C   UNL     1      -0.612  21.986  32.150  1.00  0.00     0.000 C 
BRANCH  11  12
ATOM     12  C   UNL     1      -0.446  20.637  31.418  1.00  0.00    -0.000 C 
BRANCH  12  13
ATOM     13  C   UNL     1      -1.235  20.583  30.097  1.00  0.00    -0.000 C 
BRANCH  13  14
ATOM     14  C   UNL     1      -1.429  19.149  29.573  1.00  0.00    -0.000 C 
BRANCH  14  15
ATOM     15  C   UNL     1      -1.740  19.040  28.068  1.00  0.00    -0.000 C 
BRANCH  15  16
ATOM     16  C   UNL     1      -3.059  19.729  27.679  1.00  0.00    -0.000 C 
BRANCH  16  17
ATOM     17  C   UNL     1      -2.843  20.920  26.731  1.00  0.00    -0.003 C 
ATOM     18  C   UNL     1      -1.463  20.908  26.072  1.00  0.00     0.004 C 
ENDBRANCH  16  17
ENDBRANCH  15  16
ENDBRANCH  14  15
ENDBRANCH  13  14
ENDBRANCH  12  13
ENDBRANCH  11  12
ENDBRANCH   1  11
TORSDOF 14
ENDMDL
MODEL 3
REMARK VINA RESULT:    -4.834      4.192      9.079
REMARK INTER + INTRA:          -9.313
REMARK INTER:                  -8.786
REMARK INTRA:                  -0.528
REMARK UNBOUND:                -0.523
REMARK SMILES CCCCCCCCCCCCCCCC(=O)[O-]
REMARK SMILES IDX 9 1 10 2 11 3 12 4 13 5 14 6 15 7 16 8 17 9 18 10 8 11 7 12
REMARK SMILES IDX 6 13 5 14 4 15 3 16 2 17 1 18
REMARK H PARENT
REMARK Flexibility Score: inf
ROOT
ATOM      1  C   UNL     1       3.648  10.022  15.384  1.00  0.00     0.000 C 
ENDROOT
BRANCH   1   2
ATOM      2  C   UNL     1       2.637   9.364  16.343  1.00  0.00     0.000 C 
BRANCH   2   3
ATOM      3  C   UNL     1       1.663   8.372  15.680  1.00  0.00     0.000 C 
BRANCH   3   4
ATOM      4  C   UNL     1       0.241   8.457  16.252  1.00  0.00     0.000 C 
BRANCH   4   5
ATOM      5  C   UNL     1       0.192   9.390  17.469  1.00  0.00     0.000 C 
BRANCH   5   6
ATOM      6  C   UNL     1      -1.249   9.817  17.778  1.00  0.00     0.006 C 
BRANCH   6   7
ATOM      7  C   UNL     1      -1.313  10.909  18.854  1.00  0.00     0.053 C 
BRANCH   7   8
ATOM      8  C   UNL     1      -1.973  10.416  20.105  1.00  0.00     0.041 C 
ATOM      9  O   UNL     1      -1.340   9.687  20.913  1.00  0.00    -0.550 OA
ATOM     10  O   UNL     1      -3.300  10.739  20.364  1.00  0.00    -0.550 OA
ENDBRANCH   7   8
ENDBRANCH   6   7
ENDBRANCH   5   6
ENDBRANCH   4   5
ENDBRANCH   3   4
ENDBRANCH   2   3
ENDBRANCH   1   2
BRANCH   1  11
ATOM     11  C   UNL     1       5.110  10.013  15.870  1.00  0.00     0.000 C 
BRANCH  11  12
ATOM     12  C   UNL     1       6.041  10.947  15.066  1.00  0.00    -0.000 C 
BRANCH  12  13
ATOM     13  C   UNL     1       7.527  10.727  15.399  1.00  0.00    -0.000 C 
BRANCH  13  14
ATOM     14  C   UNL     1       7.822  10.803  16.908  1.00  0.00    -0.000 C 
BRANCH  14  15
ATOM     15  C   UNL     1       8.312  12.174  17.410  1.00  0.00    -0.000 C 
BRANCH  15  16
ATOM     16  C   UNL     1       9.239  12.067  18.633  1.00  0.00    -0.000 C 
BRANCH  16  17
ATOM     17  C   UNL     1       9.754  13.437  19.102  1.00  0.00    -0.003 C 
ATOM     18  C   UNL     1       8.624  14.429  19.381  1.00  0.00     0.004 C 
ENDBRANCH  16  17
ENDBRANCH  15  16
ENDBRANCH  14  15
ENDBRANCH  13  14
ENDBRANCH  12  13
ENDBRANCH  11  12
ENDBRANCH   1  11
TORSDOF 14
ENDMDL
MODEL 4
REMARK VINA RESULT:    -4.744      4.275      9.056
REMARK INTER + INTRA:          -9.149
REMARK INTER:                  -8.471
REMARK INTRA:                  -0.678
REMARK UNBOUND:                -0.523
REMARK SMILES CCCCCCCCCCCCCCCC(=O)[O-]
REMARK SMILES IDX 9 1 10 2 11 3 12 4 13 5 14 6 15 7 16 8 17 9 18 10 8 11 7 12
REMARK SMILES IDX 6 13 5 14 4 15 3 16 2 17 1 18
REMARK H PARENT
REMARK Flexibility Score: inf
ROOT
ATOM      1  C   UNL     1       2.661   9.288  16.188  1.00  0.00     0.000 C 
ENDROOT
BRANCH   1   2
ATOM      2  C   UNL     1       1.749   8.223  15.547  1.00  0.00     0.000 C 
BRANCH   2   3
ATOM      3  C   UNL     1       0.303   8.203  16.075  1.00  0.00     0.000 C 
BRANCH   3   4
ATOM      4  C   UNL     1      -0.122   9.536  16.706  1.00  0.00     0.000 C 
BRANCH   4   5
ATOM      5  C   UNL     1      -0.667   9.325  18.124  1.00  0.00     0.000 C 
BRANCH   5   6
ATOM      6  C   UNL     1      -1.247  10.628  18.691  1.00  0.00     0.006 C 
BRANCH   6   7
ATOM      7  C   UNL     1      -1.306  10.619  20.224  1.00  0.00     0.053 C 
BRANCH   7   8
ATOM      8  C   UNL     1      -2.151   9.494  20.739  1.00  0.00     0.041 C 
ATOM      9  O   UNL     1      -1.725   8.750  21.661  1.00  0.00    -0.550 OA
ATOM     10  O   UNL     1      -3.400   9.251  20.180  1.00  0.00    -0.550 OA
ENDBRANCH   7   8
ENDBRANCH   6   7
ENDBRANCH   5   6
ENDBRANCH   4   5
ENDBRANCH   3   4
ENDBRANCH   2   3
ENDBRANCH   1   2
BRANCH   1  11
ATOM     11  C   UNL     1       3.795   9.807  15.284  1.00  0.00     0.000 C 
BRANCH  11  12
ATOM     12  C   UNL     1       5.181   9.817  15.964  1.00  0.00    -0.000 C 
BRANCH  12  13
ATOM     13  C   UNL     1       6.308   9.374  15.015  1.00  0.00    -0.000 C 
BRANCH  13  14
ATOM     14  C   UNL     1       7.598  10.195  15.190  1.00  0.00    -0.000 C 
BRANCH  14  15
ATOM     15  C   UNL     1       7.388  11.706  15.400  1.00  0.00    -0.000 C 
BRANCH  15  16
ATOM     16  C   UNL     1       8.484  12.347  16.268  1.00  0.00    -0.000 C 
BRANCH  16  17
ATOM     17  C   UNL     1       8.487  11.807  17.706  1.00  0.00    -0.003 C 
ATOM     18  C   UNL     1       9.223  12.726  18.682  1.00  0.00     0.004 C 
ENDBRANCH  16  17
ENDBRANCH  15  16
ENDBRANCH  14  15
ENDBRANCH  13  14
ENDBRANCH  12  13
ENDBRANCH  11  12
ENDBRANCH   1  11
TORSDOF 14
ENDMDL
MODEL 5
REMARK VINA RESULT:    -4.708     14.870     17.201
REMARK INTER + INTRA:          -9.084
REMARK INTER:                  -8.477
REMARK INTRA:                  -0.607
REMARK UNBOUND:                -0.523
REMARK SMILES CCCCCCCCCCCCCCCC(=O)[O-]
REMARK SMILES IDX 9 1 10 2 11 3 12 4 13 5 14 6 15 7 16 8 17 9 18 10 8 11 7 12
REMARK SMILES IDX 6 13 5 14 4 15 3 16 2 17 1 18
REMARK H PARENT
REMARK Flexibility Score: inf
ROOT
ATOM      1  C   UNL     1       1.664  20.291  32.531  1.00  0.00     0.000 C 
ENDROOT
BRANCH   1   2
ATOM      2  C   UNL     1       2.554  19.886  33.722  1.00  0.00     0.000 C 
BRANCH   2   3
ATOM      3  C   UNL     1       3.912  19.270  33.339  1.00  0.00     0.000 C 
BRANCH   3   4
ATOM      4  C   UNL     1       4.873  19.151  34.531  1.00  0.00     0.000 C 
BRANCH   4   5
ATOM      5  C   UNL     1       6.132  18.365  34.146  1.00  0.00     0.000 C 
BRANCH   5   6
ATOM      6  C   UNL     1       5.943  17.645  32.804  1.00  0.00     0.006 C 
BRANCH   6   7
ATOM      7  C   UNL     1       6.457  16.200  32.843  1.00  0.00     0.053 C 
BRANCH   7   8
ATOM      8  C   UNL     1       7.429  15.928  31.735  1.00  0.00     0.041 C 
ATOM      9  O   UNL     1       8.291  16.791  31.420  1.00  0.00    -0.550 OA
ATOM     10  O   UNL     1       7.364  14.731  31.031  1.00  0.00    -0.550 OA
ENDBRANCH   7   8
ENDBRANCH   6   7
ENDBRANCH   5   6
ENDBRANCH   4   5
ENDBRANCH   3   4
ENDBRANCH   2   3
ENDBRANCH   1   2
BRANCH   1  11
ATOM     11  C   UNL     1       0.604  21.365  32.842  1.00  0.00     0.000 C 
BRANCH  11  12
ATOM     12  C   UNL     1      -0.548  21.421  31.816  1.00  0.00    -0.000 C 
BRANCH  12  13
ATOM     13  C   UNL     1      -0.397  20.369  30.703  1.00  0.00    -0.000 C 
BRANCH  13  14
ATOM     14  C   UNL     1      -1.720  20.073  29.974  1.00  0.00    -0.000 C 
BRANCH  14  15
ATOM     15  C   UNL     1      -1.573  19.364  28.614  1.00  0.00    -0.000 C 
BRANCH  15  16
ATOM     16  C   UNL     1      -2.843  19.456  27.751  1.00  0.00    -0.000 C 
BRANCH  16  17
ATOM     17  C   UNL     1      -2.804  20.639  26.770  1.00  0.00    -0.003 C 
ATOM     18  C   UNL     1      -1.399  20.914  26.232  1.00  0.00     0.004 C 
ENDBRANCH  16  17
ENDBRANCH  15  16
ENDBRANCH  14  15
ENDBRANCH  13  14
ENDBRANCH  12  13
ENDBRANCH  11  12
ENDBRANCH   1  11
TORSDOF 14
ENDMDL
MODEL 6
REMARK VINA RESULT:    -4.697     15.295     18.687
REMARK INTER + INTRA:          -9.063
REMARK INTER:                  -8.327
REMARK INTRA:                  -0.736
REMARK UNBOUND:                -0.523
REMARK SMILES CCCCCCCCCCCCCCCC(=O)[O-]
REMARK SMILES IDX 9 1 10 2 11 3 12 4 13 5 14 6 15 7 16 8 17 9 18 10 8 11 7 12
REMARK SMILES IDX 6 13 5 14 4 15 3 16 2 17 1 18
REMARK H PARENT
REMARK Flexibility Score: inf
ROOT
ATOM      1  C   UNL     1       2.953  20.129  32.502  1.00  0.00     0.000 C 
ENDROOT
BRANCH   1   2
ATOM      2  C   UNL     1       1.442  20.004  32.777  1.00  0.00     0.000 C 
BRANCH   2   3
ATOM      3  C   UNL     1       0.670  21.336  32.776  1.00  0.00     0.000 C 
BRANCH   3   4
ATOM      4  C   UNL     1      -0.584  21.300  31.891  1.00  0.00     0.000 C 
BRANCH   4   5
ATOM      5  C   UNL     1      -0.396  20.340  30.710  1.00  0.00     0.000 C 
BRANCH   5   6
ATOM      6  C   UNL     1      -1.624  20.351  29.789  1.00  0.00     0.006 C 
BRANCH   6   7
ATOM      7  C   UNL     1      -1.589  19.213  28.760  1.00  0.00     0.053 C 
BRANCH   7   8
ATOM      8  C   UNL     1      -1.960  19.695  27.391  1.00  0.00     0.041 C 
ATOM      9  O   UNL     1      -1.239  20.539  26.797  1.00  0.00    -0.550 OA
ATOM     10  O   UNL     1      -3.120  19.230  26.781  1.00  0.00    -0.550 OA
ENDBRANCH   7   8
ENDBRANCH   6   7
ENDBRANCH   5   6
ENDBRANCH   4   5
ENDBRANCH   3   4
ENDBRANCH   2   3
ENDBRANCH   1   2
BRANCH   1  11
ATOM     11  C   UNL     1       3.866  19.509  33.578  1.00  0.00     0.000 C 
BRANCH  11  12
ATOM     12  C   UNL     1       3.195  18.384  34.394  1.00  0.00    -0.000 C 
BRANCH  12  13
ATOM     13  C   UNL     1       4.132  17.187  34.632  1.00  0.00    -0.000 C 
BRANCH  13  14
ATOM     14  C   UNL     1       5.618  17.588  34.671  1.00  0.00    -0.000 C 
BRANCH  14  15
ATOM     15  C   UNL     1       6.584  16.581  34.018  1.00  0.00    -0.000 C 
BRANCH  15  16
ATOM     16  C   UNL     1       6.393  16.472  32.495  1.00  0.00    -0.000 C 
BRANCH  16  17
ATOM     17  C   UNL     1       7.661  15.980  31.778  1.00  0.00    -0.003 C 
ATOM     18  C   UNL     1       7.445  14.663  31.032  1.00  0.00     0.004 C 
ENDBRANCH  16  17
ENDBRANCH  15  16
ENDBRANCH  14  15
ENDBRANCH  13  14
ENDBRANCH  12  13
ENDBRANCH  11  12
ENDBRANCH   1  11
TORSDOF 14
ENDMDL
MODEL 7
REMARK VINA RESULT:    -4.550      1.601      2.197
REMARK INTER + INTRA:          -8.797
REMARK INTER:                  -8.233
REMARK INTRA:                  -0.565
REMARK UNBOUND:                -0.523
REMARK SMILES CCCCCCCCCCCCCCCC(=O)[O-]
REMARK SMILES IDX 9 1 10 2 11 3 12 4 13 5 14 6 15 7 16 8 17 9 18 10 8 11 7 12
REMARK SMILES IDX 6 13 5 14 4 15 3 16 2 17 1 18
REMARK H PARENT
REMARK Flexibility Score: inf
ROOT
ATOM      1  C   UNL     1       3.821   9.109  14.918  1.00  0.00     0.000 C 
ENDROOT
BRANCH   1   2
ATOM      2  C   UNL     1       4.906  10.181  15.144  1.00  0.00     0.000 C 
BRANCH   2   3
ATOM      3  C   UNL     1       5.807   9.945  16.370  1.00  0.00     0.000 C 
BRANCH   3   4
ATOM      4  C   UNL     1       6.678  11.161  16.715  1.00  0.00     0.000 C 
BRANCH   4   5
ATOM      5  C   UNL     1       7.247  11.807  15.446  1.00  0.00     0.000 C 
BRANCH   5   6
ATOM      6  C   UNL     1       8.722  11.430  15.250  1.00  0.00     0.006 C 
BRANCH   6   7
ATOM      7  C   UNL     1       8.909   9.930  14.993  1.00  0.00     0.053 C 
BRANCH   7   8
ATOM      8  C   UNL     1      10.011   9.357  15.831  1.00  0.00     0.041 C 
ATOM      9  O   UNL     1      10.994   8.789  15.287  1.00  0.00    -0.550 OA
ATOM     10  O   UNL     1       9.938   9.427  17.217  1.00  0.00    -0.550 OA
ENDBRANCH   7   8
ENDBRANCH   6   7
ENDBRANCH   5   6
ENDBRANCH   4   5
ENDBRANCH   3   4
ENDBRANCH   2   3
ENDBRANCH   1   2
BRANCH   1  11
ATOM     11  C   UNL     1       2.607   9.199  15.863  1.00  0.00     0.000 C 
BRANCH  11  12
ATOM     12  C   UNL     1       1.321   8.568  15.289  1.00  0.00    -0.000 C 
BRANCH  12  13
ATOM     13  C   UNL     1       0.232   8.373  16.358  1.00  0.00    -0.000 C 
BRANCH  13  14
ATOM     14  C   UNL     1       0.054   9.604  17.265  1.00  0.00    -0.000 C 
BRANCH  14  15
ATOM     15  C   UNL     1      -1.271   9.653  18.049  1.00  0.00    -0.000 C 
BRANCH  15  16
ATOM     16  C   UNL     1      -1.272  10.721  19.156  1.00  0.00    -0.000 C 
BRANCH  16  17
ATOM     17  C   UNL     1      -2.191  10.349  20.331  1.00  0.00    -0.003 C 
ATOM     18  C   UNL     1      -1.564   9.317  21.269  1.00  0.00     0.004 C 
ENDBRANCH  16  17
ENDBRANCH  15  16
ENDBRANCH  14  15
ENDBRANCH  13  14
ENDBRANCH  12  13
ENDBRANCH  11  12
ENDBRANCH   1  11
TORSDOF 14
ENDMDL
MODEL 8
REMARK VINA RESULT:    -4.543     15.715     19.116
REMARK INTER + INTRA:          -8.784
REMARK INTER:                  -7.979
REMARK INTRA:                  -0.804
REMARK UNBOUND:                -0.523
REMARK SMILES CCCCCCCCCCCCCCCC(=O)[O-]
REMARK SMILES IDX 9 1 10 2 11 3 12 4 13 5 14 6 15 7 16 8 17 9 18 10 8 11 7 12
REMARK SMILES IDX 6 13 5 14 4 15 3 16 2 17 1 18
REMARK H PARENT
REMARK Flexibility Score: inf
ROOT
ATOM      1  C   UNL     1       1.008  20.658  33.407  1.00  0.00     0.000 C 
ENDROOT
BRANCH   1   2
ATOM      2  C   UNL     1       0.286  21.923  32.903  1.00  0.00     0.000 C 
BRANCH   2   3
ATOM      3  C   UNL     1      -0.843  21.667  31.888  1.00  0.00     0.000 C 
BRANCH   3   4
ATOM      4  C   UNL     1      -0.526  20.522  30.916  1.00  0.00     0.000 C 
BRANCH   4   5
ATOM      5  C   UNL     1      -1.561  20.456  29.787  1.00  0.00     0.000 C 
BRANCH   5   6
ATOM      6  C   UNL     1      -1.442  19.139  29.006  1.00  0.00     0.006 C 
BRANCH   6   7
ATOM      7  C   UNL     1      -2.411  19.078  27.819  1.00  0.00     0.053 C 
BRANCH   7   8
ATOM      8  C   UNL     1      -2.315  20.304  26.962  1.00  0.00     0.041 C 
ATOM      9  O   UNL     1      -3.311  21.063  26.826  1.00  0.00    -0.550 OA
ATOM     10  O   UNL     1      -1.133  20.592  26.291  1.00  0.00    -0.550 OA
ENDBRANCH   7   8
ENDBRANCH   6   7
ENDBRANCH   5   6
ENDBRANCH   4   5
ENDBRANCH   3   4
ENDBRANCH   2   3
ENDBRANCH   1   2
BRANCH   1  11
ATOM     11  C   UNL     1       1.721  20.810  34.764  1.00  0.00     0.000 C 
BRANCH  11  12
ATOM     12  C   UNL     1       3.132  20.185  34.801  1.00  0.00    -0.000 C 
BRANCH  12  13
ATOM     13  C   UNL     1       3.308  19.064  33.762  1.00  0.00    -0.000 C 
BRANCH  13  14
ATOM     14  C   UNL     1       3.493  17.676  34.402  1.00  0.00    -0.000 C 
BRANCH  14  15
ATOM     15  C   UNL     1       4.952  17.198  34.516  1.00  0.00    -0.000 C 
BRANCH  15  16
ATOM     16  C   UNL     1       5.598  16.914  33.149  1.00  0.00    -0.000 C 
BRANCH  16  17
ATOM     17  C   UNL     1       6.858  17.759  32.907  1.00  0.00    -0.003 C 
ATOM     18  C   UNL     1       7.240  18.613  34.117  1.00  0.00     0.004 C 
ENDBRANCH  16  17
ENDBRANCH  15  16
ENDBRANCH  14  15
ENDBRANCH  13  14
ENDBRANCH  12  13
ENDBRANCH  11  12
ENDBRANCH   1  11
TORSDOF 14
ENDMDL
MODEL 9
REMARK VINA RESULT:    -4.443     15.302     18.727
REMARK INTER + INTRA:          -8.602
REMARK INTER:                  -7.837
REMARK INTRA:                  -0.765
REMARK UNBOUND:                -0.523
REMARK SMILES CCCCCCCCCCCCCCCC(=O)[O-]
REMARK SMILES IDX 9 1 10 2 11 3 12 4 13 5 14 6 15 7 16 8 17 9 18 10 8 11 7 12
REMARK SMILES IDX 6 13 5 14 4 15 3 16 2 17 1 18
REMARK H PARENT
REMARK Flexibility Score: inf
ROOT
ATOM      1  C   UNL     1       1.563  19.869  32.784  1.00  0.00     0.000 C 
ENDROOT
BRANCH   1   2
ATOM      2  C   UNL     1       0.785  21.195  32.682  1.00  0.00     0.000 C 
BRANCH   2   3
ATOM      3  C   UNL     1      -0.497  21.132  31.832  1.00  0.00     0.000 C 
BRANCH   3   4
ATOM      4  C   UNL     1      -0.357  20.221  30.604  1.00  0.00     0.000 C 
BRANCH   4   5
ATOM      5  C   UNL     1      -1.632  20.244  29.753  1.00  0.00     0.000 C 
BRANCH   5   6
ATOM      6  C   UNL     1      -1.681  19.040  28.801  1.00  0.00     0.006 C 
BRANCH   6   7
ATOM      7  C   UNL     1      -2.761  19.196  27.723  1.00  0.00     0.053 C 
BRANCH   7   8
ATOM      8  C   UNL     1      -2.601  20.475  26.960  1.00  0.00     0.041 C 
ATOM      9  O   UNL     1      -3.528  21.328  26.948  1.00  0.00    -0.550 OA
ATOM     10  O   UNL     1      -1.437  20.714  26.239  1.00  0.00    -0.550 OA
ENDBRANCH   7   8
ENDBRANCH   6   7
ENDBRANCH   5   6
ENDBRANCH   4   5
ENDBRANCH   3   4
ENDBRANCH   2   3
ENDBRANCH   1   2
BRANCH   1  11
ATOM     11  C   UNL     1       1.457  19.151  34.143  1.00  0.00     0.000 C 
BRANCH  11  12
ATOM     12  C   UNL     1       2.819  18.741  34.741  1.00  0.00    -0.000 C 
BRANCH  12  13
ATOM     13  C   UNL     1       3.952  19.703  34.340  1.00  0.00    -0.000 C 
BRANCH  13  14
ATOM     14  C   UNL     1       5.183  18.976  33.769  1.00  0.00    -0.000 C 
BRANCH  14  15
ATOM     15  C   UNL     1       5.242  17.465  34.059  1.00  0.00    -0.000 C 
BRANCH  15  16
ATOM     16  C   UNL     1       5.559  16.627  32.808  1.00  0.00    -0.000 C 
BRANCH  16  17
ATOM     17  C   UNL     1       7.065  16.564  32.509  1.00  0.00    -0.003 C 
ATOM     18  C   UNL     1       7.429  15.436  31.542  1.00  0.00     0.004 C 
ENDBRANCH  16  17
ENDBRANCH  15  16
ENDBRANCH  14  15
ENDBRANCH  13  14
ENDBRANCH  12  13
ENDBRANCH  11  12
ENDBRANCH   1  11
TORSDOF 14
ENDMDL
