MODEL 1
REMARK VINA RESULT:    -3.619      0.000      0.000
REMARK INTER + INTRA:          -4.544
REMARK INTER:                  -5.101
REMARK INTRA:                   0.557
REMARK UNBOUND:                 0.557
REMARK SMILES CC1=CCC(=C(C)C)C(=O)CC(C)=CCC1
REMARK SMILES IDX 12 1 14 2 13 3 15 4 16 5 2 6 1 7 3 8 11 10 9 11 10 12 5 13
REMARK SMILES IDX 6 14 7 15 8 16 4 17
REMARK H PARENT
REMARK Flexibility Score: 60.00
ROOT
ATOM      1  C   UNL     1      14.945  -6.452  12.958  1.00  0.00    -0.070 C 
ATOM      2  C   UNL     1      16.220  -6.107  13.239  1.00  0.00    -0.027 C 
ATOM      3  C   UNL     1      14.226  -5.681  11.880  1.00  0.00     0.039 C 
ENDROOT
BRANCH   2   4
ATOM      4  C   UNL     1      17.135  -6.818  14.213  1.00  0.00     0.032 C 
BRANCH   4   5
ATOM      5  C   UNL     1      18.203  -7.718  13.559  1.00  0.00     0.034 C 
BRANCH   5   6
ATOM      6  C   UNL     1      18.023  -9.191  13.880  1.00  0.00    -0.077 C 
ATOM      7  C   UNL     1      18.823  -9.762  15.024  1.00  0.00     0.039 C 
ATOM      8  C   UNL     1      17.140 -10.007  13.252  1.00  0.00    -0.023 CG0
ATOM      9  G   UNL     1      16.252  -9.661  12.075  1.00  0.00     0.000 G0
ENDBRANCH   5   6
ENDBRANCH   4   5
ENDBRANCH   2   4
BRANCH   1  10
ATOM     10  C   UNL     1      14.240  -7.628  13.605  1.00  0.00     0.111 C 
BRANCH  10  11
ATOM     11  C   UNL     1      13.907  -8.698  12.599  1.00  0.00     0.163 C 
ATOM     12  O   UNL     1      12.887  -8.536  11.875  1.00  0.00    -0.294 OA
BRANCH  11  13
ATOM     13  C   UNL     1      14.768  -9.900  12.393  1.00  0.00    -0.002 C 
ATOM     14  C   UNL     1      14.231 -11.156  12.407  1.00  0.00    -0.069 C 
ATOM     15  C   UNL     1      12.785 -11.386  12.786  1.00  0.00     0.039 C 
ATOM     16  C   UNL     1      15.046 -12.380  12.046  1.00  0.00     0.039 C 
BRANCH  13  17
ATOM     17  C   UNL     1      16.235  -9.657  12.075  1.00  0.00     0.066 CG0
ATOM     18  G   UNL     1      17.142 -10.001  13.239  1.00  0.00     0.000 G0
ENDBRANCH  13  17
ENDBRANCH  11  13
ENDBRANCH  10  11
ENDBRANCH   1  10
TORSDOF 0
ENDMDL
MODEL 2
REMARK VINA RESULT:    -3.265      1.794      3.545
REMARK INTER + INTRA:          -4.044
REMARK INTER:                  -5.416
REMARK INTRA:                   1.372
REMARK UNBOUND:                 0.557
REMARK SMILES CC1=CCC(=C(C)C)C(=O)CC(C)=CCC1
REMARK SMILES IDX 12 1 14 2 13 3 15 4 16 5 2 6 1 7 3 8 11 10 9 11 10 12 5 13
REMARK SMILES IDX 6 14 7 15 8 16 4 17
REMARK H PARENT
REMARK Flexibility Score: 60.00
ROOT
ATOM      1  C   UNL     1      17.688  -7.575  13.595  1.00  0.00    -0.070 C 
ATOM      2  C   UNL     1      17.328  -6.275  13.670  1.00  0.00    -0.027 C 
ATOM      3  C   UNL     1      18.133  -8.259  14.863  1.00  0.00     0.039 C 
ENDROOT
BRANCH   2   4
ATOM      4  C   UNL     1      16.765  -5.446  12.536  1.00  0.00     0.032 C 
BRANCH   4   5
ATOM      5  C   UNL     1      15.266  -5.106  12.665  1.00  0.00     0.034 C 
BRANCH   5   6
ATOM      6  C   UNL     1      14.503  -6.087  13.537  1.00  0.00    -0.077 C 
ATOM      7  C   UNL     1      13.988  -5.591  14.865  1.00  0.00     0.039 C 
ATOM      8  C   UNL     1      14.195  -7.355  13.170  1.00  0.00    -0.023 CG0
ATOM      9  G   UNL     1      14.618  -8.069  11.902  1.00  0.00     0.000 G0
ENDBRANCH   5   6
ENDBRANCH   4   5
ENDBRANCH   2   4
BRANCH   1  10
ATOM     10  C   UNL     1      17.577  -8.396  12.326  1.00  0.00     0.111 C 
BRANCH  10  11
ATOM     11  C   UNL     1      16.633  -9.557  12.495  1.00  0.00     0.163 C 
ATOM     12  O   UNL     1      17.087 -10.625  12.988  1.00  0.00    -0.294 OA
BRANCH  11  13
ATOM     13  C   UNL     1      15.182  -9.465  12.159  1.00  0.00    -0.002 C 
ATOM     14  C   UNL     1      14.389 -10.579  12.168  1.00  0.00    -0.069 C 
ATOM     15  C   UNL     1      14.979 -11.959  12.361  1.00  0.00     0.039 C 
ATOM     16  C   UNL     1      12.889 -10.496  11.987  1.00  0.00     0.039 C 
BRANCH  13  17
ATOM     17  C   UNL     1      14.613  -8.078  11.904  1.00  0.00     0.066 CG0
ATOM     18  G   UNL     1      14.208  -7.377  13.185  1.00  0.00     0.000 G0
ENDBRANCH  13  17
ENDBRANCH  11  13
ENDBRANCH  10  11
ENDBRANCH   1  10
TORSDOF 0
ENDMDL
MODEL 3
REMARK VINA RESULT:    -2.671      1.793      3.913
REMARK INTER + INTRA:          -3.208
REMARK INTER:                  -4.485
REMARK INTRA:                   1.277
REMARK UNBOUND:                 0.557
REMARK SMILES CC1=CCC(=C(C)C)C(=O)CC(C)=CCC1
REMARK SMILES IDX 12 1 14 2 13 3 15 4 16 5 2 6 1 7 3 8 11 10 9 11 10 12 5 13
REMARK SMILES IDX 6 14 7 15 8 16 4 17
REMARK H PARENT
REMARK Flexibility Score: 60.00
ROOT
ATOM      1  C   UNL     1      14.340  -6.399  13.712  1.00  0.00    -0.070 C 
ATOM      2  C   UNL     1      13.569  -7.506  13.786  1.00  0.00    -0.027 C 
ATOM      3  C   UNL     1      14.234  -5.389  14.827  1.00  0.00     0.039 C 
ENDROOT
BRANCH   2   4
ATOM      4  C   UNL     1      13.601  -8.672  12.822  1.00  0.00     0.032 C 
BRANCH   4   5
ATOM      5  C   UNL     1      14.819  -8.696  11.875  1.00  0.00     0.034 C 
BRANCH   5   6
ATOM      6  C   UNL     1      15.799  -9.812  12.189  1.00  0.00    -0.077 C 
ATOM      7  C   UNL     1      15.263 -11.221  12.244  1.00  0.00     0.039 C 
ATOM      8  C   UNL     1      17.133  -9.634  12.354  1.00  0.00    -0.023 CG0
ATOM      9  G   UNL     1      17.886  -8.319  12.360  1.00  0.00     0.000 G0
ENDBRANCH   5   6
ENDBRANCH   4   5
ENDBRANCH   2   4
BRANCH   1  10
ATOM     10  C   UNL     1      15.364  -6.171  12.618  1.00  0.00     0.111 C 
BRANCH  10  11
ATOM     11  C   UNL     1      16.767  -6.155  13.166  1.00  0.00     0.163 C 
ATOM     12  O   UNL     1      17.310  -5.037  13.375  1.00  0.00    -0.294 OA
BRANCH  11  13
ATOM     13  C   UNL     1      17.503  -7.405  13.521  1.00  0.00    -0.002 C 
ATOM     14  C   UNL     1      17.715  -7.744  14.827  1.00  0.00    -0.069 C 
ATOM     15  C   UNL     1      17.357  -6.796  15.951  1.00  0.00     0.039 C 
ATOM     16  C   UNL     1      18.315  -9.076  15.222  1.00  0.00     0.039 C 
BRANCH  13  17
ATOM     17  C   UNL     1      17.914  -8.319  12.377  1.00  0.00     0.066 CG0
ATOM     18  G   UNL     1      17.133  -9.618  12.368  1.00  0.00     0.000 G0
ENDBRANCH  13  17
ENDBRANCH  11  13
ENDBRANCH  10  11
ENDBRANCH   1  10
TORSDOF 0
ENDMDL
MODEL 4
REMARK VINA RESULT:    -2.578      1.274      3.898
REMARK INTER + INTRA:          -3.076
REMARK INTER:                  -4.546
REMARK INTRA:                   1.470
REMARK UNBOUND:                 0.557
REMARK SMILES CC1=CCC(=C(C)C)C(=O)CC(C)=CCC1
REMARK SMILES IDX 12 1 14 2 13 3 15 4 16 5 2 6 1 7 3 8 11 10 9 11 10 12 5 13
REMARK SMILES IDX 6 14 7 15 8 16 4 17
REMARK H PARENT
REMARK Flexibility Score: 60.00
ROOT
ATOM      1  C   UNL     1      13.313 -10.294  12.487  1.00  0.00    -0.070 C 
ATOM      2  C   UNL     1      14.465 -10.999  12.519  1.00  0.00    -0.027 C 
ATOM      3  C   UNL     1      12.106 -10.880  13.175  1.00  0.00     0.039 C 
ENDROOT
BRANCH   2   4
ATOM      4  C   UNL     1      15.799 -10.538  11.974  1.00  0.00     0.032 C 
BRANCH   4   5
ATOM      5  C   UNL     1      16.992 -10.731  12.933  1.00  0.00     0.034 C 
BRANCH   5   6
ATOM      6  C   UNL     1      17.510  -9.427  13.511  1.00  0.00    -0.077 C 
ATOM      7  C   UNL     1      18.488  -9.508  14.657  1.00  0.00     0.039 C 
ATOM      8  C   UNL     1      17.206  -8.200  13.022  1.00  0.00    -0.023 CG0
ATOM      9  G   UNL     1      16.242  -7.876  11.899  1.00  0.00     0.000 G0
ENDBRANCH   5   6
ENDBRANCH   4   5
ENDBRANCH   2   4
BRANCH   1  10
ATOM     10  C   UNL     1      13.202  -8.911  11.876  1.00  0.00     0.111 C 
BRANCH  10  11
ATOM     11  C   UNL     1      13.840  -7.864  12.752  1.00  0.00     0.163 C 
ATOM     12  O   UNL     1      13.366  -7.687  13.907  1.00  0.00    -0.294 OA
BRANCH  11  13
ATOM     13  C   UNL     1      15.037  -7.082  12.324  1.00  0.00    -0.002 C 
ATOM     14  C   UNL     1      15.053  -5.719  12.418  1.00  0.00    -0.069 C 
ATOM     15  C   UNL     1      13.812  -4.946  12.805  1.00  0.00     0.039 C 
ATOM     16  C   UNL     1      16.303  -4.911  12.142  1.00  0.00     0.039 C 
BRANCH  13  17
ATOM     17  C   UNL     1      16.258  -7.870  11.876  1.00  0.00     0.066 CG0
ATOM     18  G   UNL     1      17.203  -8.171  13.022  1.00  0.00     0.000 G0
ENDBRANCH  13  17
ENDBRANCH  11  13
ENDBRANCH  10  11
ENDBRANCH   1  10
TORSDOF 0
ENDMDL
MODEL 5
REMARK VINA RESULT:    -2.529      3.405      5.024
REMARK INTER + INTRA:          -3.007
REMARK INTER:                  -4.263
REMARK INTRA:                   1.255
REMARK UNBOUND:                 0.557
REMARK SMILES CC1=CCC(=C(C)C)C(=O)CC(C)=CCC1
REMARK SMILES IDX 12 1 14 2 13 3 15 4 16 5 2 6 1 7 3 8 11 10 9 11 10 12 5 13
REMARK SMILES IDX 6 14 7 15 8 16 4 17
REMARK H PARENT
REMARK Flexibility Score: 60.00
ROOT
ATOM      1  C   UNL     1      14.532  -5.457  12.894  1.00  0.00    -0.070 C 
ATOM      2  C   UNL     1      15.409  -5.947  11.990  1.00  0.00    -0.027 C 
ATOM      3  C   UNL     1      13.808  -4.179  12.556  1.00  0.00     0.039 C 
ENDROOT
BRANCH   2   4
ATOM      4  C   UNL     1      16.157  -7.258  12.103  1.00  0.00     0.032 C 
BRANCH   4   5
ATOM      5  C   UNL     1      17.683  -7.119  12.276  1.00  0.00     0.034 C 
BRANCH   5   6
ATOM      6  C   UNL     1      18.088  -5.868  13.033  1.00  0.00    -0.077 C 
ATOM      7  C   UNL     1      18.857  -4.811  12.281  1.00  0.00     0.039 C 
ATOM      8  C   UNL     1      17.744  -5.608  14.319  1.00  0.00    -0.023 CG0
ATOM      9  G   UNL     1      16.997  -6.522  15.269  1.00  0.00     0.000 G0
ENDBRANCH   5   6
ENDBRANCH   4   5
ENDBRANCH   2   4
BRANCH   1  10
ATOM     10  C   UNL     1      14.177  -6.176  14.180  1.00  0.00     0.111 C 
BRANCH  10  11
ATOM     11  C   UNL     1      14.655  -5.418  15.391  1.00  0.00     0.163 C 
ATOM     12  O   UNL     1      13.909  -4.514  15.857  1.00  0.00    -0.294 OA
BRANCH  11  13
ATOM     13  C   UNL     1      15.937  -5.740  16.084  1.00  0.00    -0.002 C 
ATOM     14  C   UNL     1      16.114  -5.435  17.405  1.00  0.00    -0.069 C 
ATOM     15  C   UNL     1      15.089  -4.624  18.166  1.00  0.00     0.039 C 
ATOM     16  C   UNL     1      17.336  -5.888  18.174  1.00  0.00     0.039 C 
BRANCH  13  17
ATOM     17  C   UNL     1      16.986  -6.500  15.288  1.00  0.00     0.066 CG0
ATOM     18  G   UNL     1      17.733  -5.607  14.319  1.00  0.00     0.000 G0
ENDBRANCH  13  17
ENDBRANCH  11  13
ENDBRANCH  10  11
ENDBRANCH   1  10
TORSDOF 0
ENDMDL
MODEL 6
REMARK VINA RESULT:    -2.367      2.063      4.298
REMARK INTER + INTRA:          -2.780
REMARK INTER:                  -4.368
REMARK INTRA:                   1.589
REMARK UNBOUND:                 0.557
REMARK SMILES CC1=CCC(=C(C)C)C(=O)CC(C)=CCC1
REMARK SMILES IDX 12 1 14 2 13 3 15 4 16 5 2 6 1 7 3 8 11 10 9 11 10 12 5 13
REMARK SMILES IDX 6 14 7 15 8 16 4 17
REMARK H PARENT
REMARK Flexibility Score: 60.00
ROOT
ATOM      1  C   UNL     1      16.017  -9.430  12.224  1.00  0.00    -0.070 C 
ATOM      2  C   UNL     1      17.184  -9.663  12.862  1.00  0.00    -0.027 C 
ATOM      3  C   UNL     1      15.153 -10.615  11.875  1.00  0.00     0.039 C 
ENDROOT
BRANCH   2   4
ATOM      4  C   UNL     1      18.137  -8.606  13.378  1.00  0.00     0.032 C 
BRANCH   4   5
ATOM      5  C   UNL     1      18.435  -7.463  12.387  1.00  0.00     0.034 C 
BRANCH   5   6
ATOM      6  C   UNL     1      18.321  -6.084  13.012  1.00  0.00    -0.077 C 
ATOM      7  C   UNL     1      19.241  -5.004  12.501  1.00  0.00     0.039 C 
ATOM      8  C   UNL     1      17.402  -5.744  13.949  1.00  0.00    -0.023 CG0
ATOM      9  G   UNL     1      16.396  -6.659  14.619  1.00  0.00     0.000 G0
ENDBRANCH   5   6
ENDBRANCH   4   5
ENDBRANCH   2   4
BRANCH   1  10
ATOM     10  C   UNL     1      15.495  -8.037  11.930  1.00  0.00     0.111 C 
BRANCH  10  11
ATOM     11  C   UNL     1      14.570  -7.549  13.014  1.00  0.00     0.163 C 
ATOM     12  O   UNL     1      13.430  -8.078  13.105  1.00  0.00    -0.294 OA
BRANCH  11  13
ATOM     13  C   UNL     1      14.979  -6.514  14.009  1.00  0.00    -0.002 C 
ATOM     14  C   UNL     1      14.108  -5.535  14.398  1.00  0.00    -0.069 C 
ATOM     15  C   UNL     1      12.764  -5.368  13.723  1.00  0.00     0.039 C 
ATOM     16  C   UNL     1      14.436  -4.570  15.516  1.00  0.00     0.039 C 
BRANCH  13  17
ATOM     17  C   UNL     1      16.358  -6.656  14.634  1.00  0.00     0.066 CG0
ATOM     18  G   UNL     1      17.387  -5.765  13.968  1.00  0.00     0.000 G0
ENDBRANCH  13  17
ENDBRANCH  11  13
ENDBRANCH  10  11
ENDBRANCH   1  10
TORSDOF 0
ENDMDL
MODEL 7
REMARK VINA RESULT:    -1.946      3.270      5.883
REMARK INTER + INTRA:          -2.186
REMARK INTER:                  -2.606
REMARK INTRA:                   0.421
REMARK UNBOUND:                 0.557
REMARK SMILES CC1=CCC(=C(C)C)C(=O)CC(C)=CCC1
REMARK SMILES IDX 12 1 14 2 13 3 15 4 16 5 2 6 1 7 3 8 11 10 9 11 10 12 5 13
REMARK SMILES IDX 6 14 7 15 8 16 4 17
REMARK H PARENT
REMARK Flexibility Score: 60.00
ROOT
ATOM      1  C   UNL     1      17.111  -7.395  12.942  1.00  0.00    -0.070 C 
ATOM      2  C   UNL     1      15.949  -7.536  12.268  1.00  0.00    -0.027 C 
ATOM      3  C   UNL     1      18.351  -7.063  12.152  1.00  0.00     0.039 C 
ENDROOT
BRANCH   2   4
ATOM      4  C   UNL     1      14.589  -7.772  12.888  1.00  0.00     0.032 C 
BRANCH   4   5
ATOM      5  C   UNL     1      13.554  -6.659  12.622  1.00  0.00     0.034 C 
BRANCH   5   6
ATOM      6  C   UNL     1      14.060  -5.274  12.983  1.00  0.00    -0.077 C 
ATOM      7  C   UNL     1      14.102  -4.236  11.889  1.00  0.00     0.039 C 
ATOM      8  C   UNL     1      14.410  -4.890  14.235  1.00  0.00    -0.023 CG0
ATOM      9  G   UNL     1      14.464  -5.759  15.476  1.00  0.00     0.000 G0
ENDBRANCH   5   6
ENDBRANCH   4   5
ENDBRANCH   2   4
BRANCH   1  10
ATOM     10  C   UNL     1      17.207  -7.463  14.453  1.00  0.00     0.111 C 
BRANCH  10  11
ATOM     11  C   UNL     1      17.004  -6.110  15.085  1.00  0.00     0.163 C 
ATOM     12  O   UNL     1      17.774  -5.173  14.742  1.00  0.00    -0.294 OA
BRANCH  11  13
ATOM     13  C   UNL     1      15.895  -5.833  16.044  1.00  0.00    -0.002 C 
ATOM     14  C   UNL     1      16.157  -5.581  17.362  1.00  0.00    -0.069 C 
ATOM     15  C   UNL     1      17.553  -5.730  17.926  1.00  0.00     0.039 C 
ATOM     16  C   UNL     1      15.074  -5.143  18.324  1.00  0.00     0.039 C 
BRANCH  13  17
ATOM     17  C   UNL     1      14.487  -5.749  15.476  1.00  0.00     0.066 CG0
ATOM     18  G   UNL     1      14.417  -4.880  14.236  1.00  0.00     0.000 G0
ENDBRANCH  13  17
ENDBRANCH  11  13
ENDBRANCH  10  11
ENDBRANCH   1  10
TORSDOF 0
ENDMDL
MODEL 8
REMARK VINA RESULT:    -1.945      1.711      3.915
REMARK INTER + INTRA:          -2.184
REMARK INTER:                  -4.942
REMARK INTRA:                   2.758
REMARK UNBOUND:                 0.557
REMARK SMILES CC1=CCC(=C(C)C)C(=O)CC(C)=CCC1
REMARK SMILES IDX 12 1 14 2 13 3 15 4 16 5 2 6 1 7 3 8 11 10 9 11 10 12 5 13
REMARK SMILES IDX 6 14 7 15 8 16 4 17
REMARK H PARENT
REMARK Flexibility Score: 60.00
ROOT
ATOM      1  C   UNL     1      14.191  -8.845  12.173  1.00  0.00    -0.070 C 
ATOM      2  C   UNL     1      15.234  -9.704  12.191  1.00  0.00    -0.027 C 
ATOM      3  C   UNL     1      12.805  -9.411  12.351  1.00  0.00     0.039 C 
ENDROOT
BRANCH   2   4
ATOM      4  C   UNL     1      16.697  -9.322  12.126  1.00  0.00     0.032 C 
BRANCH   4   5
ATOM      5  C   UNL     1      17.607 -10.075  13.118  1.00  0.00     0.034 C 
BRANCH   5   6
ATOM      6  C   UNL     1      18.060  -9.216  14.285  1.00  0.00    -0.077 C 
ATOM      7  C   UNL     1      18.896  -9.871  15.355  1.00  0.00     0.039 C 
ATOM      8  C   UNL     1      17.820  -7.886  14.392  1.00  0.00    -0.023 CG0
ATOM      9  G   UNL     1      16.995  -7.026  13.456  1.00  0.00     0.000 G0
ENDBRANCH   5   6
ENDBRANCH   4   5
ENDBRANCH   2   4
BRANCH   1  10
ATOM     10  C   UNL     1      14.356  -7.341  12.075  1.00  0.00     0.111 C 
BRANCH  10  11
ATOM     11  C   UNL     1      14.436  -6.701  13.436  1.00  0.00     0.163 C 
ATOM     12  O   UNL     1      13.357  -6.428  14.029  1.00  0.00    -0.294 OA
BRANCH  11  13
ATOM     13  C   UNL     1      15.735  -6.440  14.124  1.00  0.00    -0.002 C 
ATOM     14  C   UNL     1      15.771  -5.809  15.336  1.00  0.00    -0.069 C 
ATOM     15  C   UNL     1      14.521  -5.215  15.947  1.00  0.00     0.039 C 
ATOM     16  C   UNL     1      17.052  -5.671  16.129  1.00  0.00     0.039 C 
BRANCH  13  17
ATOM     17  C   UNL     1      16.992  -6.987  13.467  1.00  0.00     0.066 CG0
ATOM     18  G   UNL     1      17.800  -7.860  14.406  1.00  0.00     0.000 G0
ENDBRANCH  13  17
ENDBRANCH  11  13
ENDBRANCH  10  11
ENDBRANCH   1  10
TORSDOF 0
ENDMDL
MODEL 9
REMARK VINA RESULT:    -1.911      2.882      4.191
REMARK INTER + INTRA:          -2.136
REMARK INTER:                  -3.811
REMARK INTRA:                   1.674
REMARK UNBOUND:                 0.557
REMARK SMILES CC1=CCC(=C(C)C)C(=O)CC(C)=CCC1
REMARK SMILES IDX 12 1 14 2 13 3 15 4 16 5 2 6 1 7 3 8 11 10 9 11 10 12 5 13
REMARK SMILES IDX 6 14 7 15 8 16 4 17
REMARK H PARENT
REMARK Flexibility Score: 60.00
ROOT
ATOM      1  C   UNL     1      13.218  -4.567  14.012  1.00  0.00    -0.070 C 
ATOM      2  C   UNL     1      13.453  -3.894  15.159  1.00  0.00    -0.027 C 
ATOM      3  C   UNL     1      12.418  -3.875  12.937  1.00  0.00     0.039 C 
ENDROOT
BRANCH   2   4
ATOM      4  C   UNL     1      14.310  -4.378  16.309  1.00  0.00     0.032 C 
BRANCH   4   5
ATOM      5  C   UNL     1      14.704  -5.868  16.240  1.00  0.00     0.034 C 
BRANCH   5   6
ATOM      6  C   UNL     1      16.117  -6.136  16.728  1.00  0.00    -0.077 C 
ATOM      7  C   UNL     1      16.297  -6.533  18.171  1.00  0.00     0.039 C 
ATOM      8  C   UNL     1      17.216  -6.108  15.935  1.00  0.00    -0.023 CG0
ATOM      9  G   UNL     1      17.279  -5.721  14.471  1.00  0.00     0.000 G0
ENDBRANCH   5   6
ENDBRANCH   4   5
ENDBRANCH   2   4
BRANCH   1  10
ATOM     10  C   UNL     1      13.795  -5.938  13.720  1.00  0.00     0.111 C 
BRANCH  10  11
ATOM     11  C   UNL     1      15.135  -5.844  13.038  1.00  0.00     0.163 C 
ATOM     12  O   UNL     1      15.227  -5.126  12.006  1.00  0.00    -0.294 OA
BRANCH  11  13
ATOM     13  C   UNL     1      16.355  -6.516  13.574  1.00  0.00    -0.002 C 
ATOM     14  C   UNL     1      16.673  -7.791  13.201  1.00  0.00    -0.069 C 
ATOM     15  C   UNL     1      15.725  -8.622  12.363  1.00  0.00     0.039 C 
ATOM     16  C   UNL     1      17.980  -8.441  13.600  1.00  0.00     0.039 C 
BRANCH  13  17
ATOM     17  C   UNL     1      17.268  -5.690  14.467  1.00  0.00     0.066 CG0
ATOM     18  G   UNL     1      17.208  -6.130  15.916  1.00  0.00     0.000 G0
ENDBRANCH  13  17
ENDBRANCH  11  13
ENDBRANCH  10  11
ENDBRANCH   1  10
TORSDOF 0
ENDMDL
