MODEL 1
REMARK VINA RESULT:    -6.250      0.000      0.000
REMARK INTER + INTRA:          -7.644
REMARK INTER:                  -7.346
REMARK INTRA:                  -0.299
REMARK UNBOUND:                -0.299
REMARK SMILES O=c1c(O)c(-c2ccc(O)cc2)oc2cc(O)cc(O)c12
REMARK SMILES IDX 5 1 3 2 2 3 1 4 21 5 19 6 18 7 16 8 15 9 14 10 13 11 6 12
REMARK SMILES IDX 7 13 8 14 9 15 12 16 11 17 10 18 4 20 20 22 17 24
REMARK H PARENT 10 19 4 21 20 23 17 25
REMARK Flexibility Score: inf
ROOT
ATOM      1  C   UNL     1      68.247  47.953   8.968  1.00  0.00     0.180 A 
ATOM      2  C   UNL     1      67.204  48.724   9.510  1.00  0.00     0.208 A 
ATOM      3  C   UNL     1      65.901  48.201   9.510  1.00  0.00     0.238 A 
ATOM      4  O   UNL     1      64.980  48.873  10.045  1.00  0.00    -0.285 OA
ATOM      5  C   UNL     1      65.655  46.923   8.955  1.00  0.00     0.111 A 
ATOM      6  C   UNL     1      64.368  46.313   8.866  1.00  0.00     0.134 A 
ATOM      7  C   UNL     1      64.260  44.991   8.416  1.00  0.00     0.093 A 
ATOM      8  C   UNL     1      65.386  44.280   7.992  1.00  0.00     0.123 A 
ATOM      9  C   UNL     1      66.637  44.888   8.019  1.00  0.00     0.094 A 
ATOM     10  C   UNL     1      66.782  46.193   8.496  1.00  0.00     0.146 A 
ATOM     11  O   UNL     1      67.995  46.731   8.515  1.00  0.00    -0.452 OA
ENDROOT
BRANCH   1  12
ATOM     12  C   UNL     1      69.643  48.447   8.910  1.00  0.00     0.021 A 
ATOM     13  C   UNL     1      70.531  48.135   9.954  1.00  0.00     0.016 A 
ATOM     14  C   UNL     1      71.858  48.572   9.908  1.00  0.00     0.047 A 
ATOM     15  C   UNL     1      72.319  49.310   8.814  1.00  0.00     0.115 A 
ATOM     16  C   UNL     1      70.118  49.173   7.803  1.00  0.00     0.016 A 
ATOM     17  C   UNL     1      71.446  49.608   7.760  1.00  0.00     0.047 A 
BRANCH  15  18
ATOM     18  O   UNL     1      73.644  49.739   8.783  1.00  0.00    -0.508 OA
ATOM     19  H   UNL     1      74.281  49.439   8.052  1.00  0.00     0.293 HD
ENDBRANCH  15  18
ENDBRANCH   1  12
BRANCH   2  20
ATOM     20  O   UNL     1      67.473  49.975  10.072  1.00  0.00    -0.502 OA
ATOM     21  H   UNL     1      68.034  50.086  10.909  1.00  0.00     0.293 HD
ENDBRANCH   2  20
BRANCH   6  22
ATOM     22  O   UNL     1      63.171  46.965   9.177  1.00  0.00    -0.507 OA
ATOM     23  H   UNL     1      63.106  47.835   9.684  1.00  0.00     0.293 HD
ENDBRANCH   6  22
BRANCH   8  24
ATOM     24  O   UNL     1      65.267  42.971   7.531  1.00  0.00    -0.508 OA
ATOM     25  H   UNL     1      65.549  42.181   8.100  1.00  0.00     0.293 HD
ENDBRANCH   8  24
TORSDOF 5
ENDMDL
MODEL 2
REMARK VINA RESULT:    -5.917      2.444      7.066
REMARK INTER + INTRA:          -7.253
REMARK INTER:                  -7.082
REMARK INTRA:                  -0.171
REMARK UNBOUND:                -0.299
REMARK SMILES O=c1c(O)c(-c2ccc(O)cc2)oc2cc(O)cc(O)c12
REMARK SMILES IDX 5 1 3 2 2 3 1 4 21 5 19 6 18 7 16 8 15 9 14 10 13 11 6 12
REMARK SMILES IDX 7 13 8 14 9 15 12 16 11 17 10 18 4 20 20 22 17 24
REMARK H PARENT 10 19 4 21 20 23 17 25
REMARK Flexibility Score: inf
ROOT
ATOM      1  C   UNL     1      69.608  48.123   8.055  1.00  0.00     0.180 A 
ATOM      2  C   UNL     1      69.879  48.256   6.682  1.00  0.00     0.208 A 
ATOM      3  C   UNL     1      71.206  48.155   6.237  1.00  0.00     0.238 A 
ATOM      4  O   UNL     1      71.437  48.221   5.000  1.00  0.00    -0.285 OA
ATOM      5  C   UNL     1      72.248  47.937   7.171  1.00  0.00     0.111 A 
ATOM      6  C   UNL     1      73.633  47.858   6.836  1.00  0.00     0.134 A 
ATOM      7  C   UNL     1      74.563  47.510   7.822  1.00  0.00     0.093 A 
ATOM      8  C   UNL     1      74.166  47.302   9.146  1.00  0.00     0.123 A 
ATOM      9  C   UNL     1      72.824  47.436   9.494  1.00  0.00     0.094 A 
ATOM     10  C   UNL     1      71.868  47.747   8.524  1.00  0.00     0.146 A 
ATOM     11  O   UNL     1      70.598  47.853   8.897  1.00  0.00    -0.452 OA
ENDROOT
BRANCH   1  12
ATOM     12  C   UNL     1      68.237  48.243   8.602  1.00  0.00     0.021 A 
ATOM     13  C   UNL     1      67.889  49.380   9.352  1.00  0.00     0.016 A 
ATOM     14  C   UNL     1      66.594  49.524   9.859  1.00  0.00     0.047 A 
ATOM     15  C   UNL     1      65.628  48.546   9.611  1.00  0.00     0.115 A 
ATOM     16  C   UNL     1      67.255  47.271   8.339  1.00  0.00     0.016 A 
ATOM     17  C   UNL     1      65.960  47.419   8.847  1.00  0.00     0.047 A 
BRANCH  15  18
ATOM     18  O   UNL     1      64.342  48.703  10.123  1.00  0.00    -0.508 OA
ATOM     19  H   UNL     1      63.662  47.951  10.088  1.00  0.00     0.293 HD
ENDBRANCH  15  18
ENDBRANCH   1  12
BRANCH   2  20
ATOM     20  O   UNL     1      68.833  48.449   5.775  1.00  0.00    -0.502 OA
ATOM     21  H   UNL     1      68.977  48.852   4.856  1.00  0.00     0.293 HD
ENDBRANCH   2  20
BRANCH   6  22
ATOM     22  O   UNL     1      74.146  48.137   5.566  1.00  0.00    -0.507 OA
ATOM     23  H   UNL     1      75.109  48.367   5.372  1.00  0.00     0.293 HD
ENDBRANCH   6  22
BRANCH   8  24
ATOM     24  O   UNL     1      75.100  46.972  10.125  1.00  0.00    -0.508 OA
ATOM     25  H   UNL     1      75.091  46.068  10.583  1.00  0.00     0.293 HD
ENDBRANCH   8  24
TORSDOF 5
ENDMDL
MODEL 3
REMARK VINA RESULT:    -5.861      2.045      6.927
REMARK INTER + INTRA:          -7.188
REMARK INTER:                  -7.629
REMARK INTRA:                   0.442
REMARK UNBOUND:                -0.299
REMARK SMILES O=c1c(O)c(-c2ccc(O)cc2)oc2cc(O)cc(O)c12
REMARK SMILES IDX 5 1 3 2 2 3 1 4 21 5 19 6 18 7 16 8 15 9 14 10 13 11 6 12
REMARK SMILES IDX 7 13 8 14 9 15 12 16 11 17 10 18 4 20 20 22 17 24
REMARK H PARENT 10 19 4 21 20 23 17 25
REMARK Flexibility Score: inf
ROOT
ATOM      1  C   UNL     1      64.916  46.015   8.720  1.00  0.00     0.180 A 
ATOM      2  C   UNL     1      64.703  47.191   9.460  1.00  0.00     0.208 A 
ATOM      3  C   UNL     1      65.709  48.169   9.489  1.00  0.00     0.238 A 
ATOM      4  O   UNL     1      65.491  49.243  10.109  1.00  0.00    -0.285 OA
ATOM      5  C   UNL     1      66.921  47.953   8.790  1.00  0.00     0.111 A 
ATOM      6  C   UNL     1      68.024  48.859   8.783  1.00  0.00     0.134 A 
ATOM      7  C   UNL     1      69.122  48.604   7.951  1.00  0.00     0.093 A 
ATOM      8  C   UNL     1      69.184  47.442   7.177  1.00  0.00     0.123 A 
ATOM      9  C   UNL     1      68.139  46.523   7.224  1.00  0.00     0.094 A 
ATOM     10  C   UNL     1      67.015  46.768   8.016  1.00  0.00     0.146 A 
ATOM     11  O   UNL     1      66.036  45.871   8.022  1.00  0.00    -0.452 OA
ENDROOT
BRANCH   1  12
ATOM     12  C   UNL     1      63.912  44.927   8.663  1.00  0.00     0.021 A 
ATOM     13  C   UNL     1      64.313  43.636   8.280  1.00  0.00     0.016 A 
ATOM     14  C   UNL     1      63.387  42.589   8.241  1.00  0.00     0.047 A 
ATOM     15  C   UNL     1      62.055  42.815   8.599  1.00  0.00     0.115 A 
ATOM     16  C   UNL     1      62.575  45.143   9.041  1.00  0.00     0.016 A 
ATOM     17  C   UNL     1      61.651  44.094   9.002  1.00  0.00     0.047 A 
BRANCH  15  18
ATOM     18  O   UNL     1      61.143  41.763   8.555  1.00  0.00    -0.508 OA
ATOM     19  H   UNL     1      60.421  41.657   9.260  1.00  0.00     0.293 HD
ENDBRANCH  15  18
ENDBRANCH   1  12
BRANCH   2  20
ATOM     20  O   UNL     1      63.490  47.393  10.125  1.00  0.00    -0.502 OA
ATOM     21  H   UNL     1      62.773  48.016   9.772  1.00  0.00     0.293 HD
ENDBRANCH   2  20
BRANCH   6  22
ATOM     22  O   UNL     1      68.103  49.999   9.587  1.00  0.00    -0.507 OA
ATOM     23  H   UNL     1      68.878  50.222  10.194  1.00  0.00     0.293 HD
ENDBRANCH   6  22
BRANCH   8  24
ATOM     24  O   UNL     1      70.287  47.188   6.365  1.00  0.00    -0.508 OA
ATOM     25  H   UNL     1      70.538  47.807   5.603  1.00  0.00     0.293 HD
ENDBRANCH   8  24
TORSDOF 5
ENDMDL
MODEL 4
REMARK VINA RESULT:    -5.766      2.879      4.208
REMARK INTER + INTRA:          -7.076
REMARK INTER:                  -6.813
REMARK INTRA:                  -0.263
REMARK UNBOUND:                -0.299
REMARK SMILES O=c1c(O)c(-c2ccc(O)cc2)oc2cc(O)cc(O)c12
REMARK SMILES IDX 5 1 3 2 2 3 1 4 21 5 19 6 18 7 16 8 15 9 14 10 13 11 6 12
REMARK SMILES IDX 7 13 8 14 9 15 12 16 11 17 10 18 4 20 20 22 17 24
REMARK H PARENT 10 19 4 21 20 23 17 25
REMARK Flexibility Score: inf
ROOT
ATOM      1  C   UNL     1      70.751  47.831   7.144  1.00  0.00     0.180 A 
ATOM      2  C   UNL     1      70.927  48.793   8.154  1.00  0.00     0.208 A 
ATOM      3  C   UNL     1      69.801  49.272   8.842  1.00  0.00     0.238 A 
ATOM      4  O   UNL     1      69.970  50.093   9.781  1.00  0.00    -0.285 OA
ATOM      5  C   UNL     1      68.512  48.796   8.501  1.00  0.00     0.111 A 
ATOM      6  C   UNL     1      67.298  49.242   9.105  1.00  0.00     0.134 A 
ATOM      7  C   UNL     1      66.093  48.608   8.781  1.00  0.00     0.093 A 
ATOM      8  C   UNL     1      66.049  47.587   7.827  1.00  0.00     0.123 A 
ATOM      9  C   UNL     1      67.220  47.187   7.189  1.00  0.00     0.094 A 
ATOM     10  C   UNL     1      68.443  47.776   7.518  1.00  0.00     0.146 A 
ATOM     11  O   UNL     1      69.537  47.356   6.894  1.00  0.00    -0.452 OA
ENDROOT
BRANCH   1  12
ATOM     12  C   UNL     1      71.888  47.297   6.359  1.00  0.00     0.021 A 
ATOM     13  C   UNL     1      72.674  46.263   6.896  1.00  0.00     0.016 A 
ATOM     14  C   UNL     1      73.737  45.728   6.162  1.00  0.00     0.047 A 
ATOM     15  C   UNL     1      74.018  46.207   4.879  1.00  0.00     0.115 A 
ATOM     16  C   UNL     1      72.163  47.761   5.060  1.00  0.00     0.016 A 
ATOM     17  C   UNL     1      73.227  47.223   4.328  1.00  0.00     0.047 A 
BRANCH  15  18
ATOM     18  O   UNL     1      75.082  45.666   4.160  1.00  0.00    -0.508 OA
ATOM     19  H   UNL     1      75.720  44.999   4.580  1.00  0.00     0.293 HD
ENDBRANCH  15  18
ENDBRANCH   1  12
BRANCH   2  20
ATOM     20  O   UNL     1      72.211  49.233   8.489  1.00  0.00    -0.502 OA
ATOM     21  H   UNL     1      72.806  49.726   7.833  1.00  0.00     0.293 HD
ENDBRANCH   2  20
BRANCH   6  22
ATOM     22  O   UNL     1      67.219  50.313   9.999  1.00  0.00    -0.507 OA
ATOM     23  H   UNL     1      67.930  50.553  10.674  1.00  0.00     0.293 HD
ENDBRANCH   6  22
BRANCH   8  24
ATOM     24  O   UNL     1      64.842  46.972   7.499  1.00  0.00    -0.508 OA
ATOM     25  H   UNL     1      64.409  46.294   8.115  1.00  0.00     0.293 HD
ENDBRANCH   8  24
TORSDOF 5
ENDMDL
MODEL 5
REMARK VINA RESULT:    -5.579      2.066      7.440
REMARK INTER + INTRA:          -6.856
REMARK INTER:                  -6.568
REMARK INTRA:                  -0.289
REMARK UNBOUND:                -0.299
REMARK SMILES O=c1c(O)c(-c2ccc(O)cc2)oc2cc(O)cc(O)c12
REMARK SMILES IDX 5 1 3 2 2 3 1 4 21 5 19 6 18 7 16 8 15 9 14 10 13 11 6 12
REMARK SMILES IDX 7 13 8 14 9 15 12 16 11 17 10 18 4 20 20 22 17 24
REMARK H PARENT 10 19 4 21 20 23 17 25
REMARK Flexibility Score: inf
ROOT
ATOM      1  C   UNL     1      65.997  45.031   8.456  1.00  0.00     0.180 A 
ATOM      2  C   UNL     1      67.195  44.548   7.900  1.00  0.00     0.208 A 
ATOM      3  C   UNL     1      68.299  45.410   7.809  1.00  0.00     0.238 A 
ATOM      4  O   UNL     1      69.385  44.957   7.361  1.00  0.00    -0.285 OA
ATOM      5  C   UNL     1      68.188  46.747   8.260  1.00  0.00     0.111 A 
ATOM      6  C   UNL     1      69.231  47.719   8.179  1.00  0.00     0.134 A 
ATOM      7  C   UNL     1      69.053  48.974   8.775  1.00  0.00     0.093 A 
ATOM      8  C   UNL     1      67.846  49.314   9.391  1.00  0.00     0.123 A 
ATOM      9  C   UNL     1      66.802  48.393   9.422  1.00  0.00     0.094 A 
ATOM     10  C   UNL     1      66.962  47.121   8.868  1.00  0.00     0.146 A 
ATOM     11  O   UNL     1      65.945  46.269   8.930  1.00  0.00    -0.452 OA
ENDROOT
BRANCH   1  12
ATOM     12  C   UNL     1      64.783  44.189   8.562  1.00  0.00     0.021 A 
ATOM     13  C   UNL     1      63.888  44.128   7.480  1.00  0.00     0.016 A 
ATOM     14  C   UNL     1      62.747  43.323   7.550  1.00  0.00     0.047 A 
ATOM     15  C   UNL     1      62.495  42.557   8.692  1.00  0.00     0.115 A 
ATOM     16  C   UNL     1      64.534  43.401   9.700  1.00  0.00     0.016 A 
ATOM     17  C   UNL     1      63.393  42.596   9.766  1.00  0.00     0.047 A 
BRANCH  15  18
ATOM     18  O   UNL     1      61.354  41.760   8.748  1.00  0.00    -0.508 OA
ATOM     19  H   UNL     1      61.309  40.865   8.273  1.00  0.00     0.293 HD
ENDBRANCH  15  18
ENDBRANCH   1  12
BRANCH   2  20
ATOM     20  O   UNL     1      67.290  43.218   7.481  1.00  0.00    -0.502 OA
ATOM     21  H   UNL     1      67.162  42.438   8.115  1.00  0.00     0.293 HD
ENDBRANCH   2  20
BRANCH   6  22
ATOM     22  O   UNL     1      70.439  47.513   7.507  1.00  0.00    -0.507 OA
ATOM     23  H   UNL     1      70.947  46.641   7.490  1.00  0.00     0.293 HD
ENDBRANCH   6  22
BRANCH   8  24
ATOM     24  O   UNL     1      67.672  50.570   9.967  1.00  0.00    -0.508 OA
ATOM     25  H   UNL     1      67.447  50.677  10.949  1.00  0.00     0.293 HD
ENDBRANCH   8  24
TORSDOF 5
ENDMDL
MODEL 6
REMARK VINA RESULT:    -5.375      3.053      6.859
REMARK INTER + INTRA:          -6.616
REMARK INTER:                  -6.348
REMARK INTRA:                  -0.268
REMARK UNBOUND:                -0.299
REMARK SMILES O=c1c(O)c(-c2ccc(O)cc2)oc2cc(O)cc(O)c12
REMARK SMILES IDX 5 1 3 2 2 3 1 4 21 5 19 6 18 7 16 8 15 9 14 10 13 11 6 12
REMARK SMILES IDX 7 13 8 14 9 15 12 16 11 17 10 18 4 20 20 22 17 24
REMARK H PARENT 10 19 4 21 20 23 17 25
REMARK Flexibility Score: inf
ROOT
ATOM      1  C   UNL     1      69.748  47.937   7.450  1.00  0.00     0.180 A 
ATOM      2  C   UNL     1      70.091  48.456   6.190  1.00  0.00     0.208 A 
ATOM      3  C   UNL     1      71.337  48.125   5.633  1.00  0.00     0.238 A 
ATOM      4  O   UNL     1      71.616  48.549   4.480  1.00  0.00    -0.285 OA
ATOM      5  C   UNL     1      72.229  47.291   6.348  1.00  0.00     0.111 A 
ATOM      6  C   UNL     1      73.532  46.923   5.897  1.00  0.00     0.134 A 
ATOM      7  C   UNL     1      74.277  45.988   6.626  1.00  0.00     0.093 A 
ATOM      8  C   UNL     1      73.792  45.457   7.824  1.00  0.00     0.123 A 
ATOM      9  C   UNL     1      72.547  45.856   8.303  1.00  0.00     0.094 A 
ATOM     10  C   UNL     1      71.766  46.760   7.579  1.00  0.00     0.146 A 
ATOM     11  O   UNL     1      70.579  47.104   8.066  1.00  0.00    -0.452 OA
ENDROOT
BRANCH   1  12
ATOM     12  C   UNL     1      68.464  48.262   8.113  1.00  0.00     0.021 A 
ATOM     13  C   UNL     1      67.309  47.535   7.776  1.00  0.00     0.016 A 
ATOM     14  C   UNL     1      66.092  47.810   8.406  1.00  0.00     0.047 A 
ATOM     15  C   UNL     1      66.016  48.800   9.389  1.00  0.00     0.115 A 
ATOM     16  C   UNL     1      68.386  49.243   9.118  1.00  0.00     0.016 A 
ATOM     17  C   UNL     1      67.167  49.515   9.746  1.00  0.00     0.047 A 
BRANCH  15  18
ATOM     18  O   UNL     1      64.796  49.064  10.008  1.00  0.00    -0.508 OA
ATOM     19  H   UNL     1      63.933  49.113   9.477  1.00  0.00     0.293 HD
ENDBRANCH  15  18
ENDBRANCH   1  12
BRANCH   2  20
ATOM     20  O   UNL     1      69.187  49.260   5.491  1.00  0.00    -0.502 OA
ATOM     21  H   UNL     1      69.454  50.143   5.072  1.00  0.00     0.293 HD
ENDBRANCH   2  20
BRANCH   6  22
ATOM     22  O   UNL     1      74.147  47.464   4.764  1.00  0.00    -0.507 OA
ATOM     23  H   UNL     1      74.748  48.274   4.767  1.00  0.00     0.293 HD
ENDBRANCH   6  22
BRANCH   8  24
ATOM     24  O   UNL     1      74.547  44.540   8.551  1.00  0.00    -0.508 OA
ATOM     25  H   UNL     1      75.488  44.753   8.859  1.00  0.00     0.293 HD
ENDBRANCH   8  24
TORSDOF 5
ENDMDL
MODEL 7
REMARK VINA RESULT:    -5.308      2.684      6.887
REMARK INTER + INTRA:          -6.537
REMARK INTER:                  -6.251
REMARK INTRA:                  -0.286
REMARK UNBOUND:                -0.299
REMARK SMILES O=c1c(O)c(-c2ccc(O)cc2)oc2cc(O)cc(O)c12
REMARK SMILES IDX 5 1 3 2 2 3 1 4 21 5 19 6 18 7 16 8 15 9 14 10 13 11 6 12
REMARK SMILES IDX 7 13 8 14 9 15 12 16 11 17 10 18 4 20 20 22 17 24
REMARK H PARENT 10 19 4 21 20 23 17 25
REMARK Flexibility Score: inf
ROOT
ATOM      1  C   UNL     1      69.632  47.332   8.128  1.00  0.00     0.180 A 
ATOM      2  C   UNL     1      70.373  48.285   8.849  1.00  0.00     0.208 A 
ATOM      3  C   UNL     1      71.760  48.364   8.646  1.00  0.00     0.238 A 
ATOM      4  O   UNL     1      72.410  49.255   9.254  1.00  0.00    -0.285 OA
ATOM      5  C   UNL     1      72.391  47.481   7.738  1.00  0.00     0.111 A 
ATOM      6  C   UNL     1      73.795  47.446   7.485  1.00  0.00     0.134 A 
ATOM      7  C   UNL     1      74.293  46.619   6.470  1.00  0.00     0.093 A 
ATOM      8  C   UNL     1      73.445  45.778   5.744  1.00  0.00     0.123 A 
ATOM      9  C   UNL     1      72.082  45.762   6.026  1.00  0.00     0.094 A 
ATOM     10  C   UNL     1      71.550  46.602   7.007  1.00  0.00     0.146 A 
ATOM     11  O   UNL     1      70.243  46.563   7.235  1.00  0.00    -0.452 OA
ENDROOT
BRANCH   1  12
ATOM     12  C   UNL     1      68.170  47.172   8.307  1.00  0.00     0.021 A 
ATOM     13  C   UNL     1      67.293  47.742   7.368  1.00  0.00     0.016 A 
ATOM     14  C   UNL     1      65.910  47.584   7.504  1.00  0.00     0.047 A 
ATOM     15  C   UNL     1      65.389  46.843   8.568  1.00  0.00     0.115 A 
ATOM     16  C   UNL     1      67.640  46.411   9.364  1.00  0.00     0.016 A 
ATOM     17  C   UNL     1      66.257  46.254   9.497  1.00  0.00     0.047 A 
BRANCH  15  18
ATOM     18  O   UNL     1      64.009  46.694   8.692  1.00  0.00    -0.508 OA
ATOM     19  H   UNL     1      63.366  47.182   8.077  1.00  0.00     0.293 HD
ENDBRANCH  15  18
ENDBRANCH   1  12
BRANCH   2  20
ATOM     20  O   UNL     1      69.727  49.162   9.725  1.00  0.00    -0.502 OA
ATOM     21  H   UNL     1      70.127  50.053   9.996  1.00  0.00     0.293 HD
ENDBRANCH   2  20
BRANCH   6  22
ATOM     22  O   UNL     1      74.738  48.176   8.214  1.00  0.00    -0.507 OA
ATOM     23  H   UNL     1      75.738  48.065   8.134  1.00  0.00     0.293 HD
ENDBRANCH   6  22
BRANCH   8  24
ATOM     24  O   UNL     1      73.952  44.948   4.747  1.00  0.00    -0.508 OA
ATOM     25  H   UNL     1      73.913  45.210   3.769  1.00  0.00     0.293 HD
ENDBRANCH   8  24
TORSDOF 5
ENDMDL
MODEL 8
REMARK VINA RESULT:    -5.290      5.343      8.806
REMARK INTER + INTRA:          -6.516
REMARK INTER:                  -6.228
REMARK INTRA:                  -0.289
REMARK UNBOUND:                -0.299
REMARK SMILES O=c1c(O)c(-c2ccc(O)cc2)oc2cc(O)cc(O)c12
REMARK SMILES IDX 5 1 3 2 2 3 1 4 21 5 19 6 18 7 16 8 15 9 14 10 13 11 6 12
REMARK SMILES IDX 7 13 8 14 9 15 12 16 11 17 10 18 4 20 20 22 17 24
REMARK H PARENT 10 19 4 21 20 23 17 25
REMARK Flexibility Score: inf
ROOT
ATOM      1  C   UNL     1      71.539  43.798   6.167  1.00  0.00     0.180 A 
ATOM      2  C   UNL     1      71.995  44.097   4.872  1.00  0.00     0.208 A 
ATOM      3  C   UNL     1      72.720  45.281   4.662  1.00  0.00     0.238 A 
ATOM      4  O   UNL     1      73.171  45.518   3.510  1.00  0.00    -0.285 OA
ATOM      5  C   UNL     1      72.967  46.158   5.745  1.00  0.00     0.111 A 
ATOM      6  C   UNL     1      73.656  47.403   5.639  1.00  0.00     0.134 A 
ATOM      7  C   UNL     1      73.958  48.126   6.799  1.00  0.00     0.093 A 
ATOM      8  C   UNL     1      73.538  47.681   8.056  1.00  0.00     0.123 A 
ATOM      9  C   UNL     1      72.813  46.497   8.162  1.00  0.00     0.094 A 
ATOM     10  C   UNL     1      72.528  45.735   7.027  1.00  0.00     0.146 A 
ATOM     11  O   UNL     1      71.844  44.607   7.175  1.00  0.00    -0.452 OA
ENDROOT
BRANCH   1  12
ATOM     12  C   UNL     1      70.747  42.582   6.462  1.00  0.00     0.021 A 
ATOM     13  C   UNL     1      71.411  41.388   6.793  1.00  0.00     0.016 A 
ATOM     14  C   UNL     1      70.682  40.234   7.097  1.00  0.00     0.047 A 
ATOM     15  C   UNL     1      69.285  40.261   7.090  1.00  0.00     0.115 A 
ATOM     16  C   UNL     1      69.341  42.608   6.476  1.00  0.00     0.016 A 
ATOM     17  C   UNL     1      68.615  41.453   6.781  1.00  0.00     0.047 A 
BRANCH  15  18
ATOM     18  O   UNL     1      68.572  39.104   7.394  1.00  0.00    -0.508 OA
ATOM     19  H   UNL     1      67.951  39.059   8.194  1.00  0.00     0.293 HD
ENDBRANCH  15  18
ENDBRANCH   1  12
BRANCH   2  20
ATOM     20  O   UNL     1      71.758  43.208   3.820  1.00  0.00    -0.502 OA
ATOM     21  H   UNL     1      72.499  42.672   3.384  1.00  0.00     0.293 HD
ENDBRANCH   2  20
BRANCH   6  22
ATOM     22  O   UNL     1      74.038  47.982   4.426  1.00  0.00    -0.507 OA
ATOM     23  H   UNL     1      73.957  47.536   3.524  1.00  0.00     0.293 HD
ENDBRANCH   6  22
BRANCH   8  24
ATOM     24  O   UNL     1      73.829  48.415   9.203  1.00  0.00    -0.508 OA
ATOM     25  H   UNL     1      73.179  48.467   9.979  1.00  0.00     0.293 HD
ENDBRANCH   8  24
TORSDOF 5
ENDMDL
MODEL 9
REMARK VINA RESULT:    -5.251      3.196      6.996
REMARK INTER + INTRA:          -6.470
REMARK INTER:                  -6.284
REMARK INTRA:                  -0.186
REMARK UNBOUND:                -0.299
REMARK SMILES O=c1c(O)c(-c2ccc(O)cc2)oc2cc(O)cc(O)c12
REMARK SMILES IDX 5 1 3 2 2 3 1 4 21 5 19 6 18 7 16 8 15 9 14 10 13 11 6 12
REMARK SMILES IDX 7 13 8 14 9 15 12 16 11 17 10 18 4 20 20 22 17 24
REMARK H PARENT 10 19 4 21 20 23 17 25
REMARK Flexibility Score: inf
ROOT
ATOM      1  C   UNL     1      69.145  44.457   7.217  1.00  0.00     0.180 A 
ATOM      2  C   UNL     1      68.029  45.311   7.183  1.00  0.00     0.208 A 
ATOM      3  C   UNL     1      68.234  46.700   7.210  1.00  0.00     0.238 A 
ATOM      4  O   UNL     1      67.234  47.461   7.125  1.00  0.00    -0.285 OA
ATOM      5  C   UNL     1      69.549  47.217   7.286  1.00  0.00     0.111 A 
ATOM      6  C   UNL     1      69.871  48.605   7.360  1.00  0.00     0.134 A 
ATOM      7  C   UNL     1      71.211  49.008   7.301  1.00  0.00     0.093 A 
ATOM      8  C   UNL     1      72.244  48.068   7.236  1.00  0.00     0.123 A 
ATOM      9  C   UNL     1      71.941  46.709   7.224  1.00  0.00     0.094 A 
ATOM     10  C   UNL     1      70.612  46.278   7.246  1.00  0.00     0.146 A 
ATOM     11  O   UNL     1      70.368  44.973   7.221  1.00  0.00    -0.452 OA
ENDROOT
BRANCH   1  12
ATOM     12  C   UNL     1      69.008  42.982   7.217  1.00  0.00     0.021 A 
ATOM     13  C   UNL     1      69.503  42.242   6.129  1.00  0.00     0.016 A 
ATOM     14  C   UNL     1      69.404  40.847   6.118  1.00  0.00     0.047 A 
ATOM     15  C   UNL     1      68.826  40.175   7.199  1.00  0.00     0.115 A 
ATOM     16  C   UNL     1      68.445  42.298   8.309  1.00  0.00     0.016 A 
ATOM     17  C   UNL     1      68.349  40.903   8.296  1.00  0.00     0.047 A 
BRANCH  15  18
ATOM     18  O   UNL     1      68.734  38.785   7.174  1.00  0.00    -0.508 OA
ATOM     19  H   UNL     1      67.860  38.315   6.964  1.00  0.00     0.293 HD
ENDBRANCH  15  18
ENDBRANCH   1  12
BRANCH   2  20
ATOM     20  O   UNL     1      66.740  44.780   7.085  1.00  0.00    -0.502 OA
ATOM     21  H   UNL     1      65.980  45.276   6.634  1.00  0.00     0.293 HD
ENDBRANCH   2  20
BRANCH   6  22
ATOM     22  O   UNL     1      68.922  49.619   7.519  1.00  0.00    -0.507 OA
ATOM     23  H   UNL     1      68.885  50.254   8.303  1.00  0.00     0.293 HD
ENDBRANCH   6  22
BRANCH   8  24
ATOM     24  O   UNL     1      73.574  48.476   7.193  1.00  0.00    -0.508 OA
ATOM     25  H   UNL     1      74.336  47.809   7.237  1.00  0.00     0.293 HD
ENDBRANCH   8  24
TORSDOF 5
ENDMDL
