MODEL 1
REMARK VINA RESULT:    -5.252      0.000      0.000
REMARK INTER + INTRA:         -10.486
REMARK INTER:                  -8.937
REMARK INTRA:                  -1.549
REMARK UNBOUND:                -1.549
REMARK SMILES CCCCCCCCCCCCCC(=O)[O-]
REMARK SMILES IDX 8 1 9 2 10 3 11 4 12 5 13 6 14 7 15 8 16 9 7 10 6 11 5 12
REMARK SMILES IDX 4 13 3 14 2 15 1 16
REMARK H PARENT
REMARK Flexibility Score: inf
ROOT
ATOM      1  C   UNL     1      14.475  -7.336  15.241  1.00  0.00     0.000 C 
ENDROOT
BRANCH   1   2
ATOM      2  C   UNL     1      15.387  -6.535  16.185  1.00  0.00     0.000 C 
BRANCH   2   3
ATOM      3  C   UNL     1      15.794  -5.167  15.608  1.00  0.00     0.000 C 
BRANCH   3   4
ATOM      4  C   UNL     1      15.419  -3.952  16.477  1.00  0.00     0.000 C 
BRANCH   4   5
ATOM      5  C   UNL     1      13.996  -3.437  16.205  1.00  0.00     0.006 C 
BRANCH   5   6
ATOM      6  C   UNL     1      13.705  -3.303  14.705  1.00  0.00     0.053 C 
BRANCH   6   7
ATOM      7  C   UNL     1      12.380  -2.651  14.450  1.00  0.00     0.041 C 
ATOM      8  O   UNL     1      12.323  -1.531  13.877  1.00  0.00    -0.550 OA
ATOM      9  O   UNL     1      11.210  -3.270  14.872  1.00  0.00    -0.550 OA
ENDBRANCH   6   7
ENDBRANCH   5   6
ENDBRANCH   4   5
ENDBRANCH   3   4
ENDBRANCH   2   3
ENDBRANCH   1   2
BRANCH   1  10
ATOM     10  C   UNL     1      14.812  -7.103  13.758  1.00  0.00     0.000 C 
BRANCH  10  11
ATOM     11  C   UNL     1      13.603  -6.594  12.953  1.00  0.00    -0.000 C 
BRANCH  11  12
ATOM     12  C   UNL     1      14.014  -5.914  11.636  1.00  0.00    -0.000 C 
BRANCH  12  13
ATOM     13  C   UNL     1      15.314  -5.102  11.769  1.00  0.00    -0.000 C 
BRANCH  13  14
ATOM     14  C   UNL     1      16.441  -5.643  10.874  1.00  0.00    -0.000 C 
BRANCH  14  15
ATOM     15  C   UNL     1      17.658  -6.127  11.679  1.00  0.00    -0.003 C 
ATOM     16  C   UNL     1      18.218  -5.008  12.551  1.00  0.00     0.004 C 
ENDBRANCH  14  15
ENDBRANCH  13  14
ENDBRANCH  12  13
ENDBRANCH  11  12
ENDBRANCH  10  11
ENDBRANCH   1  10
TORSDOF 12
ENDMDL
MODEL 2
REMARK VINA RESULT:    -5.211      2.819      5.155
REMARK INTER + INTRA:         -10.416
REMARK INTER:                  -8.817
REMARK INTRA:                  -1.599
REMARK UNBOUND:                -1.549
REMARK SMILES CCCCCCCCCCCCCC(=O)[O-]
REMARK SMILES IDX 8 1 9 2 10 3 11 4 12 5 13 6 14 7 15 8 16 9 7 10 6 11 5 12
REMARK SMILES IDX 4 13 3 14 2 15 1 16
REMARK H PARENT
REMARK Flexibility Score: inf
ROOT
ATOM      1  C   UNL     1      15.644  -6.632  16.012  1.00  0.00     0.000 C 
ENDROOT
BRANCH   1   2
ATOM      2  C   UNL     1      14.779  -7.148  14.850  1.00  0.00     0.000 C 
BRANCH   2   3
ATOM      3  C   UNL     1      14.675  -6.144  13.687  1.00  0.00     0.000 C 
BRANCH   3   4
ATOM      4  C   UNL     1      13.655  -6.512  12.594  1.00  0.00     0.000 C 
BRANCH   4   5
ATOM      5  C   UNL     1      12.802  -5.315  12.142  1.00  0.00     0.006 C 
BRANCH   5   6
ATOM      6  C   UNL     1      13.506  -4.475  11.069  1.00  0.00     0.053 C 
BRANCH   6   7
ATOM      7  C   UNL     1      13.985  -5.318   9.926  1.00  0.00     0.041 C 
ATOM      8  O   UNL     1      15.216  -5.419   9.684  1.00  0.00    -0.550 OA
ATOM      9  O   UNL     1      13.067  -5.971   9.113  1.00  0.00    -0.550 OA
ENDBRANCH   6   7
ENDBRANCH   5   6
ENDBRANCH   4   5
ENDBRANCH   3   4
ENDBRANCH   2   3
ENDBRANCH   1   2
BRANCH   1  10
ATOM     10  C   UNL     1      16.733  -5.650  15.545  1.00  0.00     0.000 C 
BRANCH  10  11
ATOM     11  C   UNL     1      16.902  -4.459  16.506  1.00  0.00    -0.000 C 
BRANCH  11  12
ATOM     12  C   UNL     1      15.941  -3.301  16.187  1.00  0.00    -0.000 C 
BRANCH  12  13
ATOM     13  C   UNL     1      14.770  -3.213  17.180  1.00  0.00    -0.000 C 
BRANCH  13  14
ATOM     14  C   UNL     1      13.441  -3.687  16.568  1.00  0.00    -0.000 C 
BRANCH  14  15
ATOM     15  C   UNL     1      13.216  -3.143  15.148  1.00  0.00    -0.003 C 
ATOM     16  C   UNL     1      11.728  -3.073  14.817  1.00  0.00     0.004 C 
ENDBRANCH  14  15
ENDBRANCH  13  14
ENDBRANCH  12  13
ENDBRANCH  11  12
ENDBRANCH  10  11
ENDBRANCH   1  10
TORSDOF 12
ENDMDL
MODEL 3
REMARK VINA RESULT:    -5.160      2.660      5.105
REMARK INTER + INTRA:         -10.328
REMARK INTER:                  -8.899
REMARK INTRA:                  -1.429
REMARK UNBOUND:                -1.549
REMARK SMILES CCCCCCCCCCCCCC(=O)[O-]
REMARK SMILES IDX 8 1 9 2 10 3 11 4 12 5 13 6 14 7 15 8 16 9 7 10 6 11 5 12
REMARK SMILES IDX 4 13 3 14 2 15 1 16
REMARK H PARENT
REMARK Flexibility Score: inf
ROOT
ATOM      1  C   UNL     1      15.183  -6.895  15.885  1.00  0.00     0.000 C 
ENDROOT
BRANCH   1   2
ATOM      2  C   UNL     1      15.362  -7.915  14.748  1.00  0.00     0.000 C 
BRANCH   2   3
ATOM      3  C   UNL     1      15.190  -7.291  13.351  1.00  0.00     0.000 C 
BRANCH   3   4
ATOM      4  C   UNL     1      13.777  -6.763  13.039  1.00  0.00     0.000 C 
BRANCH   4   5
ATOM      5  C   UNL     1      13.758  -5.264  12.698  1.00  0.00     0.006 C 
BRANCH   5   6
ATOM      6  C   UNL     1      14.903  -4.870  11.755  1.00  0.00     0.053 C 
BRANCH   6   7
ATOM      7  C   UNL     1      14.584  -5.194  10.327  1.00  0.00     0.041 C 
ATOM      8  O   UNL     1      15.508  -5.464   9.515  1.00  0.00    -0.550 OA
ATOM      9  O   UNL     1      13.266  -5.169   9.887  1.00  0.00    -0.550 OA
ENDBRANCH   6   7
ENDBRANCH   5   6
ENDBRANCH   4   5
ENDBRANCH   3   4
ENDBRANCH   2   3
ENDBRANCH   1   2
BRANCH   1  10
ATOM     10  C   UNL     1      16.417  -5.996  16.071  1.00  0.00     0.000 C 
BRANCH  10  11
ATOM     11  C   UNL     1      16.141  -4.531  15.686  1.00  0.00    -0.000 C 
BRANCH  11  12
ATOM     12  C   UNL     1      14.769  -4.039  16.177  1.00  0.00    -0.000 C 
BRANCH  12  13
ATOM     13  C   UNL     1      14.881  -3.006  17.311  1.00  0.00    -0.000 C 
BRANCH  13  14
ATOM     14  C   UNL     1      16.321  -2.507  17.513  1.00  0.00    -0.000 C 
BRANCH  14  15
ATOM     15  C   UNL     1      16.918  -2.948  18.859  1.00  0.00    -0.003 C 
ATOM     16  C   UNL     1      18.430  -3.119  18.759  1.00  0.00     0.004 C 
ENDBRANCH  14  15
ENDBRANCH  13  14
ENDBRANCH  12  13
ENDBRANCH  11  12
ENDBRANCH  10  11
ENDBRANCH   1  10
TORSDOF 12
ENDMDL
MODEL 4
REMARK VINA RESULT:    -5.114      3.084      4.493
REMARK INTER + INTRA:         -10.250
REMARK INTER:                  -8.205
REMARK INTRA:                  -2.046
REMARK UNBOUND:                -1.549
REMARK SMILES CCCCCCCCCCCCCC(=O)[O-]
REMARK SMILES IDX 8 1 9 2 10 3 11 4 12 5 13 6 14 7 15 8 16 9 7 10 6 11 5 12
REMARK SMILES IDX 4 13 3 14 2 15 1 16
REMARK H PARENT
REMARK Flexibility Score: inf
ROOT
ATOM      1  C   UNL     1      12.968  -2.895  14.462  1.00  0.00     0.000 C 
ENDROOT
BRANCH   1   2
ATOM      2  C   UNL     1      13.147  -3.397  15.905  1.00  0.00     0.000 C 
BRANCH   2   3
ATOM      3  C   UNL     1      14.625  -3.556  16.305  1.00  0.00     0.000 C 
BRANCH   3   4
ATOM      4  C   UNL     1      15.638  -3.349  15.164  1.00  0.00     0.000 C 
BRANCH   4   5
ATOM      5  C   UNL     1      17.052  -3.835  15.522  1.00  0.00     0.006 C 
BRANCH   5   6
ATOM      6  C   UNL     1      17.165  -4.257  16.993  1.00  0.00     0.053 C 
BRANCH   6   7
ATOM      7  C   UNL     1      17.998  -3.295  17.785  1.00  0.00     0.041 C 
ATOM      8  O   UNL     1      19.129  -2.938  17.364  1.00  0.00    -0.550 OA
ATOM      9  O   UNL     1      17.535  -2.816  19.004  1.00  0.00    -0.550 OA
ENDBRANCH   6   7
ENDBRANCH   5   6
ENDBRANCH   4   5
ENDBRANCH   3   4
ENDBRANCH   2   3
ENDBRANCH   1   2
BRANCH   1  10
ATOM     10  C   UNL     1      11.770  -3.551  13.754  1.00  0.00     0.000 C 
BRANCH  10  11
ATOM     11  C   UNL     1      12.204  -4.553  12.669  1.00  0.00    -0.000 C 
BRANCH  11  12
ATOM     12  C   UNL     1      13.670  -4.365  12.244  1.00  0.00    -0.000 C 
BRANCH  12  13
ATOM     13  C   UNL     1      14.518  -5.628  12.471  1.00  0.00    -0.000 C 
BRANCH  13  14
ATOM     14  C   UNL     1      14.038  -6.453  13.676  1.00  0.00    -0.000 C 
BRANCH  14  15
ATOM     15  C   UNL     1      15.199  -7.013  14.512  1.00  0.00    -0.003 C 
ATOM     16  C   UNL     1      14.772  -7.244  15.958  1.00  0.00     0.004 C 
ENDBRANCH  14  15
ENDBRANCH  13  14
ENDBRANCH  12  13
ENDBRANCH  11  12
ENDBRANCH  10  11
ENDBRANCH   1  10
TORSDOF 12
ENDMDL
MODEL 5
REMARK VINA RESULT:    -5.106      2.813      3.921
REMARK INTER + INTRA:         -10.237
REMARK INTER:                  -8.671
REMARK INTRA:                  -1.566
REMARK UNBOUND:                -1.549
REMARK SMILES CCCCCCCCCCCCCC(=O)[O-]
REMARK SMILES IDX 8 1 9 2 10 3 11 4 12 5 13 6 14 7 15 8 16 9 7 10 6 11 5 12
REMARK SMILES IDX 4 13 3 14 2 15 1 16
REMARK H PARENT
REMARK Flexibility Score: inf
ROOT
ATOM      1  C   UNL     1      13.664  -3.803  13.117  1.00  0.00     0.000 C 
ENDROOT
BRANCH   1   2
ATOM      2  C   UNL     1      13.281  -2.876  14.283  1.00  0.00     0.000 C 
BRANCH   2   3
ATOM      3  C   UNL     1      13.060  -3.634  15.605  1.00  0.00     0.000 C 
BRANCH   3   4
ATOM      4  C   UNL     1      14.159  -3.436  16.665  1.00  0.00     0.000 C 
BRANCH   4   5
ATOM      5  C   UNL     1      15.566  -3.315  16.055  1.00  0.00     0.006 C 
BRANCH   5   6
ATOM      6  C   UNL     1      16.577  -4.240  16.743  1.00  0.00     0.053 C 
BRANCH   6   7
ATOM      7  C   UNL     1      17.583  -3.470  17.543  1.00  0.00     0.041 C 
ATOM      8  O   UNL     1      18.725  -3.232  17.068  1.00  0.00    -0.550 OA
ATOM      9  O   UNL     1      17.267  -3.037  18.825  1.00  0.00    -0.550 OA
ENDBRANCH   6   7
ENDBRANCH   5   6
ENDBRANCH   4   5
ENDBRANCH   3   4
ENDBRANCH   2   3
ENDBRANCH   1   2
BRANCH   1  10
ATOM     10  C   UNL     1      12.698  -4.990  12.967  1.00  0.00     0.000 C 
BRANCH  10  11
ATOM     11  C   UNL     1      13.435  -6.336  12.840  1.00  0.00    -0.000 C 
BRANCH  11  12
ATOM     12  C   UNL     1      14.475  -6.549  13.953  1.00  0.00    -0.000 C 
BRANCH  12  13
ATOM     13  C   UNL     1      15.855  -6.949  13.406  1.00  0.00    -0.000 C 
BRANCH  13  14
ATOM     14  C   UNL     1      16.645  -5.748  12.862  1.00  0.00    -0.000 C 
BRANCH  14  15
ATOM     15  C   UNL     1      17.179  -5.984  11.440  1.00  0.00    -0.003 C 
ATOM     16  C   UNL     1      16.148  -5.578  10.392  1.00  0.00     0.004 C 
ENDBRANCH  14  15
ENDBRANCH  13  14
ENDBRANCH  12  13
ENDBRANCH  11  12
ENDBRANCH  10  11
ENDBRANCH   1  10
TORSDOF 12
ENDMDL
MODEL 6
REMARK VINA RESULT:    -5.105      2.781      5.388
REMARK INTER + INTRA:         -10.236
REMARK INTER:                  -8.584
REMARK INTRA:                  -1.652
REMARK UNBOUND:                -1.549
REMARK SMILES CCCCCCCCCCCCCC(=O)[O-]
REMARK SMILES IDX 8 1 9 2 10 3 11 4 12 5 13 6 14 7 15 8 16 9 7 10 6 11 5 12
REMARK SMILES IDX 4 13 3 14 2 15 1 16
REMARK H PARENT
REMARK Flexibility Score: inf
ROOT
ATOM      1  C   UNL     1      18.673  -5.071  12.726  1.00  0.00     0.000 C 
ENDROOT
BRANCH   1   2
ATOM      2  C   UNL     1      17.579  -5.641  11.807  1.00  0.00     0.000 C 
BRANCH   2   3
ATOM      3  C   UNL     1      16.511  -6.443  12.573  1.00  0.00     0.000 C 
BRANCH   3   4
ATOM      4  C   UNL     1      15.330  -5.612  13.111  1.00  0.00     0.000 C 
BRANCH   4   5
ATOM      5  C   UNL     1      14.775  -4.620  12.076  1.00  0.00     0.006 C 
BRANCH   5   6
ATOM      6  C   UNL     1      13.643  -5.228  11.239  1.00  0.00     0.053 C 
BRANCH   6   7
ATOM      7  C   UNL     1      14.051  -5.425   9.810  1.00  0.00     0.041 C 
ATOM      8  O   UNL     1      15.184  -5.044   9.415  1.00  0.00    -0.550 OA
ATOM      9  O   UNL     1      13.167  -6.006   8.909  1.00  0.00    -0.550 OA
ENDBRANCH   6   7
ENDBRANCH   5   6
ENDBRANCH   4   5
ENDBRANCH   3   4
ENDBRANCH   2   3
ENDBRANCH   1   2
BRANCH   1  10
ATOM     10  C   UNL     1      18.415  -3.603  13.109  1.00  0.00     0.000 C 
BRANCH  10  11
ATOM     11  C   UNL     1      18.490  -3.369  14.628  1.00  0.00    -0.000 C 
BRANCH  11  12
ATOM     12  C   UNL     1      18.293  -4.663  15.436  1.00  0.00    -0.000 C 
BRANCH  12  13
ATOM     13  C   UNL     1      16.971  -4.675  16.221  1.00  0.00    -0.000 C 
BRANCH  13  14
ATOM     14  C   UNL     1      16.188  -3.360  16.077  1.00  0.00    -0.000 C 
BRANCH  14  15
ATOM     15  C   UNL     1      14.943  -3.309  16.978  1.00  0.00    -0.003 C 
ATOM     16  C   UNL     1      13.687  -3.687  16.199  1.00  0.00     0.004 C 
ENDBRANCH  14  15
ENDBRANCH  13  14
ENDBRANCH  12  13
ENDBRANCH  11  12
ENDBRANCH  10  11
ENDBRANCH   1  10
TORSDOF 12
ENDMDL
MODEL 7
REMARK VINA RESULT:    -5.086      2.642      5.257
REMARK INTER + INTRA:         -10.203
REMARK INTER:                  -8.646
REMARK INTRA:                  -1.558
REMARK UNBOUND:                -1.549
REMARK SMILES CCCCCCCCCCCCCC(=O)[O-]
REMARK SMILES IDX 8 1 9 2 10 3 11 4 12 5 13 6 14 7 15 8 16 9 7 10 6 11 5 12
REMARK SMILES IDX 4 13 3 14 2 15 1 16
REMARK H PARENT
REMARK Flexibility Score: inf
ROOT
ATOM      1  C   UNL     1      14.129  -6.158  12.121  1.00  0.00     0.000 C 
ENDROOT
BRANCH   1   2
ATOM      2  C   UNL     1      15.278  -5.150  11.951  1.00  0.00     0.000 C 
BRANCH   2   3
ATOM      3  C   UNL     1      16.364  -5.638  10.974  1.00  0.00     0.000 C 
BRANCH   3   4
ATOM      4  C   UNL     1      17.705  -6.023  11.626  1.00  0.00     0.000 C 
BRANCH   4   5
ATOM      5  C   UNL     1      18.012  -5.208  12.893  1.00  0.00     0.006 C 
BRANCH   5   6
ATOM      6  C   UNL     1      19.088  -4.141  12.650  1.00  0.00     0.053 C 
BRANCH   6   7
ATOM      7  C   UNL     1      18.882  -2.936  13.516  1.00  0.00     0.041 C 
ATOM      8  O   UNL     1      18.530  -1.840  13.006  1.00  0.00    -0.550 OA
ATOM      9  O   UNL     1      19.107  -3.017  14.884  1.00  0.00    -0.550 OA
ENDBRANCH   6   7
ENDBRANCH   5   6
ENDBRANCH   4   5
ENDBRANCH   3   4
ENDBRANCH   2   3
ENDBRANCH   1   2
BRANCH   1  10
ATOM     10  C   UNL     1      13.896  -6.543  13.592  1.00  0.00     0.000 C 
BRANCH  10  11
ATOM     11  C   UNL     1      15.146  -7.159  14.244  1.00  0.00    -0.000 C 
BRANCH  11  12
ATOM     12  C   UNL     1      15.245  -6.846  15.747  1.00  0.00    -0.000 C 
BRANCH  12  13
ATOM     13  C   UNL     1      16.275  -5.746  16.055  1.00  0.00    -0.000 C 
BRANCH  13  14
ATOM     14  C   UNL     1      15.796  -4.351  15.623  1.00  0.00    -0.000 C 
BRANCH  14  15
ATOM     15  C   UNL     1      14.983  -3.638  16.715  1.00  0.00    -0.003 C 
ATOM     16  C   UNL     1      13.493  -3.654  16.388  1.00  0.00     0.004 C 
ENDBRANCH  14  15
ENDBRANCH  13  14
ENDBRANCH  12  13
ENDBRANCH  11  12
ENDBRANCH  10  11
ENDBRANCH   1  10
TORSDOF 12
ENDMDL
MODEL 8
REMARK VINA RESULT:    -5.046      1.234      2.505
REMARK INTER + INTRA:         -10.135
REMARK INTER:                  -8.553
REMARK INTRA:                  -1.582
REMARK UNBOUND:                -1.549
REMARK SMILES CCCCCCCCCCCCCC(=O)[O-]
REMARK SMILES IDX 8 1 9 2 10 3 11 4 12 5 13 6 14 7 15 8 16 9 7 10 6 11 5 12
REMARK SMILES IDX 4 13 3 14 2 15 1 16
REMARK H PARENT
REMARK Flexibility Score: inf
ROOT
ATOM      1  C   UNL     1      17.582  -4.876  15.801  1.00  0.00     0.000 C 
ENDROOT
BRANCH   1   2
ATOM      2  C   UNL     1      17.408  -3.775  16.861  1.00  0.00     0.000 C 
BRANCH   2   3
ATOM      3  C   UNL     1      16.242  -2.819  16.547  1.00  0.00     0.000 C 
BRANCH   3   4
ATOM      4  C   UNL     1      14.976  -3.030  17.399  1.00  0.00     0.000 C 
BRANCH   4   5
ATOM      5  C   UNL     1      13.745  -3.409  16.559  1.00  0.00     0.006 C 
BRANCH   5   6
ATOM      6  C   UNL     1      14.037  -3.375  15.054  1.00  0.00     0.053 C 
BRANCH   6   7
ATOM      7  C   UNL     1      12.791  -3.159  14.250  1.00  0.00     0.041 C 
ATOM      8  O   UNL     1      11.667  -3.129  14.816  1.00  0.00    -0.550 OA
ATOM      9  O   UNL     1      12.871  -3.018  12.870  1.00  0.00    -0.550 OA
ENDBRANCH   6   7
ENDBRANCH   5   6
ENDBRANCH   4   5
ENDBRANCH   3   4
ENDBRANCH   2   3
ENDBRANCH   1   2
BRANCH   1  10
ATOM     10  C   UNL     1      17.003  -6.227  16.255  1.00  0.00     0.000 C 
BRANCH  10  11
ATOM     11  C   UNL     1      15.615  -6.505  15.651  1.00  0.00    -0.000 C 
BRANCH  11  12
ATOM     12  C   UNL     1      15.618  -7.707  14.691  1.00  0.00    -0.000 C 
BRANCH  12  13
ATOM     13  C   UNL     1      15.140  -7.335  13.277  1.00  0.00    -0.000 C 
BRANCH  13  14
ATOM     14  C   UNL     1      15.591  -5.928  12.852  1.00  0.00    -0.000 C 
BRANCH  14  15
ATOM     15  C   UNL     1      16.564  -5.951  11.663  1.00  0.00    -0.003 C 
ATOM     16  C   UNL     1      17.987  -5.633  12.113  1.00  0.00     0.004 C 
ENDBRANCH  14  15
ENDBRANCH  13  14
ENDBRANCH  12  13
ENDBRANCH  11  12
ENDBRANCH  10  11
ENDBRANCH   1  10
TORSDOF 12
ENDMDL
MODEL 9
REMARK VINA RESULT:    -4.993      3.173      5.382
REMARK INTER + INTRA:         -10.045
REMARK INTER:                  -8.276
REMARK INTRA:                  -1.769
REMARK UNBOUND:                -1.549
REMARK SMILES CCCCCCCCCCCCCC(=O)[O-]
REMARK SMILES IDX 8 1 9 2 10 3 11 4 12 5 13 6 14 7 15 8 16 9 7 10 6 11 5 12
REMARK SMILES IDX 4 13 3 14 2 15 1 16
REMARK H PARENT
REMARK Flexibility Score: inf
ROOT
ATOM      1  C   UNL     1      17.581  -3.665  17.340  1.00  0.00     0.000 C 
ENDROOT
BRANCH   1   2
ATOM      2  C   UNL     1      18.936  -3.005  17.037  1.00  0.00     0.000 C 
BRANCH   2   3
ATOM      3  C   UNL     1      19.440  -3.297  15.611  1.00  0.00     0.000 C 
BRANCH   3   4
ATOM      4  C   UNL     1      18.665  -4.392  14.855  1.00  0.00     0.000 C 
BRANCH   4   5
ATOM      5  C   UNL     1      18.432  -4.048  13.374  1.00  0.00     0.006 C 
BRANCH   5   6
ATOM      6  C   UNL     1      17.095  -4.592  12.856  1.00  0.00     0.053 C 
BRANCH   6   7
ATOM      7  C   UNL     1      17.288  -5.573  11.739  1.00  0.00     0.041 C 
ATOM      8  O   UNL     1      18.274  -6.356  11.746  1.00  0.00    -0.550 OA
ATOM      9  O   UNL     1      16.392  -5.602  10.678  1.00  0.00    -0.550 OA
ENDBRANCH   6   7
ENDBRANCH   5   6
ENDBRANCH   4   5
ENDBRANCH   3   4
ENDBRANCH   2   3
ENDBRANCH   1   2
BRANCH   1  10
ATOM     10  C   UNL     1      16.508  -2.644  17.756  1.00  0.00     0.000 C 
BRANCH  10  11
ATOM     11  C   UNL     1      15.112  -3.006  17.220  1.00  0.00    -0.000 C 
BRANCH  11  12
ATOM     12  C   UNL     1      15.136  -3.423  15.739  1.00  0.00    -0.000 C 
BRANCH  12  13
ATOM     13  C   UNL     1      14.144  -4.555  15.426  1.00  0.00    -0.000 C 
BRANCH  13  14
ATOM     14  C   UNL     1      14.448  -5.840  16.213  1.00  0.00    -0.000 C 
BRANCH  14  15
ATOM     15  C   UNL     1      15.788  -6.478  15.812  1.00  0.00    -0.003 C 
ATOM     16  C   UNL     1      15.599  -7.489  14.686  1.00  0.00     0.004 C 
ENDBRANCH  14  15
ENDBRANCH  13  14
ENDBRANCH  12  13
ENDBRANCH  11  12
ENDBRANCH  10  11
ENDBRANCH   1  10
TORSDOF 12
ENDMDL
