MODEL 1
REMARK VINA RESULT:    -3.996      0.000      0.000
REMARK INTER + INTRA:          -6.812
REMARK INTER:                  -6.098
REMARK INTRA:                  -0.714
REMARK UNBOUND:                -0.714
REMARK SMILES O=C([O-])CCCCCCCCC(=O)[O-]
REMARK SMILES IDX 7 1 6 2 5 3 4 4 2 5 1 6 3 7 8 8 9 9 10 10 11 11 12 12 13 13
REMARK SMILES IDX 14 14
REMARK H PARENT
REMARK Flexibility Score: inf
ROOT
ATOM      1  C   UNL     1      -5.255   3.050  -8.905  1.00  0.00     0.000 C 
ENDROOT
BRANCH   1   2
ATOM      2  C   UNL     1      -5.316   4.120 -10.004  1.00  0.00     0.000 C 
BRANCH   2   3
ATOM      3  C   UNL     1      -4.925   5.496  -9.452  1.00  0.00     0.006 C 
BRANCH   3   4
ATOM      4  C   UNL     1      -5.811   5.885  -8.265  1.00  0.00     0.053 C 
BRANCH   4   5
ATOM      5  C   UNL     1      -5.960   7.371  -8.186  1.00  0.00     0.041 C 
ATOM      6  O   UNL     1      -7.103   7.889  -8.084  1.00  0.00    -0.550 OA
ATOM      7  O   UNL     1      -4.839   8.188  -8.275  1.00  0.00    -0.550 OA
ENDBRANCH   4   5
ENDBRANCH   3   4
ENDBRANCH   2   3
ENDBRANCH   1   2
BRANCH   1   8
ATOM      8  C   UNL     1      -6.378   2.008  -9.029  1.00  0.00     0.000 C 
BRANCH   8   9
ATOM      9  C   UNL     1      -7.658   2.587  -9.651  1.00  0.00     0.000 C 
BRANCH   9  10
ATOM     10  C   UNL     1      -8.846   2.447  -8.692  1.00  0.00     0.006 C 
BRANCH  10  11
ATOM     11  C   UNL     1      -8.816   3.538  -7.617  1.00  0.00     0.053 C 
BRANCH  11  12
ATOM     12  C   UNL     1      -9.232   2.980  -6.294  1.00  0.00     0.041 C 
ATOM     13  O   UNL     1      -9.824   1.870  -6.230  1.00  0.00    -0.550 OA
ATOM     14  O   UNL     1      -9.010   3.708  -5.131  1.00  0.00    -0.550 OA
ENDBRANCH  11  12
ENDBRANCH  10  11
ENDBRANCH   9  10
ENDBRANCH   8   9
ENDBRANCH   1   8
TORSDOF 9
ENDMDL
MODEL 2
REMARK VINA RESULT:    -3.978      0.342      4.938
REMARK INTER + INTRA:          -6.785
REMARK INTER:                  -6.010
REMARK INTRA:                  -0.776
REMARK UNBOUND:                -0.714
REMARK SMILES O=C([O-])CCCCCCCCC(=O)[O-]
REMARK SMILES IDX 7 1 6 2 5 3 4 4 2 5 1 6 3 7 8 8 9 9 10 10 11 11 12 12 13 13
REMARK SMILES IDX 14 14
REMARK H PARENT
REMARK Flexibility Score: inf
ROOT
ATOM      1  C   UNL     1      -6.527   1.981  -8.873  1.00  0.00     0.000 C 
ENDROOT
BRANCH   1   2
ATOM      2  C   UNL     1      -7.761   2.508  -9.620  1.00  0.00     0.000 C 
BRANCH   2   3
ATOM      3  C   UNL     1      -8.943   2.699  -8.661  1.00  0.00     0.006 C 
BRANCH   3   4
ATOM      4  C   UNL     1      -8.574   3.647  -7.516  1.00  0.00     0.053 C 
BRANCH   4   5
ATOM      5  C   UNL     1      -9.233   3.215  -6.245  1.00  0.00     0.041 C 
ATOM      6  O   UNL     1      -9.307   4.007  -5.269  1.00  0.00    -0.550 OA
ATOM      7  O   UNL     1      -9.721   1.920  -6.120  1.00  0.00    -0.550 OA
ENDBRANCH   4   5
ENDBRANCH   3   4
ENDBRANCH   2   3
ENDBRANCH   1   2
BRANCH   1   8
ATOM      8  C   UNL     1      -5.313   2.914  -9.003  1.00  0.00     0.000 C 
BRANCH   8   9
ATOM      9  C   UNL     1      -5.498   3.980 -10.094  1.00  0.00     0.000 C 
BRANCH   9  10
ATOM     10  C   UNL     1      -4.915   5.327  -9.649  1.00  0.00     0.006 C 
BRANCH  10  11
ATOM     11  C   UNL     1      -5.390   5.692  -8.240  1.00  0.00     0.053 C 
BRANCH  11  12
ATOM     12  C   UNL     1      -5.989   7.063  -8.228  1.00  0.00     0.041 C 
ATOM     13  O   UNL     1      -7.234   7.212  -8.340  1.00  0.00    -0.550 OA
ATOM     14  O   UNL     1      -5.166   8.180  -8.142  1.00  0.00    -0.550 OA
ENDBRANCH  11  12
ENDBRANCH  10  11
ENDBRANCH   9  10
ENDBRANCH   8   9
ENDBRANCH   1   8
TORSDOF 9
ENDMDL
MODEL 3
REMARK VINA RESULT:    -3.925     21.199     22.661
REMARK INTER + INTRA:          -6.705
REMARK INTER:                  -6.211
REMARK INTRA:                  -0.494
REMARK UNBOUND:                -0.714
REMARK SMILES O=C([O-])CCCCCCCCC(=O)[O-]
REMARK SMILES IDX 7 1 6 2 5 3 4 4 2 5 1 6 3 7 8 8 9 9 10 10 11 11 12 12 13 13
REMARK SMILES IDX 14 14
REMARK H PARENT
REMARK Flexibility Score: inf
ROOT
ATOM      1  C   UNL     1       6.194  -7.729   7.146  1.00  0.00     0.000 C 
ENDROOT
BRANCH   1   2
ATOM      2  C   UNL     1       5.297  -8.141   8.322  1.00  0.00     0.000 C 
BRANCH   2   3
ATOM      3  C   UNL     1       3.861  -8.402   7.852  1.00  0.00     0.006 C 
BRANCH   3   4
ATOM      4  C   UNL     1       2.950  -8.752   9.033  1.00  0.00     0.053 C 
BRANCH   4   5
ATOM      5  C   UNL     1       1.945  -7.668   9.259  1.00  0.00     0.041 C 
ATOM      6  O   UNL     1       2.246  -6.467   9.030  1.00  0.00    -0.550 OA
ATOM      7  O   UNL     1       0.691  -7.978   9.772  1.00  0.00    -0.550 OA
ENDBRANCH   4   5
ENDBRANCH   3   4
ENDBRANCH   2   3
ENDBRANCH   1   2
BRANCH   1   8
ATOM      8  C   UNL     1       6.082  -8.689   5.950  1.00  0.00     0.000 C 
BRANCH   8   9
ATOM      9  C   UNL     1       6.673  -8.100   4.660  1.00  0.00     0.000 C 
BRANCH   9  10
ATOM     10  C   UNL     1       5.730  -8.327   3.473  1.00  0.00     0.006 C 
BRANCH  10  11
ATOM     11  C   UNL     1       4.762  -9.481   3.752  1.00  0.00     0.053 C 
BRANCH  11  12
ATOM     12  C   UNL     1       3.670  -9.507   2.730  1.00  0.00     0.041 C 
ATOM     13  O   UNL     1       2.996 -10.555   2.548  1.00  0.00    -0.550 OA
ATOM     14  O   UNL     1       3.428  -8.387   1.942  1.00  0.00    -0.550 OA
ENDBRANCH  11  12
ENDBRANCH  10  11
ENDBRANCH   9  10
ENDBRANCH   8   9
ENDBRANCH   1   8
TORSDOF 9
ENDMDL
MODEL 4
REMARK VINA RESULT:    -3.921     22.190     23.312
REMARK INTER + INTRA:          -6.698
REMARK INTER:                  -6.032
REMARK INTRA:                  -0.666
REMARK UNBOUND:                -0.714
REMARK SMILES O=C([O-])CCCCCCCCC(=O)[O-]
REMARK SMILES IDX 7 1 6 2 5 3 4 4 2 5 1 6 3 7 8 8 9 9 10 10 11 11 12 12 13 13
REMARK SMILES IDX 14 14
REMARK H PARENT
REMARK Flexibility Score: inf
ROOT
ATOM      1  C   UNL     1       6.902  -8.417   6.008  1.00  0.00     0.000 C 
ENDROOT
BRANCH   1   2
ATOM      2  C   UNL     1       8.109  -8.541   6.949  1.00  0.00     0.000 C 
BRANCH   2   3
ATOM      3  C   UNL     1       7.825  -7.871   8.299  1.00  0.00     0.006 C 
BRANCH   3   4
ATOM      4  C   UNL     1       8.450  -6.475   8.362  1.00  0.00     0.053 C 
BRANCH   4   5
ATOM      5  C   UNL     1       7.398  -5.439   8.597  1.00  0.00     0.041 C 
ATOM      6  O   UNL     1       6.314  -5.752   9.155  1.00  0.00    -0.550 OA
ATOM      7  O   UNL     1       7.593  -4.136   8.153  1.00  0.00    -0.550 OA
ENDBRANCH   4   5
ENDBRANCH   3   4
ENDBRANCH   2   3
ENDBRANCH   1   2
BRANCH   1   8
ATOM      8  C   UNL     1       5.570  -8.299   6.766  1.00  0.00     0.000 C 
BRANCH   8   9
ATOM      9  C   UNL     1       4.568  -9.397   6.377  1.00  0.00     0.000 C 
BRANCH   9  10
ATOM     10  C   UNL     1       5.112 -10.252   5.226  1.00  0.00     0.006 C 
BRANCH  10  11
ATOM     11  C   UNL     1       4.072 -10.398   4.111  1.00  0.00     0.053 C 
BRANCH  11  12
ATOM     12  C   UNL     1       4.362  -9.444   2.996  1.00  0.00     0.041 C 
ATOM     13  O   UNL     1       5.445  -8.800   2.978  1.00  0.00    -0.550 OA
ATOM     14  O   UNL     1       3.416  -9.229   2.001  1.00  0.00    -0.550 OA
ENDBRANCH  11  12
ENDBRANCH  10  11
ENDBRANCH   9  10
ENDBRANCH   8   9
ENDBRANCH   1   8
TORSDOF 9
ENDMDL
MODEL 5
REMARK VINA RESULT:    -3.906     22.014     23.448
REMARK INTER + INTRA:          -6.676
REMARK INTER:                  -6.167
REMARK INTRA:                  -0.509
REMARK UNBOUND:                -0.714
REMARK SMILES O=C([O-])CCCCCCCCC(=O)[O-]
REMARK SMILES IDX 7 1 6 2 5 3 4 4 2 5 1 6 3 7 8 8 9 9 10 10 11 11 12 12 13 13
REMARK SMILES IDX 14 14
REMARK H PARENT
REMARK Flexibility Score: inf
ROOT
ATOM      1  C   UNL     1       6.099  -8.434   5.637  1.00  0.00     0.000 C 
ENDROOT
BRANCH   1   2
ATOM      2  C   UNL     1       5.188  -9.620   5.987  1.00  0.00     0.000 C 
BRANCH   2   3
ATOM      3  C   UNL     1       4.585 -10.242   4.722  1.00  0.00     0.006 C 
BRANCH   3   4
ATOM      4  C   UNL     1       4.836  -9.354   3.499  1.00  0.00     0.053 C 
BRANCH   4   5
ATOM      5  C   UNL     1       3.658  -9.384   2.579  1.00  0.00     0.041 C 
ATOM      6  O   UNL     1       3.362  -8.369   1.895  1.00  0.00    -0.550 OA
ATOM      7  O   UNL     1       2.856 -10.517   2.513  1.00  0.00    -0.550 OA
ENDBRANCH   4   5
ENDBRANCH   3   4
ENDBRANCH   2   3
ENDBRANCH   1   2
BRANCH   1   8
ATOM      8  C   UNL     1       7.522  -8.594   6.195  1.00  0.00     0.000 C 
BRANCH   8   9
ATOM      9  C   UNL     1       7.541  -9.222   7.597  1.00  0.00     0.000 C 
BRANCH   9  10
ATOM     10  C   UNL     1       7.617  -8.140   8.681  1.00  0.00     0.006 C 
BRANCH  10  11
ATOM     11  C   UNL     1       8.103  -6.810   8.097  1.00  0.00     0.053 C 
BRANCH  11  12
ATOM     12  C   UNL     1       7.189  -5.696   8.499  1.00  0.00     0.041 C 
ATOM     13  O   UNL     1       6.119  -5.945   9.115  1.00  0.00    -0.550 OA
ATOM     14  O   UNL     1       7.495  -4.386   8.151  1.00  0.00    -0.550 OA
ENDBRANCH  11  12
ENDBRANCH  10  11
ENDBRANCH   9  10
ENDBRANCH   8   9
ENDBRANCH   1   8
TORSDOF 9
ENDMDL
MODEL 6
REMARK VINA RESULT:    -3.834     10.877     13.651
REMARK INTER + INTRA:          -6.566
REMARK INTER:                  -6.089
REMARK INTRA:                  -0.477
REMARK UNBOUND:                -0.714
REMARK SMILES O=C([O-])CCCCCCCCC(=O)[O-]
REMARK SMILES IDX 7 1 6 2 5 3 4 4 2 5 1 6 3 7 8 8 9 9 10 10 11 11 12 12 13 13
REMARK SMILES IDX 14 14
REMARK H PARENT
REMARK Flexibility Score: inf
ROOT
ATOM      1  C   UNL     1      -4.371  -9.620  -5.375  1.00  0.00     0.000 C 
ENDROOT
BRANCH   1   2
ATOM      2  C   UNL     1      -5.801 -10.038  -5.004  1.00  0.00     0.000 C 
BRANCH   2   3
ATOM      3  C   UNL     1      -6.280  -9.298  -3.749  1.00  0.00     0.006 C 
BRANCH   3   4
ATOM      4  C   UNL     1      -7.397 -10.075  -3.045  1.00  0.00     0.053 C 
BRANCH   4   5
ATOM      5  C   UNL     1      -8.699  -9.348  -3.167  1.00  0.00     0.041 C 
ATOM      6  O   UNL     1      -8.784  -8.317  -3.886  1.00  0.00    -0.550 OA
ATOM      7  O   UNL     1      -9.806  -9.779  -2.447  1.00  0.00    -0.550 OA
ENDBRANCH   4   5
ENDBRANCH   3   4
ENDBRANCH   2   3
ENDBRANCH   1   2
BRANCH   1   8
ATOM      8  C   UNL     1      -4.260  -9.102  -6.819  1.00  0.00     0.000 C 
BRANCH   8   9
ATOM      9  C   UNL     1      -5.623  -8.721  -7.417  1.00  0.00     0.000 C 
BRANCH   9  10
ATOM     10  C   UNL     1      -5.879  -7.215  -7.281  1.00  0.00     0.006 C 
BRANCH  10  11
ATOM     11  C   UNL     1      -7.199  -6.820  -7.950  1.00  0.00     0.053 C 
BRANCH  11  12
ATOM     12  C   UNL     1      -7.314  -5.331  -8.043  1.00  0.00     0.041 C 
ATOM     13  O   UNL     1      -6.527  -4.679  -8.778  1.00  0.00    -0.550 OA
ATOM     14  O   UNL     1      -8.260  -4.658  -7.279  1.00  0.00    -0.550 OA
ENDBRANCH  11  12
ENDBRANCH  10  11
ENDBRANCH   9  10
ENDBRANCH   8   9
ENDBRANCH   1   8
TORSDOF 9
ENDMDL
MODEL 7
REMARK VINA RESULT:    -3.787     21.510     22.971
REMARK INTER + INTRA:          -6.494
REMARK INTER:                  -5.722
REMARK INTRA:                  -0.772
REMARK UNBOUND:                -0.714
REMARK SMILES O=C([O-])CCCCCCCCC(=O)[O-]
REMARK SMILES IDX 7 1 6 2 5 3 4 4 2 5 1 6 3 7 8 8 9 9 10 10 11 11 12 12 13 13
REMARK SMILES IDX 14 14
REMARK H PARENT
REMARK Flexibility Score: inf
ROOT
ATOM      1  C   UNL     1       5.656  -8.052   7.101  1.00  0.00     0.000 C 
ENDROOT
BRANCH   1   2
ATOM      2  C   UNL     1       5.623  -8.858   8.408  1.00  0.00     0.000 C 
BRANCH   2   3
ATOM      3  C   UNL     1       4.202  -8.911   8.983  1.00  0.00     0.006 C 
BRANCH   3   4
ATOM      4  C   UNL     1       3.171  -8.459   7.945  1.00  0.00     0.053 C 
BRANCH   4   5
ATOM      5  C   UNL     1       2.071  -9.465   7.825  1.00  0.00     0.041 C 
ATOM      6  O   UNL     1       1.857 -10.284   8.757  1.00  0.00    -0.550 OA
ATOM      7  O   UNL     1       1.313  -9.533   6.662  1.00  0.00    -0.550 OA
ENDBRANCH   4   5
ENDBRANCH   3   4
ENDBRANCH   2   3
ENDBRANCH   1   2
BRANCH   1   8
ATOM      8  C   UNL     1       6.244  -8.851   5.926  1.00  0.00     0.000 C 
BRANCH   8   9
ATOM      9  C   UNL     1       5.606 -10.240   5.778  1.00  0.00     0.000 C 
BRANCH   9  10
ATOM     10  C   UNL     1       4.410 -10.194   4.819  1.00  0.00     0.006 C 
BRANCH  10  11
ATOM     11  C   UNL     1       4.790  -9.518   3.499  1.00  0.00     0.053 C 
BRANCH  11  12
ATOM     12  C   UNL     1       3.608  -9.454   2.584  1.00  0.00     0.041 C 
ATOM     13  O   UNL     1       2.887 -10.471   2.407  1.00  0.00    -0.550 OA
ATOM     14  O   UNL     1       3.330  -8.283   1.888  1.00  0.00    -0.550 OA
ENDBRANCH  11  12
ENDBRANCH  10  11
ENDBRANCH   9  10
ENDBRANCH   8   9
ENDBRANCH   1   8
TORSDOF 9
ENDMDL
MODEL 8
REMARK VINA RESULT:    -3.782     21.398     22.727
REMARK INTER + INTRA:          -6.486
REMARK INTER:                  -5.951
REMARK INTRA:                  -0.535
REMARK UNBOUND:                -0.714
REMARK SMILES O=C([O-])CCCCCCCCC(=O)[O-]
REMARK SMILES IDX 7 1 6 2 5 3 4 4 2 5 1 6 3 7 8 8 9 9 10 10 11 11 12 12 13 13
REMARK SMILES IDX 14 14
REMARK H PARENT
REMARK Flexibility Score: inf
ROOT
ATOM      1  C   UNL     1       4.807  -9.103   6.258  1.00  0.00     0.000 C 
ENDROOT
BRANCH   1   2
ATOM      2  C   UNL     1       5.296 -10.467   5.749  1.00  0.00     0.000 C 
BRANCH   2   3
ATOM      3  C   UNL     1       4.770 -10.745   4.335  1.00  0.00     0.006 C 
BRANCH   3   4
ATOM      4  C   UNL     1       4.795  -9.475   3.479  1.00  0.00     0.053 C 
BRANCH   4   5
ATOM      5  C   UNL     1       3.598  -9.423   2.584  1.00  0.00     0.041 C 
ATOM      6  O   UNL     1       3.305  -8.359   1.978  1.00  0.00    -0.550 OA
ATOM      7  O   UNL     1       2.777 -10.537   2.456  1.00  0.00    -0.550 OA
ENDBRANCH   4   5
ENDBRANCH   3   4
ENDBRANCH   2   3
ENDBRANCH   1   2
BRANCH   1   8
ATOM      8  C   UNL     1       5.960  -8.184   6.691  1.00  0.00     0.000 C 
BRANCH   8   9
ATOM      9  C   UNL     1       5.845  -7.739   8.157  1.00  0.00     0.000 C 
BRANCH   9  10
ATOM     10  C   UNL     1       4.654  -8.419   8.844  1.00  0.00     0.006 C 
BRANCH  10  11
ATOM     11  C   UNL     1       3.844  -7.410   9.664  1.00  0.00     0.053 C 
BRANCH  11  12
ATOM     12  C   UNL     1       2.481  -7.231   9.075  1.00  0.00     0.041 C 
ATOM     13  O   UNL     1       1.812  -6.195   9.327  1.00  0.00    -0.550 OA
ATOM     14  O   UNL     1       1.928  -8.232   8.284  1.00  0.00    -0.550 OA
ENDBRANCH  11  12
ENDBRANCH  10  11
ENDBRANCH   9  10
ENDBRANCH   8   9
ENDBRANCH   1   8
TORSDOF 9
ENDMDL
MODEL 9
REMARK VINA RESULT:    -3.709      1.339      5.497
REMARK INTER + INTRA:          -6.376
REMARK INTER:                  -5.789
REMARK INTRA:                  -0.586
REMARK UNBOUND:                -0.714
REMARK SMILES O=C([O-])CCCCCCCCC(=O)[O-]
REMARK SMILES IDX 7 1 6 2 5 3 4 4 2 5 1 6 3 7 8 8 9 9 10 10 11 11 12 12 13 13
REMARK SMILES IDX 14 14
REMARK H PARENT
REMARK Flexibility Score: inf
ROOT
ATOM      1  C   UNL     1      -5.027   3.839  -8.747  1.00  0.00     0.000 C 
ENDROOT
BRANCH   1   2
ATOM      2  C   UNL     1      -5.709   2.678  -9.484  1.00  0.00     0.000 C 
BRANCH   2   3
ATOM      3  C   UNL     1      -6.751   1.996  -8.589  1.00  0.00     0.006 C 
BRANCH   3   4
ATOM      4  C   UNL     1      -8.167   2.467  -8.936  1.00  0.00     0.053 C 
BRANCH   4   5
ATOM      5  C   UNL     1      -8.894   2.896  -7.702  1.00  0.00     0.041 C 
ATOM      6  O   UNL     1      -9.687   2.106  -7.126  1.00  0.00    -0.550 OA
ATOM      7  O   UNL     1      -8.734   4.188  -7.215  1.00  0.00    -0.550 OA
ENDBRANCH   4   5
ENDBRANCH   3   4
ENDBRANCH   2   3
ENDBRANCH   1   2
BRANCH   1   8
ATOM      8  C   UNL     1      -5.053   5.149  -9.550  1.00  0.00     0.000 C 
BRANCH   8   9
ATOM      9  C   UNL     1      -6.480   5.630  -9.851  1.00  0.00     0.000 C 
BRANCH   9  10
ATOM     10  C   UNL     1      -6.557   7.162  -9.838  1.00  0.00     0.006 C 
BRANCH  10  11
ATOM     11  C   UNL     1      -5.157   7.782  -9.883  1.00  0.00     0.053 C 
BRANCH  11  12
ATOM     12  C   UNL     1      -4.945   8.683  -8.708  1.00  0.00     0.041 C 
ATOM     13  O   UNL     1      -5.928   9.080  -8.028  1.00  0.00    -0.550 OA
ATOM     14  O   UNL     1      -3.666   9.124  -8.392  1.00  0.00    -0.550 OA
ENDBRANCH  11  12
ENDBRANCH  10  11
ENDBRANCH   9  10
ENDBRANCH   8   9
ENDBRANCH   1   8
TORSDOF 9
ENDMDL
