MODEL 1
REMARK VINA RESULT:    -4.354      0.000      0.000
REMARK INTER + INTRA:          -8.067
REMARK INTER:                  -6.644
REMARK INTRA:                  -1.423
REMARK UNBOUND:                -1.423
REMARK SMILES OC[C@@H]1O[C@@](CO)(O[C@@H]2O[C@H](CO)[C@@H](O)[C@@H](O)[C@@H]2O)[C@@H](O)[C@H]1O
REMARK SMILES IDX 8 1 9 2 11 3 14 4 10 5 16 6 18 7 12 8 13 9 15 11 17 13 19 15
REMARK SMILES IDX 5 17 20 18 4 19 22 20 3 21 6 22 7 23 21 25 23 27 2 29 1 30
REMARK H PARENT 13 10 15 12 17 14 19 16 7 24 21 26 23 28 1 31
REMARK Flexibility Score: inf
ROOT
ATOM      1  O   UNL     1      50.521  33.982  87.782  1.00  0.00    -0.313 OA
ENDROOT
BRANCH   1   2
ATOM      2  C   UNL     1      51.828  33.443  87.909  1.00  0.00     0.285 C 
ATOM      3  C   UNL     1      53.408  32.722  89.471  1.00  0.00     0.178 C 
ATOM      4  C   UNL     1      54.312  33.985  89.427  1.00  0.00     0.177 C 
ATOM      5  O   UNL     1      52.055  33.083  89.268  1.00  0.00    -0.341 OA
ATOM      6  C   UNL     1      53.656  35.101  88.578  1.00  0.00     0.179 C 
ATOM      7  C   UNL     1      52.875  34.485  87.399  1.00  0.00     0.202 C 
BRANCH   3   8
ATOM      8  C   UNL     1      53.523  31.993  90.814  1.00  0.00     0.191 C 
BRANCH   8   9
ATOM      9  O   UNL     1      54.871  31.799  91.144  1.00  0.00    -0.394 OA
ATOM     10  H   UNL     1      54.915  31.805  92.136  1.00  0.00     0.210 HD
ENDBRANCH   8   9
ENDBRANCH   3   8
BRANCH   4  11
ATOM     11  O   UNL     1      55.563  33.628  88.892  1.00  0.00    -0.387 OA
ATOM     12  H   UNL     1      56.092  33.224  89.628  1.00  0.00     0.211 HD
ENDBRANCH   4  11
BRANCH   6  13
ATOM     13  O   UNL     1      54.637  35.992  88.107  1.00  0.00    -0.387 OA
ATOM     14  H   UNL     1      55.039  36.429  88.904  1.00  0.00     0.211 HD
ENDBRANCH   6  13
BRANCH   7  15
ATOM     15  O   UNL     1      52.283  35.476  86.593  1.00  0.00    -0.385 OA
ATOM     16  H   UNL     1      52.477  35.252  85.645  1.00  0.00     0.211 HD
ENDBRANCH   7  15
ENDBRANCH   1   2
BRANCH   1  17
ATOM     17  C   UNL     1      49.753  33.446  86.699  1.00  0.00     0.224 C 
ATOM     18  C   UNL     1      48.858  34.565  86.119  1.00  0.00     0.208 C 
ATOM     19  O   UNL     1      50.552  32.921  85.645  1.00  0.00    -0.337 OA
ATOM     20  C   UNL     1      48.870  34.287  84.634  1.00  0.00     0.180 C 
ATOM     21  C   UNL     1      50.204  33.571  84.441  1.00  0.00     0.179 C 
BRANCH  17  22
ATOM     22  C   UNL     1      48.893  32.301  87.268  1.00  0.00     0.225 C 
BRANCH  22  23
ATOM     23  O   UNL     1      47.902  32.799  88.124  1.00  0.00    -0.391 OA
ATOM     24  H   UNL     1      47.033  32.557  87.712  1.00  0.00     0.210 HD
ENDBRANCH  22  23
ENDBRANCH  17  22
BRANCH  18  25
ATOM     25  O   UNL     1      49.363  35.850  86.413  1.00  0.00    -0.385 OA
ATOM     26  H   UNL     1      49.329  36.396  85.584  1.00  0.00     0.211 HD
ENDBRANCH  18  25
BRANCH  20  27
ATOM     27  O   UNL     1      48.803  35.475  83.887  1.00  0.00    -0.387 OA
ATOM     28  H   UNL     1      47.902  35.502  83.472  1.00  0.00     0.211 HD
ENDBRANCH  20  27
BRANCH  21  29
ATOM     29  C   UNL     1      50.159  32.538  83.305  1.00  0.00     0.191 C 
BRANCH  29  30
ATOM     30  O   UNL     1      49.418  33.019  82.216  1.00  0.00    -0.394 OA
ATOM     31  H   UNL     1      49.649  33.979  82.117  1.00  0.00     0.210 HD
ENDBRANCH  29  30
ENDBRANCH  21  29
ENDBRANCH   1  17
TORSDOF 13
ENDMDL
MODEL 2
REMARK VINA RESULT:    -4.224     16.884     19.361
REMARK INTER + INTRA:          -7.869
REMARK INTER:                  -6.378
REMARK INTRA:                  -1.491
REMARK UNBOUND:                -1.423
REMARK SMILES OC[C@@H]1O[C@@](CO)(O[C@@H]2O[C@H](CO)[C@@H](O)[C@@H](O)[C@@H]2O)[C@@H](O)[C@H]1O
REMARK SMILES IDX 8 1 9 2 11 3 14 4 10 5 16 6 18 7 12 8 13 9 15 11 17 13 19 15
REMARK SMILES IDX 5 17 20 18 4 19 22 20 3 21 6 22 7 23 21 25 23 27 2 29 1 30
REMARK H PARENT 13 10 15 12 17 14 19 16 7 24 21 26 23 28 1 31
REMARK Flexibility Score: inf
ROOT
ATOM      1  O   UNL     1      45.478  21.313  76.325  1.00  0.00    -0.313 OA
ENDROOT
BRANCH   1   2
ATOM      2  C   UNL     1      44.084  21.103  76.161  1.00  0.00     0.285 C 
ATOM      3  C   UNL     1      42.282  21.549  74.741  1.00  0.00     0.178 C 
ATOM      4  C   UNL     1      41.655  22.695  75.582  1.00  0.00     0.177 C 
ATOM      5  O   UNL     1      43.691  21.564  74.871  1.00  0.00    -0.341 OA
ATOM      6  C   UNL     1      42.581  23.083  76.761  1.00  0.00     0.179 C 
ATOM      7  C   UNL     1      43.307  21.834  77.302  1.00  0.00     0.202 C 
BRANCH   3   8
ATOM      8  C   UNL     1      41.927  21.678  73.257  1.00  0.00     0.191 C 
BRANCH   8   9
ATOM      9  O   UNL     1      40.741  22.409  73.106  1.00  0.00    -0.394 OA
ATOM     10  H   UNL     1      40.505  22.740  74.012  1.00  0.00     0.210 HD
ENDBRANCH   8   9
ENDBRANCH   3   8
BRANCH   4  11
ATOM     11  O   UNL     1      40.401  22.273  76.057  1.00  0.00    -0.387 OA
ATOM     12  H   UNL     1      39.756  23.005  75.872  1.00  0.00     0.211 HD
ENDBRANCH   4  11
BRANCH   6  13
ATOM     13  O   UNL     1      41.835  23.700  77.780  1.00  0.00    -0.387 OA
ATOM     14  H   UNL     1      42.378  24.460  78.118  1.00  0.00     0.211 HD
ENDBRANCH   6  13
BRANCH   7  15
ATOM     15  O   UNL     1      44.142  22.150  78.391  1.00  0.00    -0.385 OA
ATOM     16  H   UNL     1      44.033  21.436  79.073  1.00  0.00     0.211 HD
ENDBRANCH   7  15
ENDBRANCH   1   2
BRANCH   1  17
ATOM     17  C   UNL     1      46.275  20.125  76.273  1.00  0.00     0.224 C 
ATOM     18  C   UNL     1      47.198  20.087  77.512  1.00  0.00     0.208 C 
ATOM     19  O   UNL     1      45.505  18.929  76.252  1.00  0.00    -0.337 OA
ATOM     20  C   UNL     1      47.231  18.621  77.877  1.00  0.00     0.180 C 
ATOM     21  C   UNL     1      45.897  18.114  77.336  1.00  0.00     0.179 C 
BRANCH  17  22
ATOM     22  C   UNL     1      47.106  20.187  74.976  1.00  0.00     0.225 C 
BRANCH  22  23
ATOM     23  O   UNL     1      46.784  19.118  74.128  1.00  0.00    -0.391 OA
ATOM     24  H   UNL     1      47.436  18.399  74.330  1.00  0.00     0.210 HD
ENDBRANCH  22  23
ENDBRANCH  17  22
BRANCH  18  25
ATOM     25  O   UNL     1      46.696  20.876  78.568  1.00  0.00    -0.385 OA
ATOM     26  H   UNL     1      47.112  21.776  78.510  1.00  0.00     0.211 HD
ENDBRANCH  18  25
BRANCH  20  27
ATOM     27  O   UNL     1      47.332  18.438  79.267  1.00  0.00    -0.387 OA
ATOM     28  H   UNL     1      47.902  17.639  79.409  1.00  0.00     0.211 HD
ENDBRANCH  20  27
BRANCH  21  29
ATOM     29  C   UNL     1      45.969  16.653  76.868  1.00  0.00     0.191 C 
BRANCH  29  30
ATOM     30  O   UNL     1      46.720  15.875  77.760  1.00  0.00    -0.394 OA
ATOM     31  H   UNL     1      46.116  15.644  78.514  1.00  0.00     0.210 HD
ENDBRANCH  29  30
ENDBRANCH  21  29
ENDBRANCH   1  17
TORSDOF 13
ENDMDL
MODEL 3
REMARK VINA RESULT:    -3.999     16.386     18.577
REMARK INTER + INTRA:          -7.526
REMARK INTER:                  -6.271
REMARK INTRA:                  -1.255
REMARK UNBOUND:                -1.423
REMARK SMILES OC[C@@H]1O[C@@](CO)(O[C@@H]2O[C@H](CO)[C@@H](O)[C@@H](O)[C@@H]2O)[C@@H](O)[C@H]1O
REMARK SMILES IDX 8 1 9 2 11 3 14 4 10 5 16 6 18 7 12 8 13 9 15 11 17 13 19 15
REMARK SMILES IDX 5 17 20 18 4 19 22 20 3 21 6 22 7 23 21 25 23 27 2 29 1 30
REMARK H PARENT 13 10 15 12 17 14 19 16 7 24 21 26 23 28 1 31
REMARK Flexibility Score: inf
ROOT
ATOM      1  O   UNL     1      44.702  21.769  77.947  1.00  0.00    -0.313 OA
ENDROOT
BRANCH   1   2
ATOM      2  C   UNL     1      43.351  21.339  77.910  1.00  0.00     0.285 C 
ATOM      3  C   UNL     1      41.262  21.819  76.979  1.00  0.00     0.178 C 
ATOM      4  C   UNL     1      40.645  22.498  78.233  1.00  0.00     0.177 C 
ATOM      5  O   UNL     1      42.651  22.082  76.916  1.00  0.00    -0.341 OA
ATOM      6  C   UNL     1      41.712  22.686  79.338  1.00  0.00     0.179 C 
ATOM      7  C   UNL     1      42.708  21.508  79.324  1.00  0.00     0.202 C 
BRANCH   3   8
ATOM      8  C   UNL     1      40.610  22.323  75.687  1.00  0.00     0.191 C 
BRANCH   8   9
ATOM      9  O   UNL     1      39.688  23.337  75.975  1.00  0.00    -0.394 OA
ATOM     10  H   UNL     1      39.897  24.084  75.355  1.00  0.00     0.210 HD
ENDBRANCH   8   9
ENDBRANCH   3   8
BRANCH   4  11
ATOM     11  O   UNL     1      39.584  21.702  78.701  1.00  0.00    -0.387 OA
ATOM     12  H   UNL     1      39.834  21.383  79.607  1.00  0.00     0.211 HD
ENDBRANCH   4  11
BRANCH   6  13
ATOM     13  O   UNL     1      41.094  22.793  80.596  1.00  0.00    -0.387 OA
ATOM     14  H   UNL     1      41.375  23.663  80.984  1.00  0.00     0.211 HD
ENDBRANCH   6  13
BRANCH   7  15
ATOM     15  O   UNL     1      43.681  21.637  80.333  1.00  0.00    -0.385 OA
ATOM     16  H   UNL     1      43.211  21.655  81.207  1.00  0.00     0.211 HD
ENDBRANCH   7  15
ENDBRANCH   1   2
BRANCH   1  17
ATOM     17  C   UNL     1      45.630  20.893  77.299  1.00  0.00     0.224 C 
ATOM     18  C   UNL     1      46.812  20.618  78.256  1.00  0.00     0.208 C 
ATOM     19  O   UNL     1      45.060  19.644  76.922  1.00  0.00    -0.337 OA
ATOM     20  C   UNL     1      47.143  19.167  77.994  1.00  0.00     0.180 C 
ATOM     21  C   UNL     1      45.809  18.603  77.514  1.00  0.00     0.179 C 
BRANCH  17  22
ATOM     22  C   UNL     1      46.118  21.604  76.021  1.00  0.00     0.225 C 
BRANCH  22  23
ATOM     23  O   UNL     1      45.705  20.909  74.876  1.00  0.00    -0.391 OA
ATOM     24  H   UNL     1      45.939  19.957  75.031  1.00  0.00     0.210 HD
ENDBRANCH  22  23
ENDBRANCH  17  22
BRANCH  18  25
ATOM     25  O   UNL     1      46.460  20.837  79.605  1.00  0.00    -0.385 OA
ATOM     26  H   UNL     1      47.008  21.589  79.952  1.00  0.00     0.211 HD
ENDBRANCH  18  25
BRANCH  20  27
ATOM     27  O   UNL     1      47.591  18.522  79.160  1.00  0.00    -0.387 OA
ATOM     28  H   UNL     1      46.829  17.984  79.500  1.00  0.00     0.211 HD
ENDBRANCH  20  27
BRANCH  21  29
ATOM     29  C   UNL     1      45.982  17.467  76.496  1.00  0.00     0.191 C 
BRANCH  29  30
ATOM     30  O   UNL     1      45.238  16.339  76.868  1.00  0.00    -0.394 OA
ATOM     31  H   UNL     1      44.333  16.664  77.113  1.00  0.00     0.210 HD
ENDBRANCH  29  30
ENDBRANCH  21  29
ENDBRANCH   1  17
TORSDOF 13
ENDMDL
MODEL 4
REMARK VINA RESULT:    -3.947      1.864      2.760
REMARK INTER + INTRA:          -7.447
REMARK INTER:                  -6.084
REMARK INTRA:                  -1.363
REMARK UNBOUND:                -1.423
REMARK SMILES OC[C@@H]1O[C@@](CO)(O[C@@H]2O[C@H](CO)[C@@H](O)[C@@H](O)[C@@H]2O)[C@@H](O)[C@H]1O
REMARK SMILES IDX 8 1 9 2 11 3 14 4 10 5 16 6 18 7 12 8 13 9 15 11 17 13 19 15
REMARK SMILES IDX 5 17 20 18 4 19 22 20 3 21 6 22 7 23 21 25 23 27 2 29 1 30
REMARK H PARENT 13 10 15 12 17 14 19 16 7 24 21 26 23 28 1 31
REMARK Flexibility Score: inf
ROOT
ATOM      1  O   UNL     1      52.412  34.408  87.419  1.00  0.00    -0.313 OA
ENDROOT
BRANCH   1   2
ATOM      2  C   UNL     1      52.826  33.264  88.149  1.00  0.00     0.285 C 
ATOM      3  C   UNL     1      52.496  32.103  90.150  1.00  0.00     0.178 C 
ATOM      4  C   UNL     1      53.780  32.596  90.872  1.00  0.00     0.177 C 
ATOM      5  O   UNL     1      51.996  33.116  89.297  1.00  0.00    -0.341 OA
ATOM      6  C   UNL     1      54.491  33.693  90.042  1.00  0.00     0.179 C 
ATOM      7  C   UNL     1      54.334  33.407  88.534  1.00  0.00     0.202 C 
BRANCH   3   8
ATOM      8  C   UNL     1      51.399  31.719  91.148  1.00  0.00     0.191 C 
BRANCH   8   9
ATOM      9  O   UNL     1      51.966  31.398  92.388  1.00  0.00    -0.394 OA
ATOM     10  H   UNL     1      52.817  31.906  92.442  1.00  0.00     0.210 HD
ENDBRANCH   8   9
ENDBRANCH   3   8
BRANCH   4  11
ATOM     11  O   UNL     1      54.635  31.498  91.074  1.00  0.00    -0.387 OA
ATOM     12  H   UNL     1      54.155  30.690  90.754  1.00  0.00     0.211 HD
ENDBRANCH   4  11
BRANCH   6  13
ATOM     13  O   UNL     1      55.851  33.760  90.391  1.00  0.00    -0.387 OA
ATOM     14  H   UNL     1      56.367  33.800  89.544  1.00  0.00     0.211 HD
ENDBRANCH   6  13
BRANCH   7  15
ATOM     15  O   UNL     1      54.989  34.377  87.751  1.00  0.00    -0.385 OA
ATOM     16  H   UNL     1      54.796  35.267  88.147  1.00  0.00     0.211 HD
ENDBRANCH   7  15
ENDBRANCH   1   2
BRANCH   1  17
ATOM     17  C   UNL     1      51.568  34.132  86.297  1.00  0.00     0.224 C 
ATOM     18  C   UNL     1      52.264  34.633  85.011  1.00  0.00     0.208 C 
ATOM     19  O   UNL     1      51.276  32.748  86.136  1.00  0.00    -0.337 OA
ATOM     20  C   UNL     1      51.900  33.585  83.986  1.00  0.00     0.180 C 
ATOM     21  C   UNL     1      51.677  32.344  84.844  1.00  0.00     0.179 C 
BRANCH  17  22
ATOM     22  C   UNL     1      50.240  34.881  86.525  1.00  0.00     0.225 C 
BRANCH  22  23
ATOM     23  O   UNL     1      50.467  36.125  87.129  1.00  0.00    -0.391 OA
ATOM     24  H   UNL     1      49.801  36.202  87.860  1.00  0.00     0.210 HD
ENDBRANCH  22  23
ENDBRANCH  17  22
BRANCH  18  25
ATOM     25  O   UNL     1      53.662  34.739  85.176  1.00  0.00    -0.385 OA
ATOM     26  H   UNL     1      53.842  35.397  85.898  1.00  0.00     0.211 HD
ENDBRANCH  18  25
BRANCH  20  27
ATOM     27  O   UNL     1      52.935  33.395  83.054  1.00  0.00    -0.387 OA
ATOM     28  H   UNL     1      52.532  32.943  82.267  1.00  0.00     0.211 HD
ENDBRANCH  20  27
BRANCH  21  29
ATOM     29  C   UNL     1      50.612  31.406  84.257  1.00  0.00     0.191 C 
BRANCH  29  30
ATOM     30  O   UNL     1      50.459  31.618  82.880  1.00  0.00    -0.394 OA
ATOM     31  H   UNL     1      51.361  31.528  82.476  1.00  0.00     0.210 HD
ENDBRANCH  29  30
ENDBRANCH  21  29
ENDBRANCH   1  17
TORSDOF 13
ENDMDL
MODEL 5
REMARK VINA RESULT:    -3.932      1.948      2.369
REMARK INTER + INTRA:          -7.423
REMARK INTER:                  -5.987
REMARK INTRA:                  -1.437
REMARK UNBOUND:                -1.423
REMARK SMILES OC[C@@H]1O[C@@](CO)(O[C@@H]2O[C@H](CO)[C@@H](O)[C@@H](O)[C@@H]2O)[C@@H](O)[C@H]1O
REMARK SMILES IDX 8 1 9 2 11 3 14 4 10 5 16 6 18 7 12 8 13 9 15 11 17 13 19 15
REMARK SMILES IDX 5 17 20 18 4 19 22 20 3 21 6 22 7 23 21 25 23 27 2 29 1 30
REMARK H PARENT 13 10 15 12 17 14 19 16 7 24 21 26 23 28 1 31
REMARK Flexibility Score: inf
ROOT
ATOM      1  O   UNL     1      50.188  33.093  88.032  1.00  0.00    -0.313 OA
ENDROOT
BRANCH   1   2
ATOM      2  C   UNL     1      51.596  33.021  87.868  1.00  0.00     0.285 C 
ATOM      3  C   UNL     1      53.627  33.399  88.959  1.00  0.00     0.178 C 
ATOM      4  C   UNL     1      53.967  34.748  88.269  1.00  0.00     0.177 C 
ATOM      5  O   UNL     1      52.227  33.272  89.120  1.00  0.00    -0.341 OA
ATOM      6  C   UNL     1      52.779  35.240  87.407  1.00  0.00     0.179 C 
ATOM      7  C   UNL     1      52.047  34.040  86.773  1.00  0.00     0.202 C 
BRANCH   3   8
ATOM      8  C   UNL     1      54.289  33.286  90.337  1.00  0.00     0.191 C 
BRANCH   8   9
ATOM      9  O   UNL     1      55.621  33.713  90.268  1.00  0.00    -0.394 OA
ATOM     10  H   UNL     1      56.165  32.986  90.670  1.00  0.00     0.210 HD
ENDBRANCH   8   9
ENDBRANCH   3   8
BRANCH   4  11
ATOM     11  O   UNL     1      55.115  34.573  87.475  1.00  0.00    -0.387 OA
ATOM     12  H   UNL     1      54.846  34.731  86.533  1.00  0.00     0.211 HD
ENDBRANCH   4  11
BRANCH   6  13
ATOM     13  O   UNL     1      53.235  36.122  86.411  1.00  0.00    -0.387 OA
ATOM     14  H   UNL     1      53.596  36.922  86.875  1.00  0.00     0.211 HD
ENDBRANCH   6  13
BRANCH   7  15
ATOM     15  O   UNL     1      50.973  34.455  85.963  1.00  0.00    -0.385 OA
ATOM     16  H   UNL     1      51.103  35.418  85.757  1.00  0.00     0.211 HD
ENDBRANCH   7  15
ENDBRANCH   1   2
BRANCH   1  17
ATOM     17  C   UNL     1      49.476  31.915  87.642  1.00  0.00     0.224 C 
ATOM     18  C   UNL     1      48.182  32.332  86.906  1.00  0.00     0.208 C 
ATOM     19  O   UNL     1      50.223  31.061  86.783  1.00  0.00    -0.337 OA
ATOM     20  C   UNL     1      48.047  31.290  85.821  1.00  0.00     0.180 C 
ATOM     21  C   UNL     1      49.493  30.859  85.592  1.00  0.00     0.179 C 
BRANCH  17  22
ATOM     22  C   UNL     1      49.144  31.132  88.928  1.00  0.00     0.225 C 
BRANCH  22  23
ATOM     23  O   UNL     1      47.889  31.506  89.429  1.00  0.00    -0.391 OA
ATOM     24  H   UNL     1      47.232  30.886  89.018  1.00  0.00     0.210 HD
ENDBRANCH  22  23
ENDBRANCH  17  22
BRANCH  18  25
ATOM     25  O   UNL     1      48.277  33.634  86.371  1.00  0.00    -0.385 OA
ATOM     26  H   UNL     1      49.228  33.810  86.144  1.00  0.00     0.211 HD
ENDBRANCH  18  25
BRANCH  20  27
ATOM     27  O   UNL     1      47.474  31.831  84.657  1.00  0.00    -0.387 OA
ATOM     28  H   UNL     1      46.805  32.501  84.952  1.00  0.00     0.211 HD
ENDBRANCH  20  27
BRANCH  21  29
ATOM     29  C   UNL     1      49.608  29.386  85.174  1.00  0.00     0.191 C 
BRANCH  29  30
ATOM     30  O   UNL     1      48.353  28.854  84.850  1.00  0.00    -0.394 OA
ATOM     31  H   UNL     1      48.069  28.302  85.625  1.00  0.00     0.210 HD
ENDBRANCH  29  30
ENDBRANCH  21  29
ENDBRANCH   1  17
TORSDOF 13
ENDMDL
MODEL 6
REMARK VINA RESULT:    -3.905      1.762      6.529
REMARK INTER + INTRA:          -7.383
REMARK INTER:                  -6.022
REMARK INTRA:                  -1.362
REMARK UNBOUND:                -1.423
REMARK SMILES OC[C@@H]1O[C@@](CO)(O[C@@H]2O[C@H](CO)[C@@H](O)[C@@H](O)[C@@H]2O)[C@@H](O)[C@H]1O
REMARK SMILES IDX 8 1 9 2 11 3 14 4 10 5 16 6 18 7 12 8 13 9 15 11 17 13 19 15
REMARK SMILES IDX 5 17 20 18 4 19 22 20 3 21 6 22 7 23 21 25 23 27 2 29 1 30
REMARK H PARENT 13 10 15 12 17 14 19 16 7 24 21 26 23 28 1 31
REMARK Flexibility Score: inf
ROOT
ATOM      1  O   UNL     1      52.173  34.311  85.320  1.00  0.00    -0.313 OA
ENDROOT
BRANCH   1   2
ATOM      2  C   UNL     1      51.007  33.603  84.929  1.00  0.00     0.285 C 
ATOM      3  C   UNL     1      49.815  32.847  83.067  1.00  0.00     0.178 C 
ATOM      4  C   UNL     1      48.718  33.947  83.082  1.00  0.00     0.177 C 
ATOM      5  O   UNL     1      51.045  33.378  83.523  1.00  0.00    -0.341 OA
ATOM      6  C   UNL     1      49.047  35.039  84.129  1.00  0.00     0.179 C 
ATOM      7  C   UNL     1      49.738  34.409  85.356  1.00  0.00     0.202 C 
BRANCH   3   8
ATOM      8  C   UNL     1      50.022  32.275  81.661  1.00  0.00     0.191 C 
BRANCH   8   9
ATOM      9  O   UNL     1      48.864  32.452  80.892  1.00  0.00    -0.394 OA
ATOM     10  H   UNL     1      49.114  32.221  79.960  1.00  0.00     0.210 HD
ENDBRANCH   8   9
ENDBRANCH   3   8
BRANCH   4  11
ATOM     11  O   UNL     1      47.479  33.346  83.367  1.00  0.00    -0.387 OA
ATOM     12  H   UNL     1      46.820  33.713  82.722  1.00  0.00     0.211 HD
ENDBRANCH   4  11
BRANCH   6  13
ATOM     13  O   UNL     1      47.875  35.711  84.514  1.00  0.00    -0.387 OA
ATOM     14  H   UNL     1      47.973  35.939  85.476  1.00  0.00     0.211 HD
ENDBRANCH   6  13
BRANCH   7  15
ATOM     15  O   UNL     1      50.032  35.374  86.339  1.00  0.00    -0.385 OA
ATOM     16  H   UNL     1      50.612  36.064  85.922  1.00  0.00     0.211 HD
ENDBRANCH   7  15
ENDBRANCH   1   2
BRANCH   1  17
ATOM     17  C   UNL     1      52.957  33.668  86.330  1.00  0.00     0.224 C 
ATOM     18  C   UNL     1      53.944  34.696  86.928  1.00  0.00     0.208 C 
ATOM     19  O   UNL     1      52.177  33.128  87.391  1.00  0.00    -0.337 OA
ATOM     20  C   UNL     1      53.984  34.330  88.393  1.00  0.00     0.180 C 
ATOM     21  C   UNL     1      52.619  33.683  88.612  1.00  0.00     0.179 C 
BRANCH  17  22
ATOM     22  C   UNL     1      53.717  32.510  85.654  1.00  0.00     0.225 C 
BRANCH  22  23
ATOM     23  O   UNL     1      53.378  31.282  86.240  1.00  0.00    -0.391 OA
ATOM     24  H   UNL     1      52.419  31.135  86.036  1.00  0.00     0.210 HD
ENDBRANCH  22  23
ENDBRANCH  17  22
BRANCH  18  25
ATOM     25  O   UNL     1      53.505  36.023  86.734  1.00  0.00    -0.385 OA
ATOM     26  H   UNL     1      53.117  36.351  87.587  1.00  0.00     0.211 HD
ENDBRANCH  18  25
BRANCH  20  27
ATOM     27  O   UNL     1      54.158  35.465  89.203  1.00  0.00    -0.387 OA
ATOM     28  H   UNL     1      54.949  35.949  88.850  1.00  0.00     0.211 HD
ENDBRANCH  20  27
BRANCH  21  29
ATOM     29  C   UNL     1      52.654  32.582  89.682  1.00  0.00     0.191 C 
BRANCH  29  30
ATOM     30  O   UNL     1      52.651  31.309  89.096  1.00  0.00    -0.394 OA
ATOM     31  H   UNL     1      52.052  31.361  88.306  1.00  0.00     0.210 HD
ENDBRANCH  29  30
ENDBRANCH  21  29
ENDBRANCH   1  17
TORSDOF 13
ENDMDL
MODEL 7
REMARK VINA RESULT:    -3.857      1.543      2.269
REMARK INTER + INTRA:          -7.309
REMARK INTER:                  -6.275
REMARK INTRA:                  -1.034
REMARK UNBOUND:                -1.423
REMARK SMILES OC[C@@H]1O[C@@](CO)(O[C@@H]2O[C@H](CO)[C@@H](O)[C@@H](O)[C@@H]2O)[C@@H](O)[C@H]1O
REMARK SMILES IDX 8 1 9 2 11 3 14 4 10 5 16 6 18 7 12 8 13 9 15 11 17 13 19 15
REMARK SMILES IDX 5 17 20 18 4 19 22 20 3 21 6 22 7 23 21 25 23 27 2 29 1 30
REMARK H PARENT 13 10 15 12 17 14 19 16 7 24 21 26 23 28 1 31
REMARK Flexibility Score: inf
ROOT
ATOM      1  O   UNL     1      52.193  33.923  87.240  1.00  0.00    -0.313 OA
ENDROOT
BRANCH   1   2
ATOM      2  C   UNL     1      52.685  32.907  88.100  1.00  0.00     0.285 C 
ATOM      3  C   UNL     1      52.436  31.978  90.230  1.00  0.00     0.178 C 
ATOM      4  C   UNL     1      53.684  32.641  90.875  1.00  0.00     0.177 C 
ATOM      5  O   UNL     1      51.868  32.844  89.265  1.00  0.00    -0.341 OA
ATOM      6  C   UNL     1      54.319  33.674  89.912  1.00  0.00     0.179 C 
ATOM      7  C   UNL     1      54.180  33.197  88.451  1.00  0.00     0.202 C 
BRANCH   3   8
ATOM      8  C   UNL     1      51.368  31.646  91.278  1.00  0.00     0.191 C 
BRANCH   8   9
ATOM      9  O   UNL     1      51.938  31.625  92.557  1.00  0.00    -0.394 OA
ATOM     10  H   UNL     1      52.729  32.223  92.516  1.00  0.00     0.210 HD
ENDBRANCH   8   9
ENDBRANCH   3   8
BRANCH   4  11
ATOM     11  O   UNL     1      54.612  31.636  91.202  1.00  0.00    -0.387 OA
ATOM     12  H   UNL     1      54.869  31.771  92.151  1.00  0.00     0.211 HD
ENDBRANCH   4  11
BRANCH   6  13
ATOM     13  O   UNL     1      55.671  33.875  90.238  1.00  0.00    -0.387 OA
ATOM     14  H   UNL     1      56.209  33.422  89.537  1.00  0.00     0.211 HD
ENDBRANCH   6  13
BRANCH   7  15
ATOM     15  O   UNL     1      54.767  34.105  87.550  1.00  0.00    -0.385 OA
ATOM     16  H   UNL     1      55.649  34.372  87.920  1.00  0.00     0.211 HD
ENDBRANCH   7  15
ENDBRANCH   1   2
BRANCH   1  17
ATOM     17  C   UNL     1      51.301  33.466  86.219  1.00  0.00     0.224 C 
ATOM     18  C   UNL     1      49.872  33.955  86.547  1.00  0.00     0.208 C 
ATOM     19  O   UNL     1      51.645  33.932  84.918  1.00  0.00    -0.337 OA
ATOM     20  C   UNL     1      49.296  34.288  85.190  1.00  0.00     0.180 C 
ATOM     21  C   UNL     1      50.542  34.625  84.375  1.00  0.00     0.179 C 
BRANCH  17  22
ATOM     22  C   UNL     1      51.362  31.926  86.210  1.00  0.00     0.225 C 
BRANCH  22  23
ATOM     23  O   UNL     1      51.842  31.453  84.982  1.00  0.00    -0.391 OA
ATOM     24  H   UNL     1      51.053  31.103  84.492  1.00  0.00     0.210 HD
ENDBRANCH  22  23
ENDBRANCH  17  22
BRANCH  18  25
ATOM     25  O   UNL     1      49.882  35.080  87.399  1.00  0.00    -0.385 OA
ATOM     26  H   UNL     1      50.827  35.324  87.583  1.00  0.00     0.211 HD
ENDBRANCH  18  25
BRANCH  20  27
ATOM     27  O   UNL     1      48.409  35.375  85.259  1.00  0.00    -0.387 OA
ATOM     28  H   UNL     1      47.830  35.323  84.455  1.00  0.00     0.211 HD
ENDBRANCH  20  27
BRANCH  21  29
ATOM     29  C   UNL     1      50.394  34.252  82.893  1.00  0.00     0.191 C 
BRANCH  29  30
ATOM     30  O   UNL     1      49.375  35.000  82.285  1.00  0.00    -0.394 OA
ATOM     31  H   UNL     1      49.667  35.949  82.308  1.00  0.00     0.210 HD
ENDBRANCH  29  30
ENDBRANCH  21  29
ENDBRANCH   1  17
TORSDOF 13
ENDMDL
MODEL 8
REMARK VINA RESULT:    -3.819      1.728      3.726
REMARK INTER + INTRA:          -7.251
REMARK INTER:                  -6.244
REMARK INTRA:                  -1.007
REMARK UNBOUND:                -1.423
REMARK SMILES OC[C@@H]1O[C@@](CO)(O[C@@H]2O[C@H](CO)[C@@H](O)[C@@H](O)[C@@H]2O)[C@@H](O)[C@H]1O
REMARK SMILES IDX 8 1 9 2 11 3 14 4 10 5 16 6 18 7 12 8 13 9 15 11 17 13 19 15
REMARK SMILES IDX 5 17 20 18 4 19 22 20 3 21 6 22 7 23 21 25 23 27 2 29 1 30
REMARK H PARENT 13 10 15 12 17 14 19 16 7 24 21 26 23 28 1 31
REMARK Flexibility Score: inf
ROOT
ATOM      1  O   UNL     1      52.234  32.795  87.507  1.00  0.00    -0.313 OA
ENDROOT
BRANCH   1   2
ATOM      2  C   UNL     1      52.425  32.874  88.911  1.00  0.00     0.285 C 
ATOM      3  C   UNL     1      53.925  32.352  90.626  1.00  0.00     0.178 C 
ATOM      4  C   UNL     1      53.185  31.090  91.150  1.00  0.00     0.177 C 
ATOM      5  O   UNL     1      53.755  32.470  89.226  1.00  0.00    -0.341 OA
ATOM      6  C   UNL     1      52.009  30.714  90.216  1.00  0.00     0.179 C 
ATOM      7  C   UNL     1      51.361  31.988  89.635  1.00  0.00     0.202 C 
BRANCH   3   8
ATOM      8  C   UNL     1      55.425  32.294  90.933  1.00  0.00     0.191 C 
BRANCH   8   9
ATOM      9  O   UNL     1      56.055  33.461  90.480  1.00  0.00    -0.394 OA
ATOM     10  H   UNL     1      57.030  33.296  90.560  1.00  0.00     0.210 HD
ENDBRANCH   8   9
ENDBRANCH   3   8
BRANCH   4  11
ATOM     11  O   UNL     1      52.719  31.348  92.452  1.00  0.00    -0.387 OA
ATOM     12  H   UNL     1      51.731  31.254  92.433  1.00  0.00     0.211 HD
ENDBRANCH   4  11
BRANCH   6  13
ATOM     13  O   UNL     1      51.057  29.953  90.916  1.00  0.00    -0.387 OA
ATOM     14  H   UNL     1      50.574  29.403  90.245  1.00  0.00     0.211 HD
ENDBRANCH   6  13
BRANCH   7  15
ATOM     15  O   UNL     1      50.272  31.681  88.796  1.00  0.00    -0.385 OA
ATOM     16  H   UNL     1      49.583  32.385  88.924  1.00  0.00     0.211 HD
ENDBRANCH   7  15
ENDBRANCH   1   2
BRANCH   1  17
ATOM     17  C   UNL     1      51.699  33.978  86.906  1.00  0.00     0.224 C 
ATOM     18  C   UNL     1      51.971  33.934  85.385  1.00  0.00     0.208 C 
ATOM     19  O   UNL     1      50.298  34.128  87.105  1.00  0.00    -0.337 OA
ATOM     20  C   UNL     1      50.724  34.543  84.789  1.00  0.00     0.180 C 
ATOM     21  C   UNL     1      49.666  34.237  85.847  1.00  0.00     0.179 C 
BRANCH  17  22
ATOM     22  C   UNL     1      52.409  35.184  87.552  1.00  0.00     0.225 C 
BRANCH  22  23
ATOM     23  O   UNL     1      53.259  35.813  86.633  1.00  0.00    -0.391 OA
ATOM     24  H   UNL     1      53.363  35.181  85.875  1.00  0.00     0.210 HD
ENDBRANCH  22  23
ENDBRANCH  17  22
BRANCH  18  25
ATOM     25  O   UNL     1      52.179  32.616  84.925  1.00  0.00    -0.385 OA
ATOM     26  H   UNL     1      51.350  32.309  84.472  1.00  0.00     0.211 HD
ENDBRANCH  18  25
BRANCH  20  27
ATOM     27  O   UNL     1      50.406  33.960  83.551  1.00  0.00    -0.387 OA
ATOM     28  H   UNL     1      49.541  34.353  83.263  1.00  0.00     0.211 HD
ENDBRANCH  20  27
BRANCH  21  29
ATOM     29  C   UNL     1      48.577  35.317  85.921  1.00  0.00     0.191 C 
BRANCH  29  30
ATOM     30  O   UNL     1      48.140  35.680  84.639  1.00  0.00    -0.394 OA
ATOM     31  H   UNL     1      47.477  36.409  84.761  1.00  0.00     0.210 HD
ENDBRANCH  29  30
ENDBRANCH  21  29
ENDBRANCH   1  17
TORSDOF 13
ENDMDL
