MODEL 1
REMARK VINA RESULT:    -3.717      0.000      0.000
REMARK INTER + INTRA:          -8.939
REMARK INTER:                  -7.194
REMARK INTRA:                  -1.745
REMARK UNBOUND:                -1.745
REMARK SMILES CCCCCC=CCC=CCCCCCCCCOC(C)=O
REMARK SMILES IDX 12 1 11 2 10 3 9 4 8 5 7 6 6 7 5 8 4 9 3 10 2 11 1 12 13 13
REMARK SMILES IDX 14 14 15 15 16 16 17 17 18 18 19 19 20 20 22 21 21 22
REMARK H PARENT
REMARK Flexibility Score: inf
ROOT
ATOM      1  C   UNL     1       0.243   7.145 -17.616  1.00  0.00     0.004 C 
ENDROOT
BRANCH   1   2
ATOM      2  C   UNL     1       0.048   6.111 -16.499  1.00  0.00     0.027 C 
BRANCH   2   3
ATOM      3  C   UNL     1       0.257   6.711 -15.128  1.00  0.00    -0.031 C 
ATOM      4  C   UNL     1       0.538   6.029 -14.001  1.00  0.00    -0.027 C 
BRANCH   4   5
ATOM      5  C   UNL     1       0.669   4.530 -13.885  1.00  0.00     0.054 C 
BRANCH   5   6
ATOM      6  C   UNL     1       1.805   4.174 -12.964  1.00  0.00    -0.027 C 
ATOM      7  C   UNL     1       1.692   4.048 -11.628  1.00  0.00    -0.031 C 
BRANCH   7   8
ATOM      8  C   UNL     1       0.423   4.301 -10.849  1.00  0.00     0.027 C 
BRANCH   8   9
ATOM      9  C   UNL     1       0.614   5.385  -9.778  1.00  0.00     0.004 C 
BRANCH   9  10
ATOM     10  C   UNL     1       0.311   6.791 -10.324  1.00  0.00     0.000 C 
BRANCH  10  11
ATOM     11  C   UNL     1       1.515   7.739 -10.212  1.00  0.00    -0.003 C 
ATOM     12  C   UNL     1       2.478   7.345  -9.093  1.00  0.00     0.004 C 
ENDBRANCH  10  11
ENDBRANCH   9  10
ENDBRANCH   8   9
ENDBRANCH   7   8
ENDBRANCH   5   6
ENDBRANCH   4   5
ENDBRANCH   2   3
ENDBRANCH   1   2
BRANCH   1  13
ATOM     13  C   UNL     1       0.342   8.580 -17.083  1.00  0.00     0.000 C 
BRANCH  13  14
ATOM     14  C   UNL     1       1.380   9.390 -17.867  1.00  0.00     0.000 C 
BRANCH  14  15
ATOM     15  C   UNL     1       0.709  10.530 -18.648  1.00  0.00     0.000 C 
BRANCH  15  16
ATOM     16  C   UNL     1       0.373  10.146 -20.100  1.00  0.00     0.003 C 
BRANCH  16  17
ATOM     17  C   UNL     1       1.580  10.091 -21.053  1.00  0.00     0.042 C 
BRANCH  17  18
ATOM     18  C   UNL     1       1.477   8.964 -22.087  1.00  0.00     0.233 C 
BRANCH  18  19
ATOM     19  O   UNL     1       2.596   8.086 -21.980  1.00  0.00    -0.466 OA
BRANCH  19  20
ATOM     20  C   UNL     1       2.807   7.239 -20.886  1.00  0.00     0.302 C 
ATOM     21  O   UNL     1       2.036   6.265 -20.666  1.00  0.00    -0.253 OA
ATOM     22  C   UNL     1       3.928   7.517 -19.944  1.00  0.00     0.139 C 
ENDBRANCH  19  20
ENDBRANCH  18  19
ENDBRANCH  17  18
ENDBRANCH  16  17
ENDBRANCH  15  16
ENDBRANCH  14  15
ENDBRANCH  13  14
ENDBRANCH   1  13
TORSDOF 16
ENDMDL
MODEL 2
REMARK VINA RESULT:    -3.471     11.340     15.646
REMARK INTER + INTRA:          -8.462
REMARK INTER:                  -7.263
REMARK INTRA:                  -1.200
REMARK UNBOUND:                -1.745
REMARK SMILES CCCCCC=CCC=CCCCCCCCCOC(C)=O
REMARK SMILES IDX 12 1 11 2 10 3 9 4 8 5 7 6 6 7 5 8 4 9 3 10 2 11 1 12 13 13
REMARK SMILES IDX 14 14 15 15 16 16 17 17 18 18 19 19 20 20 22 21 21 22
REMARK H PARENT
REMARK Flexibility Score: inf
ROOT
ATOM      1  C   UNL     1       8.272  -3.581 -13.798  1.00  0.00     0.004 C 
ENDROOT
BRANCH   1   2
ATOM      2  C   UNL     1       8.974  -2.226 -13.961  1.00  0.00     0.027 C 
BRANCH   2   3
ATOM      3  C   UNL     1       8.010  -1.132 -14.356  1.00  0.00    -0.031 C 
ATOM      4  C   UNL     1       8.227  -0.185 -15.290  1.00  0.00    -0.027 C 
BRANCH   4   5
ATOM      5  C   UNL     1       9.488  -0.020 -16.103  1.00  0.00     0.054 C 
BRANCH   5   6
ATOM      6  C   UNL     1       9.645   1.412 -16.539  1.00  0.00    -0.027 C 
ATOM      7  C   UNL     1       9.331   1.874 -17.765  1.00  0.00    -0.031 C 
BRANCH   7   8
ATOM      8  C   UNL     1       8.829   1.014 -18.900  1.00  0.00     0.027 C 
BRANCH   8   9
ATOM      9  C   UNL     1       7.330   0.705 -18.767  1.00  0.00     0.004 C 
BRANCH   9  10
ATOM     10  C   UNL     1       6.945  -0.592 -19.498  1.00  0.00     0.000 C 
BRANCH  10  11
ATOM     11  C   UNL     1       8.113  -1.586 -19.592  1.00  0.00    -0.003 C 
ATOM     12  C   UNL     1       8.021  -2.494 -20.818  1.00  0.00     0.004 C 
ENDBRANCH  10  11
ENDBRANCH   9  10
ENDBRANCH   8   9
ENDBRANCH   7   8
ENDBRANCH   5   6
ENDBRANCH   4   5
ENDBRANCH   2   3
ENDBRANCH   1   2
BRANCH   1  13
ATOM     13  C   UNL     1       9.217  -4.767 -14.028  1.00  0.00     0.000 C 
BRANCH  13  14
ATOM     14  C   UNL     1       8.581  -6.080 -13.556  1.00  0.00     0.000 C 
BRANCH  14  15
ATOM     15  C   UNL     1       7.204  -5.827 -12.927  1.00  0.00     0.000 C 
BRANCH  15  16
ATOM     16  C   UNL     1       6.834  -6.864 -11.853  1.00  0.00     0.003 C 
BRANCH  16  17
ATOM     17  C   UNL     1       5.444  -7.503 -12.019  1.00  0.00     0.042 C 
BRANCH  17  18
ATOM     18  C   UNL     1       5.259  -8.766 -11.169  1.00  0.00     0.233 C 
BRANCH  18  19
ATOM     19  O   UNL     1       3.996  -8.739 -10.506  1.00  0.00    -0.466 OA
BRANCH  19  20
ATOM     20  C   UNL     1       3.530  -7.634  -9.786  1.00  0.00     0.302 C 
ATOM     21  O   UNL     1       4.101  -7.269  -8.722  1.00  0.00    -0.253 OA
ATOM     22  C   UNL     1       2.315  -6.908 -10.254  1.00  0.00     0.139 C 
ENDBRANCH  19  20
ENDBRANCH  18  19
ENDBRANCH  17  18
ENDBRANCH  16  17
ENDBRANCH  15  16
ENDBRANCH  14  15
ENDBRANCH  13  14
ENDBRANCH   1  13
TORSDOF 16
ENDMDL
MODEL 3
REMARK VINA RESULT:    -3.387     10.809     14.878
REMARK INTER + INTRA:          -8.299
REMARK INTER:                  -7.357
REMARK INTRA:                  -0.942
REMARK UNBOUND:                -1.745
REMARK SMILES CCCCCC=CCC=CCCCCCCCCOC(C)=O
REMARK SMILES IDX 12 1 11 2 10 3 9 4 8 5 7 6 6 7 5 8 4 9 3 10 2 11 1 12 13 13
REMARK SMILES IDX 14 14 15 15 16 16 17 17 18 18 19 19 20 20 22 21 21 22
REMARK H PARENT
REMARK Flexibility Score: inf
ROOT
ATOM      1  C   UNL     1       3.403  -3.786 -13.928  1.00  0.00     0.004 C 
ENDROOT
BRANCH   1   2
ATOM      2  C   UNL     1       4.911  -3.603 -13.707  1.00  0.00     0.027 C 
BRANCH   2   3
ATOM      3  C   UNL     1       5.282  -2.154 -13.496  1.00  0.00    -0.031 C 
ATOM      4  C   UNL     1       6.514  -1.626 -13.627  1.00  0.00    -0.027 C 
BRANCH   4   5
ATOM      5  C   UNL     1       7.768  -2.387 -13.984  1.00  0.00     0.054 C 
BRANCH   5   6
ATOM      6  C   UNL     1       8.960  -1.469 -13.968  1.00  0.00    -0.027 C 
ATOM      7  C   UNL     1       9.208  -0.524 -14.895  1.00  0.00    -0.031 C 
BRANCH   7   8
ATOM      8  C   UNL     1       8.358  -0.283 -16.119  1.00  0.00     0.027 C 
BRANCH   8   9
ATOM      9  C   UNL     1       9.166   0.344 -17.265  1.00  0.00     0.004 C 
BRANCH   9  10
ATOM     10  C   UNL     1       9.911   1.612 -16.814  1.00  0.00     0.000 C 
BRANCH  10  11
ATOM     11  C   UNL     1       9.176   2.901 -17.211  1.00  0.00    -0.003 C 
ATOM     12  C   UNL     1       8.746   3.734 -16.004  1.00  0.00     0.004 C 
ENDBRANCH  10  11
ENDBRANCH   9  10
ENDBRANCH   8   9
ENDBRANCH   7   8
ENDBRANCH   5   6
ENDBRANCH   4   5
ENDBRANCH   2   3
ENDBRANCH   1   2
BRANCH   1  13
ATOM     13  C   UNL     1       3.059  -5.142 -14.557  1.00  0.00     0.000 C 
BRANCH  13  14
ATOM     14  C   UNL     1       4.234  -6.119 -14.442  1.00  0.00     0.000 C 
BRANCH  14  15
ATOM     15  C   UNL     1       4.303  -6.731 -13.035  1.00  0.00     0.000 C 
BRANCH  15  16
ATOM     16  C   UNL     1       5.744  -6.916 -12.531  1.00  0.00     0.003 C 
BRANCH  16  17
ATOM     17  C   UNL     1       5.880  -7.757 -11.249  1.00  0.00     0.042 C 
BRANCH  17  18
ATOM     18  C   UNL     1       4.802  -8.839 -11.123  1.00  0.00     0.233 C 
BRANCH  18  19
ATOM     19  O   UNL     1       4.085  -8.687  -9.899  1.00  0.00    -0.466 OA
BRANCH  19  20
ATOM     20  C   UNL     1       3.492  -7.484  -9.499  1.00  0.00     0.302 C 
ATOM     21  O   UNL     1       3.980  -6.808  -8.552  1.00  0.00    -0.253 OA
ATOM     22  C   UNL     1       2.244  -7.019 -10.167  1.00  0.00     0.139 C 
ENDBRANCH  19  20
ENDBRANCH  18  19
ENDBRANCH  17  18
ENDBRANCH  16  17
ENDBRANCH  15  16
ENDBRANCH  14  15
ENDBRANCH  13  14
ENDBRANCH   1  13
TORSDOF 16
ENDMDL
MODEL 4
REMARK VINA RESULT:    -3.176     10.366     14.349
REMARK INTER + INTRA:          -7.892
REMARK INTER:                  -6.656
REMARK INTRA:                  -1.236
REMARK UNBOUND:                -1.745
REMARK SMILES CCCCCC=CCC=CCCCCCCCCOC(C)=O
REMARK SMILES IDX 12 1 11 2 10 3 9 4 8 5 7 6 6 7 5 8 4 9 3 10 2 11 1 12 13 13
REMARK SMILES IDX 14 14 15 15 16 16 17 17 18 18 19 19 20 20 22 21 21 22
REMARK H PARENT
REMARK Flexibility Score: inf
ROOT
ATOM      1  C   UNL     1       8.275  -3.665 -13.908  1.00  0.00     0.004 C 
ENDROOT
BRANCH   1   2
ATOM      2  C   UNL     1       9.008  -2.317 -13.933  1.00  0.00     0.027 C 
BRANCH   2   3
ATOM      3  C   UNL     1       8.067  -1.163 -14.190  1.00  0.00    -0.031 C 
ATOM      4  C   UNL     1       8.211  -0.221 -15.142  1.00  0.00    -0.027 C 
BRANCH   4   5
ATOM      5  C   UNL     1       9.358  -0.121 -16.118  1.00  0.00     0.054 C 
BRANCH   5   6
ATOM      6  C   UNL     1       9.664   1.322 -16.420  1.00  0.00    -0.027 C 
ATOM      7  C   UNL     1       9.413   1.925 -17.597  1.00  0.00    -0.031 C 
BRANCH   7   8
ATOM      8  C   UNL     1       8.840   1.229 -18.809  1.00  0.00     0.027 C 
BRANCH   8   9
ATOM      9  C   UNL     1       7.440   0.659 -18.535  1.00  0.00     0.004 C 
BRANCH   9  10
ATOM     10  C   UNL     1       7.069  -0.455 -19.529  1.00  0.00     0.000 C 
BRANCH  10  11
ATOM     11  C   UNL     1       8.180  -1.504 -19.680  1.00  0.00    -0.003 C 
ATOM     12  C   UNL     1       7.918  -2.485 -20.822  1.00  0.00     0.004 C 
ENDBRANCH  10  11
ENDBRANCH   9  10
ENDBRANCH   8   9
ENDBRANCH   7   8
ENDBRANCH   5   6
ENDBRANCH   4   5
ENDBRANCH   2   3
ENDBRANCH   1   2
BRANCH   1  13
ATOM     13  C   UNL     1       9.232  -4.855 -13.765  1.00  0.00     0.000 C 
BRANCH  13  14
ATOM     14  C   UNL     1       8.487  -6.109 -13.294  1.00  0.00     0.000 C 
BRANCH  14  15
ATOM     15  C   UNL     1       6.985  -5.829 -13.138  1.00  0.00     0.000 C 
BRANCH  15  16
ATOM     16  C   UNL     1       6.278  -6.839 -12.218  1.00  0.00     0.003 C 
BRANCH  16  17
ATOM     17  C   UNL     1       4.802  -7.106 -12.559  1.00  0.00     0.042 C 
BRANCH  17  18
ATOM     18  C   UNL     1       4.328  -6.350 -13.806  1.00  0.00     0.233 C 
BRANCH  18  19
ATOM     19  O   UNL     1       3.320  -5.402 -13.460  1.00  0.00    -0.466 OA
BRANCH  19  20
ATOM     20  C   UNL     1       3.245  -4.120 -14.015  1.00  0.00     0.302 C 
ATOM     21  O   UNL     1       2.289  -3.798 -14.773  1.00  0.00    -0.253 OA
ATOM     22  C   UNL     1       4.333  -3.136 -13.748  1.00  0.00     0.139 C 
ENDBRANCH  19  20
ENDBRANCH  18  19
ENDBRANCH  17  18
ENDBRANCH  16  17
ENDBRANCH  15  16
ENDBRANCH  14  15
ENDBRANCH  13  14
ENDBRANCH   1  13
TORSDOF 16
ENDMDL
MODEL 5
REMARK VINA RESULT:    -3.149     10.003     12.720
REMARK INTER + INTRA:          -7.840
REMARK INTER:                  -6.445
REMARK INTRA:                  -1.395
REMARK UNBOUND:                -1.745
REMARK SMILES CCCCCC=CCC=CCCCCCCCCOC(C)=O
REMARK SMILES IDX 12 1 11 2 10 3 9 4 8 5 7 6 6 7 5 8 4 9 3 10 2 11 1 12 13 13
REMARK SMILES IDX 14 14 15 15 16 16 17 17 18 18 19 19 20 20 22 21 21 22
REMARK H PARENT
REMARK Flexibility Score: inf
ROOT
ATOM      1  C   UNL     1       3.970  -2.749 -13.875  1.00  0.00     0.004 C 
ENDROOT
BRANCH   1   2
ATOM      2  C   UNL     1       3.027  -3.959 -13.882  1.00  0.00     0.027 C 
BRANCH   2   3
ATOM      3  C   UNL     1       3.382  -4.951 -14.965  1.00  0.00    -0.031 C 
ATOM      4  C   UNL     1       3.843  -6.202 -14.773  1.00  0.00    -0.027 C 
BRANCH   4   5
ATOM      5  C   UNL     1       4.118  -6.846 -13.436  1.00  0.00     0.054 C 
BRANCH   5   6
ATOM      6  C   UNL     1       5.527  -6.553 -12.994  1.00  0.00    -0.027 C 
ATOM      7  C   UNL     1       6.158  -7.188 -11.988  1.00  0.00    -0.031 C 
BRANCH   7   8
ATOM      8  C   UNL     1       5.527  -8.247 -11.117  1.00  0.00     0.027 C 
BRANCH   8   9
ATOM      9  C   UNL     1       4.470  -7.658 -10.170  1.00  0.00     0.004 C 
BRANCH   9  10
ATOM     10  C   UNL     1       3.281  -8.613  -9.973  1.00  0.00     0.000 C 
BRANCH  10  11
ATOM     11  C   UNL     1       1.942  -7.870  -9.843  1.00  0.00    -0.003 C 
ATOM     12  C   UNL     1       1.964  -6.491 -10.502  1.00  0.00     0.004 C 
ENDBRANCH  10  11
ENDBRANCH   9  10
ENDBRANCH   8   9
ENDBRANCH   7   8
ENDBRANCH   5   6
ENDBRANCH   4   5
ENDBRANCH   2   3
ENDBRANCH   1   2
BRANCH   1  13
ATOM     13  C   UNL     1       5.374  -3.097 -13.365  1.00  0.00     0.000 C 
BRANCH  13  14
ATOM     14  C   UNL     1       6.382  -2.002 -13.731  1.00  0.00     0.000 C 
BRANCH  14  15
ATOM     15  C   UNL     1       7.796  -2.584 -13.877  1.00  0.00     0.000 C 
BRANCH  15  16
ATOM     16  C   UNL     1       8.872  -1.503 -14.076  1.00  0.00     0.003 C 
BRANCH  16  17
ATOM     17  C   UNL     1       8.516  -0.413 -15.102  1.00  0.00     0.042 C 
BRANCH  17  18
ATOM     18  C   UNL     1       9.339  -0.510 -16.392  1.00  0.00     0.233 C 
BRANCH  18  19
ATOM     19  O   UNL     1       9.663   0.793 -16.875  1.00  0.00    -0.466 OA
BRANCH  19  20
ATOM     20  C   UNL     1       8.705   1.785 -17.112  1.00  0.00     0.302 C 
ATOM     21  O   UNL     1       7.719   1.563 -17.868  1.00  0.00    -0.253 OA
ATOM     22  C   UNL     1       8.876   3.135 -16.504  1.00  0.00     0.139 C 
ENDBRANCH  19  20
ENDBRANCH  18  19
ENDBRANCH  17  18
ENDBRANCH  16  17
ENDBRANCH  15  16
ENDBRANCH  14  15
ENDBRANCH  13  14
ENDBRANCH   1  13
TORSDOF 16
ENDMDL
MODEL 6
REMARK VINA RESULT:    -3.121     10.572     13.770
REMARK INTER + INTRA:          -7.785
REMARK INTER:                  -6.207
REMARK INTRA:                  -1.578
REMARK UNBOUND:                -1.745
REMARK SMILES CCCCCC=CCC=CCCCCCCCCOC(C)=O
REMARK SMILES IDX 12 1 11 2 10 3 9 4 8 5 7 6 6 7 5 8 4 9 3 10 2 11 1 12 13 13
REMARK SMILES IDX 14 14 15 15 16 16 17 17 18 18 19 19 20 20 22 21 21 22
REMARK H PARENT
REMARK Flexibility Score: inf
ROOT
ATOM      1  C   UNL     1       6.365  -6.791 -12.705  1.00  0.00     0.004 C 
ENDROOT
BRANCH   1   2
ATOM      2  C   UNL     1       6.452  -7.514 -11.354  1.00  0.00     0.027 C 
BRANCH   2   3
ATOM      3  C   UNL     1       5.444  -8.634 -11.244  1.00  0.00    -0.031 C 
ATOM      4  C   UNL     1       4.282  -8.589 -10.563  1.00  0.00    -0.027 C 
BRANCH   4   5
ATOM      5  C   UNL     1       3.778  -7.418  -9.755  1.00  0.00     0.054 C 
BRANCH   5   6
ATOM      6  C   UNL     1       2.403  -7.017 -10.217  1.00  0.00    -0.027 C 
ATOM      7  C   UNL     1       2.152  -6.294 -11.325  1.00  0.00    -0.031 C 
BRANCH   7   8
ATOM      8  C   UNL     1       3.215  -5.730 -12.237  1.00  0.00     0.027 C 
BRANCH   8   9
ATOM      9  C   UNL     1       2.935  -6.052 -13.713  1.00  0.00     0.004 C 
BRANCH   9  10
ATOM     10  C   UNL     1       3.269  -4.864 -14.632  1.00  0.00     0.000 C 
BRANCH  10  11
ATOM     11  C   UNL     1       3.296  -3.525 -13.880  1.00  0.00    -0.003 C 
ATOM     12  C   UNL     1       4.715  -3.025 -13.611  1.00  0.00     0.004 C 
ENDBRANCH  10  11
ENDBRANCH   9  10
ENDBRANCH   8   9
ENDBRANCH   7   8
ENDBRANCH   5   6
ENDBRANCH   4   5
ENDBRANCH   2   3
ENDBRANCH   1   2
BRANCH   1  13
ATOM     13  C   UNL     1       7.254  -5.541 -12.763  1.00  0.00     0.000 C 
BRANCH  13  14
ATOM     14  C   UNL     1       8.441  -5.752 -13.709  1.00  0.00     0.000 C 
BRANCH  14  15
ATOM     15  C   UNL     1       9.247  -4.455 -13.876  1.00  0.00     0.000 C 
BRANCH  15  16
ATOM     16  C   UNL     1       8.364  -3.196 -13.876  1.00  0.00     0.003 C 
BRANCH  16  17
ATOM     17  C   UNL     1       9.128  -1.867 -14.014  1.00  0.00     0.042 C 
BRANCH  17  18
ATOM     18  C   UNL     1       8.498  -0.916 -15.038  1.00  0.00     0.233 C 
BRANCH  18  19
ATOM     19  O   UNL     1       9.508  -0.156 -15.699  1.00  0.00    -0.466 OA
BRANCH  19  20
ATOM     20  C   UNL     1       9.255   0.666 -16.802  1.00  0.00     0.302 C 
ATOM     21  O   UNL     1      10.204   1.161 -17.471  1.00  0.00    -0.253 OA
ATOM     22  C   UNL     1       7.848   1.000 -17.166  1.00  0.00     0.139 C 
ENDBRANCH  19  20
ENDBRANCH  18  19
ENDBRANCH  17  18
ENDBRANCH  16  17
ENDBRANCH  15  16
ENDBRANCH  14  15
ENDBRANCH  13  14
ENDBRANCH   1  13
TORSDOF 16
ENDMDL
MODEL 7
REMARK VINA RESULT:    -3.111      1.327      2.248
REMARK INTER + INTRA:          -7.767
REMARK INTER:                  -6.506
REMARK INTRA:                  -1.260
REMARK UNBOUND:                -1.745
REMARK SMILES CCCCCC=CCC=CCCCCCCCCOC(C)=O
REMARK SMILES IDX 12 1 11 2 10 3 9 4 8 5 7 6 6 7 5 8 4 9 3 10 2 11 1 12 13 13
REMARK SMILES IDX 14 14 15 15 16 16 17 17 18 18 19 19 20 20 22 21 21 22
REMARK H PARENT
REMARK Flexibility Score: inf
ROOT
ATOM      1  C   UNL     1       0.543   5.082 -16.269  1.00  0.00     0.004 C 
ENDROOT
BRANCH   1   2
ATOM      2  C   UNL     1      -0.123   5.247 -14.897  1.00  0.00     0.027 C 
BRANCH   2   3
ATOM      3  C   UNL     1       0.154   6.602 -14.290  1.00  0.00    -0.031 C 
ATOM      4  C   UNL     1       0.299   6.867 -12.977  1.00  0.00    -0.027 C 
BRANCH   4   5
ATOM      5  C   UNL     1       0.187   5.863 -11.857  1.00  0.00     0.054 C 
BRANCH   5   6
ATOM      6  C   UNL     1       1.459   5.067 -11.737  1.00  0.00    -0.027 C 
ATOM      7  C   UNL     1       2.533   5.450 -11.021  1.00  0.00    -0.031 C 
BRANCH   7   8
ATOM      8  C   UNL     1       2.643   6.759 -10.278  1.00  0.00     0.027 C 
BRANCH   8   9
ATOM      9  C   UNL     1       2.340   6.597  -8.781  1.00  0.00     0.004 C 
BRANCH   9  10
ATOM     10  C   UNL     1       2.601   7.896  -7.998  1.00  0.00     0.000 C 
BRANCH  10  11
ATOM     11  C   UNL     1       1.351   8.782  -7.891  1.00  0.00    -0.003 C 
ATOM     12  C   UNL     1       0.053   8.006  -8.117  1.00  0.00     0.004 C 
ENDBRANCH  10  11
ENDBRANCH   9  10
ENDBRANCH   8   9
ENDBRANCH   7   8
ENDBRANCH   5   6
ENDBRANCH   4   5
ENDBRANCH   2   3
ENDBRANCH   1   2
BRANCH   1  13
ATOM     13  C   UNL     1      -0.125   5.934 -17.356  1.00  0.00     0.000 C 
BRANCH  13  14
ATOM     14  C   UNL     1       0.874   6.917 -17.979  1.00  0.00     0.000 C 
BRANCH  14  15
ATOM     15  C   UNL     1       0.402   8.367 -17.797  1.00  0.00     0.000 C 
BRANCH  15  16
ATOM     16  C   UNL     1       1.512   9.397 -18.065  1.00  0.00     0.003 C 
BRANCH  16  17
ATOM     17  C   UNL     1       1.213  10.396 -19.196  1.00  0.00     0.042 C 
BRANCH  17  18
ATOM     18  C   UNL     1       1.355   9.781 -20.593  1.00  0.00     0.233 C 
BRANCH  18  19
ATOM     19  O   UNL     1       2.305   8.717 -20.574  1.00  0.00    -0.466 OA
BRANCH  19  20
ATOM     20  C   UNL     1       2.406   7.757 -21.587  1.00  0.00     0.302 C 
ATOM     21  O   UNL     1       1.746   7.875 -22.656  1.00  0.00    -0.253 OA
ATOM     22  C   UNL     1       3.266   6.557 -21.383  1.00  0.00     0.139 C 
ENDBRANCH  19  20
ENDBRANCH  18  19
ENDBRANCH  17  18
ENDBRANCH  16  17
ENDBRANCH  15  16
ENDBRANCH  14  15
ENDBRANCH  13  14
ENDBRANCH   1  13
TORSDOF 16
ENDMDL
MODEL 8
REMARK VINA RESULT:    -3.025     11.276     15.582
REMARK INTER + INTRA:          -7.601
REMARK INTER:                  -7.012
REMARK INTRA:                  -0.588
REMARK UNBOUND:                -1.745
REMARK SMILES CCCCCC=CCC=CCCCCCCCCOC(C)=O
REMARK SMILES IDX 12 1 11 2 10 3 9 4 8 5 7 6 6 7 5 8 4 9 3 10 2 11 1 12 13 13
REMARK SMILES IDX 14 14 15 15 16 16 17 17 18 18 19 19 20 20 22 21 21 22
REMARK H PARENT
REMARK Flexibility Score: inf
ROOT
ATOM      1  C   UNL     1       9.177  -4.932 -13.878  1.00  0.00     0.004 C 
ENDROOT
BRANCH   1   2
ATOM      2  C   UNL     1       9.425  -3.474 -14.285  1.00  0.00     0.027 C 
BRANCH   2   3
ATOM      3  C   UNL     1       8.352  -2.548 -13.762  1.00  0.00    -0.031 C 
ATOM      4  C   UNL     1       8.096  -1.302 -14.206  1.00  0.00    -0.027 C 
BRANCH   4   5
ATOM      5  C   UNL     1       8.852  -0.581 -15.294  1.00  0.00     0.054 C 
BRANCH   5   6
ATOM      6  C   UNL     1       7.901  -0.078 -16.348  1.00  0.00    -0.027 C 
ATOM      7  C   UNL     1       8.275   0.368 -17.562  1.00  0.00    -0.031 C 
BRANCH   7   8
ATOM      8  C   UNL     1       9.707   0.484 -18.027  1.00  0.00     0.027 C 
BRANCH   8   9
ATOM      9  C   UNL     1      10.318   1.847 -17.666  1.00  0.00     0.004 C 
BRANCH   9  10
ATOM     10  C   UNL     1       9.239   2.926 -17.470  1.00  0.00     0.000 C 
BRANCH  10  11
ATOM     11  C   UNL     1       8.901   3.159 -15.990  1.00  0.00    -0.003 C 
ATOM     12  C   UNL     1       8.852   4.641 -15.619  1.00  0.00     0.004 C 
ENDBRANCH  10  11
ENDBRANCH   9  10
ENDBRANCH   8   9
ENDBRANCH   7   8
ENDBRANCH   5   6
ENDBRANCH   4   5
ENDBRANCH   2   3
ENDBRANCH   1   2
BRANCH   1  13
ATOM     13  C   UNL     1       7.726  -5.188 -13.452  1.00  0.00     0.000 C 
BRANCH  13  14
ATOM     14  C   UNL     1       7.638  -6.359 -12.466  1.00  0.00     0.000 C 
BRANCH  14  15
ATOM     15  C   UNL     1       6.180  -6.795 -12.262  1.00  0.00     0.000 C 
BRANCH  15  16
ATOM     16  C   UNL     1       6.040  -7.991 -11.303  1.00  0.00     0.003 C 
BRANCH  16  17
ATOM     17  C   UNL     1       4.592  -8.376 -10.953  1.00  0.00     0.042 C 
BRANCH  17  18
ATOM     18  C   UNL     1       4.060  -7.646  -9.714  1.00  0.00     0.233 C 
BRANCH  18  19
ATOM     19  O   UNL     1       2.869  -8.273  -9.241  1.00  0.00    -0.466 OA
BRANCH  19  20
ATOM     20  C   UNL     1       1.607  -8.053  -9.805  1.00  0.00     0.302 C 
ATOM     21  O   UNL     1       1.334  -6.957 -10.368  1.00  0.00    -0.253 OA
ATOM     22  C   UNL     1       0.558  -9.106  -9.699  1.00  0.00     0.139 C 
ENDBRANCH  19  20
ENDBRANCH  18  19
ENDBRANCH  17  18
ENDBRANCH  16  17
ENDBRANCH  15  16
ENDBRANCH  14  15
ENDBRANCH  13  14
ENDBRANCH   1  13
TORSDOF 16
ENDMDL
MODEL 9
REMARK VINA RESULT:    -3.021     10.861     15.181
REMARK INTER + INTRA:          -7.592
REMARK INTER:                  -6.464
REMARK INTRA:                  -1.129
REMARK UNBOUND:                -1.745
REMARK SMILES CCCCCC=CCC=CCCCCCCCCOC(C)=O
REMARK SMILES IDX 12 1 11 2 10 3 9 4 8 5 7 6 6 7 5 8 4 9 3 10 2 11 1 12 13 13
REMARK SMILES IDX 14 14 15 15 16 16 17 17 18 18 19 19 20 20 22 21 21 22
REMARK H PARENT
REMARK Flexibility Score: inf
ROOT
ATOM      1  C   UNL     1       6.879  -7.022 -11.632  1.00  0.00     0.004 C 
ENDROOT
BRANCH   1   2
ATOM      2  C   UNL     1       6.909  -5.996 -12.772  1.00  0.00     0.027 C 
BRANCH   2   3
ATOM      3  C   UNL     1       8.284  -5.868 -13.385  1.00  0.00    -0.031 C 
ATOM      4  C   UNL     1       8.837  -4.735 -13.858  1.00  0.00    -0.027 C 
BRANCH   4   5
ATOM      5  C   UNL     1       8.178  -3.378 -13.892  1.00  0.00     0.054 C 
BRANCH   5   6
ATOM      6  C   UNL     1       9.216  -2.290 -13.831  1.00  0.00    -0.027 C 
ATOM      7  C   UNL     1       9.090  -1.082 -14.413  1.00  0.00    -0.031 C 
BRANCH   7   8
ATOM      8  C   UNL     1       7.914  -0.660 -15.261  1.00  0.00     0.027 C 
BRANCH   8   9
ATOM      9  C   UNL     1       8.209   0.622 -16.055  1.00  0.00     0.004 C 
BRANCH   9  10
ATOM     10  C   UNL     1       9.364   0.426 -17.052  1.00  0.00     0.000 C 
BRANCH  10  11
ATOM     11  C   UNL     1       8.924   0.625 -18.511  1.00  0.00    -0.003 C 
ATOM     12  C   UNL     1       7.406   0.588 -18.683  1.00  0.00     0.004 C 
ENDBRANCH  10  11
ENDBRANCH   9  10
ENDBRANCH   8   9
ENDBRANCH   7   8
ENDBRANCH   5   6
ENDBRANCH   4   5
ENDBRANCH   2   3
ENDBRANCH   1   2
BRANCH   1  13
ATOM     13  C   UNL     1       5.627  -7.909 -11.668  1.00  0.00     0.000 C 
BRANCH  13  14
ATOM     14  C   UNL     1       4.917  -7.917 -10.309  1.00  0.00     0.000 C 
BRANCH  14  15
ATOM     15  C   UNL     1       3.628  -8.750 -10.370  1.00  0.00     0.000 C 
BRANCH  15  16
ATOM     16  C   UNL     1       2.366  -7.925 -10.068  1.00  0.00     0.003 C 
BRANCH  16  17
ATOM     17  C   UNL     1       2.484  -6.421 -10.372  1.00  0.00     0.042 C 
BRANCH  17  18
ATOM     18  C   UNL     1       2.161  -6.076 -11.831  1.00  0.00     0.233 C 
BRANCH  18  19
ATOM     19  O   UNL     1       3.332  -5.622 -12.506  1.00  0.00    -0.466 OA
BRANCH  19  20
ATOM     20  C   UNL     1       3.372  -5.348 -13.878  1.00  0.00     0.302 C 
ATOM     21  O   UNL     1       3.730  -6.233 -14.702  1.00  0.00    -0.253 OA
ATOM     22  C   UNL     1       3.034  -3.981 -14.367  1.00  0.00     0.139 C 
ENDBRANCH  19  20
ENDBRANCH  18  19
ENDBRANCH  17  18
ENDBRANCH  16  17
ENDBRANCH  15  16
ENDBRANCH  14  15
ENDBRANCH  13  14
ENDBRANCH   1  13
TORSDOF 16
ENDMDL
