MODEL 1
REMARK VINA RESULT:    -4.581      0.000      0.000
REMARK INTER + INTRA:          -7.570
REMARK INTER:                  -6.991
REMARK INTRA:                  -0.578
REMARK UNBOUND:                -0.578
REMARK SMILES CCCCCCCCCCC(=O)[O-]
REMARK SMILES IDX 7 1 8 2 9 3 10 4 11 5 12 6 13 7 6 8 5 9 4 10 3 11 2 12 1 13
REMARK H PARENT
REMARK Flexibility Score: inf
ROOT
ATOM      1  C   UNL     1      11.349 -19.332 -14.916  1.00  0.00     0.000 C 
ENDROOT
BRANCH   1   2
ATOM      2  C   UNL     1      11.325 -18.526 -13.604  1.00  0.00     0.000 C 
BRANCH   2   3
ATOM      3  C   UNL     1      12.722 -18.070 -13.154  1.00  0.00     0.006 C 
BRANCH   3   4
ATOM      4  C   UNL     1      13.112 -16.753 -13.829  1.00  0.00     0.053 C 
BRANCH   4   5
ATOM      5  C   UNL     1      14.381 -16.918 -14.605  1.00  0.00     0.041 C 
ATOM      6  O   UNL     1      15.462 -16.455 -14.156  1.00  0.00    -0.550 OA
ATOM      7  O   UNL     1      14.379 -17.626 -15.800  1.00  0.00    -0.550 OA
ENDBRANCH   4   5
ENDBRANCH   3   4
ENDBRANCH   2   3
ENDBRANCH   1   2
BRANCH   1   8
ATOM      8  C   UNL     1      12.302 -20.541 -14.922  1.00  0.00     0.000 C 
BRANCH   8   9
ATOM      9  C   UNL     1      11.567 -21.883 -15.079  1.00  0.00    -0.000 C 
BRANCH   9  10
ATOM     10  C   UNL     1      11.671 -22.762 -13.821  1.00  0.00    -0.000 C 
BRANCH  10  11
ATOM     11  C   UNL     1      11.297 -24.229 -14.095  1.00  0.00    -0.000 C 
BRANCH  11  12
ATOM     12  C   UNL     1      12.514 -25.165 -14.049  1.00  0.00    -0.003 C 
ATOM     13  C   UNL     1      13.796 -24.450 -13.622  1.00  0.00     0.004 C 
ENDBRANCH  11  12
ENDBRANCH  10  11
ENDBRANCH   9  10
ENDBRANCH   8   9
ENDBRANCH   1   8
TORSDOF 9
ENDMDL
MODEL 2
REMARK VINA RESULT:    -4.551      1.426      2.317
REMARK INTER + INTRA:          -7.524
REMARK INTER:                  -7.045
REMARK INTRA:                  -0.479
REMARK UNBOUND:                -0.578
REMARK SMILES CCCCCCCCCCC(=O)[O-]
REMARK SMILES IDX 7 1 8 2 9 3 10 4 11 5 12 6 13 7 6 8 5 9 4 10 3 11 2 12 1 13
REMARK H PARENT
REMARK Flexibility Score: inf
ROOT
ATOM      1  C   UNL     1      12.777 -21.449 -14.543  1.00  0.00     0.000 C 
ENDROOT
BRANCH   1   2
ATOM      2  C   UNL     1      11.418 -20.849 -14.949  1.00  0.00     0.000 C 
BRANCH   2   3
ATOM      3  C   UNL     1      11.523 -19.389 -15.417  1.00  0.00     0.006 C 
BRANCH   3   4
ATOM      4  C   UNL     1      12.611 -18.642 -14.640  1.00  0.00     0.053 C 
BRANCH   4   5
ATOM      5  C   UNL     1      13.567 -17.981 -15.583  1.00  0.00     0.041 C 
ATOM      6  O   UNL     1      14.177 -16.935 -15.236  1.00  0.00    -0.550 OA
ATOM      7  O   UNL     1      13.822 -18.546 -16.826  1.00  0.00    -0.550 OA
ENDBRANCH   4   5
ENDBRANCH   3   4
ENDBRANCH   2   3
ENDBRANCH   1   2
BRANCH   1   8
ATOM      8  C   UNL     1      12.707 -22.844 -13.895  1.00  0.00     0.000 C 
BRANCH   8   9
ATOM      9  C   UNL     1      11.358 -23.546 -14.128  1.00  0.00    -0.000 C 
BRANCH   9  10
ATOM     10  C   UNL     1      11.480 -25.079 -14.105  1.00  0.00    -0.000 C 
BRANCH  10  11
ATOM     11  C   UNL     1      12.942 -25.553 -14.042  1.00  0.00    -0.000 C 
BRANCH  11  12
ATOM     12  C   UNL     1      13.093 -27.042 -14.384  1.00  0.00    -0.003 C 
ATOM     13  C   UNL     1      14.423 -27.363 -15.066  1.00  0.00     0.004 C 
ENDBRANCH  11  12
ENDBRANCH  10  11
ENDBRANCH   9  10
ENDBRANCH   8   9
ENDBRANCH   1   8
TORSDOF 9
ENDMDL
MODEL 3
REMARK VINA RESULT:    -4.537      1.116      2.059
REMARK INTER + INTRA:          -7.503
REMARK INTER:                  -6.513
REMARK INTRA:                  -0.990
REMARK UNBOUND:                -0.578
REMARK SMILES CCCCCCCCCCC(=O)[O-]
REMARK SMILES IDX 7 1 8 2 9 3 10 4 11 5 12 6 13 7 6 8 5 9 4 10 3 11 2 12 1 13
REMARK H PARENT
REMARK Flexibility Score: inf
ROOT
ATOM      1  C   UNL     1      11.491 -18.896 -13.122  1.00  0.00     0.000 C 
ENDROOT
BRANCH   1   2
ATOM      2  C   UNL     1      12.989 -18.578 -12.957  1.00  0.00     0.000 C 
BRANCH   2   3
ATOM      3  C   UNL     1      13.257 -17.098 -12.647  1.00  0.00     0.006 C 
BRANCH   3   4
ATOM      4  C   UNL     1      13.419 -16.289 -13.937  1.00  0.00     0.053 C 
BRANCH   4   5
ATOM      5  C   UNL     1      14.729 -16.602 -14.591  1.00  0.00     0.041 C 
ATOM      6  O   UNL     1      14.759 -17.018 -15.778  1.00  0.00    -0.550 OA
ATOM      7  O   UNL     1      15.918 -16.387 -13.906  1.00  0.00    -0.550 OA
ENDBRANCH   4   5
ENDBRANCH   3   4
ENDBRANCH   2   3
ENDBRANCH   1   2
BRANCH   1   8
ATOM      8  C   UNL     1      11.028 -19.130 -14.571  1.00  0.00     0.000 C 
BRANCH   8   9
ATOM      9  C   UNL     1      12.195 -19.397 -15.537  1.00  0.00    -0.000 C 
BRANCH   9  10
ATOM     10  C   UNL     1      12.376 -20.894 -15.842  1.00  0.00    -0.000 C 
BRANCH  10  11
ATOM     11  C   UNL     1      11.366 -21.775 -15.087  1.00  0.00    -0.000 C 
BRANCH  11  12
ATOM     12  C   UNL     1      12.049 -22.819 -14.192  1.00  0.00    -0.003 C 
ATOM     13  C   UNL     1      13.478 -22.430 -13.811  1.00  0.00     0.004 C 
ENDBRANCH  11  12
ENDBRANCH  10  11
ENDBRANCH   9  10
ENDBRANCH   8   9
ENDBRANCH   1   8
TORSDOF 9
ENDMDL
MODEL 4
REMARK VINA RESULT:    -4.518      3.387      6.251
REMARK INTER + INTRA:          -7.473
REMARK INTER:                  -6.794
REMARK INTRA:                  -0.679
REMARK UNBOUND:                -0.578
REMARK SMILES CCCCCCCCCCC(=O)[O-]
REMARK SMILES IDX 7 1 8 2 9 3 10 4 11 5 12 6 13 7 6 8 5 9 4 10 3 11 2 12 1 13
REMARK H PARENT
REMARK Flexibility Score: inf
ROOT
ATOM      1  C   UNL     1      11.299 -19.564 -14.928  1.00  0.00     0.000 C 
ENDROOT
BRANCH   1   2
ATOM      2  C   UNL     1      11.702 -21.013 -15.258  1.00  0.00     0.000 C 
BRANCH   2   3
ATOM      3  C   UNL     1      11.754 -21.918 -14.017  1.00  0.00     0.006 C 
BRANCH   3   4
ATOM      4  C   UNL     1      12.992 -22.818 -14.047  1.00  0.00     0.053 C 
BRANCH   4   5
ATOM      5  C   UNL     1      12.596 -24.258 -13.955  1.00  0.00     0.041 C 
ATOM      6  O   UNL     1      13.432 -25.123 -13.584  1.00  0.00    -0.550 OA
ATOM      7  O   UNL     1      11.289 -24.639 -14.231  1.00  0.00    -0.550 OA
ENDBRANCH   4   5
ENDBRANCH   3   4
ENDBRANCH   2   3
ENDBRANCH   1   2
BRANCH   1   8
ATOM      8  C   UNL     1      11.311 -19.207 -13.431  1.00  0.00     0.000 C 
BRANCH   8   9
ATOM      9  C   UNL     1      11.656 -17.730 -13.171  1.00  0.00    -0.000 C 
BRANCH   9  10
ATOM     10  C   UNL     1      13.171 -17.465 -13.200  1.00  0.00    -0.000 C 
BRANCH  10  11
ATOM     11  C   UNL     1      13.549 -16.316 -14.151  1.00  0.00    -0.000 C 
BRANCH  11  12
ATOM     12  C   UNL     1      14.639 -16.719 -15.157  1.00  0.00    -0.003 C 
ATOM     13  C   UNL     1      14.363 -18.068 -15.821  1.00  0.00     0.004 C 
ENDBRANCH  11  12
ENDBRANCH  10  11
ENDBRANCH   9  10
ENDBRANCH   8   9
ENDBRANCH   1   8
TORSDOF 9
ENDMDL
MODEL 5
REMARK VINA RESULT:    -4.510      3.524      6.287
REMARK INTER + INTRA:          -7.461
REMARK INTER:                  -6.724
REMARK INTRA:                  -0.738
REMARK UNBOUND:                -0.578
REMARK SMILES CCCCCCCCCCC(=O)[O-]
REMARK SMILES IDX 7 1 8 2 9 3 10 4 11 5 12 6 13 7 6 8 5 9 4 10 3 11 2 12 1 13
REMARK H PARENT
REMARK Flexibility Score: inf
ROOT
ATOM      1  C   UNL     1      11.568 -19.576 -14.873  1.00  0.00     0.000 C 
ENDROOT
BRANCH   1   2
ATOM      2  C   UNL     1      11.791 -20.710 -13.855  1.00  0.00     0.000 C 
BRANCH   2   3
ATOM      3  C   UNL     1      11.684 -22.109 -14.481  1.00  0.00     0.006 C 
BRANCH   3   4
ATOM      4  C   UNL     1      12.857 -22.993 -14.050  1.00  0.00     0.053 C 
BRANCH   4   5
ATOM      5  C   UNL     1      12.425 -24.422 -13.945  1.00  0.00     0.041 C 
ATOM      6  O   UNL     1      13.275 -25.327 -13.735  1.00  0.00    -0.550 OA
ATOM      7  O   UNL     1      11.077 -24.750 -14.029  1.00  0.00    -0.550 OA
ENDBRANCH   4   5
ENDBRANCH   3   4
ENDBRANCH   2   3
ENDBRANCH   1   2
BRANCH   1   8
ATOM      8  C   UNL     1      12.186 -19.816 -16.262  1.00  0.00     0.000 C 
BRANCH   8   9
ATOM      9  C   UNL     1      13.266 -18.782 -16.624  1.00  0.00    -0.000 C 
BRANCH   9  10
ATOM     10  C   UNL     1      14.248 -18.527 -15.468  1.00  0.00    -0.000 C 
BRANCH  10  11
ATOM     11  C   UNL     1      14.444 -17.028 -15.180  1.00  0.00    -0.000 C 
BRANCH  11  12
ATOM     12  C   UNL     1      13.465 -16.499 -14.122  1.00  0.00    -0.003 C 
ATOM     13  C   UNL     1      13.859 -16.894 -12.699  1.00  0.00     0.004 C 
ENDBRANCH  11  12
ENDBRANCH  10  11
ENDBRANCH   9  10
ENDBRANCH   8   9
ENDBRANCH   1   8
TORSDOF 9
ENDMDL
MODEL 6
REMARK VINA RESULT:    -4.507      3.458      6.458
REMARK INTER + INTRA:          -7.456
REMARK INTER:                  -6.759
REMARK INTRA:                  -0.697
REMARK UNBOUND:                -0.578
REMARK SMILES CCCCCCCCCCC(=O)[O-]
REMARK SMILES IDX 7 1 8 2 9 3 10 4 11 5 12 6 13 7 6 8 5 9 4 10 3 11 2 12 1 13
REMARK H PARENT
REMARK Flexibility Score: inf
ROOT
ATOM      1  C   UNL     1      11.702 -20.655 -15.274  1.00  0.00     0.000 C 
ENDROOT
BRANCH   1   2
ATOM      2  C   UNL     1      12.993 -21.214 -14.648  1.00  0.00     0.000 C 
BRANCH   2   3
ATOM      3  C   UNL     1      12.752 -22.470 -13.797  1.00  0.00     0.006 C 
BRANCH   3   4
ATOM      4  C   UNL     1      11.495 -23.212 -14.260  1.00  0.00     0.053 C 
BRANCH   4   5
ATOM      5  C   UNL     1      11.717 -24.692 -14.222  1.00  0.00     0.041 C 
ATOM      6  O   UNL     1      10.787 -25.480 -14.536  1.00  0.00    -0.550 OA
ATOM      7  O   UNL     1      12.966 -25.200 -13.889  1.00  0.00    -0.550 OA
ENDBRANCH   4   5
ENDBRANCH   3   4
ENDBRANCH   2   3
ENDBRANCH   1   2
BRANCH   1   8
ATOM      8  C   UNL     1      11.382 -19.193 -14.915  1.00  0.00     0.000 C 
BRANCH   8   9
ATOM      9  C   UNL     1      11.329 -18.947 -13.397  1.00  0.00    -0.000 C 
BRANCH   9  10
ATOM     10  C   UNL     1      12.573 -18.209 -12.876  1.00  0.00    -0.000 C 
BRANCH  10  11
ATOM     11  C   UNL     1      12.702 -16.789 -13.456  1.00  0.00    -0.000 C 
BRANCH  11  12
ATOM     12  C   UNL     1      14.133 -16.469 -13.914  1.00  0.00    -0.003 C 
ATOM     13  C   UNL     1      14.460 -17.052 -15.289  1.00  0.00     0.004 C 
ENDBRANCH  11  12
ENDBRANCH  10  11
ENDBRANCH   9  10
ENDBRANCH   8   9
ENDBRANCH   1   8
TORSDOF 9
ENDMDL
MODEL 7
REMARK VINA RESULT:    -4.448      2.874      5.759
REMARK INTER + INTRA:          -7.366
REMARK INTER:                  -6.571
REMARK INTRA:                  -0.795
REMARK UNBOUND:                -0.578
REMARK SMILES CCCCCCCCCCC(=O)[O-]
REMARK SMILES IDX 7 1 8 2 9 3 10 4 11 5 12 6 13 7 6 8 5 9 4 10 3 11 2 12 1 13
REMARK H PARENT
REMARK Flexibility Score: inf
ROOT
ATOM      1  C   UNL     1      13.284 -18.734 -16.497  1.00  0.00     0.000 C 
ENDROOT
BRANCH   1   2
ATOM      2  C   UNL     1      12.164 -19.771 -16.291  1.00  0.00     0.000 C 
BRANCH   2   3
ATOM      3  C   UNL     1      12.430 -20.714 -15.107  1.00  0.00     0.006 C 
BRANCH   3   4
ATOM      4  C   UNL     1      11.426 -21.869 -15.091  1.00  0.00     0.053 C 
BRANCH   4   5
ATOM      5  C   UNL     1      11.832 -22.902 -14.086  1.00  0.00     0.041 C 
ATOM      6  O   UNL     1      11.016 -23.790 -13.727  1.00  0.00    -0.550 OA
ATOM      7  O   UNL     1      13.127 -22.914 -13.585  1.00  0.00    -0.550 OA
ENDBRANCH   4   5
ENDBRANCH   3   4
ENDBRANCH   2   3
ENDBRANCH   1   2
BRANCH   1   8
ATOM      8  C   UNL     1      14.045 -18.332 -15.221  1.00  0.00     0.000 C 
BRANCH   8   9
ATOM      9  C   UNL     1      13.917 -16.834 -14.894  1.00  0.00    -0.000 C 
BRANCH   9  10
ATOM     10  C   UNL     1      13.203 -16.583 -13.556  1.00  0.00    -0.000 C 
BRANCH  10  11
ATOM     11  C   UNL     1      11.977 -17.493 -13.362  1.00  0.00    -0.000 C 
BRANCH  11  12
ATOM     12  C   UNL     1      12.055 -18.317 -12.068  1.00  0.00    -0.003 C 
ATOM     13  C   UNL     1      10.686 -18.794 -11.585  1.00  0.00     0.004 C 
ENDBRANCH  11  12
ENDBRANCH  10  11
ENDBRANCH   9  10
ENDBRANCH   8   9
ENDBRANCH   1   8
TORSDOF 9
ENDMDL
MODEL 8
REMARK VINA RESULT:    -4.438      3.561      6.306
REMARK INTER + INTRA:          -7.351
REMARK INTER:                  -6.753
REMARK INTRA:                  -0.598
REMARK UNBOUND:                -0.578
REMARK SMILES CCCCCCCCCCC(=O)[O-]
REMARK SMILES IDX 7 1 8 2 9 3 10 4 11 5 12 6 13 7 6 8 5 9 4 10 3 11 2 12 1 13
REMARK H PARENT
REMARK Flexibility Score: inf
ROOT
ATOM      1  C   UNL     1      12.491 -20.740 -15.583  1.00  0.00     0.000 C 
ENDROOT
BRANCH   1   2
ATOM      2  C   UNL     1      11.495 -21.702 -14.909  1.00  0.00     0.000 C 
BRANCH   2   3
ATOM      3  C   UNL     1      12.184 -22.788 -14.069  1.00  0.00     0.006 C 
BRANCH   3   4
ATOM      4  C   UNL     1      11.414 -24.109 -14.143  1.00  0.00     0.053 C 
BRANCH   4   5
ATOM      5  C   UNL     1      12.351 -25.269 -14.018  1.00  0.00     0.041 C 
ATOM      6  O   UNL     1      12.010 -26.406 -14.437  1.00  0.00    -0.550 OA
ATOM      7  O   UNL     1      13.620 -25.084 -13.484  1.00  0.00    -0.550 OA
ENDBRANCH   4   5
ENDBRANCH   3   4
ENDBRANCH   2   3
ENDBRANCH   1   2
BRANCH   1   8
ATOM      8  C   UNL     1      12.077 -19.257 -15.572  1.00  0.00     0.000 C 
BRANCH   8   9
ATOM      9  C   UNL     1      13.130 -18.346 -14.917  1.00  0.00    -0.000 C 
BRANCH   9  10
ATOM     10  C   UNL     1      12.607 -17.666 -13.641  1.00  0.00    -0.000 C 
BRANCH  10  11
ATOM     11  C   UNL     1      12.310 -18.672 -12.515  1.00  0.00    -0.000 C 
BRANCH  11  12
ATOM     12  C   UNL     1      10.832 -18.670 -12.099  1.00  0.00    -0.003 C 
ATOM     13  C   UNL     1      10.619 -19.153 -10.664  1.00  0.00     0.004 C 
ENDBRANCH  11  12
ENDBRANCH  10  11
ENDBRANCH   9  10
ENDBRANCH   8   9
ENDBRANCH   1   8
TORSDOF 9
ENDMDL
MODEL 9
REMARK VINA RESULT:    -4.385      2.061      2.898
REMARK INTER + INTRA:          -7.270
REMARK INTER:                  -6.545
REMARK INTRA:                  -0.726
REMARK UNBOUND:                -0.578
REMARK SMILES CCCCCCCCCCC(=O)[O-]
REMARK SMILES IDX 7 1 8 2 9 3 10 4 11 5 12 6 13 7 6 8 5 9 4 10 3 11 2 12 1 13
REMARK H PARENT
REMARK Flexibility Score: inf
ROOT
ATOM      1  C   UNL     1      13.966 -18.619 -15.225  1.00  0.00     0.000 C 
ENDROOT
BRANCH   1   2
ATOM      2  C   UNL     1      14.047 -17.081 -15.198  1.00  0.00     0.000 C 
BRANCH   2   3
ATOM      3  C   UNL     1      13.555 -16.477 -13.874  1.00  0.00     0.006 C 
BRANCH   3   4
ATOM      4  C   UNL     1      13.904 -17.388 -12.694  1.00  0.00     0.053 C 
BRANCH   4   5
ATOM      5  C   UNL     1      12.670 -17.743 -11.924  1.00  0.00     0.041 C 
ATOM      6  O   UNL     1      12.755 -18.079 -10.714  1.00  0.00    -0.550 OA
ATOM      7  O   UNL     1      11.423 -17.655 -12.529  1.00  0.00    -0.550 OA
ENDBRANCH   4   5
ENDBRANCH   3   4
ENDBRANCH   2   3
ENDBRANCH   1   2
BRANCH   1   8
ATOM      8  C   UNL     1      12.963 -19.203 -16.236  1.00  0.00     0.000 C 
BRANCH   8   9
ATOM      9  C   UNL     1      11.584 -19.487 -15.617  1.00  0.00    -0.000 C 
BRANCH   9  10
ATOM     10  C   UNL     1      11.654 -20.499 -14.462  1.00  0.00    -0.000 C 
BRANCH  10  11
ATOM     11  C   UNL     1      11.411 -21.945 -14.929  1.00  0.00    -0.000 C 
BRANCH  11  12
ATOM     12  C   UNL     1      12.163 -22.975 -14.074  1.00  0.00    -0.003 C 
ATOM     13  C   UNL     1      11.578 -24.382 -14.188  1.00  0.00     0.004 C 
ENDBRANCH  11  12
ENDBRANCH  10  11
ENDBRANCH   9  10
ENDBRANCH   8   9
ENDBRANCH   1   8
TORSDOF 9
ENDMDL
