MODEL 1
REMARK VINA RESULT:    -4.956      0.000      0.000
REMARK INTER + INTRA:          -5.675
REMARK INTER:                  -5.535
REMARK INTRA:                  -0.139
REMARK UNBOUND:                -0.139
REMARK SMILES C=CCc1ccc2c(c1)OCO2
REMARK SMILES IDX 3 1 2 2 1 3 4 4 9 5 5 6 8 7 6 8 7 9 10 10 12 11 11 12
REMARK H PARENT
REMARK Flexibility Score: inf
ROOT
ATOM      1  C   UNL     1       5.765  -5.864  88.086  1.00  0.00     0.062 C 
ENDROOT
BRANCH   1   2
ATOM      2  C   UNL     1       7.143  -6.463  88.081  1.00  0.00    -0.030 C 
ATOM      3  C   UNL     1       8.213  -5.764  87.690  1.00  0.00     0.004 C 
ENDBRANCH   1   2
BRANCH   1   4
ATOM      4  C   UNL     1       4.718  -6.937  88.209  1.00  0.00    -0.040 A 
ATOM      5  C   UNL     1       4.460  -7.533  89.464  1.00  0.00     0.054 A 
ATOM      6  C   UNL     1       3.954  -7.326  87.077  1.00  0.00     0.008 A 
ATOM      7  C   UNL     1       3.463  -8.502  89.534  1.00  0.00     0.166 A 
ATOM      8  C   UNL     1       2.955  -8.310  87.193  1.00  0.00     0.051 A 
ATOM      9  C   UNL     1       2.743  -8.874  88.447  1.00  0.00     0.165 A 
ATOM     10  O   UNL     1       3.037  -9.218  90.636  1.00  0.00    -0.454 OA
ATOM     11  O   UNL     1       1.828  -9.845  88.810  1.00  0.00    -0.454 OA
ATOM     12  C   UNL     1       1.984 -10.096  90.214  1.00  0.00     0.468 C 
ENDBRANCH   1   4
TORSDOF 2
ENDMDL
MODEL 2
REMARK VINA RESULT:    -4.910      2.545      3.991
REMARK INTER + INTRA:          -5.624
REMARK INTER:                  -5.397
REMARK INTRA:                  -0.227
REMARK UNBOUND:                -0.139
REMARK SMILES C=CCc1ccc2c(c1)OCO2
REMARK SMILES IDX 3 1 2 2 1 3 4 4 9 5 5 6 8 7 6 8 7 9 10 10 12 11 11 12
REMARK H PARENT
REMARK Flexibility Score: inf
ROOT
ATOM      1  C   UNL     1       4.264  -9.890  91.672  1.00  0.00     0.062 C 
ENDROOT
BRANCH   1   2
ATOM      2  C   UNL     1       5.735 -10.195  91.627  1.00  0.00    -0.030 C 
ATOM      3  C   UNL     1       6.199 -11.349  91.138  1.00  0.00     0.004 C 
ENDBRANCH   1   2
BRANCH   1   4
ATOM      4  C   UNL     1       3.772  -9.437  90.323  1.00  0.00    -0.040 A 
ATOM      5  C   UNL     1       4.183  -8.190  89.803  1.00  0.00     0.054 A 
ATOM      6  C   UNL     1       2.930 -10.278  89.548  1.00  0.00     0.008 A 
ATOM      7  C   UNL     1       3.725  -7.825  88.540  1.00  0.00     0.166 A 
ATOM      8  C   UNL     1       2.491  -9.871  88.275  1.00  0.00     0.051 A 
ATOM      9  C   UNL     1       2.914  -8.631  87.809  1.00  0.00     0.165 A 
ATOM     10  O   UNL     1       3.985  -6.669  87.832  1.00  0.00    -0.454 OA
ATOM     11  O   UNL     1       2.622  -8.019  86.605  1.00  0.00    -0.454 OA
ATOM     12  C   UNL     1       3.293  -6.751  86.578  1.00  0.00     0.468 C 
ENDBRANCH   1   4
TORSDOF 2
ENDMDL
MODEL 3
REMARK VINA RESULT:    -4.892      0.997      2.072
REMARK INTER + INTRA:          -5.604
REMARK INTER:                  -5.457
REMARK INTRA:                  -0.147
REMARK UNBOUND:                -0.139
REMARK SMILES C=CCc1ccc2c(c1)OCO2
REMARK SMILES IDX 3 1 2 2 1 3 4 4 9 5 5 6 8 7 6 8 7 9 10 10 12 11 11 12
REMARK H PARENT
REMARK Flexibility Score: inf
ROOT
ATOM      1  C   UNL     1       5.952  -5.798  88.186  1.00  0.00     0.062 C 
ENDROOT
BRANCH   1   2
ATOM      2  C   UNL     1       7.281  -6.476  88.005  1.00  0.00    -0.030 C 
ATOM      3  C   UNL     1       8.385  -5.788  87.698  1.00  0.00     0.004 C 
ENDBRANCH   1   2
BRANCH   1   4
ATOM      4  C   UNL     1       4.854  -6.814  88.357  1.00  0.00    -0.040 A 
ATOM      5  C   UNL     1       3.941  -7.050  87.306  1.00  0.00     0.054 A 
ATOM      6  C   UNL     1       4.757  -7.570  89.555  1.00  0.00     0.008 A 
ATOM      7  C   UNL     1       2.959  -8.019  87.498  1.00  0.00     0.166 A 
ATOM      8  C   UNL     1       3.750  -8.540  89.707  1.00  0.00     0.051 A 
ATOM      9  C   UNL     1       2.868  -8.731  88.649  1.00  0.00     0.165 A 
ATOM     10  O   UNL     1       1.965  -8.420  86.628  1.00  0.00    -0.454 OA
ATOM     11  O   UNL     1       1.810  -9.616  88.560  1.00  0.00    -0.454 OA
ATOM     12  C   UNL     1       1.200  -9.448  87.272  1.00  0.00     0.468 C 
ENDBRANCH   1   4
TORSDOF 2
ENDMDL
MODEL 4
REMARK VINA RESULT:    -4.873      7.072      8.385
REMARK INTER + INTRA:          -5.582
REMARK INTER:                  -5.380
REMARK INTRA:                  -0.202
REMARK UNBOUND:                -0.139
REMARK SMILES C=CCc1ccc2c(c1)OCO2
REMARK SMILES IDX 3 1 2 2 1 3 4 4 9 5 5 6 8 7 6 8 7 9 10 10 12 11 11 12
REMARK H PARENT
REMARK Flexibility Score: inf
ROOT
ATOM      1  C   UNL     1       5.776 -14.031  89.564  1.00  0.00     0.062 C 
ENDROOT
BRANCH   1   2
ATOM      2  C   UNL     1       5.249 -14.039  88.156  1.00  0.00    -0.030 C 
ATOM      3  C   UNL     1       4.501 -13.040  87.679  1.00  0.00     0.004 C 
ENDBRANCH   1   2
BRANCH   1   4
ATOM      4  C   UNL     1       7.212 -13.579  89.593  1.00  0.00    -0.040 A 
ATOM      5  C   UNL     1       8.207 -14.348  88.949  1.00  0.00     0.054 A 
ATOM      6  C   UNL     1       7.568 -12.360  90.227  1.00  0.00     0.008 A 
ATOM      7  C   UNL     1       9.517 -13.877  88.978  1.00  0.00     0.166 A 
ATOM      8  C   UNL     1       8.904 -11.921  90.233  1.00  0.00     0.051 A 
ATOM      9  C   UNL     1       9.850 -12.715  89.593  1.00  0.00     0.165 A 
ATOM     10  O   UNL     1      10.648 -14.448  88.428  1.00  0.00    -0.454 OA
ATOM     11  O   UNL     1      11.209 -12.498  89.462  1.00  0.00    -0.454 OA
ATOM     12  C   UNL     1      11.762 -13.592  88.717  1.00  0.00     0.468 C 
ENDBRANCH   1   4
TORSDOF 2
ENDMDL
MODEL 5
REMARK VINA RESULT:    -4.864      2.038      3.525
REMARK INTER + INTRA:          -5.573
REMARK INTER:                  -5.396
REMARK INTRA:                  -0.177
REMARK UNBOUND:                -0.139
REMARK SMILES C=CCc1ccc2c(c1)OCO2
REMARK SMILES IDX 3 1 2 2 1 3 4 4 9 5 5 6 8 7 6 8 7 9 10 10 12 11 11 12
REMARK H PARENT
REMARK Flexibility Score: inf
ROOT
ATOM      1  C   UNL     1       5.311  -8.751  91.382  1.00  0.00     0.062 C 
ENDROOT
BRANCH   1   2
ATOM      2  C   UNL     1       5.263 -10.215  91.717  1.00  0.00    -0.030 C 
ATOM      3  C   UNL     1       6.225 -11.058  91.329  1.00  0.00     0.004 C 
ENDBRANCH   1   2
BRANCH   1   4
ATOM      4  C   UNL     1       4.564  -8.472  90.105  1.00  0.00    -0.040 A 
ATOM      5  C   UNL     1       3.423  -9.236  89.773  1.00  0.00     0.054 A 
ATOM      6  C   UNL     1       4.973  -7.414  89.252  1.00  0.00     0.008 A 
ATOM      7  C   UNL     1       2.748  -8.924  88.596  1.00  0.00     0.166 A 
ATOM      8  C   UNL     1       4.261  -7.132  88.072  1.00  0.00     0.051 A 
ATOM      9  C   UNL     1       3.150  -7.916  87.782  1.00  0.00     0.165 A 
ATOM     10  O   UNL     1       1.623  -9.524  88.066  1.00  0.00    -0.454 OA
ATOM     11  O   UNL     1       2.298  -7.833  86.697  1.00  0.00    -0.454 OA
ATOM     12  C   UNL     1       1.298  -8.852  86.841  1.00  0.00     0.468 C 
ENDBRANCH   1   4
TORSDOF 2
ENDMDL
MODEL 6
REMARK VINA RESULT:    -4.763      2.326      5.063
REMARK INTER + INTRA:          -5.459
REMARK INTER:                  -5.295
REMARK INTRA:                  -0.163
REMARK UNBOUND:                -0.139
REMARK SMILES C=CCc1ccc2c(c1)OCO2
REMARK SMILES IDX 3 1 2 2 1 3 4 4 9 5 5 6 8 7 6 8 7 9 10 10 12 11 11 12
REMARK H PARENT
REMARK Flexibility Score: inf
ROOT
ATOM      1  C   UNL     1       2.386  -9.999  91.459  1.00  0.00     0.062 C 
ENDROOT
BRANCH   1   2
ATOM      2  C   UNL     1       0.942  -9.932  91.871  1.00  0.00    -0.030 C 
ATOM      3  C   UNL     1       0.395 -10.851  92.671  1.00  0.00     0.004 C 
ENDBRANCH   1   2
BRANCH   1   4
ATOM      4  C   UNL     1       2.578  -9.407  90.088  1.00  0.00    -0.040 A 
ATOM      5  C   UNL     1       3.463  -8.321  89.906  1.00  0.00     0.054 A 
ATOM      6  C   UNL     1       1.906  -9.961  88.967  1.00  0.00     0.008 A 
ATOM      7  C   UNL     1       3.630  -7.824  88.616  1.00  0.00     0.166 A 
ATOM      8  C   UNL     1       2.104  -9.428  87.681  1.00  0.00     0.051 A 
ATOM      9  C   UNL     1       2.978  -8.354  87.551  1.00  0.00     0.165 A 
ATOM     10  O   UNL     1       4.429  -6.780  88.194  1.00  0.00    -0.454 OA
ATOM     11  O   UNL     1       3.334  -7.669  86.405  1.00  0.00    -0.454 OA
ATOM     12  C   UNL     1       4.269  -6.645  86.775  1.00  0.00     0.468 C 
ENDBRANCH   1   4
TORSDOF 2
ENDMDL
MODEL 7
REMARK VINA RESULT:    -4.691      8.508      9.352
REMARK INTER + INTRA:          -5.379
REMARK INTER:                  -5.211
REMARK INTRA:                  -0.168
REMARK UNBOUND:                -0.139
REMARK SMILES C=CCc1ccc2c(c1)OCO2
REMARK SMILES IDX 3 1 2 2 1 3 4 4 9 5 5 6 8 7 6 8 7 9 10 10 12 11 11 12
REMARK H PARENT
REMARK Flexibility Score: inf
ROOT
ATOM      1  C   UNL     1       6.548 -13.484  89.893  1.00  0.00     0.062 C 
ENDROOT
BRANCH   1   2
ATOM      2  C   UNL     1       5.761 -14.032  88.736  1.00  0.00    -0.030 C 
ATOM      3  C   UNL     1       4.872 -13.287  88.073  1.00  0.00     0.004 C 
ENDBRANCH   1   2
BRANCH   1   4
ATOM      4  C   UNL     1       7.921 -14.097  89.942  1.00  0.00    -0.040 A 
ATOM      5  C   UNL     1       8.318 -14.849  91.070  1.00  0.00     0.054 A 
ATOM      6  C   UNL     1       8.806 -13.962  88.841  1.00  0.00     0.008 A 
ATOM      7  C   UNL     1       9.588 -15.421  91.060  1.00  0.00     0.166 A 
ATOM      8  C   UNL     1      10.081 -14.558  88.872  1.00  0.00     0.051 A 
ATOM      9  C   UNL     1      10.431 -15.281  90.007  1.00  0.00     0.165 A 
ATOM     10  O   UNL     1      10.193 -16.187  92.037  1.00  0.00    -0.454 OA
ATOM     11  O   UNL     1      11.611 -15.951  90.270  1.00  0.00    -0.454 OA
ATOM     12  C   UNL     1      11.500 -16.550  91.569  1.00  0.00     0.468 C 
ENDBRANCH   1   4
TORSDOF 2
ENDMDL
MODEL 8
REMARK VINA RESULT:    -4.419      6.645      8.008
REMARK INTER + INTRA:          -5.076
REMARK INTER:                  -4.864
REMARK INTRA:                  -0.212
REMARK UNBOUND:                -0.139
REMARK SMILES C=CCc1ccc2c(c1)OCO2
REMARK SMILES IDX 3 1 2 2 1 3 4 4 9 5 5 6 8 7 6 8 7 9 10 10 12 11 11 12
REMARK H PARENT
REMARK Flexibility Score: inf
ROOT
ATOM      1  C   UNL     1       5.788 -13.853  89.670  1.00  0.00     0.062 C 
ENDROOT
BRANCH   1   2
ATOM      2  C   UNL     1       5.264 -14.093  88.282  1.00  0.00    -0.030 C 
ATOM      3  C   UNL     1       4.552 -13.170  87.629  1.00  0.00     0.004 C 
ENDBRANCH   1   2
BRANCH   1   4
ATOM      4  C   UNL     1       7.244 -13.474  89.632  1.00  0.00    -0.040 A 
ATOM      5  C   UNL     1       7.689 -12.311  90.300  1.00  0.00     0.054 A 
ATOM      6  C   UNL     1       8.183 -14.302  88.964  1.00  0.00     0.008 A 
ATOM      7  C   UNL     1       9.049 -12.015  90.261  1.00  0.00     0.166 A 
ATOM      8  C   UNL     1       9.550 -13.966  88.950  1.00  0.00     0.051 A 
ATOM      9  C   UNL     1       9.939 -12.808  89.614  1.00  0.00     0.165 A 
ATOM     10  O   UNL     1       9.713 -10.946  90.830  1.00  0.00    -0.454 OA
ATOM     11  O   UNL     1      11.208 -12.275  89.742  1.00  0.00    -0.454 OA
ATOM     12  C   UNL     1      11.107 -11.074  90.520  1.00  0.00     0.468 C 
ENDBRANCH   1   4
TORSDOF 2
ENDMDL
MODEL 9
REMARK VINA RESULT:    -4.361     10.772     12.298
REMARK INTER + INTRA:          -5.010
REMARK INTER:                  -4.855
REMARK INTRA:                  -0.155
REMARK UNBOUND:                -0.139
REMARK SMILES C=CCc1ccc2c(c1)OCO2
REMARK SMILES IDX 3 1 2 2 1 3 4 4 9 5 5 6 8 7 6 8 7 9 10 10 12 11 11 12
REMARK H PARENT
REMARK Flexibility Score: inf
ROOT
ATOM      1  C   UNL     1       9.729  -3.750  79.962  1.00  0.00     0.062 C 
ENDROOT
BRANCH   1   2
ATOM      2  C   UNL     1      11.077  -3.317  79.458  1.00  0.00    -0.030 C 
ATOM      3  C   UNL     1      12.018  -4.201  79.116  1.00  0.00     0.004 C 
ENDBRANCH   1   2
BRANCH   1   4
ATOM      4  C   UNL     1       8.801  -2.572  80.084  1.00  0.00    -0.040 A 
ATOM      5  C   UNL     1       9.083  -1.376  79.387  1.00  0.00     0.054 A 
ATOM      6  C   UNL     1       7.617  -2.669  80.862  1.00  0.00     0.008 A 
ATOM      7  C   UNL     1       8.181  -0.322  79.507  1.00  0.00     0.166 A 
ATOM      8  C   UNL     1       6.733  -1.579  80.956  1.00  0.00     0.051 A 
ATOM      9  C   UNL     1       7.057  -0.419  80.260  1.00  0.00     0.165 A 
ATOM     10  O   UNL     1       8.242   0.932  78.930  1.00  0.00    -0.454 OA
ATOM     11  O   UNL     1       6.354   0.769  80.194  1.00  0.00    -0.454 OA
ATOM     12  C   UNL     1       7.084   1.668  79.347  1.00  0.00     0.468 C 
ENDBRANCH   1   4
TORSDOF 2
ENDMDL
