MODEL 1
REMARK VINA RESULT:    -4.151      0.000      0.000
REMARK INTER + INTRA:          -9.012
REMARK INTER:                  -7.063
REMARK INTRA:                  -1.949
REMARK UNBOUND:                -1.949
REMARK SMILES CCCCCCCCCCCCCC(=O)[O-]
REMARK SMILES IDX 8 1 9 2 10 3 11 4 12 5 13 6 14 7 15 8 16 9 7 10 6 11 5 12
REMARK SMILES IDX 4 13 3 14 2 15 1 16
REMARK H PARENT
REMARK Flexibility Score: inf
ROOT
ATOM      1  C   UNL     1      16.641 -29.881  22.785  1.00  0.00     0.000 C 
ENDROOT
BRANCH   1   2
ATOM      2  C   UNL     1      17.890 -30.509  22.139  1.00  0.00     0.000 C 
BRANCH   2   3
ATOM      3  C   UNL     1      17.599 -31.101  20.751  1.00  0.00     0.000 C 
BRANCH   3   4
ATOM      4  C   UNL     1      18.347 -32.422  20.500  1.00  0.00     0.000 C 
BRANCH   4   5
ATOM      5  C   UNL     1      17.578 -33.372  19.564  1.00  0.00     0.006 C 
BRANCH   5   6
ATOM      6  C   UNL     1      18.191 -34.777  19.448  1.00  0.00     0.053 C 
BRANCH   6   7
ATOM      7  C   UNL     1      17.141 -35.841  19.368  1.00  0.00     0.041 C 
ATOM      8  O   UNL     1      16.006 -35.652  19.882  1.00  0.00    -0.550 OA
ATOM      9  O   UNL     1      17.425 -37.055  18.756  1.00  0.00    -0.550 OA
ENDBRANCH   6   7
ENDBRANCH   5   6
ENDBRANCH   4   5
ENDBRANCH   3   4
ENDBRANCH   2   3
ENDBRANCH   1   2
BRANCH   1  10
ATOM     10  C   UNL     1      15.511 -29.640  21.771  1.00  0.00     0.000 C 
BRANCH  10  11
ATOM     11  C   UNL     1      14.129 -29.542  22.435  1.00  0.00    -0.000 C 
BRANCH  11  12
ATOM     12  C   UNL     1      13.454 -30.920  22.502  1.00  0.00    -0.000 C 
BRANCH  12  13
ATOM     13  C   UNL     1      13.825 -31.827  21.315  1.00  0.00    -0.000 C 
BRANCH  13  14
ATOM     14  C   UNL     1      14.589 -33.113  21.688  1.00  0.00    -0.000 C 
BRANCH  14  15
ATOM     15  C   UNL     1      14.984 -33.228  23.170  1.00  0.00    -0.003 C 
ATOM     16  C   UNL     1      16.420 -33.711  23.369  1.00  0.00     0.004 C 
ENDBRANCH  14  15
ENDBRANCH  13  14
ENDBRANCH  12  13
ENDBRANCH  11  12
ENDBRANCH  10  11
ENDBRANCH   1  10
TORSDOF 12
ENDMDL
MODEL 2
REMARK VINA RESULT:    -4.146      3.297      5.616
REMARK INTER + INTRA:          -9.004
REMARK INTER:                  -7.379
REMARK INTRA:                  -1.625
REMARK UNBOUND:                -1.949
REMARK SMILES CCCCCCCCCCCCCC(=O)[O-]
REMARK SMILES IDX 8 1 9 2 10 3 11 4 12 5 13 6 14 7 15 8 16 9 7 10 6 11 5 12
REMARK SMILES IDX 4 13 3 14 2 15 1 16
REMARK H PARENT
REMARK Flexibility Score: inf
ROOT
ATOM      1  C   UNL     1      17.955 -31.543  20.603  1.00  0.00     0.000 C 
ENDROOT
BRANCH   1   2
ATOM      2  C   UNL     1      18.121 -31.205  22.096  1.00  0.00     0.000 C 
BRANCH   2   3
ATOM      3  C   UNL     1      16.897 -30.476  22.674  1.00  0.00     0.000 C 
BRANCH   3   4
ATOM      4  C   UNL     1      16.414 -29.323  21.775  1.00  0.00     0.000 C 
BRANCH   4   5
ATOM      5  C   UNL     1      14.917 -29.012  21.963  1.00  0.00     0.006 C 
BRANCH   5   6
ATOM      6  C   UNL     1      14.274 -29.716  23.168  1.00  0.00     0.053 C 
BRANCH   6   7
ATOM      7  C   UNL     1      12.840 -29.320  23.348  1.00  0.00     0.041 C 
ATOM      8  O   UNL     1      12.496 -28.620  24.336  1.00  0.00    -0.550 OA
ATOM      9  O   UNL     1      11.880 -29.752  22.442  1.00  0.00    -0.550 OA
ENDBRANCH   6   7
ENDBRANCH   5   6
ENDBRANCH   4   5
ENDBRANCH   3   4
ENDBRANCH   2   3
ENDBRANCH   1   2
BRANCH   1  10
ATOM     10  C   UNL     1      18.401 -32.976  20.270  1.00  0.00     0.000 C 
BRANCH  10  11
ATOM     11  C   UNL     1      17.718 -33.533  19.012  1.00  0.00    -0.000 C 
BRANCH  11  12
ATOM     12  C   UNL     1      16.913 -34.800  19.341  1.00  0.00    -0.000 C 
BRANCH  12  13
ATOM     13  C   UNL     1      15.471 -34.494  19.785  1.00  0.00    -0.000 C 
BRANCH  13  14
ATOM     14  C   UNL     1      15.279 -34.314  21.305  1.00  0.00    -0.000 C 
BRANCH  14  15
ATOM     15  C   UNL     1      14.532 -33.034  21.718  1.00  0.00    -0.003 C 
ATOM     16  C   UNL     1      13.779 -32.383  20.560  1.00  0.00     0.004 C 
ENDBRANCH  14  15
ENDBRANCH  13  14
ENDBRANCH  12  13
ENDBRANCH  11  12
ENDBRANCH  10  11
ENDBRANCH   1  10
TORSDOF 12
ENDMDL
MODEL 3
REMARK VINA RESULT:    -4.139      4.003      6.610
REMARK INTER + INTRA:          -8.991
REMARK INTER:                  -7.320
REMARK INTRA:                  -1.672
REMARK UNBOUND:                -1.949
REMARK SMILES CCCCCCCCCCCCCC(=O)[O-]
REMARK SMILES IDX 8 1 9 2 10 3 11 4 12 5 13 6 14 7 15 8 16 9 7 10 6 11 5 12
REMARK SMILES IDX 4 13 3 14 2 15 1 16
REMARK H PARENT
REMARK Flexibility Score: inf
ROOT
ATOM      1  C   UNL     1      15.453 -33.635  21.766  1.00  0.00     0.000 C 
ENDROOT
BRANCH   1   2
ATOM      2  C   UNL     1      14.527 -33.155  20.633  1.00  0.00     0.000 C 
BRANCH   2   3
ATOM      3  C   UNL     1      13.738 -31.892  21.014  1.00  0.00     0.000 C 
BRANCH   3   4
ATOM      4  C   UNL     1      13.621 -31.701  22.537  1.00  0.00     0.000 C 
BRANCH   4   5
ATOM      5  C   UNL     1      12.695 -30.532  22.919  1.00  0.00     0.006 C 
BRANCH   5   6
ATOM      6  C   UNL     1      13.402 -29.384  23.657  1.00  0.00     0.053 C 
BRANCH   6   7
ATOM      7  C   UNL     1      12.435 -28.342  24.130  1.00  0.00     0.041 C 
ATOM      8  O   UNL     1      12.802 -27.465  24.955  1.00  0.00    -0.550 OA
ATOM      9  O   UNL     1      11.120 -28.361  23.684  1.00  0.00    -0.550 OA
ENDBRANCH   6   7
ENDBRANCH   5   6
ENDBRANCH   4   5
ENDBRANCH   3   4
ENDBRANCH   2   3
ENDBRANCH   1   2
BRANCH   1  10
ATOM     10  C   UNL     1      16.453 -34.705  21.296  1.00  0.00     0.000 C 
BRANCH  10  11
ATOM     11  C   UNL     1      17.912 -34.237  21.391  1.00  0.00    -0.000 C 
BRANCH  11  12
ATOM     12  C   UNL     1      18.186 -33.090  20.407  1.00  0.00    -0.000 C 
BRANCH  12  13
ATOM     13  C   UNL     1      18.619 -31.790  21.109  1.00  0.00    -0.000 C 
BRANCH  13  14
ATOM     14  C   UNL     1      17.811 -30.536  20.719  1.00  0.00    -0.000 C 
BRANCH  14  15
ATOM     15  C   UNL     1      16.881 -29.993  21.819  1.00  0.00    -0.003 C 
ATOM     16  C   UNL     1      17.140 -30.628  23.184  1.00  0.00     0.004 C 
ENDBRANCH  14  15
ENDBRANCH  13  14
ENDBRANCH  12  13
ENDBRANCH  11  12
ENDBRANCH  10  11
ENDBRANCH   1  10
TORSDOF 12
ENDMDL
MODEL 4
REMARK VINA RESULT:    -4.135      2.735      5.226
REMARK INTER + INTRA:          -8.984
REMARK INTER:                  -7.092
REMARK INTRA:                  -1.892
REMARK UNBOUND:                -1.949
REMARK SMILES CCCCCCCCCCCCCC(=O)[O-]
REMARK SMILES IDX 8 1 9 2 10 3 11 4 12 5 13 6 14 7 15 8 16 9 7 10 6 11 5 12
REMARK SMILES IDX 4 13 3 14 2 15 1 16
REMARK H PARENT
REMARK Flexibility Score: inf
ROOT
ATOM      1  C   UNL     1      17.320 -31.312  21.174  1.00  0.00     0.000 C 
ENDROOT
BRANCH   1   2
ATOM      2  C   UNL     1      17.684 -30.710  22.544  1.00  0.00     0.000 C 
BRANCH   2   3
ATOM      3  C   UNL     1      16.558 -30.876  23.577  1.00  0.00     0.000 C 
BRANCH   3   4
ATOM      4  C   UNL     1      15.896 -32.264  23.517  1.00  0.00     0.000 C 
BRANCH   4   5
ATOM      5  C   UNL     1      14.364 -32.198  23.656  1.00  0.00     0.006 C 
BRANCH   5   6
ATOM      6  C   UNL     1      13.774 -30.791  23.464  1.00  0.00     0.053 C 
BRANCH   6   7
ATOM      7  C   UNL     1      13.186 -30.613  22.098  1.00  0.00     0.041 C 
ATOM      8  O   UNL     1      13.927 -30.325  21.122  1.00  0.00    -0.550 OA
ATOM      9  O   UNL     1      11.815 -30.734  21.910  1.00  0.00    -0.550 OA
ENDBRANCH   6   7
ENDBRANCH   5   6
ENDBRANCH   4   5
ENDBRANCH   3   4
ENDBRANCH   2   3
ENDBRANCH   1   2
BRANCH   1  10
ATOM     10  C   UNL     1      18.444 -32.190  20.600  1.00  0.00     0.000 C 
BRANCH  10  11
ATOM     11  C   UNL     1      18.896 -33.288  21.574  1.00  0.00    -0.000 C 
BRANCH  11  12
ATOM     12  C   UNL     1      18.620 -34.683  20.994  1.00  0.00    -0.000 C 
BRANCH  12  13
ATOM     13  C   UNL     1      18.016 -34.635  19.579  1.00  0.00    -0.000 C 
BRANCH  13  14
ATOM     14  C   UNL     1      16.580 -35.184  19.462  1.00  0.00    -0.000 C 
BRANCH  14  15
ATOM     15  C   UNL     1      15.635 -34.785  20.609  1.00  0.00    -0.003 C 
ATOM     16  C   UNL     1      14.649 -33.687  20.213  1.00  0.00     0.004 C 
ENDBRANCH  14  15
ENDBRANCH  13  14
ENDBRANCH  12  13
ENDBRANCH  11  12
ENDBRANCH  10  11
ENDBRANCH   1  10
TORSDOF 12
ENDMDL
MODEL 5
REMARK VINA RESULT:    -4.121      3.044      5.675
REMARK INTER + INTRA:          -8.961
REMARK INTER:                  -7.369
REMARK INTRA:                  -1.592
REMARK UNBOUND:                -1.949
REMARK SMILES CCCCCCCCCCCCCC(=O)[O-]
REMARK SMILES IDX 8 1 9 2 10 3 11 4 12 5 13 6 14 7 15 8 16 9 7 10 6 11 5 12
REMARK SMILES IDX 4 13 3 14 2 15 1 16
REMARK H PARENT
REMARK Flexibility Score: inf
ROOT
ATOM      1  C   UNL     1      17.088 -31.751  22.012  1.00  0.00     0.000 C 
ENDROOT
BRANCH   1   2
ATOM      2  C   UNL     1      16.474 -33.069  22.518  1.00  0.00     0.000 C 
BRANCH   2   3
ATOM      3  C   UNL     1      14.947 -32.986  22.671  1.00  0.00     0.000 C 
BRANCH   3   4
ATOM      4  C   UNL     1      14.248 -32.482  21.396  1.00  0.00     0.000 C 
BRANCH   4   5
ATOM      5  C   UNL     1      13.278 -31.318  21.671  1.00  0.00     0.006 C 
BRANCH   5   6
ATOM      6  C   UNL     1      13.533 -30.585  22.998  1.00  0.00     0.053 C 
BRANCH   6   7
ATOM      7  C   UNL     1      14.025 -29.188  22.779  1.00  0.00     0.041 C 
ATOM      8  O   UNL     1      13.524 -28.231  23.427  1.00  0.00    -0.550 OA
ATOM      9  O   UNL     1      15.015 -28.937  21.837  1.00  0.00    -0.550 OA
ENDBRANCH   6   7
ENDBRANCH   5   6
ENDBRANCH   4   5
ENDBRANCH   3   4
ENDBRANCH   2   3
ENDBRANCH   1   2
BRANCH   1  10
ATOM     10  C   UNL     1      17.740 -31.898  20.627  1.00  0.00     0.000 C 
BRANCH  10  11
ATOM     11  C   UNL     1      18.366 -33.283  20.409  1.00  0.00    -0.000 C 
BRANCH  11  12
ATOM     12  C   UNL     1      17.915 -33.885  19.070  1.00  0.00    -0.000 C 
BRANCH  12  13
ATOM     13  C   UNL     1      16.451 -34.364  19.092  1.00  0.00    -0.000 C 
BRANCH  13  14
ATOM     14  C   UNL     1      16.213 -35.707  19.810  1.00  0.00    -0.000 C 
BRANCH  14  15
ATOM     15  C   UNL     1      17.294 -36.775  19.568  1.00  0.00    -0.003 C 
ATOM     16  C   UNL     1      18.055 -37.150  20.838  1.00  0.00     0.004 C 
ENDBRANCH  14  15
ENDBRANCH  13  14
ENDBRANCH  12  13
ENDBRANCH  11  12
ENDBRANCH  10  11
ENDBRANCH   1  10
TORSDOF 12
ENDMDL
MODEL 6
REMARK VINA RESULT:    -4.116      1.538      3.036
REMARK INTER + INTRA:          -8.952
REMARK INTER:                  -6.997
REMARK INTRA:                  -1.955
REMARK UNBOUND:                -1.949
REMARK SMILES CCCCCCCCCCCCCC(=O)[O-]
REMARK SMILES IDX 8 1 9 2 10 3 11 4 12 5 13 6 14 7 15 8 16 9 7 10 6 11 5 12
REMARK SMILES IDX 4 13 3 14 2 15 1 16
REMARK H PARENT
REMARK Flexibility Score: inf
ROOT
ATOM      1  C   UNL     1      16.832 -32.777  22.683  1.00  0.00     0.000 C 
ENDROOT
BRANCH   1   2
ATOM      2  C   UNL     1      15.623 -33.730  22.675  1.00  0.00     0.000 C 
BRANCH   2   3
ATOM      3  C   UNL     1      15.129 -34.041  21.253  1.00  0.00     0.000 C 
BRANCH   3   4
ATOM      4  C   UNL     1      16.075 -33.504  20.164  1.00  0.00     0.000 C 
BRANCH   4   5
ATOM      5  C   UNL     1      16.668 -34.623  19.288  1.00  0.00     0.006 C 
BRANCH   5   6
ATOM      6  C   UNL     1      16.546 -36.030  19.895  1.00  0.00     0.053 C 
BRANCH   6   7
ATOM      7  C   UNL     1      17.807 -36.454  20.583  1.00  0.00     0.041 C 
ATOM      8  O   UNL     1      17.997 -37.666  20.866  1.00  0.00    -0.550 OA
ATOM      9  O   UNL     1      18.757 -35.506  20.941  1.00  0.00    -0.550 OA
ENDBRANCH   6   7
ENDBRANCH   5   6
ENDBRANCH   4   5
ENDBRANCH   3   4
ENDBRANCH   2   3
ENDBRANCH   1   2
BRANCH   1  10
ATOM     10  C   UNL     1      16.656 -31.609  23.668  1.00  0.00     0.000 C 
BRANCH  10  11
ATOM     11  C   UNL     1      16.928 -30.242  23.024  1.00  0.00    -0.000 C 
BRANCH  11  12
ATOM     12  C   UNL     1      16.369 -30.189  21.594  1.00  0.00    -0.000 C 
BRANCH  12  13
ATOM     13  C   UNL     1      14.956 -29.580  21.526  1.00  0.00    -0.000 C 
BRANCH  13  14
ATOM     14  C   UNL     1      13.811 -30.601  21.367  1.00  0.00    -0.000 C 
BRANCH  14  15
ATOM     15  C   UNL     1      13.064 -30.948  22.667  1.00  0.00    -0.003 C 
ATOM     16  C   UNL     1      13.249 -29.896  23.759  1.00  0.00     0.004 C 
ENDBRANCH  14  15
ENDBRANCH  13  14
ENDBRANCH  12  13
ENDBRANCH  11  12
ENDBRANCH  10  11
ENDBRANCH   1  10
TORSDOF 12
ENDMDL
MODEL 7
REMARK VINA RESULT:    -4.109      2.167      4.192
REMARK INTER + INTRA:          -8.941
REMARK INTER:                  -7.833
REMARK INTRA:                  -1.108
REMARK UNBOUND:                -1.949
REMARK SMILES CCCCCCCCCCCCCC(=O)[O-]
REMARK SMILES IDX 8 1 9 2 10 3 11 4 12 5 13 6 14 7 15 8 16 9 7 10 6 11 5 12
REMARK SMILES IDX 4 13 3 14 2 15 1 16
REMARK H PARENT
REMARK Flexibility Score: inf
ROOT
ATOM      1  C   UNL     1      18.171 -32.083  20.256  1.00  0.00     0.000 C 
ENDROOT
BRANCH   1   2
ATOM      2  C   UNL     1      18.360 -33.611  20.270  1.00  0.00     0.000 C 
BRANCH   2   3
ATOM      3  C   UNL     1      17.702 -34.297  19.063  1.00  0.00     0.000 C 
BRANCH   3   4
ATOM      4  C   UNL     1      16.752 -35.436  19.472  1.00  0.00     0.000 C 
BRANCH   4   5
ATOM      5  C   UNL     1      15.605 -34.955  20.380  1.00  0.00     0.006 C 
BRANCH   5   6
ATOM      6  C   UNL     1      14.791 -33.787  19.801  1.00  0.00     0.053 C 
BRANCH   6   7
ATOM      7  C   UNL     1      14.223 -32.913  20.876  1.00  0.00     0.041 C 
ATOM      8  O   UNL     1      14.545 -33.099  22.079  1.00  0.00    -0.550 OA
ATOM      9  O   UNL     1      13.313 -31.914  20.554  1.00  0.00    -0.550 OA
ENDBRANCH   6   7
ENDBRANCH   5   6
ENDBRANCH   4   5
ENDBRANCH   3   4
ENDBRANCH   2   3
ENDBRANCH   1   2
BRANCH   1  10
ATOM     10  C   UNL     1      17.569 -31.551  21.567  1.00  0.00     0.000 C 
BRANCH  10  11
ATOM     11  C   UNL     1      17.354 -30.031  21.547  1.00  0.00    -0.000 C 
BRANCH  11  12
ATOM     12  C   UNL     1      15.866 -29.685  21.712  1.00  0.00    -0.000 C 
BRANCH  12  13
ATOM     13  C   UNL     1      15.360 -29.890  23.152  1.00  0.00    -0.000 C 
BRANCH  13  14
ATOM     14  C   UNL     1      13.838 -29.726  23.339  1.00  0.00    -0.000 C 
BRANCH  14  15
ATOM     15  C   UNL     1      13.326 -28.277  23.264  1.00  0.00    -0.003 C 
ATOM     16  C   UNL     1      12.587 -27.841  24.528  1.00  0.00     0.004 C 
ENDBRANCH  14  15
ENDBRANCH  13  14
ENDBRANCH  12  13
ENDBRANCH  11  12
ENDBRANCH  10  11
ENDBRANCH   1  10
TORSDOF 12
ENDMDL
MODEL 8
REMARK VINA RESULT:    -4.080      1.581      3.202
REMARK INTER + INTRA:          -8.891
REMARK INTER:                  -7.528
REMARK INTRA:                  -1.363
REMARK UNBOUND:                -1.949
REMARK SMILES CCCCCCCCCCCCCC(=O)[O-]
REMARK SMILES IDX 8 1 9 2 10 3 11 4 12 5 13 6 14 7 15 8 16 9 7 10 6 11 5 12
REMARK SMILES IDX 4 13 3 14 2 15 1 16
REMARK H PARENT
REMARK Flexibility Score: inf
ROOT
ATOM      1  C   UNL     1      16.987 -30.798  23.647  1.00  0.00     0.000 C 
ENDROOT
BRANCH   1   2
ATOM      2  C   UNL     1      16.437 -32.229  23.791  1.00  0.00     0.000 C 
BRANCH   2   3
ATOM      3  C   UNL     1      17.435 -33.295  23.311  1.00  0.00     0.000 C 
BRANCH   3   4
ATOM      4  C   UNL     1      16.781 -34.361  22.414  1.00  0.00     0.000 C 
BRANCH   4   5
ATOM      5  C   UNL     1      15.610 -33.801  21.585  1.00  0.00     0.006 C 
BRANCH   5   6
ATOM      6  C   UNL     1      15.162 -34.714  20.432  1.00  0.00     0.053 C 
BRANCH   6   7
ATOM      7  C   UNL     1      16.309 -35.113  19.556  1.00  0.00     0.041 C 
ATOM      8  O   UNL     1      16.871 -34.260  18.820  1.00  0.00    -0.550 OA
ATOM      9  O   UNL     1      16.736 -36.435  19.527  1.00  0.00    -0.550 OA
ENDBRANCH   6   7
ENDBRANCH   5   6
ENDBRANCH   4   5
ENDBRANCH   3   4
ENDBRANCH   2   3
ENDBRANCH   1   2
BRANCH   1  10
ATOM     10  C   UNL     1      16.811 -30.240  22.226  1.00  0.00     0.000 C 
BRANCH  10  11
ATOM     11  C   UNL     1      15.527 -29.411  22.068  1.00  0.00    -0.000 C 
BRANCH  11  12
ATOM     12  C   UNL     1      14.424 -30.233  21.386  1.00  0.00    -0.000 C 
BRANCH  12  13
ATOM     13  C   UNL     1      13.148 -30.350  22.240  1.00  0.00    -0.000 C 
BRANCH  13  14
ATOM     14  C   UNL     1      13.312 -29.944  23.719  1.00  0.00    -0.000 C 
BRANCH  14  15
ATOM     15  C   UNL     1      12.659 -28.605  24.101  1.00  0.00    -0.003 C 
ATOM     16  C   UNL     1      11.371 -28.327  23.328  1.00  0.00     0.004 C 
ENDBRANCH  14  15
ENDBRANCH  13  14
ENDBRANCH  12  13
ENDBRANCH  11  12
ENDBRANCH  10  11
ENDBRANCH   1  10
TORSDOF 12
ENDMDL
MODEL 9
REMARK VINA RESULT:    -4.072      3.136      5.992
REMARK INTER + INTRA:          -8.877
REMARK INTER:                  -7.000
REMARK INTRA:                  -1.877
REMARK UNBOUND:                -1.949
REMARK SMILES CCCCCCCCCCCCCC(=O)[O-]
REMARK SMILES IDX 8 1 9 2 10 3 11 4 12 5 13 6 14 7 15 8 16 9 7 10 6 11 5 12
REMARK SMILES IDX 4 13 3 14 2 15 1 16
REMARK H PARENT
REMARK Flexibility Score: inf
ROOT
ATOM      1  C   UNL     1      16.216 -34.022  19.319  1.00  0.00     0.000 C 
ENDROOT
BRANCH   1   2
ATOM      2  C   UNL     1      15.082 -34.496  20.245  1.00  0.00     0.000 C 
BRANCH   2   3
ATOM      3  C   UNL     1      14.830 -33.526  21.411  1.00  0.00     0.000 C 
BRANCH   3   4
ATOM      4  C   UNL     1      15.723 -32.275  21.346  1.00  0.00     0.000 C 
BRANCH   4   5
ATOM      5  C   UNL     1      15.604 -31.394  22.603  1.00  0.00     0.006 C 
BRANCH   5   6
ATOM      6  C   UNL     1      14.408 -31.741  23.505  1.00  0.00     0.053 C 
BRANCH   6   7
ATOM      7  C   UNL     1      13.265 -30.793  23.309  1.00  0.00     0.041 C 
ATOM      8  O   UNL     1      12.414 -31.005  22.405  1.00  0.00    -0.550 OA
ATOM      9  O   UNL     1      13.158 -29.659  24.103  1.00  0.00    -0.550 OA
ENDBRANCH   6   7
ENDBRANCH   5   6
ENDBRANCH   4   5
ENDBRANCH   3   4
ENDBRANCH   2   3
ENDBRANCH   1   2
BRANCH   1  10
ATOM     10  C   UNL     1      17.313 -35.084  19.139  1.00  0.00     0.000 C 
BRANCH  10  11
ATOM     11  C   UNL     1      16.845 -36.493  19.530  1.00  0.00    -0.000 C 
BRANCH  11  12
ATOM     12  C   UNL     1      17.774 -37.106  20.589  1.00  0.00    -0.000 C 
BRANCH  12  13
ATOM     13  C   UNL     1      18.499 -36.044  21.436  1.00  0.00    -0.000 C 
BRANCH  13  14
ATOM     14  C   UNL     1      17.711 -35.535  22.660  1.00  0.00    -0.000 C 
BRANCH  14  15
ATOM     15  C   UNL     1      18.266 -34.250  23.301  1.00  0.00    -0.003 C 
ATOM     16  C   UNL     1      19.042 -33.380  22.315  1.00  0.00     0.004 C 
ENDBRANCH  14  15
ENDBRANCH  13  14
ENDBRANCH  12  13
ENDBRANCH  11  12
ENDBRANCH  10  11
ENDBRANCH   1  10
TORSDOF 12
ENDMDL
