MODEL 1
REMARK VINA RESULT:    -5.463      0.000      0.000
REMARK INTER + INTRA:          -7.461
REMARK INTER:                  -6.901
REMARK INTRA:                  -0.561
REMARK UNBOUND:                -0.561
REMARK SMILES Oc1ccc(CCc2cc(O)cc(O)c2)cc1
REMARK SMILES IDX 6 1 5 2 4 3 3 4 2 5 16 6 17 7 1 8 7 10 8 11 15 12 9 13 13 14
REMARK SMILES IDX 10 15 12 16 14 17 11 19
REMARK H PARENT 1 9 14 18 11 20
REMARK Flexibility Score: inf
ROOT
ATOM      1  C   UNL     1     162.285 176.845 150.754  1.00  0.00     0.040 C 
ENDROOT
BRANCH   1   2
ATOM      2  C   UNL     1     161.490 175.728 151.376  1.00  0.00    -0.047 A 
ATOM      3  C   UNL     1     162.137 174.570 151.836  1.00  0.00     0.007 A 
ATOM      4  C   UNL     1     161.401 173.546 152.443  1.00  0.00     0.046 A 
ATOM      5  C   UNL     1     160.015 173.676 152.606  1.00  0.00     0.115 A 
ATOM      6  C   UNL     1     160.103 175.859 151.553  1.00  0.00     0.007 A 
ATOM      7  C   UNL     1     159.371 174.834 152.160  1.00  0.00     0.046 A 
BRANCH   5   8
ATOM      8  O   UNL     1     159.273 172.663 153.209  1.00  0.00    -0.508 OA
ATOM      9  H   UNL     1     158.381 172.853 153.653  1.00  0.00     0.293 HD
ENDBRANCH   5   8
ENDBRANCH   1   2
BRANCH   1  10
ATOM     10  C   UNL     1     162.910 177.728 151.838  1.00  0.00     0.040 C 
BRANCH  10  11
ATOM     11  C   UNL     1     164.412 177.625 151.802  1.00  0.00    -0.040 A 
ATOM     12  C   UNL     1     165.144 177.535 152.996  1.00  0.00     0.050 A 
ATOM     13  C   UNL     1     165.087 177.561 150.572  1.00  0.00     0.050 A 
ATOM     14  C   UNL     1     166.540 177.406 152.963  1.00  0.00     0.119 A 
ATOM     15  C   UNL     1     166.480 177.432 150.535  1.00  0.00     0.119 A 
ATOM     16  C   UNL     1     167.204 177.358 151.732  1.00  0.00     0.092 A 
BRANCH  14  17
ATOM     17  O   UNL     1     167.274 177.323 154.143  1.00  0.00    -0.508 OA
ATOM     18  H   UNL     1     168.005 176.630 154.264  1.00  0.00     0.293 HD
ENDBRANCH  14  17
BRANCH  15  19
ATOM     19  O   UNL     1     167.132 177.377 149.306  1.00  0.00    -0.508 OA
ATOM     20  H   UNL     1     166.722 176.902 148.511  1.00  0.00     0.293 HD
ENDBRANCH  15  19
ENDBRANCH  10  11
ENDBRANCH   1  10
TORSDOF 6
ENDMDL
MODEL 2
REMARK VINA RESULT:    -5.457      0.135      2.038
REMARK INTER + INTRA:          -7.453
REMARK INTER:                  -6.895
REMARK INTRA:                  -0.558
REMARK UNBOUND:                -0.561
REMARK SMILES Oc1ccc(CCc2cc(O)cc(O)c2)cc1
REMARK SMILES IDX 6 1 5 2 4 3 3 4 2 5 16 6 17 7 1 8 7 10 8 11 15 12 9 13 13 14
REMARK SMILES IDX 10 15 12 16 14 17 11 19
REMARK H PARENT 1 9 14 18 11 20
REMARK Flexibility Score: inf
ROOT
ATOM      1  C   UNL     1     162.323 176.841 150.764  1.00  0.00     0.040 C 
ENDROOT
BRANCH   1   2
ATOM      2  C   UNL     1     161.498 175.732 151.360  1.00  0.00    -0.047 A 
ATOM      3  C   UNL     1     162.121 174.589 151.885  1.00  0.00     0.007 A 
ATOM      4  C   UNL     1     161.355 173.573 152.467  1.00  0.00     0.046 A 
ATOM      5  C   UNL     1     159.961 173.696 152.538  1.00  0.00     0.115 A 
ATOM      6  C   UNL     1     160.102 175.856 151.446  1.00  0.00     0.007 A 
ATOM      7  C   UNL     1     159.339 174.840 152.028  1.00  0.00     0.046 A 
BRANCH   5   8
ATOM      8  O   UNL     1     159.188 172.692 153.116  1.00  0.00    -0.508 OA
ATOM      9  H   UNL     1     158.216 172.558 152.860  1.00  0.00     0.293 HD
ENDBRANCH   5   8
ENDBRANCH   1   2
BRANCH   1  10
ATOM     10  C   UNL     1     162.942 177.703 151.869  1.00  0.00     0.040 C 
BRANCH  10  11
ATOM     11  C   UNL     1     164.440 177.549 151.883  1.00  0.00    -0.040 A 
ATOM     12  C   UNL     1     165.160 177.533 150.678  1.00  0.00     0.050 A 
ATOM     13  C   UNL     1     165.132 177.478 153.102  1.00  0.00     0.050 A 
ATOM     14  C   UNL     1     166.559 177.423 150.692  1.00  0.00     0.119 A 
ATOM     15  C   UNL     1     166.527 177.368 153.119  1.00  0.00     0.119 A 
ATOM     16  C   UNL     1     167.238 177.338 151.912  1.00  0.00     0.092 A 
BRANCH  14  17
ATOM     17  O   UNL     1     167.280 177.400 149.501  1.00  0.00    -0.508 OA
ATOM     18  H   UNL     1     167.544 176.526 149.059  1.00  0.00     0.293 HD
ENDBRANCH  14  17
BRANCH  15  19
ATOM     19  O   UNL     1     167.195 177.292 154.338  1.00  0.00    -0.508 OA
ATOM     20  H   UNL     1     167.348 178.113 154.911  1.00  0.00     0.293 HD
ENDBRANCH  15  19
ENDBRANCH  10  11
ENDBRANCH   1  10
TORSDOF 6
ENDMDL
MODEL 3
REMARK VINA RESULT:    -5.416     16.700     18.974
REMARK INTER + INTRA:          -7.402
REMARK INTER:                  -6.910
REMARK INTRA:                  -0.492
REMARK UNBOUND:                -0.561
REMARK SMILES Oc1ccc(CCc2cc(O)cc(O)c2)cc1
REMARK SMILES IDX 6 1 5 2 4 3 3 4 2 5 16 6 17 7 1 8 7 10 8 11 15 12 9 13 13 14
REMARK SMILES IDX 10 15 12 16 14 17 11 19
REMARK H PARENT 1 9 14 18 11 20
REMARK Flexibility Score: inf
ROOT
ATOM      1  C   UNL     1     177.884 163.596 152.143  1.00  0.00     0.040 C 
ENDROOT
BRANCH   1   2
ATOM      2  C   UNL     1     177.879 165.069 152.454  1.00  0.00    -0.047 A 
ATOM      3  C   UNL     1     177.586 166.004 151.448  1.00  0.00     0.007 A 
ATOM      4  C   UNL     1     177.550 167.371 151.746  1.00  0.00     0.046 A 
ATOM      5  C   UNL     1     177.795 167.813 153.053  1.00  0.00     0.115 A 
ATOM      6  C   UNL     1     178.111 165.517 153.765  1.00  0.00     0.007 A 
ATOM      7  C   UNL     1     178.074 166.883 154.059  1.00  0.00     0.046 A 
BRANCH   5   8
ATOM      8  O   UNL     1     177.762 169.171 153.362  1.00  0.00    -0.508 OA
ATOM      9  H   UNL     1     177.742 169.879 152.636  1.00  0.00     0.293 HD
ENDBRANCH   5   8
ENDBRANCH   1   2
BRANCH   1  10
ATOM     10  C   UNL     1     176.619 162.927 152.688  1.00  0.00     0.040 C 
BRANCH  10  11
ATOM     11  C   UNL     1     175.840 162.281 151.573  1.00  0.00    -0.040 A 
ATOM     12  C   UNL     1     176.457 161.338 150.734  1.00  0.00     0.050 A 
ATOM     13  C   UNL     1     174.478 162.573 151.399  1.00  0.00     0.050 A 
ATOM     14  C   UNL     1     175.724 160.711 149.716  1.00  0.00     0.119 A 
ATOM     15  C   UNL     1     173.744 161.949 150.384  1.00  0.00     0.119 A 
ATOM     16  C   UNL     1     174.371 161.020 149.542  1.00  0.00     0.092 A 
BRANCH  14  17
ATOM     17  O   UNL     1     176.329 159.780 148.876  1.00  0.00    -0.508 OA
ATOM     18  H   UNL     1     176.207 159.816 147.870  1.00  0.00     0.293 HD
ENDBRANCH  14  17
BRANCH  15  19
ATOM     19  O   UNL     1     172.396 162.257 150.223  1.00  0.00    -0.508 OA
ATOM     20  H   UNL     1     172.029 163.170 150.464  1.00  0.00     0.293 HD
ENDBRANCH  15  19
ENDBRANCH  10  11
ENDBRANCH   1  10
TORSDOF 6
ENDMDL
MODEL 4
REMARK VINA RESULT:    -5.375      8.610     11.998
REMARK INTER + INTRA:          -7.350
REMARK INTER:                  -6.811
REMARK INTRA:                  -0.539
REMARK UNBOUND:                -0.561
REMARK SMILES Oc1ccc(CCc2cc(O)cc(O)c2)cc1
REMARK SMILES IDX 6 1 5 2 4 3 3 4 2 5 16 6 17 7 1 8 7 10 8 11 15 12 9 13 13 14
REMARK SMILES IDX 10 15 12 16 14 17 11 19
REMARK H PARENT 1 9 14 18 11 20
REMARK Flexibility Score: inf
ROOT
ATOM      1  C   UNL     1     174.996 175.783 150.890  1.00  0.00     0.040 C 
ENDROOT
BRANCH   1   2
ATOM      2  C   UNL     1     173.699 176.304 151.449  1.00  0.00    -0.047 A 
ATOM      3  C   UNL     1     172.610 175.438 151.638  1.00  0.00     0.007 A 
ATOM      4  C   UNL     1     171.416 175.916 152.187  1.00  0.00     0.046 A 
ATOM      5  C   UNL     1     171.303 177.262 152.562  1.00  0.00     0.115 A 
ATOM      6  C   UNL     1     173.585 177.648 151.839  1.00  0.00     0.007 A 
ATOM      7  C   UNL     1     172.390 178.124 152.387  1.00  0.00     0.046 A 
BRANCH   5   8
ATOM      8  O   UNL     1     170.119 177.749 153.110  1.00  0.00    -0.508 OA
ATOM      9  H   UNL     1     169.639 178.548 152.710  1.00  0.00     0.293 HD
ENDBRANCH   5   8
ENDBRANCH   1   2
BRANCH   1  10
ATOM     10  C   UNL     1     175.883 175.235 152.012  1.00  0.00     0.040 C 
BRANCH  10  11
ATOM     11  C   UNL     1     176.172 173.774 151.791  1.00  0.00    -0.040 A 
ATOM     12  C   UNL     1     176.417 172.928 152.884  1.00  0.00     0.050 A 
ATOM     13  C   UNL     1     176.143 173.236 150.495  1.00  0.00     0.050 A 
ATOM     14  C   UNL     1     176.653 171.561 152.682  1.00  0.00     0.119 A 
ATOM     15  C   UNL     1     176.379 171.872 150.289  1.00  0.00     0.119 A 
ATOM     16  C   UNL     1     176.637 171.037 151.385  1.00  0.00     0.092 A 
BRANCH  14  17
ATOM     17  O   UNL     1     176.903 170.716 153.760  1.00  0.00    -0.508 OA
ATOM     18  H   UNL     1     177.030 171.079 154.699  1.00  0.00     0.293 HD
ENDBRANCH  14  17
BRANCH  15  19
ATOM     19  O   UNL     1     176.353 171.358 148.995  1.00  0.00    -0.508 OA
ATOM     20  H   UNL     1     175.856 170.503 148.776  1.00  0.00     0.293 HD
ENDBRANCH  15  19
ENDBRANCH  10  11
ENDBRANCH   1  10
TORSDOF 6
ENDMDL
MODEL 5
REMARK VINA RESULT:    -5.328      8.657     12.203
REMARK INTER + INTRA:          -7.290
REMARK INTER:                  -6.757
REMARK INTRA:                  -0.534
REMARK UNBOUND:                -0.561
REMARK SMILES Oc1ccc(CCc2cc(O)cc(O)c2)cc1
REMARK SMILES IDX 6 1 5 2 4 3 3 4 2 5 16 6 17 7 1 8 7 10 8 11 15 12 9 13 13 14
REMARK SMILES IDX 10 15 12 16 14 17 11 19
REMARK H PARENT 1 9 14 18 11 20
REMARK Flexibility Score: inf
ROOT
ATOM      1  C   UNL     1     175.033 175.765 151.087  1.00  0.00     0.040 C 
ENDROOT
BRANCH   1   2
ATOM      2  C   UNL     1     173.739 176.309 151.631  1.00  0.00    -0.047 A 
ATOM      3  C   UNL     1     172.967 175.544 152.520  1.00  0.00     0.007 A 
ATOM      4  C   UNL     1     171.781 176.064 153.050  1.00  0.00     0.046 A 
ATOM      5  C   UNL     1     171.362 177.356 152.705  1.00  0.00     0.115 A 
ATOM      6  C   UNL     1     173.322 177.608 151.299  1.00  0.00     0.007 A 
ATOM      7  C   UNL     1     172.136 178.125 151.830  1.00  0.00     0.046 A 
BRANCH   5   8
ATOM      8  O   UNL     1     170.184 177.884 153.227  1.00  0.00    -0.508 OA
ATOM      9  H   UNL     1     169.609 177.357 153.874  1.00  0.00     0.293 HD
ENDBRANCH   5   8
ENDBRANCH   1   2
BRANCH   1  10
ATOM     10  C   UNL     1     175.867 175.138 152.209  1.00  0.00     0.040 C 
BRANCH  10  11
ATOM     11  C   UNL     1     176.111 173.679 151.933  1.00  0.00    -0.040 A 
ATOM     12  C   UNL     1     176.169 173.209 150.611  1.00  0.00     0.050 A 
ATOM     13  C   UNL     1     176.340 172.787 152.993  1.00  0.00     0.050 A 
ATOM     14  C   UNL     1     176.430 171.855 150.353  1.00  0.00     0.119 A 
ATOM     15  C   UNL     1     176.600 171.436 152.739  1.00  0.00     0.119 A 
ATOM     16  C   UNL     1     176.641 170.972 151.417  1.00  0.00     0.092 A 
BRANCH  14  17
ATOM     17  O   UNL     1     176.482 171.379 149.045  1.00  0.00    -0.508 OA
ATOM     18  H   UNL     1     175.755 171.596 148.373  1.00  0.00     0.293 HD
ENDBRANCH  14  17
BRANCH  15  19
ATOM     19  O   UNL     1     176.817 170.566 153.804  1.00  0.00    -0.508 OA
ATOM     20  H   UNL     1     176.483 169.610 153.783  1.00  0.00     0.293 HD
ENDBRANCH  15  19
ENDBRANCH  10  11
ENDBRANCH   1  10
TORSDOF 6
ENDMDL
MODEL 6
REMARK VINA RESULT:    -5.246      1.480      5.940
REMARK INTER + INTRA:          -7.186
REMARK INTER:                  -6.471
REMARK INTRA:                  -0.715
REMARK UNBOUND:                -0.561
REMARK SMILES Oc1ccc(CCc2cc(O)cc(O)c2)cc1
REMARK SMILES IDX 6 1 5 2 4 3 3 4 2 5 16 6 17 7 1 8 7 10 8 11 15 12 9 13 13 14
REMARK SMILES IDX 10 15 12 16 14 17 11 19
REMARK H PARENT 1 9 14 18 11 20
REMARK Flexibility Score: inf
ROOT
ATOM      1  C   UNL     1     161.847 177.706 151.776  1.00  0.00     0.040 C 
ENDROOT
BRANCH   1   2
ATOM      2  C   UNL     1     163.315 177.722 152.112  1.00  0.00    -0.047 A 
ATOM      3  C   UNL     1     163.750 177.378 153.402  1.00  0.00     0.007 A 
ATOM      4  C   UNL     1     165.116 177.362 153.704  1.00  0.00     0.046 A 
ATOM      5  C   UNL     1     166.059 177.680 152.717  1.00  0.00     0.115 A 
ATOM      6  C   UNL     1     164.264 178.027 151.123  1.00  0.00     0.007 A 
ATOM      7  C   UNL     1     165.629 178.010 151.428  1.00  0.00     0.046 A 
BRANCH   5   8
ATOM      8  O   UNL     1     167.421 177.667 153.006  1.00  0.00    -0.508 OA
ATOM      9  H   UNL     1     167.911 178.509 153.287  1.00  0.00     0.293 HD
ENDBRANCH   5   8
ENDBRANCH   1   2
BRANCH   1  10
ATOM     10  C   UNL     1     161.553 176.650 150.707  1.00  0.00     0.040 C 
BRANCH  10  11
ATOM     11  C   UNL     1     161.558 175.271 151.310  1.00  0.00    -0.040 A 
ATOM     12  C   UNL     1     160.429 174.795 151.996  1.00  0.00     0.050 A 
ATOM     13  C   UNL     1     162.669 174.430 151.143  1.00  0.00     0.050 A 
ATOM     14  C   UNL     1     160.420 173.498 152.529  1.00  0.00     0.119 A 
ATOM     15  C   UNL     1     162.664 173.136 151.675  1.00  0.00     0.119 A 
ATOM     16  C   UNL     1     161.539 172.673 152.371  1.00  0.00     0.092 A 
BRANCH  14  17
ATOM     17  O   UNL     1     159.307 173.020 153.216  1.00  0.00    -0.508 OA
ATOM     18  H   UNL     1     159.191 172.032 153.415  1.00  0.00     0.293 HD
ENDBRANCH  14  17
BRANCH  15  19
ATOM     19  O   UNL     1     163.779 172.319 151.506  1.00  0.00    -0.508 OA
ATOM     20  H   UNL     1     164.296 172.303 150.634  1.00  0.00     0.293 HD
ENDBRANCH  15  19
ENDBRANCH  10  11
ENDBRANCH   1  10
TORSDOF 6
ENDMDL
MODEL 7
REMARK VINA RESULT:    -5.240      1.537      2.248
REMARK INTER + INTRA:          -7.179
REMARK INTER:                  -6.546
REMARK INTRA:                  -0.633
REMARK UNBOUND:                -0.561
REMARK SMILES Oc1ccc(CCc2cc(O)cc(O)c2)cc1
REMARK SMILES IDX 6 1 5 2 4 3 3 4 2 5 16 6 17 7 1 8 7 10 8 11 15 12 9 13 13 14
REMARK SMILES IDX 10 15 12 16 14 17 11 19
REMARK H PARENT 1 9 14 18 11 20
REMARK Flexibility Score: inf
ROOT
ATOM      1  C   UNL     1     163.825 176.052 150.696  1.00  0.00     0.040 C 
ENDROOT
BRANCH   1   2
ATOM      2  C   UNL     1     162.444 175.599 151.087  1.00  0.00    -0.047 A 
ATOM      3  C   UNL     1     162.262 174.380 151.759  1.00  0.00     0.007 A 
ATOM      4  C   UNL     1     160.982 173.975 152.151  1.00  0.00     0.046 A 
ATOM      5  C   UNL     1     159.873 174.790 151.883  1.00  0.00     0.115 A 
ATOM      6  C   UNL     1     161.332 176.418 150.834  1.00  0.00     0.007 A 
ATOM      7  C   UNL     1     160.053 176.011 151.226  1.00  0.00     0.046 A 
BRANCH   5   8
ATOM      8  O   UNL     1     158.594 174.397 152.269  1.00  0.00    -0.508 OA
ATOM      9  H   UNL     1     158.109 174.851 153.034  1.00  0.00     0.293 HD
ENDBRANCH   5   8
ENDBRANCH   1   2
BRANCH   1  10
ATOM     10  C   UNL     1     164.064 177.497 151.145  1.00  0.00     0.040 C 
BRANCH  10  11
ATOM     11  C   UNL     1     164.817 177.527 152.449  1.00  0.00    -0.040 A 
ATOM     12  C   UNL     1     164.125 177.429 153.667  1.00  0.00     0.050 A 
ATOM     13  C   UNL     1     166.219 177.595 152.455  1.00  0.00     0.050 A 
ATOM     14  C   UNL     1     164.828 177.423 154.881  1.00  0.00     0.119 A 
ATOM     15  C   UNL     1     166.923 177.589 153.664  1.00  0.00     0.119 A 
ATOM     16  C   UNL     1     166.224 177.507 154.876  1.00  0.00     0.092 A 
BRANCH  14  17
ATOM     17  O   UNL     1     164.150 177.334 156.093  1.00  0.00    -0.508 OA
ATOM     18  H   UNL     1     163.352 177.926 156.299  1.00  0.00     0.293 HD
ENDBRANCH  14  17
BRANCH  15  19
ATOM     19  O   UNL     1     168.314 177.665 153.650  1.00  0.00    -0.508 OA
ATOM     20  H   UNL     1     168.810 178.135 152.903  1.00  0.00     0.293 HD
ENDBRANCH  15  19
ENDBRANCH  10  11
ENDBRANCH   1  10
TORSDOF 6
ENDMDL
MODEL 8
REMARK VINA RESULT:    -5.223      1.476      6.042
REMARK INTER + INTRA:          -7.158
REMARK INTER:                  -6.438
REMARK INTRA:                  -0.720
REMARK UNBOUND:                -0.561
REMARK SMILES Oc1ccc(CCc2cc(O)cc(O)c2)cc1
REMARK SMILES IDX 6 1 5 2 4 3 3 4 2 5 16 6 17 7 1 8 7 10 8 11 15 12 9 13 13 14
REMARK SMILES IDX 10 15 12 16 14 17 11 19
REMARK H PARENT 1 9 14 18 11 20
REMARK Flexibility Score: inf
ROOT
ATOM      1  C   UNL     1     161.888 177.708 151.762  1.00  0.00     0.040 C 
ENDROOT
BRANCH   1   2
ATOM      2  C   UNL     1     163.354 177.720 152.102  1.00  0.00    -0.047 A 
ATOM      3  C   UNL     1     163.786 177.366 153.390  1.00  0.00     0.007 A 
ATOM      4  C   UNL     1     165.151 177.347 153.695  1.00  0.00     0.046 A 
ATOM      5  C   UNL     1     166.097 177.671 152.713  1.00  0.00     0.115 A 
ATOM      6  C   UNL     1     164.307 178.031 151.117  1.00  0.00     0.007 A 
ATOM      7  C   UNL     1     165.670 178.011 151.425  1.00  0.00     0.046 A 
BRANCH   5   8
ATOM      8  O   UNL     1     167.459 177.654 153.005  1.00  0.00    -0.508 OA
ATOM      9  H   UNL     1     168.151 177.454 152.292  1.00  0.00     0.293 HD
ENDBRANCH   5   8
ENDBRANCH   1   2
BRANCH   1  10
ATOM     10  C   UNL     1     161.599 176.679 150.664  1.00  0.00     0.040 C 
BRANCH  10  11
ATOM     11  C   UNL     1     161.574 175.288 151.238  1.00  0.00    -0.040 A 
ATOM     12  C   UNL     1     162.693 174.450 151.110  1.00  0.00     0.050 A 
ATOM     13  C   UNL     1     160.454 174.838 151.956  1.00  0.00     0.050 A 
ATOM     14  C   UNL     1     162.683 173.165 151.673  1.00  0.00     0.119 A 
ATOM     15  C   UNL     1     160.441 173.557 152.519  1.00  0.00     0.119 A 
ATOM     16  C   UNL     1     161.556 172.722 152.373  1.00  0.00     0.092 A 
BRANCH  14  17
ATOM     17  O   UNL     1     163.787 172.326 151.545  1.00  0.00    -0.508 OA
ATOM     18  H   UNL     1     163.824 171.426 152.012  1.00  0.00     0.293 HD
ENDBRANCH  14  17
BRANCH  15  19
ATOM     19  O   UNL     1     159.318 173.127 153.220  1.00  0.00    -0.508 OA
ATOM     20  H   UNL     1     159.399 172.523 154.030  1.00  0.00     0.293 HD
ENDBRANCH  15  19
ENDBRANCH  10  11
ENDBRANCH   1  10
TORSDOF 6
ENDMDL
MODEL 9
REMARK VINA RESULT:    -5.185      8.041     11.323
REMARK INTER + INTRA:          -7.109
REMARK INTER:                  -6.380
REMARK INTRA:                  -0.729
REMARK UNBOUND:                -0.561
REMARK SMILES Oc1ccc(CCc2cc(O)cc(O)c2)cc1
REMARK SMILES IDX 6 1 5 2 4 3 3 4 2 5 16 6 17 7 1 8 7 10 8 11 15 12 9 13 13 14
REMARK SMILES IDX 10 15 12 16 14 17 11 19
REMARK H PARENT 1 9 14 18 11 20
REMARK Flexibility Score: inf
ROOT
ATOM      1  C   UNL     1     174.301 175.704 150.741  1.00  0.00     0.040 C 
ENDROOT
BRANCH   1   2
ATOM      2  C   UNL     1     173.044 176.241 151.372  1.00  0.00    -0.047 A 
ATOM      3  C   UNL     1     172.088 175.362 151.906  1.00  0.00     0.007 A 
ATOM      4  C   UNL     1     170.935 175.864 152.520  1.00  0.00     0.046 A 
ATOM      5  C   UNL     1     170.733 177.247 152.615  1.00  0.00     0.115 A 
ATOM      6  C   UNL     1     172.843 177.627 151.481  1.00  0.00     0.007 A 
ATOM      7  C   UNL     1     171.690 178.125 152.095  1.00  0.00     0.046 A 
BRANCH   5   8
ATOM      8  O   UNL     1     169.590 177.758 153.225  1.00  0.00    -0.508 OA
ATOM      9  H   UNL     1     169.635 178.550 153.856  1.00  0.00     0.293 HD
ENDBRANCH   5   8
ENDBRANCH   1   2
BRANCH   1  10
ATOM     10  C   UNL     1     175.531 176.133 151.546  1.00  0.00     0.040 C 
BRANCH  10  11
ATOM     11  C   UNL     1     175.826 175.135 152.633  1.00  0.00    -0.040 A 
ATOM     12  C   UNL     1     175.544 175.445 153.974  1.00  0.00     0.050 A 
ATOM     13  C   UNL     1     176.331 173.865 152.310  1.00  0.00     0.050 A 
ATOM     14  C   UNL     1     175.787 174.502 154.984  1.00  0.00     0.119 A 
ATOM     15  C   UNL     1     176.575 172.923 153.316  1.00  0.00     0.119 A 
ATOM     16  C   UNL     1     176.305 173.246 154.653  1.00  0.00     0.092 A 
BRANCH  14  17
ATOM     17  O   UNL     1     175.516 174.804 156.316  1.00  0.00    -0.508 OA
ATOM     18  H   UNL     1     176.257 175.036 156.968  1.00  0.00     0.293 HD
ENDBRANCH  14  17
BRANCH  15  19
ATOM     19  O   UNL     1     177.083 171.672 152.976  1.00  0.00    -0.508 OA
ATOM     20  H   UNL     1     178.035 171.559 152.648  1.00  0.00     0.293 HD
ENDBRANCH  15  19
ENDBRANCH  10  11
ENDBRANCH   1  10
TORSDOF 6
ENDMDL
