MODEL 1
REMARK VINA RESULT:    -4.360      0.000      0.000
REMARK INTER + INTRA:         -16.599
REMARK INTER:                 -11.498
REMARK INTRA:                  -5.101
REMARK UNBOUND:                -5.101
REMARK SMILES CCCCCCCCCCCCCCCCCCCCCCCCCCCCCC(=O)[O-]
REMARK SMILES IDX 16 1 17 2 18 3 19 4 20 5 21 6 22 7 23 8 24 9 25 10 26 11
REMARK SMILES IDX 27 12 28 13 29 14 30 15 31 16 32 17 15 18 14 19 13 20 12 21
REMARK SMILES IDX 11 22 10 23 9 24 8 25 7 26 6 27 5 28 4 29 3 30 2 31 1 32
REMARK H PARENT
REMARK Flexibility Score: inf
ROOT
ATOM      1  C   UNL     1      99.774  83.782  83.076  1.00  0.00     0.000 C 
ENDROOT
BRANCH   1   2
ATOM      2  C   UNL     1      98.590  83.501  82.125  1.00  0.00     0.000 C 
BRANCH   2   3
ATOM      3  C   UNL     1      97.651  84.704  81.918  1.00  0.00     0.000 C 
BRANCH   3   4
ATOM      4  C   UNL     1      98.040  85.663  80.775  1.00  0.00     0.000 C 
BRANCH   4   5
ATOM      5  C   UNL     1      96.954  86.681  80.367  1.00  0.00     0.000 C 
BRANCH   5   6
ATOM      6  C   UNL     1      96.099  86.258  79.151  1.00  0.00     0.000 C 
BRANCH   6   7
ATOM      7  C   UNL     1      94.714  85.696  79.528  1.00  0.00     0.000 C 
BRANCH   7   8
ATOM      8  C   UNL     1      94.689  84.191  79.844  1.00  0.00     0.000 C 
BRANCH   8   9
ATOM      9  C   UNL     1      93.266  83.662  80.099  1.00  0.00     0.000 C 
BRANCH   9  10
ATOM     10  C   UNL     1      92.182  84.562  79.483  1.00  0.00     0.000 C 
BRANCH  10  11
ATOM     11  C   UNL     1      91.204  85.106  80.539  1.00  0.00     0.000 C 
BRANCH  11  12
ATOM     12  C   UNL     1      91.833  85.216  81.939  1.00  0.00     0.000 C 
BRANCH  12  13
ATOM     13  C   UNL     1      90.858  85.020  83.116  1.00  0.00     0.006 C 
BRANCH  13  14
ATOM     14  C   UNL     1      91.513  85.155  84.504  1.00  0.00     0.053 C 
BRANCH  14  15
ATOM     15  C   UNL     1      91.071  86.392  85.227  1.00  0.00     0.041 C 
ATOM     16  O   UNL     1      90.975  86.393  86.483  1.00  0.00    -0.550 OA
ATOM     17  O   UNL     1      90.810  87.558  84.519  1.00  0.00    -0.550 OA
ENDBRANCH  14  15
ENDBRANCH  13  14
ENDBRANCH  12  13
ENDBRANCH  11  12
ENDBRANCH  10  11
ENDBRANCH   9  10
ENDBRANCH   8   9
ENDBRANCH   7   8
ENDBRANCH   6   7
ENDBRANCH   5   6
ENDBRANCH   4   5
ENDBRANCH   3   4
ENDBRANCH   2   3
ENDBRANCH   1   2
BRANCH   1  18
ATOM     18  C   UNL     1     101.126  83.795  82.342  1.00  0.00     0.000 C 
BRANCH  18  19
ATOM     19  C   UNL     1     102.138  84.781  82.956  1.00  0.00     0.000 C 
BRANCH  19  20
ATOM     20  C   UNL     1     101.553  85.768  83.988  1.00  0.00     0.000 C 
BRANCH  20  21
ATOM     21  C   UNL     1     101.128  87.136  83.420  1.00  0.00     0.000 C 
BRANCH  21  22
ATOM     22  C   UNL     1      99.635  87.480  83.595  1.00  0.00     0.000 C 
BRANCH  22  23
ATOM     23  C   UNL     1      99.138  88.680  82.769  1.00  0.00     0.000 C 
BRANCH  23  24
ATOM     24  C   UNL     1      97.663  89.017  83.042  1.00  0.00    -0.000 C 
BRANCH  24  25
ATOM     25  C   UNL     1      96.942  87.949  83.887  1.00  0.00    -0.000 C 
BRANCH  25  26
ATOM     26  C   UNL     1      95.460  87.713  83.538  1.00  0.00    -0.000 C 
BRANCH  26  27
ATOM     27  C   UNL     1      95.000  86.265  83.786  1.00  0.00    -0.000 C 
BRANCH  27  28
ATOM     28  C   UNL     1      95.125  85.844  85.262  1.00  0.00    -0.000 C 
BRANCH  28  29
ATOM     29  C   UNL     1      96.285  84.877  85.575  1.00  0.00    -0.000 C 
BRANCH  29  30
ATOM     30  C   UNL     1      97.081  85.201  86.852  1.00  0.00    -0.000 C 
BRANCH  30  31
ATOM     31  C   UNL     1      98.498  85.712  86.557  1.00  0.00    -0.003 C 
ATOM     32  C   UNL     1      99.545  84.647  86.871  1.00  0.00     0.004 C 
ENDBRANCH  30  31
ENDBRANCH  29  30
ENDBRANCH  28  29
ENDBRANCH  27  28
ENDBRANCH  26  27
ENDBRANCH  25  26
ENDBRANCH  24  25
ENDBRANCH  23  24
ENDBRANCH  22  23
ENDBRANCH  21  22
ENDBRANCH  20  21
ENDBRANCH  19  20
ENDBRANCH  18  19
ENDBRANCH   1  18
TORSDOF 28
ENDMDL
MODEL 2
REMARK VINA RESULT:    -4.322      2.258      5.991
REMARK INTER + INTRA:         -16.496
REMARK INTER:                 -11.159
REMARK INTRA:                  -5.337
REMARK UNBOUND:                -5.101
REMARK SMILES CCCCCCCCCCCCCCCCCCCCCCCCCCCCCC(=O)[O-]
REMARK SMILES IDX 16 1 17 2 18 3 19 4 20 5 21 6 22 7 23 8 24 9 25 10 26 11
REMARK SMILES IDX 27 12 28 13 29 14 30 15 31 16 32 17 15 18 14 19 13 20 12 21
REMARK SMILES IDX 11 22 10 23 9 24 8 25 7 26 6 27 5 28 4 29 3 30 2 31 1 32
REMARK H PARENT
REMARK Flexibility Score: inf
ROOT
ATOM      1  C   UNL     1      94.733  85.855  79.430  1.00  0.00     0.000 C 
ENDROOT
BRANCH   1   2
ATOM      2  C   UNL     1      94.651  84.332  79.664  1.00  0.00     0.000 C 
BRANCH   2   3
ATOM      3  C   UNL     1      93.239  83.743  79.490  1.00  0.00     0.000 C 
BRANCH   3   4
ATOM      4  C   UNL     1      92.183  84.708  78.915  1.00  0.00     0.000 C 
BRANCH   4   5
ATOM      5  C   UNL     1      90.938  84.931  79.800  1.00  0.00     0.000 C 
BRANCH   5   6
ATOM      6  C   UNL     1      90.928  84.118  81.114  1.00  0.00     0.000 C 
BRANCH   6   7
ATOM      7  C   UNL     1      91.101  84.978  82.381  1.00  0.00     0.000 C 
BRANCH   7   8
ATOM      8  C   UNL     1      92.113  86.128  82.251  1.00  0.00     0.000 C 
BRANCH   8   9
ATOM      9  C   UNL     1      93.382  85.900  83.092  1.00  0.00     0.000 C 
BRANCH   9  10
ATOM     10  C   UNL     1      94.423  87.017  82.907  1.00  0.00     0.000 C 
BRANCH  10  11
ATOM     11  C   UNL     1      95.196  87.316  84.203  1.00  0.00     0.000 C 
BRANCH  11  12
ATOM     12  C   UNL     1      96.714  87.108  84.059  1.00  0.00     0.000 C 
BRANCH  12  13
ATOM     13  C   UNL     1      97.284  85.883  84.802  1.00  0.00     0.006 C 
BRANCH  13  14
ATOM     14  C   UNL     1      96.792  85.746  86.256  1.00  0.00     0.053 C 
BRANCH  14  15
ATOM     15  C   UNL     1      97.883  85.308  87.188  1.00  0.00     0.041 C 
ATOM     16  O   UNL     1      97.741  85.435  88.433  1.00  0.00    -0.550 OA
ATOM     17  O   UNL     1      99.035  84.718  86.686  1.00  0.00    -0.550 OA
ENDBRANCH  14  15
ENDBRANCH  13  14
ENDBRANCH  12  13
ENDBRANCH  11  12
ENDBRANCH  10  11
ENDBRANCH   9  10
ENDBRANCH   8   9
ENDBRANCH   7   8
ENDBRANCH   6   7
ENDBRANCH   5   6
ENDBRANCH   4   5
ENDBRANCH   3   4
ENDBRANCH   2   3
ENDBRANCH   1   2
BRANCH   1  18
ATOM     18  C   UNL     1      96.111  86.432  79.798  1.00  0.00     0.000 C 
BRANCH  18  19
ATOM     19  C   UNL     1      96.940  85.492  80.695  1.00  0.00     0.000 C 
BRANCH  19  20
ATOM     20  C   UNL     1      98.422  85.887  80.870  1.00  0.00     0.000 C 
BRANCH  20  21
ATOM     21  C   UNL     1      99.372  84.727  81.224  1.00  0.00     0.000 C 
BRANCH  21  22
ATOM     22  C   UNL     1      99.029  83.977  82.526  1.00  0.00     0.000 C 
BRANCH  22  23
ATOM     23  C   UNL     1     100.227  83.681  83.447  1.00  0.00     0.000 C 
BRANCH  23  24
ATOM     24  C   UNL     1     101.385  84.673  83.248  1.00  0.00    -0.000 C 
BRANCH  24  25
ATOM     25  C   UNL     1     101.574  85.634  84.438  1.00  0.00    -0.000 C 
BRANCH  25  26
ATOM     26  C   UNL     1     100.876  87.001  84.306  1.00  0.00    -0.000 C 
BRANCH  26  27
ATOM     27  C   UNL     1     101.087  87.662  82.932  1.00  0.00    -0.000 C 
BRANCH  27  28
ATOM     28  C   UNL     1      99.970  88.658  82.571  1.00  0.00    -0.000 C 
BRANCH  28  29
ATOM     29  C   UNL     1      99.973  89.148  81.108  1.00  0.00    -0.000 C 
BRANCH  29  30
ATOM     30  C   UNL     1      98.758  90.000  80.700  1.00  0.00    -0.000 C 
BRANCH  30  31
ATOM     31  C   UNL     1      97.440  89.480  81.293  1.00  0.00    -0.003 C 
ATOM     32  C   UNL     1      96.501  90.631  81.645  1.00  0.00     0.004 C 
ENDBRANCH  30  31
ENDBRANCH  29  30
ENDBRANCH  28  29
ENDBRANCH  27  28
ENDBRANCH  26  27
ENDBRANCH  25  26
ENDBRANCH  24  25
ENDBRANCH  23  24
ENDBRANCH  22  23
ENDBRANCH  21  22
ENDBRANCH  20  21
ENDBRANCH  19  20
ENDBRANCH  18  19
ENDBRANCH   1  18
TORSDOF 28
ENDMDL
MODEL 3
REMARK VINA RESULT:    -4.251      1.923      6.784
REMARK INTER + INTRA:         -16.311
REMARK INTER:                 -10.889
REMARK INTRA:                  -5.422
REMARK UNBOUND:                -5.101
REMARK SMILES CCCCCCCCCCCCCCCCCCCCCCCCCCCCCC(=O)[O-]
REMARK SMILES IDX 16 1 17 2 18 3 19 4 20 5 21 6 22 7 23 8 24 9 25 10 26 11
REMARK SMILES IDX 27 12 28 13 29 14 30 15 31 16 32 17 15 18 14 19 13 20 12 21
REMARK SMILES IDX 11 22 10 23 9 24 8 25 7 26 6 27 5 28 4 29 3 30 2 31 1 32
REMARK H PARENT
REMARK Flexibility Score: inf
ROOT
ATOM      1  C   UNL     1      97.205  89.374  80.957  1.00  0.00     0.000 C 
ENDROOT
BRANCH   1   2
ATOM      2  C   UNL     1      98.477  88.545  80.678  1.00  0.00     0.000 C 
BRANCH   2   3
ATOM      3  C   UNL     1      99.681  88.925  81.560  1.00  0.00     0.000 C 
BRANCH   3   4
ATOM      4  C   UNL     1     100.153  87.838  82.546  1.00  0.00     0.000 C 
BRANCH   4   5
ATOM      5  C   UNL     1     101.661  87.851  82.874  1.00  0.00     0.000 C 
BRANCH   5   6
ATOM      6  C   UNL     1     102.168  86.597  83.621  1.00  0.00     0.000 C 
BRANCH   6   7
ATOM      7  C   UNL     1     101.056  85.801  84.331  1.00  0.00     0.000 C 
BRANCH   7   8
ATOM      8  C   UNL     1     101.044  84.293  84.026  1.00  0.00     0.000 C 
BRANCH   8   9
ATOM      9  C   UNL     1     100.900  83.993  82.523  1.00  0.00     0.000 C 
BRANCH   9  10
ATOM     10  C   UNL     1      99.457  83.641  82.126  1.00  0.00     0.000 C 
BRANCH  10  11
ATOM     11  C   UNL     1      98.756  84.794  81.386  1.00  0.00     0.000 C 
BRANCH  11  12
ATOM     12  C   UNL     1      97.576  85.385  82.177  1.00  0.00     0.000 C 
BRANCH  12  13
ATOM     13  C   UNL     1      97.325  84.749  83.558  1.00  0.00     0.006 C 
BRANCH  13  14
ATOM     14  C   UNL     1      97.372  85.749  84.729  1.00  0.00     0.053 C 
BRANCH  14  15
ATOM     15  C   UNL     1      96.895  85.145  86.016  1.00  0.00     0.041 C 
ATOM     16  O   UNL     1      95.885  84.393  86.027  1.00  0.00    -0.550 OA
ATOM     17  O   UNL     1      97.592  85.375  87.195  1.00  0.00    -0.550 OA
ENDBRANCH  14  15
ENDBRANCH  13  14
ENDBRANCH  12  13
ENDBRANCH  11  12
ENDBRANCH  10  11
ENDBRANCH   9  10
ENDBRANCH   8   9
ENDBRANCH   7   8
ENDBRANCH   6   7
ENDBRANCH   5   6
ENDBRANCH   4   5
ENDBRANCH   3   4
ENDBRANCH   2   3
ENDBRANCH   1   2
BRANCH   1  18
ATOM     18  C   UNL     1      97.096  89.803  82.431  1.00  0.00     0.000 C 
BRANCH  18  19
ATOM     19  C   UNL     1      95.834  89.259  83.127  1.00  0.00     0.000 C 
BRANCH  19  20
ATOM     20  C   UNL     1      95.322  87.903  82.596  1.00  0.00     0.000 C 
BRANCH  20  21
ATOM     21  C   UNL     1      93.897  87.519  83.043  1.00  0.00     0.000 C 
BRANCH  21  22
ATOM     22  C   UNL     1      93.731  86.057  83.504  1.00  0.00     0.000 C 
BRANCH  22  23
ATOM     23  C   UNL     1      92.279  85.609  83.747  1.00  0.00     0.000 C 
BRANCH  23  24
ATOM     24  C   UNL     1      91.250  86.629  83.231  1.00  0.00    -0.000 C 
BRANCH  24  25
ATOM     25  C   UNL     1      90.223  86.017  82.259  1.00  0.00    -0.000 C 
BRANCH  25  26
ATOM     26  C   UNL     1      90.673  85.920  80.789  1.00  0.00    -0.000 C 
BRANCH  26  27
ATOM     27  C   UNL     1      91.102  84.501  80.376  1.00  0.00    -0.000 C 
BRANCH  27  28
ATOM     28  C   UNL     1      92.338  84.493  79.459  1.00  0.00    -0.000 C 
BRANCH  28  29
ATOM     29  C   UNL     1      93.524  83.643  79.959  1.00  0.00    -0.000 C 
BRANCH  29  30
ATOM     30  C   UNL     1      94.874  84.378  80.026  1.00  0.00    -0.000 C 
BRANCH  30  31
ATOM     31  C   UNL     1      94.736  85.896  79.844  1.00  0.00    -0.003 C 
ATOM     32  C   UNL     1      95.690  86.413  78.771  1.00  0.00     0.004 C 
ENDBRANCH  30  31
ENDBRANCH  29  30
ENDBRANCH  28  29
ENDBRANCH  27  28
ENDBRANCH  26  27
ENDBRANCH  25  26
ENDBRANCH  24  25
ENDBRANCH  23  24
ENDBRANCH  22  23
ENDBRANCH  21  22
ENDBRANCH  20  21
ENDBRANCH  19  20
ENDBRANCH  18  19
ENDBRANCH   1  18
TORSDOF 28
ENDMDL
MODEL 4
REMARK VINA RESULT:    -4.214      2.750      7.190
REMARK INTER + INTRA:         -16.214
REMARK INTER:                 -11.464
REMARK INTRA:                  -4.749
REMARK UNBOUND:                -5.101
REMARK SMILES CCCCCCCCCCCCCCCCCCCCCCCCCCCCCC(=O)[O-]
REMARK SMILES IDX 16 1 17 2 18 3 19 4 20 5 21 6 22 7 23 8 24 9 25 10 26 11
REMARK SMILES IDX 27 12 28 13 29 14 30 15 31 16 32 17 15 18 14 19 13 20 12 21
REMARK SMILES IDX 11 22 10 23 9 24 8 25 7 26 6 27 5 28 4 29 3 30 2 31 1 32
REMARK H PARENT
REMARK Flexibility Score: inf
ROOT
ATOM      1  C   UNL     1      97.489  83.999  81.848  1.00  0.00     0.000 C 
ENDROOT
BRANCH   1   2
ATOM      2  C   UNL     1      98.878  83.336  81.962  1.00  0.00     0.000 C 
BRANCH   2   3
ATOM      3  C   UNL     1     100.051  84.334  82.004  1.00  0.00     0.000 C 
BRANCH   3   4
ATOM      4  C   UNL     1     101.155  84.019  83.033  1.00  0.00     0.000 C 
BRANCH   4   5
ATOM      5  C   UNL     1     100.877  84.504  84.471  1.00  0.00     0.000 C 
BRANCH   5   6
ATOM      6  C   UNL     1      99.654  85.439  84.610  1.00  0.00     0.000 C 
BRANCH   6   7
ATOM      7  C   UNL     1     100.015  86.936  84.652  1.00  0.00     0.000 C 
BRANCH   7   8
ATOM      8  C   UNL     1      98.818  87.895  84.540  1.00  0.00     0.000 C 
BRANCH   8   9
ATOM      9  C   UNL     1      98.717  88.558  83.155  1.00  0.00     0.000 C 
BRANCH   9  10
ATOM     10  C   UNL     1      99.929  88.248  82.261  1.00  0.00     0.000 C 
BRANCH  10  11
ATOM     11  C   UNL     1      99.811  88.896  80.870  1.00  0.00     0.000 C 
BRANCH  11  12
ATOM     12  C   UNL     1     100.492  90.273  80.789  1.00  0.00     0.000 C 
BRANCH  12  13
ATOM     13  C   UNL     1      99.539  91.483  80.843  1.00  0.00     0.006 C 
BRANCH  13  14
ATOM     14  C   UNL     1      98.360  91.399  79.853  1.00  0.00     0.053 C 
BRANCH  14  15
ATOM     15  C   UNL     1      97.198  92.246  80.276  1.00  0.00     0.041 C 
ATOM     16  O   UNL     1      97.054  93.406  79.807  1.00  0.00    -0.550 OA
ATOM     17  O   UNL     1      96.247  91.739  81.153  1.00  0.00    -0.550 OA
ENDBRANCH  14  15
ENDBRANCH  13  14
ENDBRANCH  12  13
ENDBRANCH  11  12
ENDBRANCH  10  11
ENDBRANCH   9  10
ENDBRANCH   8   9
ENDBRANCH   7   8
ENDBRANCH   6   7
ENDBRANCH   5   6
ENDBRANCH   4   5
ENDBRANCH   3   4
ENDBRANCH   2   3
ENDBRANCH   1   2
BRANCH   1  18
ATOM     18  C   UNL     1      97.581  85.525  81.672  1.00  0.00     0.000 C 
BRANCH  18  19
ATOM     19  C   UNL     1      97.191  85.996  80.258  1.00  0.00     0.000 C 
BRANCH  19  20
ATOM     20  C   UNL     1      95.779  86.607  80.133  1.00  0.00     0.000 C 
BRANCH  20  21
ATOM     21  C   UNL     1      94.792  85.806  79.262  1.00  0.00     0.000 C 
BRANCH  21  22
ATOM     22  C   UNL     1      94.659  84.315  79.632  1.00  0.00     0.000 C 
BRANCH  22  23
ATOM     23  C   UNL     1      93.257  83.713  79.427  1.00  0.00     0.000 C 
BRANCH  23  24
ATOM     24  C   UNL     1      92.251  84.731  78.864  1.00  0.00    -0.000 C 
BRANCH  24  25
ATOM     25  C   UNL     1      90.978  84.865  79.721  1.00  0.00    -0.000 C 
BRANCH  25  26
ATOM     26  C   UNL     1      90.987  84.092  81.054  1.00  0.00    -0.000 C 
BRANCH  26  27
ATOM     27  C   UNL     1      91.164  85.001  82.283  1.00  0.00    -0.000 C 
BRANCH  27  28
ATOM     28  C   UNL     1      91.430  86.470  81.905  1.00  0.00    -0.000 C 
BRANCH  28  29
ATOM     29  C   UNL     1      92.653  87.114  82.591  1.00  0.00    -0.000 C 
BRANCH  29  30
ATOM     30  C   UNL     1      93.666  86.123  83.189  1.00  0.00    -0.000 C 
BRANCH  30  31
ATOM     31  C   UNL     1      94.909  86.816  83.766  1.00  0.00    -0.003 C 
ATOM     32  C   UNL     1      95.644  85.906  84.745  1.00  0.00     0.004 C 
ENDBRANCH  30  31
ENDBRANCH  29  30
ENDBRANCH  28  29
ENDBRANCH  27  28
ENDBRANCH  26  27
ENDBRANCH  25  26
ENDBRANCH  24  25
ENDBRANCH  23  24
ENDBRANCH  22  23
ENDBRANCH  21  22
ENDBRANCH  20  21
ENDBRANCH  19  20
ENDBRANCH  18  19
ENDBRANCH   1  18
TORSDOF 28
ENDMDL
MODEL 5
REMARK VINA RESULT:    -4.203      2.198      4.091
REMARK INTER + INTRA:         -16.185
REMARK INTER:                 -11.594
REMARK INTRA:                  -4.591
REMARK UNBOUND:                -5.101
REMARK SMILES CCCCCCCCCCCCCCCCCCCCCCCCCCCCCC(=O)[O-]
REMARK SMILES IDX 16 1 17 2 18 3 19 4 20 5 21 6 22 7 23 8 24 9 25 10 26 11
REMARK SMILES IDX 27 12 28 13 29 14 30 15 31 16 32 17 15 18 14 19 13 20 12 21
REMARK SMILES IDX 11 22 10 23 9 24 8 25 7 26 6 27 5 28 4 29 3 30 2 31 1 32
REMARK H PARENT
REMARK Flexibility Score: inf
ROOT
ATOM      1  C   UNL     1      99.947  83.633  82.045  1.00  0.00     0.000 C 
ENDROOT
BRANCH   1   2
ATOM      2  C   UNL     1      98.411  83.496  82.096  1.00  0.00     0.000 C 
BRANCH   2   3
ATOM      3  C   UNL     1      97.690  84.709  82.712  1.00  0.00     0.000 C 
BRANCH   3   4
ATOM      4  C   UNL     1      97.772  86.015  81.897  1.00  0.00     0.000 C 
BRANCH   4   5
ATOM      5  C   UNL     1      97.433  85.881  80.397  1.00  0.00     0.000 C 
BRANCH   5   6
ATOM      6  C   UNL     1      96.173  86.655  79.950  1.00  0.00     0.000 C 
BRANCH   6   7
ATOM      7  C   UNL     1      94.852  85.911  80.227  1.00  0.00     0.000 C 
BRANCH   7   8
ATOM      8  C   UNL     1      94.944  84.378  80.149  1.00  0.00     0.000 C 
BRANCH   8   9
ATOM      9  C   UNL     1      93.858  83.764  79.247  1.00  0.00     0.000 C 
BRANCH   9  10
ATOM     10  C   UNL     1      92.623  84.669  79.109  1.00  0.00     0.000 C 
BRANCH  10  11
ATOM     11  C   UNL     1      91.476  84.241  80.042  1.00  0.00     0.000 C 
BRANCH  11  12
ATOM     12  C   UNL     1      90.224  85.123  79.898  1.00  0.00     0.000 C 
BRANCH  12  13
ATOM     13  C   UNL     1      89.031  84.721  80.787  1.00  0.00     0.006 C 
BRANCH  13  14
ATOM     14  C   UNL     1      87.680  84.680  80.046  1.00  0.00     0.053 C 
BRANCH  14  15
ATOM     15  C   UNL     1      87.450  85.904  79.211  1.00  0.00     0.041 C 
ATOM     16  O   UNL     1      87.234  87.016  79.761  1.00  0.00    -0.550 OA
ATOM     17  O   UNL     1      87.519  85.826  77.826  1.00  0.00    -0.550 OA
ENDBRANCH  14  15
ENDBRANCH  13  14
ENDBRANCH  12  13
ENDBRANCH  11  12
ENDBRANCH  10  11
ENDBRANCH   9  10
ENDBRANCH   8   9
ENDBRANCH   7   8
ENDBRANCH   6   7
ENDBRANCH   5   6
ENDBRANCH   4   5
ENDBRANCH   3   4
ENDBRANCH   2   3
ENDBRANCH   1   2
BRANCH   1  18
ATOM     18  C   UNL     1     100.549  83.998  83.414  1.00  0.00     0.000 C 
BRANCH  18  19
ATOM     19  C   UNL     1     101.424  85.265  83.371  1.00  0.00     0.000 C 
BRANCH  19  20
ATOM     20  C   UNL     1     101.309  86.186  84.605  1.00  0.00     0.000 C 
BRANCH  20  21
ATOM     21  C   UNL     1      99.884  86.675  84.928  1.00  0.00     0.000 C 
BRANCH  21  22
ATOM     22  C   UNL     1      99.426  86.432  86.381  1.00  0.00     0.000 C 
BRANCH  22  23
ATOM     23  C   UNL     1      98.709  85.092  86.625  1.00  0.00     0.000 C 
BRANCH  23  24
ATOM     24  C   UNL     1      97.288  85.273  87.185  1.00  0.00    -0.000 C 
BRANCH  24  25
ATOM     25  C   UNL     1      96.199  85.255  86.095  1.00  0.00    -0.000 C 
BRANCH  25  26
ATOM     26  C   UNL     1      95.393  86.558  85.936  1.00  0.00    -0.000 C 
BRANCH  26  27
ATOM     27  C   UNL     1      95.632  87.260  84.587  1.00  0.00    -0.000 C 
BRANCH  27  28
ATOM     28  C   UNL     1      94.382  87.269  83.689  1.00  0.00    -0.000 C 
BRANCH  28  29
ATOM     29  C   UNL     1      93.644  85.919  83.575  1.00  0.00    -0.000 C 
BRANCH  29  30
ATOM     30  C   UNL     1      92.211  86.000  83.020  1.00  0.00    -0.000 C 
BRANCH  30  31
ATOM     31  C   UNL     1      91.250  85.017  83.704  1.00  0.00    -0.003 C 
ATOM     32  C   UNL     1      90.161  85.756  84.477  1.00  0.00     0.004 C 
ENDBRANCH  30  31
ENDBRANCH  29  30
ENDBRANCH  28  29
ENDBRANCH  27  28
ENDBRANCH  26  27
ENDBRANCH  25  26
ENDBRANCH  24  25
ENDBRANCH  23  24
ENDBRANCH  22  23
ENDBRANCH  21  22
ENDBRANCH  20  21
ENDBRANCH  19  20
ENDBRANCH  18  19
ENDBRANCH   1  18
TORSDOF 28
ENDMDL
MODEL 6
REMARK VINA RESULT:    -4.203      4.196      7.952
REMARK INTER + INTRA:         -16.183
REMARK INTER:                 -10.518
REMARK INTRA:                  -5.665
REMARK UNBOUND:                -5.101
REMARK SMILES CCCCCCCCCCCCCCCCCCCCCCCCCCCCCC(=O)[O-]
REMARK SMILES IDX 16 1 17 2 18 3 19 4 20 5 21 6 22 7 23 8 24 9 25 10 26 11
REMARK SMILES IDX 27 12 28 13 29 14 30 15 31 16 32 17 15 18 14 19 13 20 12 21
REMARK SMILES IDX 11 22 10 23 9 24 8 25 7 26 6 27 5 28 4 29 3 30 2 31 1 32
REMARK H PARENT
REMARK Flexibility Score: inf
ROOT
ATOM      1  C   UNL     1      98.435  83.653  82.172  1.00  0.00     0.000 C 
ENDROOT
BRANCH   1   2
ATOM      2  C   UNL     1      99.934  83.919  81.919  1.00  0.00     0.000 C 
BRANCH   2   3
ATOM      3  C   UNL     1     100.784  83.996  83.201  1.00  0.00     0.000 C 
BRANCH   3   4
ATOM      4  C   UNL     1     102.017  84.919  83.128  1.00  0.00     0.000 C 
BRANCH   4   5
ATOM      5  C   UNL     1     102.355  85.675  84.429  1.00  0.00     0.000 C 
BRANCH   5   6
ATOM      6  C   UNL     1     102.933  87.093  84.219  1.00  0.00     0.000 C 
BRANCH   6   7
ATOM      7  C   UNL     1     103.208  87.442  82.743  1.00  0.00     0.000 C 
BRANCH   7   8
ATOM      8  C   UNL     1     103.605  88.906  82.486  1.00  0.00     0.000 C 
BRANCH   8   9
ATOM      9  C   UNL     1     103.281  89.826  83.677  1.00  0.00     0.000 C 
BRANCH   9  10
ATOM     10  C   UNL     1     102.638  91.153  83.241  1.00  0.00     0.000 C 
BRANCH  10  11
ATOM     11  C   UNL     1     102.562  91.291  81.710  1.00  0.00     0.000 C 
BRANCH  11  12
ATOM     12  C   UNL     1     102.706  92.746  81.231  1.00  0.00     0.000 C 
BRANCH  12  13
ATOM     13  C   UNL     1     102.299  92.999  79.766  1.00  0.00     0.006 C 
BRANCH  13  14
ATOM     14  C   UNL     1     101.477  91.859  79.135  1.00  0.00     0.053 C 
BRANCH  14  15
ATOM     15  C   UNL     1     100.134  92.321  78.653  1.00  0.00     0.041 C 
ATOM     16  O   UNL     1      99.173  92.427  79.459  1.00  0.00    -0.550 OA
ATOM     17  O   UNL     1      99.956  92.680  77.323  1.00  0.00    -0.550 OA
ENDBRANCH  14  15
ENDBRANCH  13  14
ENDBRANCH  12  13
ENDBRANCH  11  12
ENDBRANCH  10  11
ENDBRANCH   9  10
ENDBRANCH   8   9
ENDBRANCH   7   8
ENDBRANCH   6   7
ENDBRANCH   5   6
ENDBRANCH   4   5
ENDBRANCH   3   4
ENDBRANCH   2   3
ENDBRANCH   1   2
BRANCH   1  18
ATOM     18  C   UNL     1      97.534  84.729  81.540  1.00  0.00     0.000 C 
BRANCH  18  19
ATOM     19  C   UNL     1      98.320  85.770  80.719  1.00  0.00     0.000 C 
BRANCH  19  20
ATOM     20  C   UNL     1      97.693  87.179  80.671  1.00  0.00     0.000 C 
BRANCH  20  21
ATOM     21  C   UNL     1      98.699  88.347  80.728  1.00  0.00     0.000 C 
BRANCH  21  22
ATOM     22  C   UNL     1      99.891  88.133  81.682  1.00  0.00     0.000 C 
BRANCH  22  23
ATOM     23  C   UNL     1      99.619  88.480  83.157  1.00  0.00     0.000 C 
BRANCH  23  24
ATOM     24  C   UNL     1      99.186  87.256  83.983  1.00  0.00    -0.000 C 
BRANCH  24  25
ATOM     25  C   UNL     1      97.917  87.506  84.820  1.00  0.00    -0.000 C 
BRANCH  25  26
ATOM     26  C   UNL     1      96.824  86.427  84.711  1.00  0.00    -0.000 C 
BRANCH  26  27
ATOM     27  C   UNL     1      97.228  85.085  85.348  1.00  0.00    -0.000 C 
BRANCH  27  28
ATOM     28  C   UNL     1      98.011  85.261  86.662  1.00  0.00    -0.000 C 
BRANCH  28  29
ATOM     29  C   UNL     1      99.458  84.727  86.642  1.00  0.00    -0.000 C 
BRANCH  29  30
ATOM     30  C   UNL     1     100.378  85.284  87.743  1.00  0.00    -0.000 C 
BRANCH  30  31
ATOM     31  C   UNL     1     100.079  86.752  88.083  1.00  0.00    -0.003 C 
ATOM     32  C   UNL     1     100.994  87.695  87.308  1.00  0.00     0.004 C 
ENDBRANCH  30  31
ENDBRANCH  29  30
ENDBRANCH  28  29
ENDBRANCH  27  28
ENDBRANCH  26  27
ENDBRANCH  25  26
ENDBRANCH  24  25
ENDBRANCH  23  24
ENDBRANCH  22  23
ENDBRANCH  21  22
ENDBRANCH  20  21
ENDBRANCH  19  20
ENDBRANCH  18  19
ENDBRANCH   1  18
TORSDOF 28
ENDMDL
MODEL 7
REMARK VINA RESULT:    -4.202      1.285      3.716
REMARK INTER + INTRA:         -16.183
REMARK INTER:                 -10.843
REMARK INTRA:                  -5.339
REMARK UNBOUND:                -5.101
REMARK SMILES CCCCCCCCCCCCCCCCCCCCCCCCCCCCCC(=O)[O-]
REMARK SMILES IDX 16 1 17 2 18 3 19 4 20 5 21 6 22 7 23 8 24 9 25 10 26 11
REMARK SMILES IDX 27 12 28 13 29 14 30 15 31 16 32 17 15 18 14 19 13 20 12 21
REMARK SMILES IDX 11 22 10 23 9 24 8 25 7 26 6 27 5 28 4 29 3 30 2 31 1 32
REMARK H PARENT
REMARK Flexibility Score: inf
ROOT
ATOM      1  C   UNL     1      96.230  86.438  81.624  1.00  0.00     0.000 C 
ENDROOT
BRANCH   1   2
ATOM      2  C   UNL     1      96.035  86.678  80.112  1.00  0.00     0.000 C 
BRANCH   2   3
ATOM      3  C   UNL     1      95.221  85.580  79.401  1.00  0.00     0.000 C 
BRANCH   3   4
ATOM      4  C   UNL     1      94.794  84.392  80.284  1.00  0.00     0.000 C 
BRANCH   4   5
ATOM      5  C   UNL     1      93.422  83.773  79.942  1.00  0.00     0.000 C 
BRANCH   5   6
ATOM      6  C   UNL     1      92.605  84.558  78.892  1.00  0.00     0.000 C 
BRANCH   6   7
ATOM      7  C   UNL     1      91.111  84.701  79.243  1.00  0.00     0.000 C 
BRANCH   7   8
ATOM      8  C   UNL     1      90.745  84.315  80.686  1.00  0.00     0.000 C 
BRANCH   8   9
ATOM      9  C   UNL     1      90.470  85.540  81.577  1.00  0.00     0.000 C 
BRANCH   9  10
ATOM     10  C   UNL     1      91.346  86.748  81.206  1.00  0.00     0.000 C 
BRANCH  10  11
ATOM     11  C   UNL     1      92.358  87.097  82.311  1.00  0.00     0.000 C 
BRANCH  11  12
ATOM     12  C   UNL     1      92.852  85.862  83.085  1.00  0.00     0.000 C 
BRANCH  12  13
ATOM     13  C   UNL     1      93.138  86.094  84.582  1.00  0.00     0.006 C 
BRANCH  13  14
ATOM     14  C   UNL     1      92.038  85.566  85.521  1.00  0.00     0.053 C 
BRANCH  14  15
ATOM     15  C   UNL     1      90.779  86.377  85.441  1.00  0.00     0.041 C 
ATOM     16  O   UNL     1      90.785  87.592  85.772  1.00  0.00    -0.550 OA
ATOM     17  O   UNL     1      89.610  85.804  84.957  1.00  0.00    -0.550 OA
ENDBRANCH  14  15
ENDBRANCH  13  14
ENDBRANCH  12  13
ENDBRANCH  11  12
ENDBRANCH  10  11
ENDBRANCH   9  10
ENDBRANCH   8   9
ENDBRANCH   7   8
ENDBRANCH   6   7
ENDBRANCH   5   6
ENDBRANCH   4   5
ENDBRANCH   3   4
ENDBRANCH   2   3
ENDBRANCH   1   2
BRANCH   1  18
ATOM     18  C   UNL     1      97.714  86.321  82.014  1.00  0.00     0.000 C 
BRANCH  18  19
ATOM     19  C   UNL     1      98.409  85.099  81.385  1.00  0.00     0.000 C 
BRANCH  19  20
ATOM     20  C   UNL     1      98.399  83.820  82.249  1.00  0.00     0.000 C 
BRANCH  20  21
ATOM     21  C   UNL     1      99.698  83.546  83.032  1.00  0.00     0.000 C 
BRANCH  21  22
ATOM     22  C   UNL     1     100.999  83.874  82.271  1.00  0.00     0.000 C 
BRANCH  22  23
ATOM     23  C   UNL     1     102.037  84.684  83.068  1.00  0.00     0.000 C 
BRANCH  23  24
ATOM     24  C   UNL     1     101.502  85.156  84.430  1.00  0.00    -0.000 C 
BRANCH  24  25
ATOM     25  C   UNL     1     101.031  86.624  84.422  1.00  0.00    -0.000 C 
BRANCH  25  26
ATOM     26  C   UNL     1      99.696  86.899  85.140  1.00  0.00    -0.000 C 
BRANCH  26  27
ATOM     27  C   UNL     1      99.537  86.110  86.451  1.00  0.00    -0.000 C 
BRANCH  27  28
ATOM     28  C   UNL     1      98.487  84.989  86.350  1.00  0.00    -0.000 C 
BRANCH  28  29
ATOM     29  C   UNL     1      97.158  85.390  85.679  1.00  0.00    -0.000 C 
BRANCH  29  30
ATOM     30  C   UNL     1      96.092  85.967  86.628  1.00  0.00    -0.000 C 
BRANCH  30  31
ATOM     31  C   UNL     1      95.965  87.493  86.526  1.00  0.00    -0.003 C 
ATOM     32  C   UNL     1      96.200  87.972  85.096  1.00  0.00     0.004 C 
ENDBRANCH  30  31
ENDBRANCH  29  30
ENDBRANCH  28  29
ENDBRANCH  27  28
ENDBRANCH  26  27
ENDBRANCH  25  26
ENDBRANCH  24  25
ENDBRANCH  23  24
ENDBRANCH  22  23
ENDBRANCH  21  22
ENDBRANCH  20  21
ENDBRANCH  19  20
ENDBRANCH  18  19
ENDBRANCH   1  18
TORSDOF 28
ENDMDL
MODEL 8
REMARK VINA RESULT:    -4.173      1.560      3.071
REMARK INTER + INTRA:         -16.104
REMARK INTER:                 -10.590
REMARK INTRA:                  -5.514
REMARK UNBOUND:                -5.101
REMARK SMILES CCCCCCCCCCCCCCCCCCCCCCCCCCCCCC(=O)[O-]
REMARK SMILES IDX 16 1 17 2 18 3 19 4 20 5 21 6 22 7 23 8 24 9 25 10 26 11
REMARK SMILES IDX 27 12 28 13 29 14 30 15 31 16 32 17 15 18 14 19 13 20 12 21
REMARK SMILES IDX 11 22 10 23 9 24 8 25 7 26 6 27 5 28 4 29 3 30 2 31 1 32
REMARK H PARENT
REMARK Flexibility Score: inf
ROOT
ATOM      1  C   UNL     1      97.290  84.482  82.022  1.00  0.00     0.000 C 
ENDROOT
BRANCH   1   2
ATOM      2  C   UNL     1      97.652  85.411  80.844  1.00  0.00     0.000 C 
BRANCH   2   3
ATOM      3  C   UNL     1      96.439  85.881  80.019  1.00  0.00     0.000 C 
BRANCH   3   4
ATOM      4  C   UNL     1      95.079  85.289  80.439  1.00  0.00     0.000 C 
BRANCH   4   5
ATOM      5  C   UNL     1      94.624  84.048  79.642  1.00  0.00     0.000 C 
BRANCH   5   6
ATOM      6  C   UNL     1      93.097  83.948  79.424  1.00  0.00     0.000 C 
BRANCH   6   7
ATOM      7  C   UNL     1      92.455  85.247  78.900  1.00  0.00     0.000 C 
BRANCH   7   8
ATOM      8  C   UNL     1      90.936  85.352  79.117  1.00  0.00     0.000 C 
BRANCH   8   9
ATOM      9  C   UNL     1      90.419  84.370  80.184  1.00  0.00     0.000 C 
BRANCH   9  10
ATOM     10  C   UNL     1      90.150  85.054  81.536  1.00  0.00     0.000 C 
BRANCH  10  11
ATOM     11  C   UNL     1      91.225  84.719  82.585  1.00  0.00     0.000 C 
BRANCH  11  12
ATOM     12  C   UNL     1      92.234  85.861  82.796  1.00  0.00     0.000 C 
BRANCH  12  13
ATOM     13  C   UNL     1      91.867  87.197  82.120  1.00  0.00     0.006 C 
BRANCH  13  14
ATOM     14  C   UNL     1      91.111  88.178  83.036  1.00  0.00     0.053 C 
BRANCH  14  15
ATOM     15  C   UNL     1      91.886  89.436  83.290  1.00  0.00     0.041 C 
ATOM     16  O   UNL     1      93.093  89.376  83.647  1.00  0.00    -0.550 OA
ATOM     17  O   UNL     1      91.292  90.675  83.090  1.00  0.00    -0.550 OA
ENDBRANCH  14  15
ENDBRANCH  13  14
ENDBRANCH  12  13
ENDBRANCH  11  12
ENDBRANCH  10  11
ENDBRANCH   9  10
ENDBRANCH   8   9
ENDBRANCH   7   8
ENDBRANCH   6   7
ENDBRANCH   5   6
ENDBRANCH   4   5
ENDBRANCH   3   4
ENDBRANCH   2   3
ENDBRANCH   1   2
BRANCH   1  18
ATOM     18  C   UNL     1      98.328  83.364  82.228  1.00  0.00     0.000 C 
BRANCH  18  19
ATOM     19  C   UNL     1      99.689  83.675  81.576  1.00  0.00     0.000 C 
BRANCH  19  20
ATOM     20  C   UNL     1     100.825  84.026  82.559  1.00  0.00     0.000 C 
BRANCH  20  21
ATOM     21  C   UNL     1     100.395  84.175  84.032  1.00  0.00     0.000 C 
BRANCH  21  22
ATOM     22  C   UNL     1     100.537  85.596  84.612  1.00  0.00     0.000 C 
BRANCH  22  23
ATOM     23  C   UNL     1      99.437  86.587  84.191  1.00  0.00     0.000 C 
BRANCH  23  24
ATOM     24  C   UNL     1      99.898  87.547  83.080  1.00  0.00    -0.000 C 
BRANCH  24  25
ATOM     25  C   UNL     1      99.032  88.817  82.977  1.00  0.00    -0.000 C 
BRANCH  25  26
ATOM     26  C   UNL     1      97.847  88.737  81.996  1.00  0.00    -0.000 C 
BRANCH  26  27
ATOM     27  C   UNL     1      96.479  88.907  82.681  1.00  0.00    -0.000 C 
BRANCH  27  28
ATOM     28  C   UNL     1      96.594  89.100  84.204  1.00  0.00    -0.000 C 
BRANCH  28  29
ATOM     29  C   UNL     1      96.025  87.948  85.058  1.00  0.00    -0.000 C 
BRANCH  29  30
ATOM     30  C   UNL     1      95.567  86.711  84.267  1.00  0.00    -0.000 C 
BRANCH  30  31
ATOM     31  C   UNL     1      95.238  85.514  85.171  1.00  0.00    -0.003 C 
ATOM     32  C   UNL     1      96.507  84.797  85.622  1.00  0.00     0.004 C 
ENDBRANCH  30  31
ENDBRANCH  29  30
ENDBRANCH  28  29
ENDBRANCH  27  28
ENDBRANCH  26  27
ENDBRANCH  25  26
ENDBRANCH  24  25
ENDBRANCH  23  24
ENDBRANCH  22  23
ENDBRANCH  21  22
ENDBRANCH  20  21
ENDBRANCH  19  20
ENDBRANCH  18  19
ENDBRANCH   1  18
TORSDOF 28
ENDMDL
MODEL 9
REMARK VINA RESULT:    -4.168      2.796      7.281
REMARK INTER + INTRA:         -16.091
REMARK INTER:                 -10.936
REMARK INTRA:                  -5.155
REMARK UNBOUND:                -5.101
REMARK SMILES CCCCCCCCCCCCCCCCCCCCCCCCCCCCCC(=O)[O-]
REMARK SMILES IDX 16 1 17 2 18 3 19 4 20 5 21 6 22 7 23 8 24 9 25 10 26 11
REMARK SMILES IDX 27 12 28 13 29 14 30 15 31 16 32 17 15 18 14 19 13 20 12 21
REMARK SMILES IDX 11 22 10 23 9 24 8 25 7 26 6 27 5 28 4 29 3 30 2 31 1 32
REMARK H PARENT
REMARK Flexibility Score: inf
ROOT
ATOM      1  C   UNL     1      94.583  86.013  79.404  1.00  0.00     0.000 C 
ENDROOT
BRANCH   1   2
ATOM      2  C   UNL     1      95.955  86.659  79.114  1.00  0.00     0.000 C 
BRANCH   2   3
ATOM      3  C   UNL     1      97.101  86.124  79.993  1.00  0.00     0.000 C 
BRANCH   3   4
ATOM      4  C   UNL     1      97.920  87.195  80.741  1.00  0.00     0.000 C 
BRANCH   4   5
ATOM      5  C   UNL     1      97.743  87.213  82.274  1.00  0.00     0.000 C 
BRANCH   5   6
ATOM      6  C   UNL     1      96.836  86.092  82.830  1.00  0.00     0.000 C 
BRANCH   6   7
ATOM      7  C   UNL     1      97.610  84.864  83.348  1.00  0.00     0.000 C 
BRANCH   7   8
ATOM      8  C   UNL     1      97.532  83.621  82.446  1.00  0.00     0.000 C 
BRANCH   8   9
ATOM      9  C   UNL     1      98.904  83.210  81.882  1.00  0.00     0.000 C 
BRANCH   9  10
ATOM     10  C   UNL     1      99.933  84.353  81.939  1.00  0.00     0.000 C 
BRANCH  10  11
ATOM     11  C   UNL     1     101.264  83.910  82.569  1.00  0.00     0.000 C 
BRANCH  11  12
ATOM     12  C   UNL     1     101.999  85.055  83.287  1.00  0.00     0.000 C 
BRANCH  12  13
ATOM     13  C   UNL     1     101.091  86.065  84.016  1.00  0.00     0.006 C 
BRANCH  13  14
ATOM     14  C   UNL     1     101.483  86.316  85.485  1.00  0.00     0.053 C 
BRANCH  14  15
ATOM     15  C   UNL     1     100.784  85.387  86.431  1.00  0.00     0.041 C 
ATOM     16  O   UNL     1     100.877  85.559  87.675  1.00  0.00    -0.550 OA
ATOM     17  O   UNL     1      99.991  84.357  85.939  1.00  0.00    -0.550 OA
ENDBRANCH  14  15
ENDBRANCH  13  14
ENDBRANCH  12  13
ENDBRANCH  11  12
ENDBRANCH  10  11
ENDBRANCH   9  10
ENDBRANCH   8   9
ENDBRANCH   7   8
ENDBRANCH   6   7
ENDBRANCH   5   6
ENDBRANCH   4   5
ENDBRANCH   3   4
ENDBRANCH   2   3
ENDBRANCH   1   2
BRANCH   1  18
ATOM     18  C   UNL     1      94.714  84.650  80.107  1.00  0.00     0.000 C 
BRANCH  18  19
ATOM     19  C   UNL     1      93.492  83.737  79.887  1.00  0.00     0.000 C 
BRANCH  19  20
ATOM     20  C   UNL     1      92.394  84.315  78.970  1.00  0.00     0.000 C 
BRANCH  20  21
ATOM     21  C   UNL     1      91.079  84.694  79.679  1.00  0.00     0.000 C 
BRANCH  21  22
ATOM     22  C   UNL     1      90.846  83.997  81.034  1.00  0.00     0.000 C 
BRANCH  22  23
ATOM     23  C   UNL     1      90.950  84.912  82.268  1.00  0.00     0.000 C 
BRANCH  23  24
ATOM     24  C   UNL     1      91.371  86.347  81.907  1.00  0.00    -0.000 C 
BRANCH  24  25
ATOM     25  C   UNL     1      92.490  86.898  82.812  1.00  0.00    -0.000 C 
BRANCH  25  26
ATOM     26  C   UNL     1      93.352  85.838  83.525  1.00  0.00    -0.000 C 
BRANCH  26  27
ATOM     27  C   UNL     1      93.196  85.858  85.056  1.00  0.00    -0.000 C 
BRANCH  27  28
ATOM     28  C   UNL     1      94.382  86.534  85.769  1.00  0.00    -0.000 C 
BRANCH  28  29
ATOM     29  C   UNL     1      94.480  88.062  85.578  1.00  0.00    -0.000 C 
BRANCH  29  30
ATOM     30  C   UNL     1      95.877  88.586  85.202  1.00  0.00    -0.000 C 
BRANCH  30  31
ATOM     31  C   UNL     1      95.831  89.952  84.501  1.00  0.00    -0.003 C 
ATOM     32  C   UNL     1      95.210  89.840  83.112  1.00  0.00     0.004 C 
ENDBRANCH  30  31
ENDBRANCH  29  30
ENDBRANCH  28  29
ENDBRANCH  27  28
ENDBRANCH  26  27
ENDBRANCH  25  26
ENDBRANCH  24  25
ENDBRANCH  23  24
ENDBRANCH  22  23
ENDBRANCH  21  22
ENDBRANCH  20  21
ENDBRANCH  19  20
ENDBRANCH  18  19
ENDBRANCH   1  18
TORSDOF 28
ENDMDL
