MODEL 1
REMARK VINA RESULT:     8.511      0.000      0.000
REMARK INTER + INTRA:           8.760
REMARK INTER:                   8.760
REMARK INTRA:                   0.000
REMARK UNBOUND:                 0.000
REMARK SMILES C=C1[C@H](O)C[C@@]23C[C@@H]1C(C)(C)[C@@H]2CC[C@@H]3C
REMARK SMILES IDX 16 1 15 2 14 3 13 4 12 5 6 6 7 7 8 8 9 9 10 10 11 11 2 12
REMARK SMILES IDX 1 13 3 14 5 15 4 16
REMARK H PARENT 4 17
REMARK Flexibility Score: inf
ROOT
ATOM      1  C   UNL     1     -37.674  24.584   3.998  1.00  0.00     0.008 C 
ATOM      2  C   UNL     1     -37.264  23.103   3.931  1.00  0.00    -0.008 C 
ATOM      3  C   UNL     1     -35.894  22.938   3.264  1.00  0.00     0.004 C 
ATOM      4  C   UNL     1     -34.908  22.732   4.397  1.00  0.00     0.005 C 
ATOM      5  C   UNL     1     -35.682  21.921   5.445  1.00  0.00     0.002 C 
ATOM      6  C   UNL     1     -37.154  22.370   5.309  1.00  0.00    -0.020 C 
ATOM      7  C   UNL     1     -37.404  23.207   6.572  1.00  0.00     0.016 C 
ATOM      8  C   UNL     1     -36.669  22.395   7.627  1.00  0.00     0.023 C 
ATOM      9  C   UNL     1     -35.297  22.093   6.956  1.00  0.00    -0.025 C 
ATOM     10  C   UNL     1     -34.323  23.267   7.244  1.00  0.00     0.012 C 
ATOM     11  C   UNL     1     -34.616  20.814   7.506  1.00  0.00     0.012 C 
ATOM     12  C   UNL     1     -37.488  21.131   7.878  1.00  0.00    -0.045 C 
ATOM     13  C   UNL     1     -37.602  20.647   9.125  1.00  0.00     0.011 C 
ATOM     14  C   UNL     1     -38.125  20.373   6.717  1.00  0.00     0.140 C 
ATOM     15  C   UNL     1     -38.124  21.153   5.365  1.00  0.00     0.044 C 
ENDROOT
BRANCH  14  16
ATOM     16  O   UNL     1     -37.470  19.141   6.559  1.00  0.00    -0.389 OA
ATOM     17  H   UNL     1     -38.076  18.442   6.922  1.00  0.00     0.211 HD
ENDBRANCH  14  16
TORSDOF 1
ENDMDL
MODEL 2
REMARK VINA RESULT:     9.009      1.514      4.270
REMARK INTER + INTRA:           9.273
REMARK INTER:                   9.273
REMARK INTRA:                   0.000
REMARK UNBOUND:                 0.000
REMARK SMILES C=C1[C@H](O)C[C@@]23C[C@@H]1C(C)(C)[C@@H]2CC[C@@H]3C
REMARK SMILES IDX 16 1 15 2 14 3 13 4 12 5 6 6 7 7 8 8 9 9 10 10 11 11 2 12
REMARK SMILES IDX 1 13 3 14 5 15 4 16
REMARK H PARENT 4 17
REMARK Flexibility Score: inf
ROOT
ATOM      1  C   UNL     1     -35.507  20.011   9.039  1.00  0.00     0.008 C 
ATOM      2  C   UNL     1     -36.778  20.077   8.174  1.00  0.00    -0.008 C 
ATOM      3  C   UNL     1     -37.970  20.603   8.981  1.00  0.00     0.004 C 
ATOM      4  C   UNL     1     -38.124  22.059   8.586  1.00  0.00     0.005 C 
ATOM      5  C   UNL     1     -37.750  22.099   7.098  1.00  0.00     0.002 C 
ATOM      6  C   UNL     1     -36.687  20.993   6.909  1.00  0.00    -0.020 C 
ATOM      7  C   UNL     1     -35.380  21.769   6.696  1.00  0.00     0.016 C 
ATOM      8  C   UNL     1     -35.844  22.912   5.807  1.00  0.00     0.023 C 
ATOM      9  C   UNL     1     -37.133  23.420   6.519  1.00  0.00    -0.025 C 
ATOM     10  C   UNL     1     -36.737  24.471   7.591  1.00  0.00     0.012 C 
ATOM     11  C   UNL     1     -38.124  24.124   5.558  1.00  0.00     0.012 C 
ATOM     12  C   UNL     1     -36.131  22.326   4.426  1.00  0.00    -0.045 C 
ATOM     13  C   UNL     1     -35.809  23.022   3.325  1.00  0.00     0.011 C 
ATOM     14  C   UNL     1     -36.844  20.983   4.284  1.00  0.00     0.140 C 
ATOM     15  C   UNL     1     -36.951  20.171   5.613  1.00  0.00     0.044 C 
ENDROOT
BRANCH  14  16
ATOM     16  O   UNL     1     -38.124  21.197   3.749  1.00  0.00    -0.389 OA
ATOM     17  H   UNL     1     -38.001  21.671   2.884  1.00  0.00     0.211 HD
ENDBRANCH  14  16
TORSDOF 1
ENDMDL
MODEL 3
REMARK VINA RESULT:     9.817      1.868      4.197
REMARK INTER + INTRA:          10.104
REMARK INTER:                  10.104
REMARK INTRA:                   0.000
REMARK UNBOUND:                 0.000
REMARK SMILES C=C1[C@H](O)C[C@@]23C[C@@H]1C(C)(C)[C@@H]2CC[C@@H]3C
REMARK SMILES IDX 16 1 15 2 14 3 13 4 12 5 6 6 7 7 8 8 9 9 10 10 11 11 2 12
REMARK SMILES IDX 1 13 3 14 5 15 4 16
REMARK H PARENT 4 17
REMARK Flexibility Score: inf
ROOT
ATOM      1  C   UNL     1     -38.104  19.269   8.096  1.00  0.00     0.008 C 
ATOM      2  C   UNL     1     -37.379  20.569   8.486  1.00  0.00    -0.008 C 
ATOM      3  C   UNL     1     -35.907  20.302   8.820  1.00  0.00     0.004 C 
ATOM      4  C   UNL     1     -35.124  20.721   7.591  1.00  0.00     0.005 C 
ATOM      5  C   UNL     1     -35.883  21.936   7.041  1.00  0.00     0.002 C 
ATOM      6  C   UNL     1     -37.367  21.689   7.393  1.00  0.00    -0.020 C 
ATOM      7  C   UNL     1     -38.018  21.359   6.042  1.00  0.00     0.016 C 
ATOM      8  C   UNL     1     -37.331  22.355   5.121  1.00  0.00     0.023 C 
ATOM      9  C   UNL     1     -35.827  22.215   5.498  1.00  0.00    -0.025 C 
ATOM     10  C   UNL     1     -35.199  21.069   4.658  1.00  0.00     0.012 C 
ATOM     11  C   UNL     1     -34.999  23.488   5.192  1.00  0.00     0.012 C 
ATOM     12  C   UNL     1     -37.890  23.738   5.449  1.00  0.00    -0.045 C 
ATOM     13  C   UNL     1     -38.122  24.616   4.461  1.00  0.00     0.011 C 
ATOM     14  C   UNL     1     -38.124  24.157   6.898  1.00  0.00     0.140 C 
ATOM     15  C   UNL     1     -38.045  22.986   7.926  1.00  0.00     0.044 C 
ENDROOT
BRANCH  14  16
ATOM     16  O   UNL     1     -37.201  25.159   7.241  1.00  0.00    -0.389 OA
ATOM     17  H   UNL     1     -36.612  25.292   6.452  1.00  0.00     0.211 HD
ENDBRANCH  14  16
TORSDOF 1
ENDMDL
MODEL 4
REMARK VINA RESULT:    11.286      1.669      4.162
REMARK INTER + INTRA:          11.616
REMARK INTER:                  11.616
REMARK INTRA:                   0.000
REMARK UNBOUND:                 0.000
REMARK SMILES C=C1[C@H](O)C[C@@]23C[C@@H]1C(C)(C)[C@@H]2CC[C@@H]3C
REMARK SMILES IDX 16 1 15 2 14 3 13 4 12 5 6 6 7 7 8 8 9 9 10 10 11 11 2 12
REMARK SMILES IDX 1 13 3 14 5 15 4 16
REMARK H PARENT 4 17
REMARK Flexibility Score: inf
ROOT
ATOM      1  C   UNL     1     -38.125  19.866   9.086  1.00  0.00     0.008 C 
ATOM      2  C   UNL     1     -37.211  19.662   7.864  1.00  0.00    -0.008 C 
ATOM      3  C   UNL     1     -38.028  19.309   6.616  1.00  0.00     0.004 C 
ATOM      4  C   UNL     1     -38.123  20.591   5.812  1.00  0.00     0.005 C 
ATOM      5  C   UNL     1     -36.776  21.292   6.035  1.00  0.00     0.002 C 
ATOM      6  C   UNL     1     -36.336  20.895   7.462  1.00  0.00    -0.020 C 
ATOM      7  C   UNL     1     -36.521  22.183   8.277  1.00  0.00     0.016 C 
ATOM      8  C   UNL     1     -36.019  23.236   7.301  1.00  0.00     0.023 C 
ATOM      9  C   UNL     1     -36.730  22.859   5.969  1.00  0.00    -0.025 C 
ATOM     10  C   UNL     1     -38.123  23.544   5.927  1.00  0.00     0.012 C 
ATOM     11  C   UNL     1     -35.966  23.340   4.710  1.00  0.00     0.012 C 
ATOM     12  C   UNL     1     -34.501  23.091   7.217  1.00  0.00    -0.045 C 
ATOM     13  C   UNL     1     -33.730  24.185   7.129  1.00  0.00     0.011 C 
ATOM     14  C   UNL     1     -33.855  21.709   7.162  1.00  0.00     0.140 C 
ATOM     15  C   UNL     1     -34.822  20.534   7.507  1.00  0.00     0.044 C 
ENDROOT
BRANCH  14  16
ATOM     16  O   UNL     1     -33.298  21.513   5.887  1.00  0.00    -0.389 OA
ATOM     17  H   UNL     1     -32.366  21.198   6.024  1.00  0.00     0.211 HD
ENDBRANCH  14  16
TORSDOF 1
ENDMDL
