MODEL 1
REMARK VINA RESULT:    -2.908      0.000      0.000
REMARK INTER + INTRA:          -3.731
REMARK INTER:                  -4.098
REMARK INTRA:                   0.367
REMARK UNBOUND:                 0.367
REMARK SMILES CC1=CCC(=C(C)C)C(=O)CC(C)=CCC1
REMARK SMILES IDX 12 1 14 2 13 3 15 4 16 5 2 6 1 7 3 8 11 10 9 11 10 12 5 13
REMARK SMILES IDX 6 14 7 15 8 16 4 17
REMARK H PARENT
REMARK Flexibility Score: 60.00
ROOT
ATOM      1  C   UNL     1      20.751  42.587  93.976  1.00  0.00    -0.070 C 
ATOM      2  C   UNL     1      21.736  43.412  93.544  1.00  0.00    -0.027 C 
ATOM      3  C   UNL     1      20.574  42.437  95.467  1.00  0.00     0.039 C 
ENDROOT
BRANCH   2   4
ATOM      4  C   UNL     1      22.020  43.790  92.111  1.00  0.00     0.032 C 
BRANCH   4   5
ATOM      5  C   UNL     1      22.634  42.630  91.304  1.00  0.00     0.034 C 
BRANCH   5   6
ATOM      6  C   UNL     1      21.817  42.296  90.071  1.00  0.00    -0.077 C 
ATOM      7  C   UNL     1      21.569  43.385  89.059  1.00  0.00     0.039 C 
ATOM      8  C   UNL     1      21.274  41.080  89.838  1.00  0.00    -0.023 CG0
ATOM      9  G   UNL     1      21.381  39.877  90.745  1.00  0.00     0.000 G0
ENDBRANCH   5   6
ENDBRANCH   4   5
ENDBRANCH   2   4
BRANCH   1  10
ATOM     10  C   UNL     1      19.786  41.867  93.048  1.00  0.00     0.111 C 
BRANCH  10  11
ATOM     11  C   UNL     1      20.133  40.405  92.914  1.00  0.00     0.163 C 
ATOM     12  O   UNL     1      20.480  39.780  93.952  1.00  0.00    -0.294 OA
BRANCH  11  13
ATOM     13  C   UNL     1      20.124  39.707  91.590  1.00  0.00    -0.002 C 
ATOM     14  C   UNL     1      19.027  39.025  91.143  1.00  0.00    -0.069 C 
ATOM     15  C   UNL     1      19.039  38.290  89.821  1.00  0.00     0.039 C 
ATOM     16  C   UNL     1      17.735  39.000  91.930  1.00  0.00     0.039 C 
BRANCH  13  17
ATOM     17  C   UNL     1      21.365  39.851  90.727  1.00  0.00     0.066 CG0
ATOM     18  G   UNL     1      21.249  41.085  89.865  1.00  0.00     0.000 G0
ENDBRANCH  13  17
ENDBRANCH  11  13
ENDBRANCH  10  11
ENDBRANCH   1  10
TORSDOF 0
ENDMDL
MODEL 2
REMARK VINA RESULT:    -2.834      2.007      3.488
REMARK INTER + INTRA:          -3.627
REMARK INTER:                  -4.060
REMARK INTRA:                   0.433
REMARK UNBOUND:                 0.367
REMARK SMILES CC1=CCC(=C(C)C)C(=O)CC(C)=CCC1
REMARK SMILES IDX 12 1 14 2 13 3 15 4 16 5 2 6 1 7 3 8 11 10 9 11 10 12 5 13
REMARK SMILES IDX 6 14 7 15 8 16 4 17
REMARK H PARENT
REMARK Flexibility Score: 60.00
ROOT
ATOM      1  C   UNL     1      17.511  39.331  94.177  1.00  0.00    -0.070 C 
ATOM      2  C   UNL     1      18.093  40.350  94.854  1.00  0.00    -0.027 C 
ATOM      3  C   UNL     1      16.026  39.131  94.361  1.00  0.00     0.039 C 
ENDROOT
BRANCH   2   4
ATOM      4  C   UNL     1      19.531  40.793  94.737  1.00  0.00     0.032 C 
BRANCH   4   5
ATOM      5  C   UNL     1      19.755  41.774  93.570  1.00  0.00     0.034 C 
BRANCH   5   6
ATOM      6  C   UNL     1      20.987  41.424  92.758  1.00  0.00    -0.077 C 
ATOM      7  C   UNL     1      22.342  41.676  93.368  1.00  0.00     0.039 C 
ATOM      8  C   UNL     1      20.941  40.923  91.503  1.00  0.00    -0.023 CG0
ATOM      9  G   UNL     1      19.686  40.637  90.713  1.00  0.00     0.000 G0
ENDBRANCH   5   6
ENDBRANCH   4   5
ENDBRANCH   2   4
BRANCH   1  10
ATOM     10  C   UNL     1      18.253  38.432  93.201  1.00  0.00     0.111 C 
BRANCH  10  11
ATOM     11  C   UNL     1      18.099  38.910  91.779  1.00  0.00     0.163 C 
ATOM     12  O   UNL     1      16.931  39.036  91.319  1.00  0.00    -0.294 OA
BRANCH  11  13
ATOM     13  C   UNL     1      19.281  39.183  90.901  1.00  0.00    -0.002 C 
ATOM     14  C   UNL     1      19.929  38.181  90.236  1.00  0.00    -0.069 C 
ATOM     15  C   UNL     1      21.146  38.460  89.382  1.00  0.00     0.039 C 
ATOM     16  C   UNL     1      19.443  36.750  90.292  1.00  0.00     0.039 C 
BRANCH  13  17
ATOM     17  C   UNL     1      19.684  40.636  90.722  1.00  0.00     0.066 CG0
ATOM     18  G   UNL     1      20.940  40.919  91.511  1.00  0.00     0.000 G0
ENDBRANCH  13  17
ENDBRANCH  11  13
ENDBRANCH  10  11
ENDBRANCH   1  10
TORSDOF 0
ENDMDL
MODEL 3
REMARK VINA RESULT:    -2.695      2.168      4.211
REMARK INTER + INTRA:          -3.432
REMARK INTER:                  -3.833
REMARK INTRA:                   0.402
REMARK UNBOUND:                 0.367
REMARK SMILES CC1=CCC(=C(C)C)C(=O)CC(C)=CCC1
REMARK SMILES IDX 12 1 14 2 13 3 15 4 16 5 2 6 1 7 3 8 11 10 9 11 10 12 5 13
REMARK SMILES IDX 6 14 7 15 8 16 4 17
REMARK H PARENT
REMARK Flexibility Score: 60.00
ROOT
ATOM      1  C   UNL     1      20.482  41.754  94.144  1.00  0.00    -0.070 C 
ATOM      2  C   UNL     1      19.766  41.292  95.197  1.00  0.00    -0.027 C 
ATOM      3  C   UNL     1      20.829  43.223  94.129  1.00  0.00     0.039 C 
ENDROOT
BRANCH   2   4
ATOM      4  C   UNL     1      19.402  39.852  95.467  1.00  0.00     0.032 C 
BRANCH   4   5
ATOM      5  C   UNL     1      18.185  39.385  94.649  1.00  0.00     0.034 C 
BRANCH   5   6
ATOM      6  C   UNL     1      18.503  38.178  93.787  1.00  0.00    -0.077 C 
ATOM      7  C   UNL     1      18.821  36.874  94.471  1.00  0.00     0.039 C 
ATOM      8  C   UNL     1      18.544  38.212  92.436  1.00  0.00    -0.023 CG0
ATOM      9  G   UNL     1      18.292  39.427  91.575  1.00  0.00     0.000 G0
ENDBRANCH   5   6
ENDBRANCH   4   5
ENDBRANCH   2   4
BRANCH   1  10
ATOM     10  C   UNL     1      21.005  40.868  93.024  1.00  0.00     0.111 C 
BRANCH  10  11
ATOM     11  C   UNL     1      20.247  41.092  91.739  1.00  0.00     0.163 C 
ATOM     12  O   UNL     1      20.135  42.275  91.316  1.00  0.00    -0.294 OA
BRANCH  11  13
ATOM     13  C   UNL     1      19.592  39.968  90.999  1.00  0.00    -0.002 C 
ATOM     14  C   UNL     1      20.172  39.394  89.903  1.00  0.00    -0.069 C 
ATOM     15  C   UNL     1      19.486  38.285  89.137  1.00  0.00     0.039 C 
ATOM     16  C   UNL     1      21.543  39.815  89.421  1.00  0.00     0.039 C 
BRANCH  13  17
ATOM     17  C   UNL     1      18.285  39.441  91.563  1.00  0.00     0.066 CG0
ATOM     18  G   UNL     1      18.550  38.221  92.414  1.00  0.00     0.000 G0
ENDBRANCH  13  17
ENDBRANCH  11  13
ENDBRANCH  10  11
ENDBRANCH   1  10
TORSDOF 0
ENDMDL
MODEL 4
REMARK VINA RESULT:    -2.679      1.703      3.918
REMARK INTER + INTRA:          -3.409
REMARK INTER:                  -3.871
REMARK INTRA:                   0.462
REMARK UNBOUND:                 0.367
REMARK SMILES CC1=CCC(=C(C)C)C(=O)CC(C)=CCC1
REMARK SMILES IDX 12 1 14 2 13 3 15 4 16 5 2 6 1 7 3 8 11 10 9 11 10 12 5 13
REMARK SMILES IDX 6 14 7 15 8 16 4 17
REMARK H PARENT
REMARK Flexibility Score: 60.00
ROOT
ATOM      1  C   UNL     1      19.811  38.712  89.418  1.00  0.00    -0.070 C 
ATOM      2  C   UNL     1      20.740  39.449  88.763  1.00  0.00    -0.027 C 
ATOM      3  C   UNL     1      19.614  37.284  88.971  1.00  0.00     0.039 C 
ENDROOT
BRANCH   2   4
ATOM      4  C   UNL     1      21.173  40.853  89.109  1.00  0.00     0.032 C 
BRANCH   4   5
ATOM      5  C   UNL     1      22.351  40.882  90.101  1.00  0.00     0.034 C 
BRANCH   5   6
ATOM      6  C   UNL     1      22.139  41.892  91.211  1.00  0.00    -0.077 C 
ATOM      7  C   UNL     1      22.360  43.351  90.905  1.00  0.00     0.039 C 
ATOM      8  C   UNL     1      21.787  41.557  92.473  1.00  0.00    -0.023 CG0
ATOM      9  G   UNL     1      21.556  40.154  92.982  1.00  0.00     0.000 G0
ENDBRANCH   5   6
ENDBRANCH   4   5
ENDBRANCH   2   4
BRANCH   1  10
ATOM     10  C   UNL     1      19.016  39.221  90.609  1.00  0.00     0.111 C 
BRANCH  10  11
ATOM     11  C   UNL     1      19.643  38.800  91.916  1.00  0.00     0.163 C 
ATOM     12  O   UNL     1      19.744  37.566  92.154  1.00  0.00    -0.294 OA
BRANCH  11  13
ATOM     13  C   UNL     1      20.089  39.798  92.938  1.00  0.00    -0.002 C 
ATOM     14  C   UNL     1      19.222  40.328  93.852  1.00  0.00    -0.069 C 
ATOM     15  C   UNL     1      19.672  41.364  94.858  1.00  0.00     0.039 C 
ATOM     16  C   UNL     1      17.779  39.881  93.927  1.00  0.00     0.039 C 
BRANCH  13  17
ATOM     17  C   UNL     1      21.568  40.142  92.966  1.00  0.00     0.066 CG0
ATOM     18  G   UNL     1      21.773  41.557  92.480  1.00  0.00     0.000 G0
ENDBRANCH  13  17
ENDBRANCH  11  13
ENDBRANCH  10  11
ENDBRANCH   1  10
TORSDOF 0
ENDMDL
MODEL 5
REMARK VINA RESULT:    -2.640      2.252      4.159
REMARK INTER + INTRA:          -3.354
REMARK INTER:                  -3.843
REMARK INTRA:                   0.489
REMARK UNBOUND:                 0.367
REMARK SMILES CC1=CCC(=C(C)C)C(=O)CC(C)=CCC1
REMARK SMILES IDX 12 1 14 2 13 3 15 4 16 5 2 6 1 7 3 8 11 10 9 11 10 12 5 13
REMARK SMILES IDX 6 14 7 15 8 16 4 17
REMARK H PARENT
REMARK Flexibility Score: 60.00
ROOT
ATOM      1  C   UNL     1      22.040  42.534  90.226  1.00  0.00    -0.070 C 
ATOM      2  C   UNL     1      22.463  43.738  90.681  1.00  0.00    -0.027 C 
ATOM      3  C   UNL     1      21.638  42.441  88.775  1.00  0.00     0.039 C 
ENDROOT
BRANCH   2   4
ATOM      4  C   UNL     1      23.009  44.031  92.057  1.00  0.00     0.032 C 
BRANCH   4   5
ATOM      5  C   UNL     1      21.946  44.624  93.001  1.00  0.00     0.034 C 
BRANCH   5   6
ATOM      6  C   UNL     1      21.871  43.876  94.319  1.00  0.00    -0.077 C 
ATOM      7  C   UNL     1      22.872  44.216  95.393  1.00  0.00     0.039 C 
ATOM      8  C   UNL     1      20.971  42.900  94.577  1.00  0.00    -0.023 CG0
ATOM      9  G   UNL     1      19.917  42.396  93.620  1.00  0.00     0.000 G0
ENDBRANCH   5   6
ENDBRANCH   4   5
ENDBRANCH   2   4
BRANCH   1  10
ATOM     10  C   UNL     1      22.013  41.273  91.075  1.00  0.00     0.111 C 
BRANCH  10  11
ATOM     11  C   UNL     1      20.626  40.986  91.597  1.00  0.00     0.163 C 
ATOM     12  O   UNL     1      19.716  40.740  90.760  1.00  0.00    -0.294 OA
BRANCH  11  13
ATOM     13  C   UNL     1      20.303  41.039  93.058  1.00  0.00    -0.002 C 
ATOM     14  C   UNL     1      20.433  39.941  93.863  1.00  0.00    -0.069 C 
ATOM     15  C   UNL     1      20.068  39.993  95.330  1.00  0.00     0.039 C 
ATOM     16  C   UNL     1      20.979  38.633  93.337  1.00  0.00     0.039 C 
BRANCH  13  17
ATOM     17  C   UNL     1      19.896  42.387  93.625  1.00  0.00     0.066 CG0
ATOM     18  G   UNL     1      20.959  42.885  94.574  1.00  0.00     0.000 G0
ENDBRANCH  13  17
ENDBRANCH  11  13
ENDBRANCH  10  11
ENDBRANCH   1  10
TORSDOF 0
ENDMDL
MODEL 6
REMARK VINA RESULT:    -2.531      1.884      4.453
REMARK INTER + INTRA:          -3.200
REMARK INTER:                  -3.661
REMARK INTRA:                   0.460
REMARK UNBOUND:                 0.367
REMARK SMILES CC1=CCC(=C(C)C)C(=O)CC(C)=CCC1
REMARK SMILES IDX 12 1 14 2 13 3 15 4 16 5 2 6 1 7 3 8 11 10 9 11 10 12 5 13
REMARK SMILES IDX 6 14 7 15 8 16 4 17
REMARK H PARENT
REMARK Flexibility Score: 60.00
ROOT
ATOM      1  C   UNL     1      21.871  41.996  89.240  1.00  0.00    -0.070 C 
ATOM      2  C   UNL     1      21.627  41.127  88.230  1.00  0.00    -0.027 C 
ATOM      3  C   UNL     1      21.792  43.470  88.924  1.00  0.00     0.039 C 
ENDROOT
BRANCH   2   4
ATOM      4  C   UNL     1      21.548  39.624  88.344  1.00  0.00     0.032 C 
BRANCH   4   5
ATOM      5  C   UNL     1      20.307  39.155  89.127  1.00  0.00     0.034 C 
BRANCH   5   6
ATOM      6  C   UNL     1      20.659  38.154  90.211  1.00  0.00    -0.077 C 
ATOM      7  C   UNL     1      21.369  36.887  89.812  1.00  0.00     0.039 C 
ATOM      8  C   UNL     1      20.347  38.322  91.516  1.00  0.00    -0.023 CG0
ATOM      9  G   UNL     1      19.609  39.502  92.102  1.00  0.00     0.000 G0
ENDBRANCH   5   6
ENDBRANCH   4   5
ENDBRANCH   2   4
BRANCH   1  10
ATOM     10  C   UNL     1      22.149  41.570  90.672  1.00  0.00     0.111 C 
BRANCH  10  11
ATOM     11  C   UNL     1      20.902  41.628  91.520  1.00  0.00     0.163 C 
ATOM     12  O   UNL     1      20.142  42.626  91.389  1.00  0.00    -0.294 OA
BRANCH  11  13
ATOM     13  C   UNL     1      20.582  40.573  92.532  1.00  0.00    -0.002 C 
ATOM     14  C   UNL     1      21.093  40.613  93.800  1.00  0.00    -0.069 C 
ATOM     15  C   UNL     1      20.795  39.523  94.804  1.00  0.00     0.039 C 
ATOM     16  C   UNL     1      21.952  41.765  94.271  1.00  0.00     0.039 C 
BRANCH  13  17
ATOM     17  C   UNL     1      19.601  39.492  92.114  1.00  0.00     0.066 CG0
ATOM     18  G   UNL     1      20.350  38.333  91.498  1.00  0.00     0.000 G0
ENDBRANCH  13  17
ENDBRANCH  11  13
ENDBRANCH  10  11
ENDBRANCH   1  10
TORSDOF 0
ENDMDL
MODEL 7
REMARK VINA RESULT:    -2.430      1.985      3.892
REMARK INTER + INTRA:          -3.058
REMARK INTER:                  -3.482
REMARK INTRA:                   0.424
REMARK UNBOUND:                 0.367
REMARK SMILES CC1=CCC(=C(C)C)C(=O)CC(C)=CCC1
REMARK SMILES IDX 12 1 14 2 13 3 15 4 16 5 2 6 1 7 3 8 11 10 9 11 10 12 5 13
REMARK SMILES IDX 6 14 7 15 8 16 4 17
REMARK H PARENT
REMARK Flexibility Score: 60.00
ROOT
ATOM      1  C   UNL     1      21.827  42.829  91.319  1.00  0.00    -0.070 C 
ATOM      2  C   UNL     1      21.750  43.731  92.326  1.00  0.00    -0.027 C 
ATOM      3  C   UNL     1      21.806  43.360  89.906  1.00  0.00     0.039 C 
ENDROOT
BRANCH   2   4
ATOM      4  C   UNL     1      21.859  43.434  93.803  1.00  0.00     0.032 C 
BRANCH   4   5
ATOM      5  C   UNL     1      20.501  43.083  94.437  1.00  0.00     0.034 C 
BRANCH   5   6
ATOM      6  C   UNL     1      20.513  41.718  95.098  1.00  0.00    -0.077 C 
ATOM      7  C   UNL     1      21.241  41.563  96.409  1.00  0.00     0.039 C 
ATOM      8  C   UNL     1      19.929  40.621  94.565  1.00  0.00    -0.023 CG0
ATOM      9  G   UNL     1      19.188  40.567  93.250  1.00  0.00     0.000 G0
ENDBRANCH   5   6
ENDBRANCH   4   5
ENDBRANCH   2   4
BRANCH   1  10
ATOM     10  C   UNL     1      21.999  41.334  91.536  1.00  0.00     0.111 C 
BRANCH  10  11
ATOM     11  C   UNL     1      20.739  40.576  91.194  1.00  0.00     0.163 C 
ATOM     12  O   UNL     1      20.294  40.665  90.018  1.00  0.00    -0.294 OA
BRANCH  11  13
ATOM     13  C   UNL     1      19.992  39.779  92.218  1.00  0.00    -0.002 C 
ATOM     14  C   UNL     1      20.087  38.416  92.277  1.00  0.00    -0.069 C 
ATOM     15  C   UNL     1      19.299  37.615  93.289  1.00  0.00     0.039 C 
ATOM     16  C   UNL     1      21.008  37.645  91.358  1.00  0.00     0.039 C 
BRANCH  13  17
ATOM     17  C   UNL     1      19.181  40.556  93.239  1.00  0.00     0.066 CG0
ATOM     18  G   UNL     1      19.928  40.614  94.550  1.00  0.00     0.000 G0
ENDBRANCH  13  17
ENDBRANCH  11  13
ENDBRANCH  10  11
ENDBRANCH   1  10
TORSDOF 0
ENDMDL
MODEL 8
REMARK VINA RESULT:    -2.422      1.981      3.842
REMARK INTER + INTRA:          -3.047
REMARK INTER:                  -3.623
REMARK INTRA:                   0.576
REMARK UNBOUND:                 0.367
REMARK SMILES CC1=CCC(=C(C)C)C(=O)CC(C)=CCC1
REMARK SMILES IDX 12 1 14 2 13 3 15 4 16 5 2 6 1 7 3 8 11 10 9 11 10 12 5 13
REMARK SMILES IDX 6 14 7 15 8 16 4 17
REMARK H PARENT
REMARK Flexibility Score: 60.00
ROOT
ATOM      1  C   UNL     1      22.799  43.221  90.221  1.00  0.00    -0.070 C 
ATOM      2  C   UNL     1      22.495  43.811  91.402  1.00  0.00    -0.027 C 
ATOM      3  C   UNL     1      23.034  44.122  89.033  1.00  0.00     0.039 C 
ENDROOT
BRANCH   2   4
ATOM      4  C   UNL     1      22.326  43.116  92.731  1.00  0.00     0.032 C 
BRANCH   4   5
ATOM      5  C   UNL     1      20.848  42.914  93.110  1.00  0.00     0.034 C 
BRANCH   5   6
ATOM      6  C   UNL     1      20.516  41.456  93.366  1.00  0.00    -0.077 C 
ATOM      7  C   UNL     1      20.732  40.906  94.753  1.00  0.00     0.039 C 
ATOM      8  C   UNL     1      20.062  40.611  92.413  1.00  0.00    -0.023 CG0
ATOM      9  G   UNL     1      19.818  40.964  90.965  1.00  0.00     0.000 G0
ENDBRANCH   5   6
ENDBRANCH   4   5
ENDBRANCH   2   4
BRANCH   1  10
ATOM     10  C   UNL     1      22.979  41.721  90.048  1.00  0.00     0.111 C 
BRANCH  10  11
ATOM     11  C   UNL     1      21.797  41.098  89.347  1.00  0.00     0.163 C 
ATOM     12  O   UNL     1      21.632  41.353  88.123  1.00  0.00    -0.294 OA
BRANCH  11  13
ATOM     13  C   UNL     1      20.805  40.244  90.073  1.00  0.00    -0.002 C 
ATOM     14  C   UNL     1      20.839  38.879  89.996  1.00  0.00    -0.069 C 
ATOM     15  C   UNL     1      19.810  38.024  90.702  1.00  0.00     0.039 C 
ATOM     16  C   UNL     1      21.926  38.156  89.233  1.00  0.00     0.039 C 
BRANCH  13  17
ATOM     17  C   UNL     1      19.800  40.957  90.961  1.00  0.00     0.066 CG0
ATOM     18  G   UNL     1      20.068  40.620  92.408  1.00  0.00     0.000 G0
ENDBRANCH  13  17
ENDBRANCH  11  13
ENDBRANCH  10  11
ENDBRANCH   1  10
TORSDOF 0
ENDMDL
MODEL 9
REMARK VINA RESULT:    -2.379      4.969      8.051
REMARK INTER + INTRA:          -2.986
REMARK INTER:                  -3.370
REMARK INTRA:                   0.384
REMARK UNBOUND:                 0.367
REMARK SMILES CC1=CCC(=C(C)C)C(=O)CC(C)=CCC1
REMARK SMILES IDX 12 1 14 2 13 3 15 4 16 5 2 6 1 7 3 8 11 10 9 11 10 12 5 13
REMARK SMILES IDX 6 14 7 15 8 16 4 17
REMARK H PARENT
REMARK Flexibility Score: 60.00
ROOT
ATOM      1  C   UNL     1      17.073  38.251  91.617  1.00  0.00    -0.070 C 
ATOM      2  C   UNL     1      16.255  38.108  90.546  1.00  0.00    -0.027 C 
ATOM      3  C   UNL     1      18.261  39.171  91.467  1.00  0.00     0.039 C 
ENDROOT
BRANCH   2   4
ATOM      4  C   UNL     1      14.963  37.328  90.508  1.00  0.00     0.032 C 
BRANCH   4   5
ATOM      5  C   UNL     1      13.827  38.029  91.276  1.00  0.00     0.034 C 
BRANCH   5   6
ATOM      6  C   UNL     1      13.120  37.091  92.235  1.00  0.00    -0.077 C 
ATOM      7  C   UNL     1      12.430  35.876  91.671  1.00  0.00     0.039 C 
ATOM      8  C   UNL     1      13.051  37.296  93.570  1.00  0.00    -0.023 CG0
ATOM      9  G   UNL     1      13.645  38.467  94.315  1.00  0.00     0.000 G0
ENDBRANCH   5   6
ENDBRANCH   4   5
ENDBRANCH   2   4
BRANCH   1  10
ATOM     10  C   UNL     1      16.823  37.595  92.965  1.00  0.00     0.111 C 
BRANCH  10  11
ATOM     11  C   UNL     1      16.180  38.554  93.937  1.00  0.00     0.163 C 
ATOM     12  O   UNL     1      16.661  39.716  94.031  1.00  0.00    -0.294 OA
BRANCH  11  13
ATOM     13  C   UNL     1      15.038  38.146  94.814  1.00  0.00    -0.002 C 
ATOM     14  C   UNL     1      15.240  37.560  96.033  1.00  0.00    -0.069 C 
ATOM     15  C   UNL     1      14.080  37.116  96.896  1.00  0.00     0.039 C 
ATOM     16  C   UNL     1      16.630  37.358  96.593  1.00  0.00     0.039 C 
BRANCH  13  17
ATOM     17  C   UNL     1      13.640  38.480  94.325  1.00  0.00     0.066 CG0
ATOM     18  G   UNL     1      13.062  37.299  93.582  1.00  0.00     0.000 G0
ENDBRANCH  13  17
ENDBRANCH  11  13
ENDBRANCH  10  11
ENDBRANCH   1  10
TORSDOF 0
ENDMDL
