MODEL 1
REMARK VINA RESULT:    -4.209      0.000      0.000
REMARK INTER + INTRA:          -7.291
REMARK INTER:                  -6.178
REMARK INTRA:                  -1.113
REMARK UNBOUND:                -1.113
REMARK SMILES CCCOC(=O)c1ccccc1C(=O)OCCC
REMARK SMILES IDX 7 1 8 2 9 3 10 4 11 5 12 6 5 7 6 8 4 9 3 10 2 11 1 12 13 13
REMARK SMILES IDX 14 14 15 15 16 16 17 17 18 18
REMARK H PARENT
REMARK Flexibility Score: inf
ROOT
ATOM      1  C   UNL     1       8.016 -30.085  16.919  1.00  0.00     0.074 A 
ATOM      2  C   UNL     1       8.077 -29.645  18.254  1.00  0.00     0.016 A 
ATOM      3  C   UNL     1       9.049 -28.729  18.661  1.00  0.00     0.001 A 
ATOM      4  C   UNL     1       9.974 -28.240  17.742  1.00  0.00     0.001 A 
ATOM      5  C   UNL     1       9.919 -28.647  16.409  1.00  0.00     0.016 A 
ATOM      6  C   UNL     1       8.934 -29.551  15.973  1.00  0.00     0.074 A 
ENDROOT
BRANCH   1   7
ATOM      7  C   UNL     1       7.044 -31.148  16.576  1.00  0.00     0.339 C 
ATOM      8  O   UNL     1       5.875 -30.835  16.218  1.00  0.00    -0.246 OA
BRANCH   7   9
ATOM      9  O   UNL     1       7.409 -32.495  16.693  1.00  0.00    -0.462 OA
BRANCH   9  10
ATOM     10  C   UNL     1       7.066 -33.491  15.732  1.00  0.00     0.233 C 
BRANCH  10  11
ATOM     11  C   UNL     1       8.079 -33.497  14.585  1.00  0.00     0.038 C 
ATOM     12  C   UNL     1       7.444 -33.005  13.286  1.00  0.00     0.007 C 
ENDBRANCH  10  11
ENDBRANCH   9  10
ENDBRANCH   7   9
ENDBRANCH   1   7
BRANCH   6  13
ATOM     13  C   UNL     1       8.862 -29.853  14.525  1.00  0.00     0.339 C 
ATOM     14  O   UNL     1       7.869 -29.478  13.844  1.00  0.00    -0.246 OA
BRANCH  13  15
ATOM     15  O   UNL     1       9.931 -30.509  13.906  1.00  0.00    -0.462 OA
BRANCH  15  16
ATOM     16  C   UNL     1      10.348 -30.216  12.576  1.00  0.00     0.233 C 
BRANCH  16  17
ATOM     17  C   UNL     1      11.004 -31.446  11.949  1.00  0.00     0.038 C 
ATOM     18  C   UNL     1      11.400 -32.476  13.004  1.00  0.00     0.007 C 
ENDBRANCH  16  17
ENDBRANCH  15  16
ENDBRANCH  13  15
ENDBRANCH   6  13
TORSDOF 8
ENDMDL
MODEL 2
REMARK VINA RESULT:    -4.187      1.534      3.876
REMARK INTER + INTRA:          -7.259
REMARK INTER:                  -6.131
REMARK INTRA:                  -1.127
REMARK UNBOUND:                -1.113
REMARK SMILES CCCOC(=O)c1ccccc1C(=O)OCCC
REMARK SMILES IDX 7 1 8 2 9 3 10 4 11 5 12 6 5 7 6 8 4 9 3 10 2 11 1 12 13 13
REMARK SMILES IDX 14 14 15 15 16 16 17 17 18 18
REMARK H PARENT
REMARK Flexibility Score: inf
ROOT
ATOM      1  C   UNL     1       8.273 -30.044  15.982  1.00  0.00     0.074 A 
ATOM      2  C   UNL     1       8.630 -29.706  17.301  1.00  0.00     0.016 A 
ATOM      3  C   UNL     1       7.650 -29.435  18.258  1.00  0.00     0.001 A 
ATOM      4  C   UNL     1       6.303 -29.497  17.914  1.00  0.00     0.001 A 
ATOM      5  C   UNL     1       5.926 -29.851  16.618  1.00  0.00     0.016 A 
ATOM      6  C   UNL     1       6.896 -30.150  15.645  1.00  0.00     0.074 A 
ENDROOT
BRANCH   1   7
ATOM      7  C   UNL     1       9.354 -30.199  14.983  1.00  0.00     0.339 C 
ATOM      8  O   UNL     1       9.969 -29.181  14.563  1.00  0.00    -0.246 OA
BRANCH   7   9
ATOM      9  O   UNL     1       9.660 -31.468  14.473  1.00  0.00    -0.462 OA
BRANCH   9  10
ATOM     10  C   UNL     1       9.977 -31.712  13.105  1.00  0.00     0.233 C 
BRANCH  10  11
ATOM     11  C   UNL     1      11.401 -32.257  12.975  1.00  0.00     0.038 C 
ATOM     12  C   UNL     1      11.539 -33.611  13.667  1.00  0.00     0.007 C 
ENDBRANCH  10  11
ENDBRANCH   9  10
ENDBRANCH   7   9
ENDBRANCH   1   7
BRANCH   6  13
ATOM     13  C   UNL     1       6.427 -30.627  14.323  1.00  0.00     0.339 C 
ATOM     14  O   UNL     1       6.569 -29.906  13.298  1.00  0.00    -0.246 OA
BRANCH  13  15
ATOM     15  O   UNL     1       5.876 -31.907  14.210  1.00  0.00    -0.462 OA
BRANCH  15  16
ATOM     16  C   UNL     1       6.593 -33.088  14.556  1.00  0.00     0.233 C 
BRANCH  16  17
ATOM     17  C   UNL     1       6.016 -33.696  15.834  1.00  0.00     0.038 C 
ATOM     18  C   UNL     1       6.966 -33.534  17.018  1.00  0.00     0.007 C 
ENDBRANCH  16  17
ENDBRANCH  15  16
ENDBRANCH  13  15
ENDBRANCH   6  13
TORSDOF 8
ENDMDL
MODEL 3
REMARK VINA RESULT:    -4.182      1.481      2.200
REMARK INTER + INTRA:          -7.251
REMARK INTER:                  -6.119
REMARK INTRA:                  -1.132
REMARK UNBOUND:                -1.113
REMARK SMILES CCCOC(=O)c1ccccc1C(=O)OCCC
REMARK SMILES IDX 7 1 8 2 9 3 10 4 11 5 12 6 5 7 6 8 4 9 3 10 2 11 1 12 13 13
REMARK SMILES IDX 14 14 15 15 16 16 17 17 18 18
REMARK H PARENT
REMARK Flexibility Score: inf
ROOT
ATOM      1  C   UNL     1       7.008 -30.118  15.577  1.00  0.00     0.074 A 
ATOM      2  C   UNL     1       6.039 -29.862  16.565  1.00  0.00     0.016 A 
ATOM      3  C   UNL     1       6.417 -29.517  17.863  1.00  0.00     0.001 A 
ATOM      4  C   UNL     1       7.766 -29.424  18.196  1.00  0.00     0.001 A 
ATOM      5  C   UNL     1       8.743 -29.653  17.227  1.00  0.00     0.016 A 
ATOM      6  C   UNL     1       8.384 -29.979  15.907  1.00  0.00     0.074 A 
ENDROOT
BRANCH   1   7
ATOM      7  C   UNL     1       6.549 -30.597  14.254  1.00  0.00     0.339 C 
ATOM      8  O   UNL     1       6.568 -29.816  13.264  1.00  0.00    -0.246 OA
BRANCH   7   9
ATOM      9  O   UNL     1       6.052 -31.899  14.115  1.00  0.00    -0.462 OA
BRANCH   9  10
ATOM     10  C   UNL     1       6.761 -33.063  14.536  1.00  0.00     0.233 C 
BRANCH  10  11
ATOM     11  C   UNL     1       6.137 -33.636  15.811  1.00  0.00     0.038 C 
ATOM     12  C   UNL     1       7.053 -33.428  17.014  1.00  0.00     0.007 C 
ENDBRANCH  10  11
ENDBRANCH   9  10
ENDBRANCH   7   9
ENDBRANCH   1   7
BRANCH   6  13
ATOM     13  C   UNL     1       9.466 -30.098  14.904  1.00  0.00     0.339 C 
ATOM     14  O   UNL     1      10.141 -29.085  14.570  1.00  0.00    -0.246 OA
BRANCH  13  15
ATOM     15  O   UNL     1       9.774 -31.353  14.369  1.00  0.00    -0.462 OA
BRANCH  15  16
ATOM     16  C   UNL     1      10.132 -31.542  13.004  1.00  0.00     0.233 C 
BRANCH  16  17
ATOM     17  C   UNL     1      11.491 -32.235  12.909  1.00  0.00     0.038 C 
ATOM     18  C   UNL     1      11.534 -33.513  13.743  1.00  0.00     0.007 C 
ENDBRANCH  16  17
ENDBRANCH  15  16
ENDBRANCH  13  15
ENDBRANCH   6  13
TORSDOF 8
ENDMDL
MODEL 4
REMARK VINA RESULT:    -4.130      0.445      3.614
REMARK INTER + INTRA:          -7.175
REMARK INTER:                  -6.095
REMARK INTRA:                  -1.080
REMARK UNBOUND:                -1.113
REMARK SMILES CCCOC(=O)c1ccccc1C(=O)OCCC
REMARK SMILES IDX 7 1 8 2 9 3 10 4 11 5 12 6 5 7 6 8 4 9 3 10 2 11 1 12 13 13
REMARK SMILES IDX 14 14 15 15 16 16 17 17 18 18
REMARK H PARENT
REMARK Flexibility Score: inf
ROOT
ATOM      1  C   UNL     1       8.980 -29.617  16.058  1.00  0.00     0.074 A 
ATOM      2  C   UNL     1       9.959 -28.692  16.468  1.00  0.00     0.016 A 
ATOM      3  C   UNL     1       9.950 -28.169  17.761  1.00  0.00     0.001 A 
ATOM      4  C   UNL     1       8.964 -28.558  18.664  1.00  0.00     0.001 A 
ATOM      5  C   UNL     1       7.996 -29.489  18.287  1.00  0.00     0.016 A 
ATOM      6  C   UNL     1       8.001 -30.047  16.996  1.00  0.00     0.074 A 
ENDROOT
BRANCH   1   7
ATOM      7  C   UNL     1       8.969 -30.043  14.641  1.00  0.00     0.339 C 
ATOM      8  O   UNL     1       8.101 -29.575  13.854  1.00  0.00    -0.246 OA
BRANCH   7   9
ATOM      9  O   UNL     1       9.890 -30.997  14.189  1.00  0.00    -0.462 OA
BRANCH   9  10
ATOM     10  C   UNL     1      10.245 -31.162  12.818  1.00  0.00     0.233 C 
BRANCH  10  11
ATOM     11  C   UNL     1      11.541 -31.967  12.695  1.00  0.00     0.038 C 
ATOM     12  C   UNL     1      11.467 -33.258  13.506  1.00  0.00     0.007 C 
ENDBRANCH  10  11
ENDBRANCH   9  10
ENDBRANCH   7   9
ENDBRANCH   1   7
BRANCH   6  13
ATOM     13  C   UNL     1       7.016 -31.111  16.697  1.00  0.00     0.339 C 
ATOM     14  O   UNL     1       5.875 -30.816  16.246  1.00  0.00    -0.246 OA
BRANCH  13  15
ATOM     15  O   UNL     1       7.378 -32.451  16.867  1.00  0.00    -0.462 OA
BRANCH  15  16
ATOM     16  C   UNL     1       6.883 -33.494  16.034  1.00  0.00     0.233 C 
BRANCH  16  17
ATOM     17  C   UNL     1       7.759 -33.631  14.789  1.00  0.00     0.038 C 
ATOM     18  C   UNL     1       7.057 -33.097  13.542  1.00  0.00     0.007 C 
ENDBRANCH  16  17
ENDBRANCH  15  16
ENDBRANCH  13  15
ENDBRANCH   6  13
TORSDOF 8
ENDMDL
MODEL 5
REMARK VINA RESULT:    -4.119      1.584      3.850
REMARK INTER + INTRA:          -7.159
REMARK INTER:                  -5.872
REMARK INTRA:                  -1.286
REMARK UNBOUND:                -1.113
REMARK SMILES CCCOC(=O)c1ccccc1C(=O)OCCC
REMARK SMILES IDX 7 1 8 2 9 3 10 4 11 5 12 6 5 7 6 8 4 9 3 10 2 11 1 12 13 13
REMARK SMILES IDX 14 14 15 15 16 16 17 17 18 18
REMARK H PARENT
REMARK Flexibility Score: inf
ROOT
ATOM      1  C   UNL     1       9.004 -29.776  14.172  1.00  0.00     0.074 A 
ATOM      2  C   UNL     1      10.164 -29.409  13.465  1.00  0.00     0.016 A 
ATOM      3  C   UNL     1      11.204 -28.730  14.102  1.00  0.00     0.001 A 
ATOM      4  C   UNL     1      11.101 -28.406  15.452  1.00  0.00     0.001 A 
ATOM      5  C   UNL     1       9.969 -28.778  16.178  1.00  0.00     0.016 A 
ATOM      6  C   UNL     1       8.920 -29.482  15.561  1.00  0.00     0.074 A 
ENDROOT
BRANCH   1   7
ATOM      7  C   UNL     1       7.886 -30.383  13.416  1.00  0.00     0.339 C 
ATOM      8  O   UNL     1       7.052 -29.642  12.828  1.00  0.00    -0.246 OA
BRANCH   7   9
ATOM      9  O   UNL     1       7.731 -31.775  13.394  1.00  0.00    -0.462 OA
BRANCH   9  10
ATOM     10  C   UNL     1       8.490 -32.640  12.551  1.00  0.00     0.233 C 
BRANCH  10  11
ATOM     11  C   UNL     1       9.253 -33.668  13.390  1.00  0.00     0.038 C 
ATOM     12  C   UNL     1      10.605 -33.119  13.839  1.00  0.00     0.007 C 
ENDBRANCH  10  11
ENDBRANCH   9  10
ENDBRANCH   7   9
ENDBRANCH   1   7
BRANCH   6  13
ATOM     13  C   UNL     1       7.801 -29.944  16.413  1.00  0.00     0.339 C 
ATOM     14  O   UNL     1       6.661 -29.414  16.311  1.00  0.00    -0.246 OA
BRANCH  13  15
ATOM     15  O   UNL     1       8.002 -31.011  17.295  1.00  0.00    -0.462 OA
BRANCH  15  16
ATOM     16  C   UNL     1       8.345 -32.320  16.854  1.00  0.00     0.233 C 
BRANCH  16  17
ATOM     17  C   UNL     1       7.201 -33.290  17.150  1.00  0.00     0.038 C 
ATOM     18  C   UNL     1       6.248 -33.420  15.964  1.00  0.00     0.007 C 
ENDBRANCH  16  17
ENDBRANCH  15  16
ENDBRANCH  13  15
ENDBRANCH   6  13
TORSDOF 8
ENDMDL
MODEL 6
REMARK VINA RESULT:    -4.037      1.547      2.437
REMARK INTER + INTRA:          -7.038
REMARK INTER:                  -5.822
REMARK INTRA:                  -1.216
REMARK UNBOUND:                -1.113
REMARK SMILES CCCOC(=O)c1ccccc1C(=O)OCCC
REMARK SMILES IDX 7 1 8 2 9 3 10 4 11 5 12 6 5 7 6 8 4 9 3 10 2 11 1 12 13 13
REMARK SMILES IDX 14 14 15 15 16 16 17 17 18 18
REMARK H PARENT
REMARK Flexibility Score: inf
ROOT
ATOM      1  C   UNL     1       8.980 -29.462  15.581  1.00  0.00     0.074 A 
ATOM      2  C   UNL     1      10.018 -28.749  16.210  1.00  0.00     0.016 A 
ATOM      3  C   UNL     1      11.154 -28.363  15.497  1.00  0.00     0.001 A 
ATOM      4  C   UNL     1      11.273 -28.685  14.148  1.00  0.00     0.001 A 
ATOM      5  C   UNL     1      10.248 -29.373  13.498  1.00  0.00     0.016 A 
ATOM      6  C   UNL     1       9.084 -29.750  14.192  1.00  0.00     0.074 A 
ENDROOT
BRANCH   1   7
ATOM      7  C   UNL     1       7.859 -29.950  16.416  1.00  0.00     0.339 C 
ATOM      8  O   UNL     1       6.729 -29.395  16.331  1.00  0.00    -0.246 OA
BRANCH   7   9
ATOM      9  O   UNL     1       8.067 -30.992  17.328  1.00  0.00    -0.462 OA
BRANCH   9  10
ATOM     10  C   UNL     1       8.089 -32.369  16.960  1.00  0.00     0.233 C 
BRANCH  10  11
ATOM     11  C   UNL     1       6.667 -32.881  16.719  1.00  0.00     0.038 C 
ATOM     12  C   UNL     1       6.663 -34.063  15.754  1.00  0.00     0.007 C 
ENDBRANCH  10  11
ENDBRANCH   9  10
ENDBRANCH   7   9
ENDBRANCH   1   7
BRANCH   6  13
ATOM     13  C   UNL     1       7.989 -30.377  13.418  1.00  0.00     0.339 C 
ATOM     14  O   UNL     1       7.181 -29.663  12.763  1.00  0.00    -0.246 OA
BRANCH  13  15
ATOM     15  O   UNL     1       7.889 -31.772  13.373  1.00  0.00    -0.462 OA
BRANCH  15  16
ATOM     16  C   UNL     1       8.854 -32.592  12.724  1.00  0.00     0.233 C 
BRANCH  16  17
ATOM     17  C   UNL     1       9.739 -33.283  13.762  1.00  0.00     0.038 C 
ATOM     18  C   UNL     1      11.222 -33.045  13.490  1.00  0.00     0.007 C 
ENDBRANCH  16  17
ENDBRANCH  15  16
ENDBRANCH  13  15
ENDBRANCH   6  13
TORSDOF 8
ENDMDL
MODEL 7
REMARK VINA RESULT:    -3.988      2.051      5.197
REMARK INTER + INTRA:          -6.967
REMARK INTER:                  -6.083
REMARK INTRA:                  -0.884
REMARK UNBOUND:                -1.113
REMARK SMILES CCCOC(=O)c1ccccc1C(=O)OCCC
REMARK SMILES IDX 7 1 8 2 9 3 10 4 11 5 12 6 5 7 6 8 4 9 3 10 2 11 1 12 13 13
REMARK SMILES IDX 14 14 15 15 16 16 17 17 18 18
REMARK H PARENT
REMARK Flexibility Score: inf
ROOT
ATOM      1  C   UNL     1       9.066 -29.841  13.305  1.00  0.00     0.074 A 
ATOM      2  C   UNL     1       8.469 -29.470  12.085  1.00  0.00     0.016 A 
ATOM      3  C   UNL     1       7.098 -29.638  11.881  1.00  0.00     0.001 A 
ATOM      4  C   UNL     1       6.304 -30.179  12.889  1.00  0.00     0.001 A 
ATOM      5  C   UNL     1       6.872 -30.534  14.113  1.00  0.00     0.016 A 
ATOM      6  C   UNL     1       8.246 -30.351  14.348  1.00  0.00     0.074 A 
ENDROOT
BRANCH   1   7
ATOM      7  C   UNL     1      10.540 -29.754  13.417  1.00  0.00     0.339 C 
ATOM      8  O   UNL     1      11.074 -28.684  13.820  1.00  0.00    -0.246 OA
BRANCH   7   9
ATOM      9  O   UNL     1      11.336 -30.839  13.034  1.00  0.00    -0.462 OA
BRANCH   9  10
ATOM     10  C   UNL     1      10.810 -32.112  12.664  1.00  0.00     0.233 C 
BRANCH  10  11
ATOM     11  C   UNL     1      11.243 -33.182  13.670  1.00  0.00     0.038 C 
ATOM     12  C   UNL     1      11.744 -34.436  12.960  1.00  0.00     0.007 C 
ENDBRANCH  10  11
ENDBRANCH   9  10
ENDBRANCH   7   9
ENDBRANCH   1   7
BRANCH   6  13
ATOM     13  C   UNL     1       8.762 -30.643  15.705  1.00  0.00     0.339 C 
ATOM     14  O   UNL     1       9.156 -31.804  16.001  1.00  0.00    -0.246 OA
BRANCH  13  15
ATOM     15  O   UNL     1       8.861 -29.608  16.640  1.00  0.00    -0.462 OA
BRANCH  15  16
ATOM     16  C   UNL     1       8.457 -29.755  17.997  1.00  0.00     0.233 C 
BRANCH  16  17
ATOM     17  C   UNL     1       7.027 -30.288  18.065  1.00  0.00     0.038 C 
ATOM     18  C   UNL     1       6.019 -29.278  17.523  1.00  0.00     0.007 C 
ENDBRANCH  16  17
ENDBRANCH  15  16
ENDBRANCH  13  15
ENDBRANCH   6  13
TORSDOF 8
ENDMDL
MODEL 8
REMARK VINA RESULT:    -3.970      1.274      5.078
REMARK INTER + INTRA:          -6.940
REMARK INTER:                  -5.884
REMARK INTRA:                  -1.056
REMARK UNBOUND:                -1.113
REMARK SMILES CCCOC(=O)c1ccccc1C(=O)OCCC
REMARK SMILES IDX 7 1 8 2 9 3 10 4 11 5 12 6 5 7 6 8 4 9 3 10 2 11 1 12 13 13
REMARK SMILES IDX 14 14 15 15 16 16 17 17 18 18
REMARK H PARENT
REMARK Flexibility Score: inf
ROOT
ATOM      1  C   UNL     1       7.459 -31.286  13.757  1.00  0.00     0.074 A 
ATOM      2  C   UNL     1       7.539 -32.434  12.946  1.00  0.00     0.016 A 
ATOM      3  C   UNL     1       7.510 -33.710  13.511  1.00  0.00     0.001 A 
ATOM      4  C   UNL     1       7.404 -33.860  14.891  1.00  0.00     0.001 A 
ATOM      5  C   UNL     1       7.303 -32.737  15.712  1.00  0.00     0.016 A 
ATOM      6  C   UNL     1       7.306 -31.442  15.162  1.00  0.00     0.074 A 
ENDROOT
BRANCH   1   7
ATOM      7  C   UNL     1       7.618 -29.963  13.113  1.00  0.00     0.339 C 
ATOM      8  O   UNL     1       6.678 -29.489  12.417  1.00  0.00    -0.246 OA
BRANCH   7   9
ATOM      9  O   UNL     1       8.824 -29.262  13.240  1.00  0.00    -0.462 OA
BRANCH   9  10
ATOM     10  C   UNL     1       9.987 -29.549  12.467  1.00  0.00     0.233 C 
BRANCH  10  11
ATOM     11  C   UNL     1      11.031 -30.274  13.320  1.00  0.00     0.038 C 
ATOM     12  C   UNL     1      11.170 -31.734  12.897  1.00  0.00     0.007 C 
ENDBRANCH  10  11
ENDBRANCH   9  10
ENDBRANCH   7   9
ENDBRANCH   1   7
BRANCH   6  13
ATOM     13  C   UNL     1       7.083 -30.300  16.077  1.00  0.00     0.339 C 
ATOM     14  O   UNL     1       5.921 -29.841  16.252  1.00  0.00    -0.246 OA
BRANCH  13  15
ATOM     15  O   UNL     1       8.162 -29.769  16.791  1.00  0.00    -0.462 OA
BRANCH  15  16
ATOM     16  C   UNL     1       8.123 -29.553  18.198  1.00  0.00     0.233 C 
BRANCH  16  17
ATOM     17  C   UNL     1       9.348 -28.752  18.640  1.00  0.00     0.038 C 
ATOM     18  C   UNL     1      10.109 -28.179  17.448  1.00  0.00     0.007 C 
ENDBRANCH  16  17
ENDBRANCH  15  16
ENDBRANCH  13  15
ENDBRANCH   6  13
TORSDOF 8
ENDMDL
MODEL 9
REMARK VINA RESULT:    -3.909      1.493      5.326
REMARK INTER + INTRA:          -6.850
REMARK INTER:                  -5.725
REMARK INTRA:                  -1.125
REMARK UNBOUND:                -1.113
REMARK SMILES CCCOC(=O)c1ccccc1C(=O)OCCC
REMARK SMILES IDX 7 1 8 2 9 3 10 4 11 5 12 6 5 7 6 8 4 9 3 10 2 11 1 12 13 13
REMARK SMILES IDX 14 14 15 15 16 16 17 17 18 18
REMARK H PARENT
REMARK Flexibility Score: inf
ROOT
ATOM      1  C   UNL     1       9.673 -31.067  13.519  1.00  0.00     0.074 A 
ATOM      2  C   UNL     1      10.746 -31.972  13.425  1.00  0.00     0.016 A 
ATOM      3  C   UNL     1      10.519 -33.349  13.405  1.00  0.00     0.001 A 
ATOM      4  C   UNL     1       9.220 -33.843  13.481  1.00  0.00     0.001 A 
ATOM      5  C   UNL     1       8.139 -32.963  13.554  1.00  0.00     0.016 A 
ATOM      6  C   UNL     1       8.344 -31.572  13.552  1.00  0.00     0.074 A 
ENDROOT
BRANCH   1   7
ATOM      7  C   UNL     1       9.983 -29.626  13.659  1.00  0.00     0.339 C 
ATOM      8  O   UNL     1       9.971 -28.881  12.641  1.00  0.00    -0.246 OA
BRANCH   7   9
ATOM      9  O   UNL     1      10.333 -29.104  14.911  1.00  0.00    -0.462 OA
BRANCH   9  10
ATOM     10  C   UNL     1       9.448 -29.074  16.028  1.00  0.00     0.233 C 
BRANCH  10  11
ATOM     11  C   UNL     1      10.093 -28.330  17.201  1.00  0.00     0.038 C 
ATOM     12  C   UNL     1       9.390 -28.659  18.515  1.00  0.00     0.007 C 
ENDBRANCH  10  11
ENDBRANCH   9  10
ENDBRANCH   7   9
ENDBRANCH   1   7
BRANCH   6  13
ATOM     13  C   UNL     1       7.151 -30.696  13.518  1.00  0.00     0.339 C 
ATOM     14  O   UNL     1       6.569 -30.453  12.425  1.00  0.00    -0.246 OA
BRANCH  13  15
ATOM     15  O   UNL     1       6.639 -30.184  14.714  1.00  0.00    -0.462 OA
BRANCH  15  16
ATOM     16  C   UNL     1       5.875 -30.969  15.624  1.00  0.00     0.233 C 
BRANCH  16  17
ATOM     17  C   UNL     1       6.523 -30.949  17.008  1.00  0.00     0.038 C 
ATOM     18  C   UNL     1       7.552 -32.066  17.167  1.00  0.00     0.007 C 
ENDBRANCH  16  17
ENDBRANCH  15  16
ENDBRANCH  13  15
ENDBRANCH   6  13
TORSDOF 8
ENDMDL
