MODEL 1
REMARK VINA RESULT:    -5.940      0.000      0.000
REMARK INTER + INTRA:          -6.678
REMARK INTER:                  -6.461
REMARK INTRA:                  -0.217
REMARK UNBOUND:                -0.217
REMARK SMILES CC1=C2C[C@H](C(C)(C)O)CC[C@@]2(C)CCC1
REMARK SMILES IDX 6 1 7 2 8 3 5 4 1 5 2 6 3 7 16 8 4 9 12 10 15 11 11 12 14 13
REMARK SMILES IDX 13 14 10 15 9 16
REMARK H PARENT 9 17
REMARK Flexibility Score: inf
ROOT
ATOM      1  C   UNL     1     121.068 118.365 114.661  1.00  0.00     0.062 C 
ATOM      2  C   UNL     1     121.590 117.080 115.336  1.00  0.00     0.042 C 
ATOM      3  C   UNL     1     120.156 119.107 115.666  1.00  0.00     0.042 C 
ENDROOT
BRANCH   1   4
ATOM      4  C   UNL     1     122.233 119.299 114.161  1.00  0.00     0.024 C 
ATOM      5  C   UNL     1     125.437 120.075 116.405  1.00  0.00     0.039 C 
ATOM      6  C   UNL     1     125.441 120.451 114.940  1.00  0.00    -0.074 C 
ATOM      7  C   UNL     1     124.685 119.779 114.015  1.00  0.00    -0.065 C 
ATOM      8  C   UNL     1     126.353 121.586 114.532  1.00  0.00     0.031 C 
ATOM      9  C   UNL     1     123.649 118.742 114.435  1.00  0.00     0.038 C 
ATOM     10  C   UNL     1     124.634 120.195 112.529  1.00  0.00    -0.011 C 
ATOM     11  C   UNL     1     125.806 122.333 113.325  1.00  0.00     0.005 C 
ATOM     12  C   UNL     1     123.184 120.664 112.213  1.00  0.00     0.011 C 
ATOM     13  C   UNL     1     125.627 121.346 112.179  1.00  0.00     0.011 C 
ATOM     14  C   UNL     1     125.009 118.991 111.629  1.00  0.00     0.016 C 
ATOM     15  C   UNL     1     122.096 119.668 112.662  1.00  0.00     0.008 C 
ENDBRANCH   1   4
BRANCH   1  16
ATOM     16  O   UNL     1     120.278 117.967 113.563  1.00  0.00    -0.390 OA
ATOM     17  H   UNL     1     119.571 118.652 113.430  1.00  0.00     0.211 HD
ENDBRANCH   1  16
TORSDOF 2
ENDMDL
MODEL 2
REMARK VINA RESULT:    -5.729      2.265      3.340
REMARK INTER + INTRA:          -6.448
REMARK INTER:                  -6.191
REMARK INTRA:                  -0.257
REMARK UNBOUND:                -0.217
REMARK SMILES CC1=C2C[C@H](C(C)(C)O)CC[C@@]2(C)CCC1
REMARK SMILES IDX 6 1 7 2 8 3 5 4 1 5 2 6 3 7 16 8 4 9 12 10 15 11 11 12 14 13
REMARK SMILES IDX 13 14 10 15 9 16
REMARK H PARENT 9 17
REMARK Flexibility Score: inf
ROOT
ATOM      1  C   UNL     1     122.618 119.881 117.862  1.00  0.00     0.062 C 
ATOM      2  C   UNL     1     121.895 118.631 118.404  1.00  0.00     0.042 C 
ATOM      3  C   UNL     1     124.077 119.860 118.373  1.00  0.00     0.042 C 
ENDROOT
BRANCH   1   4
ATOM      4  C   UNL     1     122.572 119.970 116.291  1.00  0.00     0.024 C 
ATOM      5  C   UNL     1     125.329 121.956 114.202  1.00  0.00     0.039 C 
ATOM      6  C   UNL     1     124.365 121.036 113.485  1.00  0.00    -0.074 C 
ATOM      7  C   UNL     1     123.792 119.957 114.106  1.00  0.00    -0.065 C 
ATOM      8  C   UNL     1     124.090 121.342 112.030  1.00  0.00     0.031 C 
ATOM      9  C   UNL     1     123.938 119.731 115.606  1.00  0.00     0.038 C 
ATOM     10  C   UNL     1     122.760 119.050 113.401  1.00  0.00    -0.011 C 
ATOM     11  C   UNL     1     122.694 120.896 111.622  1.00  0.00     0.005 C 
ATOM     12  C   UNL     1     121.401 119.205 114.144  1.00  0.00     0.011 C 
ATOM     13  C   UNL     1     122.557 119.404 111.896  1.00  0.00     0.011 C 
ATOM     14  C   UNL     1     123.228 117.574 113.455  1.00  0.00     0.016 C 
ATOM     15  C   UNL     1     121.505 119.031 115.673  1.00  0.00     0.008 C 
ENDBRANCH   1   4
BRANCH   1  16
ATOM     16  O   UNL     1     121.976 121.007 118.417  1.00  0.00    -0.390 OA
ATOM     17  H   UNL     1     122.609 121.771 118.381  1.00  0.00     0.211 HD
ENDBRANCH   1  16
TORSDOF 2
ENDMDL
MODEL 3
REMARK VINA RESULT:    -5.717     12.649     15.623
REMARK INTER + INTRA:          -6.435
REMARK INTER:                  -6.189
REMARK INTRA:                  -0.247
REMARK UNBOUND:                -0.217
REMARK SMILES CC1=C2C[C@H](C(C)(C)O)CC[C@@]2(C)CCC1
REMARK SMILES IDX 6 1 7 2 8 3 5 4 1 5 2 6 3 7 16 8 4 9 12 10 15 11 11 12 14 13
REMARK SMILES IDX 13 14 10 15 9 16
REMARK H PARENT 9 17
REMARK Flexibility Score: inf
ROOT
ATOM      1  C   UNL     1     118.948 120.773 126.130  1.00  0.00     0.062 C 
ATOM      2  C   UNL     1     119.879 119.664 125.599  1.00  0.00     0.042 C 
ATOM      3  C   UNL     1     118.705 121.792 124.993  1.00  0.00     0.042 C 
ENDROOT
BRANCH   1   4
ATOM      4  C   UNL     1     117.586 120.205 126.679  1.00  0.00     0.024 C 
ATOM      5  C   UNL     1     114.296 120.054 124.429  1.00  0.00     0.039 C 
ATOM      6  C   UNL     1     114.337 119.311 125.746  1.00  0.00    -0.074 C 
ATOM      7  C   UNL     1     115.511 118.860 126.290  1.00  0.00    -0.065 C 
ATOM      8  C   UNL     1     113.009 119.052 126.421  1.00  0.00     0.031 C 
ATOM      9  C   UNL     1     116.863 119.249 125.701  1.00  0.00     0.038 C 
ATOM     10  C   UNL     1     115.570 118.156 127.663  1.00  0.00    -0.011 C 
ATOM     11  C   UNL     1     113.158 118.985 127.933  1.00  0.00     0.005 C 
ATOM     12  C   UNL     1     116.383 119.064 128.631  1.00  0.00     0.011 C 
ATOM     13  C   UNL     1     114.161 117.893 128.279  1.00  0.00     0.011 C 
ATOM     14  C   UNL     1     116.262 116.778 127.523  1.00  0.00     0.016 C 
ATOM     15  C   UNL     1     117.740 119.523 128.061  1.00  0.00     0.008 C 
ENDBRANCH   1   4
BRANCH   1  16
ATOM     16  O   UNL     1     119.636 121.432 127.169  1.00  0.00    -0.390 OA
ATOM     17  H   UNL     1     119.625 120.841 127.968  1.00  0.00     0.211 HD
ENDBRANCH   1  16
TORSDOF 2
ENDMDL
MODEL 4
REMARK VINA RESULT:    -5.677     12.289     14.457
REMARK INTER + INTRA:          -6.392
REMARK INTER:                  -6.134
REMARK INTRA:                  -0.257
REMARK UNBOUND:                -0.217
REMARK SMILES CC1=C2C[C@H](C(C)(C)O)CC[C@@]2(C)CCC1
REMARK SMILES IDX 6 1 7 2 8 3 5 4 1 5 2 6 3 7 16 8 4 9 12 10 15 11 11 12 14 13
REMARK SMILES IDX 13 14 10 15 9 16
REMARK H PARENT 9 17
REMARK Flexibility Score: inf
ROOT
ATOM      1  C   UNL     1     114.495 124.576 122.023  1.00  0.00     0.062 C 
ATOM      2  C   UNL     1     115.682 125.141 122.828  1.00  0.00     0.042 C 
ATOM      3  C   UNL     1     114.965 124.330 120.570  1.00  0.00     0.042 C 
ENDROOT
BRANCH   1   4
ATOM      4  C   UNL     1     113.910 123.258 122.656  1.00  0.00     0.024 C 
ATOM      5  C   UNL     1     112.038 120.504 120.461  1.00  0.00     0.039 C 
ATOM      6  C   UNL     1     112.447 120.179 121.881  1.00  0.00    -0.074 C 
ATOM      7  C   UNL     1     113.509 120.793 122.490  1.00  0.00    -0.065 C 
ATOM      8  C   UNL     1     111.647 119.109 122.590  1.00  0.00     0.031 C 
ATOM      9  C   UNL     1     114.221 121.978 121.846  1.00  0.00     0.038 C 
ATOM     10  C   UNL     1     113.895 120.513 123.959  1.00  0.00    -0.011 C 
ATOM     11  C   UNL     1     111.619 119.339 124.093  1.00  0.00     0.005 C 
ATOM     12  C   UNL     1     113.682 121.826 124.768  1.00  0.00     0.011 C 
ATOM     13  C   UNL     1     113.051 119.374 124.610  1.00  0.00     0.011 C 
ATOM     14  C   UNL     1     115.379 120.075 124.043  1.00  0.00     0.016 C 
ATOM     15  C   UNL     1     114.345 123.064 124.131  1.00  0.00     0.008 C 
ENDBRANCH   1   4
BRANCH   1  16
ATOM     16  O   UNL     1     113.497 125.570 121.998  1.00  0.00    -0.390 OA
ATOM     17  H   UNL     1     113.795 126.290 121.382  1.00  0.00     0.211 HD
ENDBRANCH   1  16
TORSDOF 2
ENDMDL
MODEL 5
REMARK VINA RESULT:    -5.662     11.473     14.009
REMARK INTER + INTRA:          -6.375
REMARK INTER:                  -6.130
REMARK INTRA:                  -0.245
REMARK UNBOUND:                -0.217
REMARK SMILES CC1=C2C[C@H](C(C)(C)O)CC[C@@]2(C)CCC1
REMARK SMILES IDX 6 1 7 2 8 3 5 4 1 5 2 6 3 7 16 8 4 9 12 10 15 11 11 12 14 13
REMARK SMILES IDX 13 14 10 15 9 16
REMARK H PARENT 9 17
REMARK Flexibility Score: inf
ROOT
ATOM      1  C   UNL     1     115.369 126.251 125.394  1.00  0.00     0.062 C 
ATOM      2  C   UNL     1     116.198 127.497 125.022  1.00  0.00     0.042 C 
ATOM      3  C   UNL     1     113.875 126.648 125.414  1.00  0.00     0.042 C 
ENDROOT
BRANCH   1   4
ATOM      4  C   UNL     1     115.619 125.046 124.412  1.00  0.00     0.024 C 
ATOM      5  C   UNL     1     113.495 121.676 124.614  1.00  0.00     0.039 C 
ATOM      6  C   UNL     1     114.377 121.934 123.412  1.00  0.00    -0.074 C 
ATOM      7  C   UNL     1     114.687 123.203 122.998  1.00  0.00    -0.065 C 
ATOM      8  C   UNL     1     114.872 120.720 122.660  1.00  0.00     0.031 C 
ATOM      9  C   UNL     1     114.326 124.425 123.835  1.00  0.00     0.038 C 
ATOM     10  C   UNL     1     115.636 123.476 121.811  1.00  0.00    -0.011 C 
ATOM     11  C   UNL     1     116.216 120.985 121.999  1.00  0.00     0.005 C 
ATOM     12  C   UNL     1     116.902 124.193 122.365  1.00  0.00     0.011 C 
ATOM     13  C   UNL     1     116.075 122.179 121.064  1.00  0.00     0.011 C 
ATOM     14  C   UNL     1     114.932 124.377 120.766  1.00  0.00     0.016 C 
ATOM     15  C   UNL     1     116.586 125.410 123.257  1.00  0.00     0.008 C 
ENDBRANCH   1   4
BRANCH   1  16
ATOM     16  O   UNL     1     115.741 125.879 126.702  1.00  0.00    -0.390 OA
ATOM     17  H   UNL     1     115.986 126.703 127.198  1.00  0.00     0.211 HD
ENDBRANCH   1  16
TORSDOF 2
ENDMDL
MODEL 6
REMARK VINA RESULT:    -5.658     13.080     14.970
REMARK INTER + INTRA:          -6.371
REMARK INTER:                  -6.118
REMARK INTRA:                  -0.253
REMARK UNBOUND:                -0.217
REMARK SMILES CC1=C2C[C@H](C(C)(C)O)CC[C@@]2(C)CCC1
REMARK SMILES IDX 6 1 7 2 8 3 5 4 1 5 2 6 3 7 16 8 4 9 12 10 15 11 11 12 14 13
REMARK SMILES IDX 13 14 10 15 9 16
REMARK H PARENT 9 17
REMARK Flexibility Score: inf
ROOT
ATOM      1  C   UNL     1     116.061 118.700 127.025  1.00  0.00     0.062 C 
ATOM      2  C   UNL     1     117.296 119.549 127.384  1.00  0.00     0.042 C 
ATOM      3  C   UNL     1     115.086 118.725 128.224  1.00  0.00     0.042 C 
ENDROOT
BRANCH   1   4
ATOM      4  C   UNL     1     115.350 119.196 125.710  1.00  0.00     0.024 C 
ATOM      5  C   UNL     1     111.552 118.298 124.889  1.00  0.00     0.039 C 
ATOM      6  C   UNL     1     112.263 119.357 124.076  1.00  0.00    -0.074 C 
ATOM      7  C   UNL     1     113.300 120.092 124.588  1.00  0.00    -0.065 C 
ATOM      8  C   UNL     1     111.749 119.595 122.674  1.00  0.00     0.031 C 
ATOM      9  C   UNL     1     113.925 119.755 125.936  1.00  0.00     0.038 C 
ATOM     10  C   UNL     1     114.072 121.130 123.746  1.00  0.00    -0.011 C 
ATOM     11  C   UNL     1     112.858 120.074 121.749  1.00  0.00     0.005 C 
ATOM     12  C   UNL     1     115.538 120.628 123.594  1.00  0.00     0.011 C 
ATOM     13  C   UNL     1     113.462 121.347 122.326  1.00  0.00     0.011 C 
ATOM     14  C   UNL     1     114.055 122.507 124.456  1.00  0.00     0.016 C 
ATOM     15  C   UNL     1     116.200 120.230 124.929  1.00  0.00     0.008 C 
ENDBRANCH   1   4
BRANCH   1  16
ATOM     16  O   UNL     1     116.504 117.373 126.848  1.00  0.00    -0.390 OA
ATOM     17  H   UNL     1     116.582 117.203 125.873  1.00  0.00     0.211 HD
ENDBRANCH   1  16
TORSDOF 2
ENDMDL
MODEL 7
REMARK VINA RESULT:    -5.625      2.977      4.817
REMARK INTER + INTRA:          -6.335
REMARK INTER:                  -6.118
REMARK INTRA:                  -0.217
REMARK UNBOUND:                -0.217
REMARK SMILES CC1=C2C[C@H](C(C)(C)O)CC[C@@]2(C)CCC1
REMARK SMILES IDX 6 1 7 2 8 3 5 4 1 5 2 6 3 7 16 8 4 9 12 10 15 11 11 12 14 13
REMARK SMILES IDX 13 14 10 15 9 16
REMARK H PARENT 9 17
REMARK Flexibility Score: inf
ROOT
ATOM      1  C   UNL     1     127.676 117.398 113.829  1.00  0.00     0.062 C 
ATOM      2  C   UNL     1     127.793 117.488 115.364  1.00  0.00     0.042 C 
ATOM      3  C   UNL     1     127.423 115.921 113.446  1.00  0.00     0.042 C 
ENDROOT
BRANCH   1   4
ATOM      4  C   UNL     1     126.543 118.330 113.256  1.00  0.00     0.024 C 
ATOM      5  C   UNL     1     122.687 117.729 114.078  1.00  0.00     0.039 C 
ATOM      6  C   UNL     1     123.121 119.025 113.429  1.00  0.00    -0.074 C 
ATOM      7  C   UNL     1     124.380 119.539 113.603  1.00  0.00    -0.065 C 
ATOM      8  C   UNL     1     122.083 119.754 112.606  1.00  0.00     0.031 C 
ATOM      9  C   UNL     1     125.477 118.741 114.298  1.00  0.00     0.038 C 
ATOM     10  C   UNL     1     124.851 120.828 112.896  1.00  0.00    -0.011 C 
ATOM     11  C   UNL     1     122.726 120.558 111.486  1.00  0.00     0.005 C 
ATOM     12  C   UNL     1     125.996 120.443 111.914  1.00  0.00     0.011 C 
ATOM     13  C   UNL     1     123.717 121.541 112.096  1.00  0.00     0.011 C 
ATOM     14  C   UNL     1     125.370 121.847 113.942  1.00  0.00     0.016 C 
ATOM     15  C   UNL     1     127.110 119.594 112.560  1.00  0.00     0.008 C 
ENDBRANCH   1   4
BRANCH   1  16
ATOM     16  O   UNL     1     128.921 117.784 113.293  1.00  0.00    -0.390 OA
ATOM     17  H   UNL     1     129.602 117.126 113.593  1.00  0.00     0.211 HD
ENDBRANCH   1  16
TORSDOF 2
ENDMDL
MODEL 8
REMARK VINA RESULT:    -5.553      2.345      4.893
REMARK INTER + INTRA:          -6.256
REMARK INTER:                  -6.026
REMARK INTRA:                  -0.230
REMARK UNBOUND:                -0.217
REMARK SMILES CC1=C2C[C@H](C(C)(C)O)CC[C@@]2(C)CCC1
REMARK SMILES IDX 6 1 7 2 8 3 5 4 1 5 2 6 3 7 16 8 4 9 12 10 15 11 11 12 14 13
REMARK SMILES IDX 13 14 10 15 9 16
REMARK H PARENT 9 17
REMARK Flexibility Score: inf
ROOT
ATOM      1  C   UNL     1     126.835 120.956 114.459  1.00  0.00     0.062 C 
ATOM      2  C   UNL     1     126.632 122.473 114.277  1.00  0.00     0.042 C 
ATOM      3  C   UNL     1     127.279 120.694 115.917  1.00  0.00     0.042 C 
ENDROOT
BRANCH   1   4
ATOM      4  C   UNL     1     125.541 120.129 114.108  1.00  0.00     0.024 C 
ATOM      5  C   UNL     1     122.444 119.878 116.607  1.00  0.00     0.039 C 
ATOM      6  C   UNL     1     122.293 119.406 115.178  1.00  0.00    -0.074 C 
ATOM      7  C   UNL     1     123.048 119.922 114.158  1.00  0.00    -0.065 C 
ATOM      8  C   UNL     1     121.235 118.357 114.918  1.00  0.00     0.031 C 
ATOM      9  C   UNL     1     124.218 120.861 114.430  1.00  0.00     0.038 C 
ATOM     10  C   UNL     1     122.944 119.403 112.708  1.00  0.00    -0.011 C 
ATOM     11  C   UNL     1     121.608 117.472 113.739  1.00  0.00     0.005 C 
ATOM     12  C   UNL     1     124.307 118.750 112.335  1.00  0.00     0.011 C 
ATOM     13  C   UNL     1     121.809 118.351 112.512  1.00  0.00     0.011 C 
ATOM     14  C   UNL     1     122.638 120.577 111.745  1.00  0.00     0.016 C 
ATOM     15  C   UNL     1     125.527 119.644 112.635  1.00  0.00     0.008 C 
ENDBRANCH   1   4
BRANCH   1  16
ATOM     16  O   UNL     1     127.887 120.571 113.604  1.00  0.00    -0.390 OA
ATOM     17  H   UNL     1     128.090 121.335 113.003  1.00  0.00     0.211 HD
ENDBRANCH   1  16
TORSDOF 2
ENDMDL
MODEL 9
REMARK VINA RESULT:    -5.488     10.376     12.677
REMARK INTER + INTRA:          -6.186
REMARK INTER:                  -5.964
REMARK INTRA:                  -0.223
REMARK UNBOUND:                -0.217
REMARK SMILES CC1=C2C[C@H](C(C)(C)O)CC[C@@]2(C)CCC1
REMARK SMILES IDX 6 1 7 2 8 3 5 4 1 5 2 6 3 7 16 8 4 9 12 10 15 11 11 12 14 13
REMARK SMILES IDX 13 14 10 15 9 16
REMARK H PARENT 9 17
REMARK Flexibility Score: inf
ROOT
ATOM      1  C   UNL     1     113.060 120.331 124.213  1.00  0.00     0.062 C 
ATOM      2  C   UNL     1     111.990 119.431 123.564  1.00  0.00     0.042 C 
ATOM      3  C   UNL     1     113.821 119.499 125.271  1.00  0.00     0.042 C 
ENDROOT
BRANCH   1   4
ATOM      4  C   UNL     1     114.055 120.942 123.156  1.00  0.00     0.024 C 
ATOM      5  C   UNL     1     113.818 124.745 121.977  1.00  0.00     0.039 C 
ATOM      6  C   UNL     1     115.041 123.927 121.624  1.00  0.00    -0.074 C 
ATOM      7  C   UNL     1     115.455 122.871 122.393  1.00  0.00    -0.065 C 
ATOM      8  C   UNL     1     115.812 124.354 120.396  1.00  0.00     0.031 C 
ATOM      9  C   UNL     1     114.603 122.337 123.538  1.00  0.00     0.038 C 
ATOM     10  C   UNL     1     116.664 121.992 122.007  1.00  0.00    -0.011 C 
ATOM     11  C   UNL     1     116.504 123.171 119.735  1.00  0.00     0.005 C 
ATOM     12  C   UNL     1     116.138 120.556 121.715  1.00  0.00     0.011 C 
ATOM     13  C   UNL     1     117.429 122.515 120.752  1.00  0.00     0.011 C 
ATOM     14  C   UNL     1     117.686 121.955 123.171  1.00  0.00     0.016 C 
ATOM     15  C   UNL     1     115.231 119.989 122.826  1.00  0.00     0.008 C 
ENDBRANCH   1   4
BRANCH   1  16
ATOM     16  O   UNL     1     112.382 121.373 124.878  1.00  0.00    -0.390 OA
ATOM     17  H   UNL     1     112.833 121.524 125.751  1.00  0.00     0.211 HD
ENDBRANCH   1  16
TORSDOF 2
ENDMDL
