MODEL 1
REMARK VINA RESULT:    -4.559      0.000      0.000
REMARK INTER + INTRA:         -10.837
REMARK INTER:                  -8.556
REMARK INTRA:                  -2.281
REMARK UNBOUND:                -2.281
REMARK SMILES CCCCCCCCCCCCCC=CC=CC(=O)OC
REMARK SMILES IDX 9 1 8 2 7 3 6 4 5 5 4 6 3 7 2 8 1 9 10 10 11 11 12 12 13 13
REMARK SMILES IDX 14 14 15 15 16 16 17 17 18 18 19 19 20 20 21 21
REMARK H PARENT
REMARK Flexibility Score: inf
ROOT
ATOM      1  C   UNL     1       9.647 -27.123  31.907  1.00  0.00     0.000 C 
ENDROOT
BRANCH   1   2
ATOM      2  C   UNL     1       8.372 -26.259  31.922  1.00  0.00     0.000 C 
BRANCH   2   3
ATOM      3  C   UNL     1       8.322 -25.245  30.766  1.00  0.00     0.000 C 
BRANCH   3   4
ATOM      4  C   UNL     1       9.718 -24.744  30.359  1.00  0.00    -0.000 C 
BRANCH   4   5
ATOM      5  C   UNL     1       9.753 -23.224  30.115  1.00  0.00    -0.000 C 
BRANCH   5   6
ATOM      6  C   UNL     1      10.631 -22.484  31.137  1.00  0.00    -0.000 C 
BRANCH   6   7
ATOM      7  C   UNL     1       9.887 -22.195  32.453  1.00  0.00    -0.000 C 
BRANCH   7   8
ATOM      8  C   UNL     1      10.409 -23.045  33.623  1.00  0.00    -0.003 C 
ATOM      9  C   UNL     1      11.734 -23.739  33.308  1.00  0.00     0.004 C 
ENDBRANCH   7   8
ENDBRANCH   6   7
ENDBRANCH   5   6
ENDBRANCH   4   5
ENDBRANCH   3   4
ENDBRANCH   2   3
ENDBRANCH   1   2
BRANCH   1  10
ATOM     10  C   UNL     1       9.427 -28.617  31.606  1.00  0.00     0.000 C 
BRANCH  10  11
ATOM     11  C   UNL     1      10.608 -29.258  30.857  1.00  0.00     0.000 C 
BRANCH  11  12
ATOM     12  C   UNL     1      10.516 -29.074  29.334  1.00  0.00     0.004 C 
BRANCH  12  13
ATOM     13  C   UNL     1       9.084 -29.239  28.803  1.00  0.00     0.027 C 
BRANCH  13  14
ATOM     14  C   UNL     1       8.749 -28.168  27.804  1.00  0.00    -0.027 C 
ATOM     15  C   UNL     1       9.447 -27.032  27.735  1.00  0.00    -0.004 C 
BRANCH  15  16
ATOM     16  C   UNL     1       9.128 -26.003  26.733  1.00  0.00     0.007 C 
ATOM     17  C   UNL     1       9.841 -25.896  25.607  1.00  0.00     0.093 C 
BRANCH  17  18
ATOM     18  C   UNL     1       9.545 -24.887  24.577  1.00  0.00     0.330 C 
ATOM     19  O   UNL     1       9.707 -25.147  23.353  1.00  0.00    -0.247 OA
BRANCH  18  20
ATOM     20  O   UNL     1       9.078 -23.632  24.977  1.00  0.00    -0.466 OA
ATOM     21  C   UNL     1       8.769 -22.597  24.051  1.00  0.00     0.282 C 
ENDBRANCH  18  20
ENDBRANCH  17  18
ENDBRANCH  15  16
ENDBRANCH  13  14
ENDBRANCH  12  13
ENDBRANCH  11  12
ENDBRANCH  10  11
ENDBRANCH   1  10
TORSDOF 15
ENDMDL
MODEL 2
REMARK VINA RESULT:    -4.541      0.951      1.202
REMARK INTER + INTRA:         -10.804
REMARK INTER:                  -8.662
REMARK INTRA:                  -2.142
REMARK UNBOUND:                -2.281
REMARK SMILES CCCCCCCCCCCCCC=CC=CC(=O)OC
REMARK SMILES IDX 9 1 8 2 7 3 6 4 5 5 4 6 3 7 2 8 1 9 10 10 11 11 12 12 13 13
REMARK SMILES IDX 14 14 15 15 16 16 17 17 18 18 19 19 20 20 21 21
REMARK H PARENT
REMARK Flexibility Score: inf
ROOT
ATOM      1  C   UNL     1       9.766 -27.313  32.219  1.00  0.00     0.000 C 
ENDROOT
BRANCH   1   2
ATOM      2  C   UNL     1       8.917 -26.187  31.600  1.00  0.00     0.000 C 
BRANCH   2   3
ATOM      3  C   UNL     1       9.707 -25.317  30.607  1.00  0.00     0.000 C 
BRANCH   3   4
ATOM      4  C   UNL     1       8.983 -24.005  30.265  1.00  0.00    -0.000 C 
BRANCH   4   5
ATOM      5  C   UNL     1       9.956 -22.832  30.047  1.00  0.00    -0.000 C 
BRANCH   5   6
ATOM      6  C   UNL     1      10.767 -22.496  31.309  1.00  0.00    -0.000 C 
BRANCH   6   7
ATOM      7  C   UNL     1       9.872 -22.160  32.513  1.00  0.00    -0.000 C 
BRANCH   7   8
ATOM      8  C   UNL     1      10.515 -22.549  33.853  1.00  0.00    -0.003 C 
ATOM      9  C   UNL     1      10.309 -24.022  34.206  1.00  0.00     0.004 C 
ENDBRANCH   7   8
ENDBRANCH   6   7
ENDBRANCH   5   6
ENDBRANCH   4   5
ENDBRANCH   3   4
ENDBRANCH   2   3
ENDBRANCH   1   2
BRANCH   1  10
ATOM     10  C   UNL     1       9.490 -28.724  31.668  1.00  0.00     0.000 C 
BRANCH  10  11
ATOM     11  C   UNL     1      10.627 -29.253  30.776  1.00  0.00     0.000 C 
BRANCH  11  12
ATOM     12  C   UNL     1      10.503 -28.782  29.317  1.00  0.00     0.004 C 
BRANCH  12  13
ATOM     13  C   UNL     1       9.052 -28.786  28.814  1.00  0.00     0.027 C 
BRANCH  13  14
ATOM     14  C   UNL     1       8.781 -27.602  27.930  1.00  0.00    -0.027 C 
ATOM     15  C   UNL     1       9.756 -27.011  27.234  1.00  0.00    -0.004 C 
BRANCH  15  16
ATOM     16  C   UNL     1       9.472 -25.870  26.349  1.00  0.00     0.007 C 
ATOM     17  C   UNL     1      10.049 -25.773  25.147  1.00  0.00     0.093 C 
BRANCH  17  18
ATOM     18  C   UNL     1       9.783 -24.653  24.230  1.00  0.00     0.330 C 
ATOM     19  O   UNL     1       8.603 -24.368  23.885  1.00  0.00    -0.247 OA
BRANCH  18  20
ATOM     20  O   UNL     1      10.861 -23.906  23.749  1.00  0.00    -0.466 OA
ATOM     21  C   UNL     1      11.914 -24.483  22.983  1.00  0.00     0.282 C 
ENDBRANCH  18  20
ENDBRANCH  17  18
ENDBRANCH  15  16
ENDBRANCH  13  14
ENDBRANCH  12  13
ENDBRANCH  11  12
ENDBRANCH  10  11
ENDBRANCH   1  10
TORSDOF 15
ENDMDL
MODEL 3
REMARK VINA RESULT:    -4.535      1.199      2.020
REMARK INTER + INTRA:         -10.793
REMARK INTER:                  -8.362
REMARK INTRA:                  -2.431
REMARK UNBOUND:                -2.281
REMARK SMILES CCCCCCCCCCCCCC=CC=CC(=O)OC
REMARK SMILES IDX 9 1 8 2 7 3 6 4 5 5 4 6 3 7 2 8 1 9 10 10 11 11 12 12 13 13
REMARK SMILES IDX 14 14 15 15 16 16 17 17 18 18 19 19 20 20 21 21
REMARK H PARENT
REMARK Flexibility Score: inf
ROOT
ATOM      1  C   UNL     1       8.342 -26.287  31.922  1.00  0.00     0.000 C 
ENDROOT
BRANCH   1   2
ATOM      2  C   UNL     1       8.178 -25.285  30.764  1.00  0.00     0.000 C 
BRANCH   2   3
ATOM      3  C   UNL     1       9.522 -24.838  30.163  1.00  0.00     0.000 C 
BRANCH   3   4
ATOM      4  C   UNL     1       9.537 -23.345  29.795  1.00  0.00    -0.000 C 
BRANCH   4   5
ATOM      5  C   UNL     1      10.344 -22.497  30.795  1.00  0.00    -0.000 C 
BRANCH   5   6
ATOM      6  C   UNL     1       9.525 -22.114  32.039  1.00  0.00    -0.000 C 
BRANCH   6   7
ATOM      7  C   UNL     1      10.274 -22.406  33.350  1.00  0.00    -0.000 C 
BRANCH   7   8
ATOM      8  C   UNL     1      11.253 -23.584  33.220  1.00  0.00    -0.003 C 
ATOM      9  C   UNL     1      11.030 -24.662  34.280  1.00  0.00     0.004 C 
ENDBRANCH   7   8
ENDBRANCH   6   7
ENDBRANCH   5   6
ENDBRANCH   4   5
ENDBRANCH   3   4
ENDBRANCH   2   3
ENDBRANCH   1   2
BRANCH   1  10
ATOM     10  C   UNL     1       9.683 -27.044  31.953  1.00  0.00     0.000 C 
BRANCH  10  11
ATOM     11  C   UNL     1       9.508 -28.573  31.979  1.00  0.00     0.000 C 
BRANCH  11  12
ATOM     12  C   UNL     1      10.137 -29.263  30.757  1.00  0.00     0.004 C 
BRANCH  12  13
ATOM     13  C   UNL     1       9.189 -29.309  29.550  1.00  0.00     0.027 C 
BRANCH  13  14
ATOM     14  C   UNL     1       9.626 -28.348  28.481  1.00  0.00    -0.027 C 
ATOM     15  C   UNL     1       8.753 -27.553  27.856  1.00  0.00    -0.004 C 
BRANCH  15  16
ATOM     16  C   UNL     1       9.197 -26.595  26.831  1.00  0.00     0.007 C 
ATOM     17  C   UNL     1      10.282 -26.838  26.088  1.00  0.00     0.093 C 
BRANCH  17  18
ATOM     18  C   UNL     1      10.751 -25.910  25.047  1.00  0.00     0.330 C 
ATOM     19  O   UNL     1       9.952 -25.106  24.491  1.00  0.00    -0.247 OA
BRANCH  18  20
ATOM     20  O   UNL     1      12.100 -25.930  24.683  1.00  0.00    -0.466 OA
ATOM     21  C   UNL     1      12.962 -27.020  24.994  1.00  0.00     0.282 C 
ENDBRANCH  18  20
ENDBRANCH  17  18
ENDBRANCH  15  16
ENDBRANCH  13  14
ENDBRANCH  12  13
ENDBRANCH  11  12
ENDBRANCH  10  11
ENDBRANCH   1  10
TORSDOF 15
ENDMDL
MODEL 4
REMARK VINA RESULT:    -4.505      2.035      6.047
REMARK INTER + INTRA:         -10.736
REMARK INTER:                  -8.896
REMARK INTRA:                  -1.840
REMARK UNBOUND:                -2.281
REMARK SMILES CCCCCCCCCCCCCC=CC=CC(=O)OC
REMARK SMILES IDX 9 1 8 2 7 3 6 4 5 5 4 6 3 7 2 8 1 9 10 10 11 11 12 12 13 13
REMARK SMILES IDX 14 14 15 15 16 16 17 17 18 18 19 19 20 20 21 21
REMARK H PARENT
REMARK Flexibility Score: inf
ROOT
ATOM      1  C   UNL     1      10.360 -27.248  28.443  1.00  0.00     0.000 C 
ENDROOT
BRANCH   1   2
ATOM      2  C   UNL     1       8.864 -27.263  28.077  1.00  0.00     0.000 C 
BRANCH   2   3
ATOM      3  C   UNL     1       8.591 -26.753  26.652  1.00  0.00     0.000 C 
BRANCH   3   4
ATOM      4  C   UNL     1       9.699 -25.821  26.135  1.00  0.00    -0.000 C 
BRANCH   4   5
ATOM      5  C   UNL     1      10.009 -26.040  24.643  1.00  0.00    -0.000 C 
BRANCH   5   6
ATOM      6  C   UNL     1      11.024 -25.023  24.096  1.00  0.00    -0.000 C 
BRANCH   6   7
ATOM      7  C   UNL     1      10.377 -23.992  23.156  1.00  0.00    -0.000 C 
BRANCH   7   8
ATOM      8  C   UNL     1       9.991 -22.694  23.882  1.00  0.00    -0.003 C 
ATOM      9  C   UNL     1       8.486 -22.566  24.112  1.00  0.00     0.004 C 
ENDBRANCH   7   8
ENDBRANCH   6   7
ENDBRANCH   5   6
ENDBRANCH   4   5
ENDBRANCH   3   4
ENDBRANCH   2   3
ENDBRANCH   1   2
BRANCH   1  10
ATOM     10  C   UNL     1      10.941 -28.600  28.895  1.00  0.00     0.000 C 
BRANCH  10  11
ATOM     11  C   UNL     1       9.954 -29.425  29.739  1.00  0.00     0.000 C 
BRANCH  11  12
ATOM     12  C   UNL     1      10.405 -29.576  31.201  1.00  0.00     0.004 C 
BRANCH  12  13
ATOM     13  C   UNL     1       9.330 -29.128  32.203  1.00  0.00     0.027 C 
BRANCH  13  14
ATOM     14  C   UNL     1       8.851 -27.737  31.899  1.00  0.00    -0.027 C 
ATOM     15  C   UNL     1       9.659 -26.679  32.010  1.00  0.00    -0.004 C 
BRANCH  15  16
ATOM     16  C   UNL     1       9.186 -25.325  31.682  1.00  0.00     0.007 C 
ATOM     17  C   UNL     1       9.965 -24.469  31.010  1.00  0.00     0.093 C 
BRANCH  17  18
ATOM     18  C   UNL     1       9.524 -23.111  30.655  1.00  0.00     0.330 C 
ATOM     19  O   UNL     1       9.482 -22.742  29.449  1.00  0.00    -0.247 OA
BRANCH  18  20
ATOM     20  O   UNL     1       9.150 -22.235  31.677  1.00  0.00    -0.466 OA
ATOM     21  C   UNL     1      10.050 -21.818  32.698  1.00  0.00     0.282 C 
ENDBRANCH  18  20
ENDBRANCH  17  18
ENDBRANCH  15  16
ENDBRANCH  13  14
ENDBRANCH  12  13
ENDBRANCH  11  12
ENDBRANCH  10  11
ENDBRANCH   1  10
TORSDOF 15
ENDMDL
MODEL 5
REMARK VINA RESULT:    -4.489      1.255      2.780
REMARK INTER + INTRA:         -10.707
REMARK INTER:                  -8.899
REMARK INTRA:                  -1.808
REMARK UNBOUND:                -2.281
REMARK SMILES CCCCCCCCCCCCCC=CC=CC(=O)OC
REMARK SMILES IDX 9 1 8 2 7 3 6 4 5 5 4 6 3 7 2 8 1 9 10 10 11 11 12 12 13 13
REMARK SMILES IDX 14 14 15 15 16 16 17 17 18 18 19 19 20 20 21 21
REMARK H PARENT
REMARK Flexibility Score: inf
ROOT
ATOM      1  C   UNL     1      10.637 -29.230  30.430  1.00  0.00     0.000 C 
ENDROOT
BRANCH   1   2
ATOM      2  C   UNL     1       9.331 -29.623  31.146  1.00  0.00     0.000 C 
BRANCH   2   3
ATOM      3  C   UNL     1       8.622 -28.425  31.800  1.00  0.00     0.000 C 
BRANCH   3   4
ATOM      4  C   UNL     1       9.549 -27.210  31.970  1.00  0.00    -0.000 C 
BRANCH   4   5
ATOM      5  C   UNL     1       8.870 -25.887  31.572  1.00  0.00    -0.000 C 
BRANCH   5   6
ATOM      6  C   UNL     1       9.813 -24.950  30.799  1.00  0.00    -0.000 C 
BRANCH   6   7
ATOM      7  C   UNL     1       9.177 -23.579  30.513  1.00  0.00    -0.000 C 
BRANCH   7   8
ATOM      8  C   UNL     1       9.942 -22.424  31.176  1.00  0.00    -0.003 C 
ATOM      9  C   UNL     1      11.407 -22.762  31.451  1.00  0.00     0.004 C 
ENDBRANCH   7   8
ENDBRANCH   6   7
ENDBRANCH   5   6
ENDBRANCH   4   5
ENDBRANCH   3   4
ENDBRANCH   2   3
ENDBRANCH   1   2
BRANCH   1  10
ATOM     10  C   UNL     1      10.557 -29.178  28.894  1.00  0.00     0.000 C 
BRANCH  10  11
ATOM     11  C   UNL     1       9.164 -29.546  28.353  1.00  0.00     0.000 C 
BRANCH  11  12
ATOM     12  C   UNL     1       8.577 -28.461  27.436  1.00  0.00     0.004 C 
BRANCH  12  13
ATOM     13  C   UNL     1       8.702 -27.050  28.031  1.00  0.00     0.027 C 
BRANCH  13  14
ATOM     14  C   UNL     1       9.390 -26.117  27.076  1.00  0.00    -0.027 C 
ATOM     15  C   UNL     1       9.100 -26.111  25.773  1.00  0.00    -0.004 C 
BRANCH  15  16
ATOM     16  C   UNL     1       9.760 -25.171  24.852  1.00  0.00     0.007 C 
ATOM     17  C   UNL     1       9.052 -24.264  24.172  1.00  0.00     0.093 C 
BRANCH  17  18
ATOM     18  C   UNL     1       9.676 -23.302  23.251  1.00  0.00     0.330 C 
ATOM     19  O   UNL     1      10.094 -22.186  23.668  1.00  0.00    -0.247 OA
BRANCH  18  20
ATOM     20  O   UNL     1       9.803 -23.645  21.902  1.00  0.00    -0.466 OA
ATOM     21  C   UNL     1      10.975 -23.361  21.146  1.00  0.00     0.282 C 
ENDBRANCH  18  20
ENDBRANCH  17  18
ENDBRANCH  15  16
ENDBRANCH  13  14
ENDBRANCH  12  13
ENDBRANCH  11  12
ENDBRANCH  10  11
ENDBRANCH   1  10
TORSDOF 15
ENDMDL
MODEL 6
REMARK VINA RESULT:    -4.479      2.677      6.623
REMARK INTER + INTRA:         -10.689
REMARK INTER:                  -8.184
REMARK INTRA:                  -2.505
REMARK UNBOUND:                -2.281
REMARK SMILES CCCCCCCCCCCCCC=CC=CC(=O)OC
REMARK SMILES IDX 9 1 8 2 7 3 6 4 5 5 4 6 3 7 2 8 1 9 10 10 11 11 12 12 13 13
REMARK SMILES IDX 14 14 15 15 16 16 17 17 18 18 19 19 20 20 21 21
REMARK H PARENT
REMARK Flexibility Score: inf
ROOT
ATOM      1  C   UNL     1      10.342 -27.184  28.498  1.00  0.00     0.000 C 
ENDROOT
BRANCH   1   2
ATOM      2  C   UNL     1       8.818 -26.997  28.381  1.00  0.00     0.000 C 
BRANCH   2   3
ATOM      3  C   UNL     1       8.309 -27.111  26.934  1.00  0.00     0.000 C 
BRANCH   3   4
ATOM      4  C   UNL     1       9.453 -27.218  25.912  1.00  0.00    -0.000 C 
BRANCH   4   5
ATOM      5  C   UNL     1       9.518 -28.601  25.240  1.00  0.00    -0.000 C 
BRANCH   5   6
ATOM      6  C   UNL     1       8.407 -29.547  25.727  1.00  0.00    -0.000 C 
BRANCH   6   7
ATOM      7  C   UNL     1       8.959 -30.755  26.501  1.00  0.00    -0.000 C 
BRANCH   7   8
ATOM      8  C   UNL     1       7.861 -31.530  27.246  1.00  0.00    -0.003 C 
ATOM      9  C   UNL     1       6.965 -30.624  28.093  1.00  0.00     0.004 C 
ENDBRANCH   7   8
ENDBRANCH   6   7
ENDBRANCH   5   6
ENDBRANCH   4   5
ENDBRANCH   3   4
ENDBRANCH   2   3
ENDBRANCH   1   2
BRANCH   1  10
ATOM     10  C   UNL     1      10.805 -28.600  28.886  1.00  0.00     0.000 C 
BRANCH  10  11
ATOM     11  C   UNL     1       9.772 -29.355  29.742  1.00  0.00     0.000 C 
BRANCH  11  12
ATOM     12  C   UNL     1      10.233 -29.547  31.196  1.00  0.00     0.004 C 
BRANCH  12  13
ATOM     13  C   UNL     1       9.213 -29.018  32.216  1.00  0.00     0.027 C 
BRANCH  13  14
ATOM     14  C   UNL     1       8.879 -27.577  31.953  1.00  0.00    -0.027 C 
ATOM     15  C   UNL     1       9.771 -26.605  32.157  1.00  0.00    -0.004 C 
BRANCH  15  16
ATOM     16  C   UNL     1       9.442 -25.200  31.869  1.00  0.00     0.007 C 
ATOM     17  C   UNL     1      10.404 -24.279  31.748  1.00  0.00     0.093 C 
BRANCH  17  18
ATOM     18  C   UNL     1      10.115 -22.868  31.451  1.00  0.00     0.330 C 
ATOM     19  O   UNL     1      10.451 -22.359  30.345  1.00  0.00    -0.247 OA
BRANCH  18  20
ATOM     20  O   UNL     1       9.458 -22.097  32.413  1.00  0.00    -0.466 OA
ATOM     21  C   UNL     1      10.154 -21.277  33.345  1.00  0.00     0.282 C 
ENDBRANCH  18  20
ENDBRANCH  17  18
ENDBRANCH  15  16
ENDBRANCH  13  14
ENDBRANCH  12  13
ENDBRANCH  11  12
ENDBRANCH  10  11
ENDBRANCH   1  10
TORSDOF 15
ENDMDL
MODEL 7
REMARK VINA RESULT:    -4.477      1.031      1.918
REMARK INTER + INTRA:         -10.684
REMARK INTER:                  -9.063
REMARK INTRA:                  -1.621
REMARK UNBOUND:                -2.281
REMARK SMILES CCCCCCCCCCCCCC=CC=CC(=O)OC
REMARK SMILES IDX 9 1 8 2 7 3 6 4 5 5 4 6 3 7 2 8 1 9 10 10 11 11 12 12 13 13
REMARK SMILES IDX 14 14 15 15 16 16 17 17 18 18 19 19 20 20 21 21
REMARK H PARENT
REMARK Flexibility Score: inf
ROOT
ATOM      1  C   UNL     1       9.498 -26.839  30.867  1.00  0.00     0.000 C 
ENDROOT
BRANCH   1   2
ATOM      2  C   UNL     1       9.086 -25.938  32.047  1.00  0.00     0.000 C 
BRANCH   2   3
ATOM      3  C   UNL     1      10.231 -25.697  33.045  1.00  0.00     0.000 C 
BRANCH   3   4
ATOM      4  C   UNL     1      10.388 -24.213  33.417  1.00  0.00    -0.000 C 
BRANCH   4   5
ATOM      5  C   UNL     1      11.489 -23.512  32.602  1.00  0.00    -0.000 C 
BRANCH   5   6
ATOM      6  C   UNL     1      10.924 -22.471  31.621  1.00  0.00    -0.000 C 
BRANCH   6   7
ATOM      7  C   UNL     1       9.449 -22.138  31.902  1.00  0.00    -0.000 C 
BRANCH   7   8
ATOM      8  C   UNL     1       8.575 -22.226  30.641  1.00  0.00    -0.003 C 
ATOM      9  C   UNL     1       9.388 -22.162  29.348  1.00  0.00     0.004 C 
ENDBRANCH   7   8
ENDBRANCH   6   7
ENDBRANCH   5   6
ENDBRANCH   4   5
ENDBRANCH   3   4
ENDBRANCH   2   3
ENDBRANCH   1   2
BRANCH   1  10
ATOM     10  C   UNL     1       9.271 -28.347  31.080  1.00  0.00     0.000 C 
BRANCH  10  11
ATOM     11  C   UNL     1      10.484 -29.200  30.668  1.00  0.00     0.000 C 
BRANCH  11  12
ATOM     12  C   UNL     1      11.011 -28.843  29.268  1.00  0.00     0.004 C 
BRANCH  12  13
ATOM     13  C   UNL     1      10.001 -29.158  28.156  1.00  0.00     0.027 C 
BRANCH  13  14
ATOM     14  C   UNL     1       9.949 -28.052  27.141  1.00  0.00    -0.027 C 
ATOM     15  C   UNL     1       9.463 -26.846  27.445  1.00  0.00    -0.004 C 
BRANCH  15  16
ATOM     16  C   UNL     1       9.444 -25.762  26.450  1.00  0.00     0.007 C 
ATOM     17  C   UNL     1      10.092 -25.885  25.286  1.00  0.00     0.093 C 
BRANCH  17  18
ATOM     18  C   UNL     1      10.087 -24.828  24.263  1.00  0.00     0.330 C 
ATOM     19  O   UNL     1      11.168 -24.409  23.764  1.00  0.00    -0.247 OA
BRANCH  18  20
ATOM     20  O   UNL     1       8.863 -24.296  23.849  1.00  0.00    -0.466 OA
ATOM     21  C   UNL     1       8.511 -22.933  24.053  1.00  0.00     0.282 C 
ENDBRANCH  18  20
ENDBRANCH  17  18
ENDBRANCH  15  16
ENDBRANCH  13  14
ENDBRANCH  12  13
ENDBRANCH  11  12
ENDBRANCH  10  11
ENDBRANCH   1  10
TORSDOF 15
ENDMDL
MODEL 8
REMARK VINA RESULT:    -4.471      1.794      2.686
REMARK INTER + INTRA:         -10.673
REMARK INTER:                  -8.291
REMARK INTRA:                  -2.382
REMARK UNBOUND:                -2.281
REMARK SMILES CCCCCCCCCCCCCC=CC=CC(=O)OC
REMARK SMILES IDX 9 1 8 2 7 3 6 4 5 5 4 6 3 7 2 8 1 9 10 10 11 11 12 12 13 13
REMARK SMILES IDX 14 14 15 15 16 16 17 17 18 18 19 19 20 20 21 21
REMARK H PARENT
REMARK Flexibility Score: inf
ROOT
ATOM      1  C   UNL     1       9.566 -25.883  31.052  1.00  0.00     0.000 C 
ENDROOT
BRANCH   1   2
ATOM      2  C   UNL     1       9.106 -25.164  29.770  1.00  0.00     0.000 C 
BRANCH   2   3
ATOM      3  C   UNL     1       9.447 -23.664  29.768  1.00  0.00     0.000 C 
BRANCH   3   4
ATOM      4  C   UNL     1       8.622 -22.870  30.794  1.00  0.00    -0.000 C 
BRANCH   4   5
ATOM      5  C   UNL     1       9.503 -22.149  31.831  1.00  0.00    -0.000 C 
BRANCH   5   6
ATOM      6  C   UNL     1      10.985 -22.541  31.720  1.00  0.00    -0.000 C 
BRANCH   6   7
ATOM      7  C   UNL     1      11.568 -23.026  33.058  1.00  0.00    -0.000 C 
BRANCH   7   8
ATOM      8  C   UNL     1      10.600 -23.939  33.827  1.00  0.00    -0.003 C 
ATOM      9  C   UNL     1      11.239 -25.261  34.251  1.00  0.00     0.004 C 
ENDBRANCH   7   8
ENDBRANCH   6   7
ENDBRANCH   5   6
ENDBRANCH   4   5
ENDBRANCH   3   4
ENDBRANCH   2   3
ENDBRANCH   1   2
BRANCH   1  10
ATOM     10  C   UNL     1       8.438 -26.479  31.914  1.00  0.00     0.000 C 
BRANCH  10  11
ATOM     11  C   UNL     1       8.423 -28.018  31.900  1.00  0.00     0.000 C 
BRANCH  11  12
ATOM     12  C   UNL     1       9.769 -28.628  32.322  1.00  0.00     0.004 C 
BRANCH  12  13
ATOM     13  C   UNL     1      10.314 -29.632  31.295  1.00  0.00     0.027 C 
BRANCH  13  14
ATOM     14  C   UNL     1      10.057 -29.164  29.891  1.00  0.00    -0.027 C 
ATOM     15  C   UNL     1      11.016 -28.593  29.157  1.00  0.00    -0.004 C 
BRANCH  15  16
ATOM     16  C   UNL     1      10.761 -28.165  27.773  1.00  0.00     0.007 C 
ATOM     17  C   UNL     1       9.512 -27.990  27.327  1.00  0.00     0.093 C 
BRANCH  17  18
ATOM     18  C   UNL     1       9.217 -27.553  25.954  1.00  0.00     0.330 C 
ATOM     19  O   UNL     1       8.137 -26.959  25.684  1.00  0.00    -0.247 OA
BRANCH  18  20
ATOM     20  O   UNL     1      10.156 -27.805  24.950  1.00  0.00    -0.466 OA
ATOM     21  C   UNL     1      10.546 -26.820  23.999  1.00  0.00     0.282 C 
ENDBRANCH  18  20
ENDBRANCH  17  18
ENDBRANCH  15  16
ENDBRANCH  13  14
ENDBRANCH  12  13
ENDBRANCH  11  12
ENDBRANCH  10  11
ENDBRANCH   1  10
TORSDOF 15
ENDMDL
MODEL 9
REMARK VINA RESULT:    -4.380      1.828      3.070
REMARK INTER + INTRA:         -10.503
REMARK INTER:                  -8.768
REMARK INTRA:                  -1.735
REMARK UNBOUND:                -2.281
REMARK SMILES CCCCCCCCCCCCCC=CC=CC(=O)OC
REMARK SMILES IDX 9 1 8 2 7 3 6 4 5 5 4 6 3 7 2 8 1 9 10 10 11 11 12 12 13 13
REMARK SMILES IDX 14 14 15 15 16 16 17 17 18 18 19 19 20 20 21 21
REMARK H PARENT
REMARK Flexibility Score: inf
ROOT
ATOM      1  C   UNL     1      10.614 -29.250  30.700  1.00  0.00     0.000 C 
ENDROOT
BRANCH   1   2
ATOM      2  C   UNL     1       9.450 -28.786  31.594  1.00  0.00     0.000 C 
BRANCH   2   3
ATOM      3  C   UNL     1       9.697 -27.408  32.233  1.00  0.00     0.000 C 
BRANCH   3   4
ATOM      4  C   UNL     1       8.921 -26.283  31.528  1.00  0.00    -0.000 C 
BRANCH   4   5
ATOM      5  C   UNL     1       9.849 -25.215  30.920  1.00  0.00    -0.000 C 
BRANCH   5   6
ATOM      6  C   UNL     1       9.073 -24.039  30.307  1.00  0.00    -0.000 C 
BRANCH   6   7
ATOM      7  C   UNL     1       9.932 -22.770  30.176  1.00  0.00    -0.000 C 
BRANCH   7   8
ATOM      8  C   UNL     1      10.974 -22.645  31.298  1.00  0.00    -0.003 C 
ATOM      9  C   UNL     1      10.429 -21.937  32.539  1.00  0.00     0.004 C 
ENDBRANCH   7   8
ENDBRANCH   6   7
ENDBRANCH   5   6
ENDBRANCH   4   5
ENDBRANCH   3   4
ENDBRANCH   2   3
ENDBRANCH   1   2
BRANCH   1  10
ATOM     10  C   UNL     1      10.423 -29.010  29.191  1.00  0.00     0.000 C 
BRANCH  10  11
ATOM     11  C   UNL     1       8.996 -29.326  28.710  1.00  0.00     0.000 C 
BRANCH  11  12
ATOM     12  C   UNL     1       8.543 -28.413  27.559  1.00  0.00     0.004 C 
BRANCH  12  13
ATOM     13  C   UNL     1       8.658 -26.921  27.906  1.00  0.00     0.027 C 
BRANCH  13  14
ATOM     14  C   UNL     1       9.583 -26.213  26.957  1.00  0.00    -0.027 C 
ATOM     15  C   UNL     1       9.364 -26.207  25.640  1.00  0.00    -0.004 C 
BRANCH  15  16
ATOM     16  C   UNL     1      10.262 -25.486  24.724  1.00  0.00     0.007 C 
ATOM     17  C   UNL     1      11.513 -25.909  24.514  1.00  0.00     0.093 C 
BRANCH  17  18
ATOM     18  C   UNL     1      12.437 -25.221  23.598  1.00  0.00     0.330 C 
ATOM     19  O   UNL     1      12.629 -23.977  23.690  1.00  0.00    -0.247 OA
BRANCH  18  20
ATOM     20  O   UNL     1      13.103 -25.970  22.624  1.00  0.00    -0.466 OA
ATOM     21  C   UNL     1      14.379 -26.558  22.849  1.00  0.00     0.282 C 
ENDBRANCH  18  20
ENDBRANCH  17  18
ENDBRANCH  15  16
ENDBRANCH  13  14
ENDBRANCH  12  13
ENDBRANCH  11  12
ENDBRANCH  10  11
ENDBRANCH   1  10
TORSDOF 15
ENDMDL
