MODEL 1
REMARK VINA RESULT:    -3.681      0.000      0.000
REMARK INTER + INTRA:          -4.611
REMARK INTER:                  -4.756
REMARK INTRA:                   0.145
REMARK UNBOUND:                 0.145
REMARK SMILES CCO[C@@H]1O[C@@H](CO)[C@@H](O)[C@@H](O)[C@@H]1O
REMARK SMILES IDX 4 1 13 2 11 3 9 4 6 5 5 6 3 7 2 8 1 9 14 10 12 12 7 14 8 15
REMARK SMILES IDX 10 17
REMARK H PARENT 14 11 12 13 8 16 10 18
REMARK Flexibility Score: inf
ROOT
ATOM      1  C   UNL     1      14.609  41.849  20.540  1.00  0.00     0.281 C 
ATOM      2  C   UNL     1      14.103  40.626  21.331  1.00  0.00     0.202 C 
ATOM      3  C   UNL     1      12.571  40.685  21.508  1.00  0.00     0.179 C 
ATOM      4  C   UNL     1      11.877  40.966  20.162  1.00  0.00     0.177 C 
ATOM      5  C   UNL     1      12.542  42.184  19.474  1.00  0.00     0.178 C 
ATOM      6  O   UNL     1      13.934  41.971  19.293  1.00  0.00    -0.341 OA
ENDROOT
BRANCH   1   7
ATOM      7  O   UNL     1      14.477  43.026  21.323  1.00  0.00    -0.350 OA
BRANCH   7   8
ATOM      8  C   UNL     1      15.631  43.832  21.193  1.00  0.00     0.160 C 
ATOM      9  C   UNL     1      15.822  44.194  19.729  1.00  0.00     0.035 C 
ENDBRANCH   7   8
ENDBRANCH   1   7
BRANCH   2  10
ATOM     10  O   UNL     1      14.735  40.596  22.586  1.00  0.00    -0.385 OA
ATOM     11  H   UNL     1      15.235  39.740  22.638  1.00  0.00     0.211 HD
ENDBRANCH   2  10
BRANCH   3  12
ATOM     12  O   UNL     1      12.094  39.474  22.036  1.00  0.00    -0.387 OA
ATOM     13  H   UNL     1      12.652  38.749  21.653  1.00  0.00     0.211 HD
ENDBRANCH   3  12
BRANCH   5  14
ATOM     14  C   UNL     1      11.895  42.511  18.120  1.00  0.00     0.191 C 
BRANCH  14  15
ATOM     15  O   UNL     1      11.907  43.894  17.875  1.00  0.00    -0.394 OA
ATOM     16  H   UNL     1      12.586  44.062  17.170  1.00  0.00     0.210 HD
ENDBRANCH  14  15
ENDBRANCH   5  14
BRANCH   4  17
ATOM     17  O   UNL     1      11.875  39.821  19.340  1.00  0.00    -0.387 OA
ATOM     18  H   UNL     1      11.646  40.102  18.417  1.00  0.00     0.211 HD
ENDBRANCH   4  17
TORSDOF 7
ENDMDL
MODEL 2
REMARK VINA RESULT:    -3.357      1.658      2.696
REMARK INTER + INTRA:          -4.193
REMARK INTER:                  -3.950
REMARK INTRA:                  -0.243
REMARK UNBOUND:                 0.145
REMARK SMILES CCO[C@@H]1O[C@@H](CO)[C@@H](O)[C@@H](O)[C@@H]1O
REMARK SMILES IDX 4 1 13 2 11 3 9 4 6 5 5 6 3 7 2 8 1 9 14 10 12 12 7 14 8 15
REMARK SMILES IDX 10 17
REMARK H PARENT 14 11 12 13 8 16 10 18
REMARK Flexibility Score: inf
ROOT
ATOM      1  C   UNL     1      14.297  43.078  19.129  1.00  0.00     0.281 C 
ATOM      2  C   UNL     1      14.939  42.682  20.475  1.00  0.00     0.202 C 
ATOM      3  C   UNL     1      13.907  41.994  21.391  1.00  0.00     0.179 C 
ATOM      4  C   UNL     1      13.160  40.880  20.634  1.00  0.00     0.177 C 
ATOM      5  C   UNL     1      12.632  41.427  19.285  1.00  0.00     0.178 C 
ATOM      6  O   UNL     1      13.690  41.956  18.499  1.00  0.00    -0.341 OA
ENDROOT
BRANCH   1   7
ATOM      7  O   UNL     1      13.368  44.134  19.322  1.00  0.00    -0.350 OA
BRANCH   7   8
ATOM      8  C   UNL     1      13.378  45.005  18.210  1.00  0.00     0.160 C 
ATOM      9  C   UNL     1      14.817  45.367  17.877  1.00  0.00     0.035 C 
ENDBRANCH   7   8
ENDBRANCH   1   7
BRANCH   2  10
ATOM     10  O   UNL     1      15.448  43.834  21.097  1.00  0.00    -0.385 OA
ATOM     11  H   UNL     1      15.312  43.720  22.074  1.00  0.00     0.211 HD
ENDBRANCH   2  10
BRANCH   3  12
ATOM     12  O   UNL     1      14.542  41.448  22.519  1.00  0.00    -0.387 OA
ATOM     13  H   UNL     1      14.935  40.581  22.241  1.00  0.00     0.211 HD
ENDBRANCH   3  12
BRANCH   5  14
ATOM     14  C   UNL     1      11.882  40.357  18.477  1.00  0.00     0.191 C 
BRANCH  14  15
ATOM     15  O   UNL     1      11.875  39.126  19.153  1.00  0.00    -0.394 OA
ATOM     16  H   UNL     1      12.418  39.241  19.977  1.00  0.00     0.210 HD
ENDBRANCH  14  15
ENDBRANCH   5  14
BRANCH   4  17
ATOM     17  O   UNL     1      13.975  39.742  20.469  1.00  0.00    -0.387 OA
ATOM     18  H   UNL     1      14.311  39.733  19.536  1.00  0.00     0.211 HD
ENDBRANCH   4  17
TORSDOF 7
ENDMDL
MODEL 3
REMARK VINA RESULT:    -3.221      1.562      3.464
REMARK INTER + INTRA:          -4.017
REMARK INTER:                  -3.884
REMARK INTRA:                  -0.132
REMARK UNBOUND:                 0.145
REMARK SMILES CCO[C@@H]1O[C@@H](CO)[C@@H](O)[C@@H](O)[C@@H]1O
REMARK SMILES IDX 4 1 13 2 11 3 9 4 6 5 5 6 3 7 2 8 1 9 14 10 12 12 7 14 8 15
REMARK SMILES IDX 10 17
REMARK H PARENT 14 11 12 13 8 16 10 18
REMARK Flexibility Score: inf
ROOT
ATOM      1  C   UNL     1      13.252  43.025  19.243  1.00  0.00     0.281 C 
ATOM      2  C   UNL     1      12.275  41.832  19.205  1.00  0.00     0.202 C 
ATOM      3  C   UNL     1      12.939  40.564  19.783  1.00  0.00     0.179 C 
ATOM      4  C   UNL     1      13.601  40.863  21.140  1.00  0.00     0.177 C 
ATOM      5  C   UNL     1      14.499  42.120  21.018  1.00  0.00     0.178 C 
ATOM      6  O   UNL     1      13.754  43.237  20.558  1.00  0.00    -0.341 OA
ENDROOT
BRANCH   1   7
ATOM      7  O   UNL     1      14.303  42.826  18.310  1.00  0.00    -0.350 OA
BRANCH   7   8
ATOM      8  C   UNL     1      14.827  44.070  17.891  1.00  0.00     0.160 C 
ATOM      9  C   UNL     1      13.716  45.108  17.910  1.00  0.00     0.035 C 
ENDBRANCH   7   8
ENDBRANCH   1   7
BRANCH   2  10
ATOM     10  O   UNL     1      11.875  41.607  17.878  1.00  0.00    -0.385 OA
ATOM     11  H   UNL     1      11.041  42.127  17.735  1.00  0.00     0.211 HD
ENDBRANCH   2  10
BRANCH   3  12
ATOM     12  O   UNL     1      11.986  39.544  19.943  1.00  0.00    -0.387 OA
ATOM     13  H   UNL     1      11.364  39.602  19.171  1.00  0.00     0.211 HD
ENDBRANCH   3  12
BRANCH   5  14
ATOM     14  C   UNL     1      15.185  42.476  22.346  1.00  0.00     0.191 C 
BRANCH  14  15
ATOM     15  O   UNL     1      15.557  43.829  22.376  1.00  0.00    -0.394 OA
ATOM     16  H   UNL     1      14.725  44.364  22.286  1.00  0.00     0.210 HD
ENDBRANCH  14  15
ENDBRANCH   5  14
BRANCH   4  17
ATOM     17  O   UNL     1      12.638  40.990  22.161  1.00  0.00    -0.387 OA
ATOM     18  H   UNL     1      11.808  40.536  21.863  1.00  0.00     0.211 HD
ENDBRANCH   4  17
TORSDOF 7
ENDMDL
MODEL 4
REMARK VINA RESULT:    -2.754      1.251      3.512
REMARK INTER + INTRA:          -3.414
REMARK INTER:                  -3.261
REMARK INTRA:                  -0.153
REMARK UNBOUND:                 0.145
REMARK SMILES CCO[C@@H]1O[C@@H](CO)[C@@H](O)[C@@H](O)[C@@H]1O
REMARK SMILES IDX 4 1 13 2 11 3 9 4 6 5 5 6 3 7 2 8 1 9 14 10 12 12 7 14 8 15
REMARK SMILES IDX 10 17
REMARK H PARENT 14 11 12 13 8 16 10 18
REMARK Flexibility Score: inf
ROOT
ATOM      1  C   UNL     1      13.544  43.068  19.994  1.00  0.00     0.281 C 
ATOM      2  C   UNL     1      12.511  42.327  19.120  1.00  0.00     0.202 C 
ATOM      3  C   UNL     1      12.917  40.851  18.927  1.00  0.00     0.179 C 
ATOM      4  C   UNL     1      13.265  40.198  20.278  1.00  0.00     0.177 C 
ATOM      5  C   UNL     1      14.264  41.096  21.050  1.00  0.00     0.178 C 
ATOM      6  O   UNL     1      13.739  42.402  21.237  1.00  0.00    -0.341 OA
ENDROOT
BRANCH   1   7
ATOM      7  O   UNL     1      14.765  43.219  19.286  1.00  0.00    -0.350 OA
BRANCH   7   8
ATOM      8  C   UNL     1      15.225  44.551  19.383  1.00  0.00     0.160 C 
ATOM      9  C   UNL     1      14.646  45.361  18.234  1.00  0.00     0.035 C 
ENDBRANCH   7   8
ENDBRANCH   1   7
BRANCH   2  10
ATOM     10  O   UNL     1      12.417  42.971  17.875  1.00  0.00    -0.385 OA
ATOM     11  H   UNL     1      11.699  42.511  17.365  1.00  0.00     0.211 HD
ENDBRANCH   2  10
BRANCH   3  12
ATOM     12  O   UNL     1      11.875  40.134  18.316  1.00  0.00    -0.387 OA
ATOM     13  H   UNL     1      11.910  40.340  17.346  1.00  0.00     0.211 HD
ENDBRANCH   3  12
BRANCH   5  14
ATOM     14  C   UNL     1      14.645  40.500  22.414  1.00  0.00     0.191 C 
BRANCH  14  15
ATOM     15  O   UNL     1      15.233  41.470  23.243  1.00  0.00    -0.394 OA
ATOM     16  H   UNL     1      15.433  42.259  22.674  1.00  0.00     0.210 HD
ENDBRANCH  14  15
ENDBRANCH   5  14
BRANCH   4  17
ATOM     17  O   UNL     1      12.103  39.923  21.025  1.00  0.00    -0.387 OA
ATOM     18  H   UNL     1      11.550  39.278  20.514  1.00  0.00     0.211 HD
ENDBRANCH   4  17
TORSDOF 7
ENDMDL
MODEL 5
REMARK VINA RESULT:    -2.503      1.316      3.666
REMARK INTER + INTRA:          -3.090
REMARK INTER:                  -4.002
REMARK INTRA:                   0.912
REMARK UNBOUND:                 0.145
REMARK SMILES CCO[C@@H]1O[C@@H](CO)[C@@H](O)[C@@H](O)[C@@H]1O
REMARK SMILES IDX 4 1 13 2 11 3 9 4 6 5 5 6 3 7 2 8 1 9 14 10 12 12 7 14 8 15
REMARK SMILES IDX 10 17
REMARK H PARENT 14 11 12 13 8 16 10 18
REMARK Flexibility Score: inf
ROOT
ATOM      1  C   UNL     1      12.597  42.088  20.083  1.00  0.00     0.281 C 
ATOM      2  C   UNL     1      12.975  41.480  21.449  1.00  0.00     0.202 C 
ATOM      3  C   UNL     1      14.498  41.246  21.540  1.00  0.00     0.179 C 
ATOM      4  C   UNL     1      15.272  42.507  21.113  1.00  0.00     0.177 C 
ATOM      5  C   UNL     1      14.730  43.019  19.755  1.00  0.00     0.178 C 
ATOM      6  O   UNL     1      13.335  43.277  19.826  1.00  0.00    -0.341 OA
ENDROOT
BRANCH   1   7
ATOM      7  O   UNL     1      12.780  41.128  19.053  1.00  0.00    -0.350 OA
BRANCH   7   8
ATOM      8  C   UNL     1      12.033  41.489  17.909  1.00  0.00     0.160 C 
ATOM      9  C   UNL     1      11.875  43.000  17.876  1.00  0.00     0.035 C 
ENDBRANCH   7   8
ENDBRANCH   1   7
BRANCH   2  10
ATOM     10  O   UNL     1      12.287  40.268  21.619  1.00  0.00    -0.385 OA
ATOM     11  H   UNL     1      11.338  40.438  21.384  1.00  0.00     0.211 HD
ENDBRANCH   2  10
BRANCH   3  12
ATOM     12  O   UNL     1      14.861  40.896  22.851  1.00  0.00    -0.387 OA
ATOM     13  H   UNL     1      14.019  40.764  23.361  1.00  0.00     0.211 HD
ENDBRANCH   3  12
BRANCH   5  14
ATOM     14  C   UNL     1      15.459  44.284  19.278  1.00  0.00     0.191 C 
BRANCH  14  15
ATOM     15  O   UNL     1      16.852  44.133  19.379  1.00  0.00    -0.394 OA
ATOM     16  H   UNL     1      17.242  45.044  19.435  1.00  0.00     0.210 HD
ENDBRANCH  14  15
ENDBRANCH   5  14
BRANCH   4  17
ATOM     17  O   UNL     1      15.226  43.496  22.115  1.00  0.00    -0.387 OA
ATOM     18  H   UNL     1      15.401  44.376  21.692  1.00  0.00     0.211 HD
ENDBRANCH   4  17
TORSDOF 7
ENDMDL
MODEL 6
REMARK VINA RESULT:    -2.400      1.648      4.661
REMARK INTER + INTRA:          -2.956
REMARK INTER:                  -2.839
REMARK INTRA:                  -0.117
REMARK UNBOUND:                 0.145
REMARK SMILES CCO[C@@H]1O[C@@H](CO)[C@@H](O)[C@@H](O)[C@@H]1O
REMARK SMILES IDX 4 1 13 2 11 3 9 4 6 5 5 6 3 7 2 8 1 9 14 10 12 12 7 14 8 15
REMARK SMILES IDX 10 17
REMARK H PARENT 14 11 12 13 8 16 10 18
REMARK Flexibility Score: inf
ROOT
ATOM      1  C   UNL     1      13.167  41.335  19.836  1.00  0.00     0.281 C 
ATOM      2  C   UNL     1      13.169  42.250  18.595  1.00  0.00     0.202 C 
ATOM      3  C   UNL     1      13.311  43.730  19.007  1.00  0.00     0.179 C 
ATOM      4  C   UNL     1      14.479  43.912  19.994  1.00  0.00     0.177 C 
ATOM      5  C   UNL     1      14.359  42.882  21.144  1.00  0.00     0.178 C 
ATOM      6  O   UNL     1      14.322  41.555  20.639  1.00  0.00    -0.341 OA
ENDROOT
BRANCH   1   7
ATOM      7  O   UNL     1      11.972  41.520  20.579  1.00  0.00    -0.350 OA
BRANCH   7   8
ATOM      8  C   UNL     1      11.875  40.548  21.600  1.00  0.00     0.160 C 
ATOM      9  C   UNL     1      11.954  39.164  20.977  1.00  0.00     0.035 C 
ENDBRANCH   7   8
ENDBRANCH   1   7
BRANCH   2  10
ATOM     10  O   UNL     1      11.974  42.059  17.881  1.00  0.00    -0.385 OA
ATOM     11  H   UNL     1      12.136  41.323  17.236  1.00  0.00     0.211 HD
ENDBRANCH   2  10
BRANCH   3  12
ATOM     12  O   UNL     1      13.525  44.534  17.875  1.00  0.00    -0.387 OA
ATOM     13  H   UNL     1      14.286  45.136  18.085  1.00  0.00     0.211 HD
ENDBRANCH   3  12
BRANCH   5  14
ATOM     14  C   UNL     1      15.504  43.008  22.160  1.00  0.00     0.191 C 
BRANCH  14  15
ATOM     15  O   UNL     1      15.596  44.319  22.657  1.00  0.00    -0.394 OA
ATOM     16  H   UNL     1      16.555  44.575  22.633  1.00  0.00     0.210 HD
ENDBRANCH  14  15
ENDBRANCH   5  14
BRANCH   4  17
ATOM     17  O   UNL     1      15.722  43.835  19.333  1.00  0.00    -0.387 OA
ATOM     18  H   UNL     1      16.391  44.331  19.870  1.00  0.00     0.211 HD
ENDBRANCH   4  17
TORSDOF 7
ENDMDL
MODEL 7
REMARK VINA RESULT:    -1.143      1.864      4.563
REMARK INTER + INTRA:          -1.332
REMARK INTER:                  -0.958
REMARK INTRA:                  -0.375
REMARK UNBOUND:                 0.145
REMARK SMILES CCO[C@@H]1O[C@@H](CO)[C@@H](O)[C@@H](O)[C@@H]1O
REMARK SMILES IDX 4 1 13 2 11 3 9 4 6 5 5 6 3 7 2 8 1 9 14 10 12 12 7 14 8 15
REMARK SMILES IDX 10 17
REMARK H PARENT 14 11 12 13 8 16 10 18
REMARK Flexibility Score: inf
ROOT
ATOM      1  C   UNL     1      14.041  41.793  19.597  1.00  0.00     0.281 C 
ATOM      2  C   UNL     1      13.152  42.529  18.573  1.00  0.00     0.202 C 
ATOM      3  C   UNL     1      13.048  44.029  18.919  1.00  0.00     0.179 C 
ATOM      4  C   UNL     1      14.443  44.630  19.171  1.00  0.00     0.177 C 
ATOM      5  C   UNL     1      15.222  43.742  20.172  1.00  0.00     0.178 C 
ATOM      6  O   UNL     1      15.322  42.406  19.700  1.00  0.00    -0.341 OA
ENDROOT
BRANCH   1   7
ATOM      7  O   UNL     1      13.390  41.731  20.856  1.00  0.00    -0.350 OA
BRANCH   7   8
ATOM      8  C   UNL     1      13.501  40.432  21.401  1.00  0.00     0.160 C 
ATOM      9  C   UNL     1      12.299  39.607  20.967  1.00  0.00     0.035 C 
ENDBRANCH   7   8
ENDBRANCH   1   7
BRANCH   2  10
ATOM     10  O   UNL     1      11.875  41.943  18.569  1.00  0.00    -0.385 OA
ATOM     11  H   UNL     1      12.003  40.969  18.714  1.00  0.00     0.211 HD
ENDBRANCH   2  10
BRANCH   3  12
ATOM     12  O   UNL     1      12.419  44.728  17.875  1.00  0.00    -0.387 OA
ATOM     13  H   UNL     1      12.955  45.546  17.709  1.00  0.00     0.211 HD
ENDBRANCH   3  12
BRANCH   5  14
ATOM     14  C   UNL     1      16.630  44.287  20.459  1.00  0.00     0.191 C 
BRANCH  14  15
ATOM     15  O   UNL     1      17.441  44.220  19.315  1.00  0.00    -0.394 OA
ATOM     16  H   UNL     1      16.984  43.623  18.666  1.00  0.00     0.210 HD
ENDBRANCH  14  15
ENDBRANCH   5  14
BRANCH   4  17
ATOM     17  O   UNL     1      15.143  44.817  17.963  1.00  0.00    -0.387 OA
ATOM     18  H   UNL     1      15.735  44.034  17.822  1.00  0.00     0.211 HD
ENDBRANCH   4  17
TORSDOF 7
ENDMDL
