MODEL 1
REMARK VINA RESULT:    -5.507      0.000      0.000
REMARK INTER + INTRA:          -5.990
REMARK INTER:                  -5.990
REMARK INTRA:                   0.000
REMARK UNBOUND:                 0.000
REMARK SMILES Cc1cc(O)c2c(c1)C(=O)c1cc(O)cc(O)c1C2=O
REMARK SMILES IDX 1 1 2 2 8 3 7 4 6 5 4 6 3 7 19 8 20 9 18 10 11 11 9 12 10 13
REMARK SMILES IDX 12 14 13 15 15 16 16 17 5 18 17 20 14 22
REMARK H PARENT 5 19 17 21 14 23
REMARK Flexibility Score: inf
ROOT
ATOM      1  C   UNL     1      36.505 -77.345  29.243  1.00  0.00     0.044 C 
ATOM      2  C   UNL     1      37.570 -77.358  30.301  1.00  0.00    -0.047 A 
ATOM      3  C   UNL     1      37.222 -77.259  31.653  1.00  0.00     0.016 A 
ATOM      4  C   UNL     1      38.213 -77.236  32.649  1.00  0.00     0.038 A 
ATOM      5  C   UNL     1      39.575 -77.291  32.285  1.00  0.00     0.076 A 
ATOM      6  C   UNL     1      39.923 -77.377  30.918  1.00  0.00     0.127 A 
ATOM      7  C   UNL     1      38.921 -77.402  29.940  1.00  0.00     0.050 A 
ATOM      8  C   UNL     1      40.612 -77.226  33.349  1.00  0.00     0.201 C 
ATOM      9  O   UNL     1      41.794 -76.913  33.044  1.00  0.00    -0.288 OA
ATOM     10  C   UNL     1      40.232 -77.413  34.777  1.00  0.00     0.076 A 
ATOM     11  C   UNL     1      38.867 -77.291  35.131  1.00  0.00     0.041 A 
ATOM     12  C   UNL     1      37.835 -77.147  34.077  1.00  0.00     0.194 C 
ATOM     13  O   UNL     1      36.627 -76.968  34.399  1.00  0.00    -0.289 OA
ATOM     14  C   UNL     1      38.491 -77.315  36.486  1.00  0.00     0.059 A 
ATOM     15  C   UNL     1      39.451 -77.477  37.486  1.00  0.00     0.120 A 
ATOM     16  C   UNL     1      40.790 -77.645  37.141  1.00  0.00     0.093 A 
ATOM     17  C   UNL     1      41.190 -77.652  35.801  1.00  0.00     0.131 A 
ENDROOT
BRANCH   6  18
ATOM     18  O   UNL     1      41.261 -77.447  30.527  1.00  0.00    -0.507 OA
ATOM     19  H   UNL     1      42.018 -77.290  31.183  1.00  0.00     0.293 HD
ENDBRANCH   6  18
BRANCH  17  20
ATOM     20  O   UNL     1      42.532 -77.934  35.537  1.00  0.00    -0.507 OA
ATOM     21  H   UNL     1      43.229 -78.067  36.255  1.00  0.00     0.293 HD
ENDBRANCH  17  20
BRANCH  15  22
ATOM     22  O   UNL     1      39.083 -77.484  38.830  1.00  0.00    -0.508 OA
ATOM     23  H   UNL     1      39.699 -77.851  39.547  1.00  0.00     0.293 HD
ENDBRANCH  15  22
TORSDOF 3
ENDMDL
MODEL 2
REMARK VINA RESULT:    -5.507     18.237     18.688
REMARK INTER + INTRA:          -5.990
REMARK INTER:                  -5.990
REMARK INTRA:                   0.000
REMARK UNBOUND:                 0.000
REMARK SMILES Cc1cc(O)c2c(c1)C(=O)c1cc(O)cc(O)c1C2=O
REMARK SMILES IDX 1 1 2 2 8 3 7 4 6 5 4 6 3 7 19 8 20 9 18 10 11 11 9 12 10 13
REMARK SMILES IDX 12 14 13 15 15 16 16 17 5 18 17 20 14 22
REMARK H PARENT 5 19 17 21 14 23
REMARK Flexibility Score: inf
ROOT
ATOM      1  C   UNL     1      42.297 -96.750  26.081  1.00  0.00     0.044 C 
ATOM      2  C   UNL     1      41.469 -96.340  27.264  1.00  0.00    -0.047 A 
ATOM      3  C   UNL     1      42.012 -96.380  28.553  1.00  0.00     0.016 A 
ATOM      4  C   UNL     1      41.235 -96.031  29.671  1.00  0.00     0.038 A 
ATOM      5  C   UNL     1      39.886 -95.656  29.498  1.00  0.00     0.076 A 
ATOM      6  C   UNL     1      39.337 -95.630  28.196  1.00  0.00     0.127 A 
ATOM      7  C   UNL     1      40.128 -95.978  27.094  1.00  0.00     0.050 A 
ATOM      8  C   UNL     1      39.066 -95.328  30.694  1.00  0.00     0.201 C 
ATOM      9  O   UNL     1      37.810 -95.347  30.609  1.00  0.00    -0.288 OA
ATOM     10  C   UNL     1      39.724 -95.095  32.011  1.00  0.00     0.076 A 
ATOM     11  C   UNL     1      41.058 -95.535  32.183  1.00  0.00     0.041 A 
ATOM     12  C   UNL     1      41.823 -96.061  31.029  1.00  0.00     0.194 C 
ATOM     13  O   UNL     1      42.987 -96.519  31.200  1.00  0.00    -0.289 OA
ATOM     14  C   UNL     1      41.659 -95.464  33.452  1.00  0.00     0.059 A 
ATOM     15  C   UNL     1      40.958 -94.946  34.543  1.00  0.00     0.120 A 
ATOM     16  C   UNL     1      39.661 -94.467  34.368  1.00  0.00     0.093 A 
ATOM     17  C   UNL     1      39.048 -94.500  33.112  1.00  0.00     0.131 A 
ENDROOT
BRANCH   6  18
ATOM     18  O   UNL     1      38.009 -95.250  27.991  1.00  0.00    -0.507 OA
ATOM     19  H   UNL     1      37.436 -94.888  28.744  1.00  0.00     0.293 HD
ENDBRANCH   6  18
BRANCH  17  20
ATOM     20  O   UNL     1      37.791 -93.902  33.000  1.00  0.00    -0.507 OA
ATOM     21  H   UNL     1      36.955 -94.398  32.726  1.00  0.00     0.293 HD
ENDBRANCH  17  20
BRANCH  15  22
ATOM     22  O   UNL     1      41.545 -94.891  35.805  1.00  0.00    -0.508 OA
ATOM     23  H   UNL     1      42.424 -94.411  35.960  1.00  0.00     0.293 HD
ENDBRANCH  15  22
TORSDOF 3
ENDMDL
MODEL 3
REMARK VINA RESULT:    -5.435      2.876      7.090
REMARK INTER + INTRA:          -5.911
REMARK INTER:                  -5.911
REMARK INTRA:                   0.000
REMARK UNBOUND:                 0.000
REMARK SMILES Cc1cc(O)c2c(c1)C(=O)c1cc(O)cc(O)c1C2=O
REMARK SMILES IDX 1 1 2 2 8 3 7 4 6 5 4 6 3 7 19 8 20 9 18 10 11 11 9 12 10 13
REMARK SMILES IDX 12 14 13 15 15 16 16 17 5 18 17 20 14 22
REMARK H PARENT 5 19 17 21 14 23
REMARK Flexibility Score: inf
ROOT
ATOM      1  C   UNL     1      38.892 -80.246  42.330  1.00  0.00     0.044 C 
ATOM      2  C   UNL     1      38.765 -79.638  40.964  1.00  0.00    -0.047 A 
ATOM      3  C   UNL     1      39.909 -79.281  40.242  1.00  0.00     0.016 A 
ATOM      4  C   UNL     1      39.800 -78.679  38.976  1.00  0.00     0.038 A 
ATOM      5  C   UNL     1      38.525 -78.411  38.434  1.00  0.00     0.076 A 
ATOM      6  C   UNL     1      37.372 -78.760  39.173  1.00  0.00     0.127 A 
ATOM      7  C   UNL     1      37.501 -79.362  40.431  1.00  0.00     0.050 A 
ATOM      8  C   UNL     1      38.427 -77.738  37.112  1.00  0.00     0.201 C 
ATOM      9  O   UNL     1      37.351 -77.174  36.782  1.00  0.00    -0.288 OA
ATOM     10  C   UNL     1      39.628 -77.631  36.236  1.00  0.00     0.076 A 
ATOM     11  C   UNL     1      40.903 -77.842  36.814  1.00  0.00     0.041 A 
ATOM     12  C   UNL     1      41.016 -78.320  38.212  1.00  0.00     0.194 C 
ATOM     13  O   UNL     1      42.153 -78.440  38.747  1.00  0.00    -0.289 OA
ATOM     14  C   UNL     1      42.063 -77.606  36.056  1.00  0.00     0.059 A 
ATOM     15  C   UNL     1      41.969 -77.180  34.729  1.00  0.00     0.120 A 
ATOM     16  C   UNL     1      40.717 -77.017  34.140  1.00  0.00     0.093 A 
ATOM     17  C   UNL     1      39.547 -77.270  34.863  1.00  0.00     0.131 A 
ENDROOT
BRANCH   6  18
ATOM     18  O   UNL     1      36.097 -78.520  38.658  1.00  0.00    -0.507 OA
ATOM     19  H   UNL     1      35.942 -78.364  37.668  1.00  0.00     0.293 HD
ENDBRANCH   6  18
BRANCH  17  20
ATOM     20  O   UNL     1      38.338 -77.187  34.168  1.00  0.00    -0.507 OA
ATOM     21  H   UNL     1      37.989 -77.913  33.559  1.00  0.00     0.293 HD
ENDBRANCH  17  20
BRANCH  15  22
ATOM     22  O   UNL     1      43.117 -76.929  33.981  1.00  0.00    -0.508 OA
ATOM     23  H   UNL     1      44.035 -76.904  34.410  1.00  0.00     0.293 HD
ENDBRANCH  15  22
TORSDOF 3
ENDMDL
MODEL 4
REMARK VINA RESULT:    -5.417      3.348      7.372
REMARK INTER + INTRA:          -5.892
REMARK INTER:                  -5.892
REMARK INTRA:                   0.000
REMARK UNBOUND:                 0.000
REMARK SMILES Cc1cc(O)c2c(c1)C(=O)c1cc(O)cc(O)c1C2=O
REMARK SMILES IDX 1 1 2 2 8 3 7 4 6 5 4 6 3 7 19 8 20 9 18 10 11 11 9 12 10 13
REMARK SMILES IDX 12 14 13 15 15 16 16 17 5 18 17 20 14 22
REMARK H PARENT 5 19 17 21 14 23
REMARK Flexibility Score: inf
ROOT
ATOM      1  C   UNL     1      42.590 -78.988  39.749  1.00  0.00     0.044 C 
ATOM      2  C   UNL     1      41.132 -78.944  39.396  1.00  0.00    -0.047 A 
ATOM      3  C   UNL     1      40.715 -78.365  38.193  1.00  0.00     0.016 A 
ATOM      4  C   UNL     1      39.349 -78.288  37.869  1.00  0.00     0.038 A 
ATOM      5  C   UNL     1      38.384 -78.781  38.774  1.00  0.00     0.076 A 
ATOM      6  C   UNL     1      38.810 -79.353  39.995  1.00  0.00     0.127 A 
ATOM      7  C   UNL     1      40.176 -79.423  40.298  1.00  0.00     0.050 A 
ATOM      8  C   UNL     1      36.942 -78.657  38.434  1.00  0.00     0.201 C 
ATOM      9  O   UNL     1      36.080 -78.748  39.348  1.00  0.00    -0.288 OA
ATOM     10  C   UNL     1      36.528 -78.310  37.046  1.00  0.00     0.076 A 
ATOM     11  C   UNL     1      37.496 -77.759  36.173  1.00  0.00     0.041 A 
ATOM     12  C   UNL     1      38.917 -77.688  36.587  1.00  0.00     0.194 C 
ATOM     13  O   UNL     1      39.765 -77.132  35.836  1.00  0.00    -0.289 OA
ATOM     14  C   UNL     1      37.108 -77.286  34.907  1.00  0.00     0.059 A 
ATOM     15  C   UNL     1      35.777 -77.371  34.495  1.00  0.00     0.120 A 
ATOM     16  C   UNL     1      34.828 -77.956  35.331  1.00  0.00     0.093 A 
ATOM     17  C   UNL     1      35.191 -78.460  36.584  1.00  0.00     0.131 A 
ENDROOT
BRANCH   6  18
ATOM     18  O   UNL     1      37.881 -79.861  40.904  1.00  0.00    -0.507 OA
ATOM     19  H   UNL     1      37.333 -79.253  41.503  1.00  0.00     0.293 HD
ENDBRANCH   6  18
BRANCH  17  20
ATOM     20  O   UNL     1      34.204 -79.127  37.313  1.00  0.00    -0.507 OA
ATOM     21  H   UNL     1      33.570 -78.667  37.950  1.00  0.00     0.293 HD
ENDBRANCH  17  20
BRANCH  15  22
ATOM     22  O   UNL     1      35.387 -76.887  33.248  1.00  0.00    -0.508 OA
ATOM     23  H   UNL     1      35.487 -77.445  32.408  1.00  0.00     0.293 HD
ENDBRANCH  15  22
TORSDOF 3
ENDMDL
MODEL 5
REMARK VINA RESULT:    -5.275      3.817      6.928
REMARK INTER + INTRA:          -5.738
REMARK INTER:                  -5.738
REMARK INTRA:                   0.000
REMARK UNBOUND:                 0.000
REMARK SMILES Cc1cc(O)c2c(c1)C(=O)c1cc(O)cc(O)c1C2=O
REMARK SMILES IDX 1 1 2 2 8 3 7 4 6 5 4 6 3 7 19 8 20 9 18 10 11 11 9 12 10 13
REMARK SMILES IDX 12 14 13 15 15 16 16 17 5 18 17 20 14 22
REMARK H PARENT 5 19 17 21 14 23
REMARK Flexibility Score: inf
ROOT
ATOM      1  C   UNL     1      43.124 -77.247  41.846  1.00  0.00     0.044 C 
ATOM      2  C   UNL     1      42.281 -77.357  40.609  1.00  0.00    -0.047 A 
ATOM      3  C   UNL     1      40.961 -77.811  40.694  1.00  0.00     0.016 A 
ATOM      4  C   UNL     1      40.173 -77.951  39.538  1.00  0.00     0.038 A 
ATOM      5  C   UNL     1      40.724 -77.651  38.274  1.00  0.00     0.076 A 
ATOM      6  C   UNL     1      42.063 -77.206  38.191  1.00  0.00     0.127 A 
ATOM      7  C   UNL     1      42.831 -77.070  39.355  1.00  0.00     0.050 A 
ATOM      8  C   UNL     1      39.891 -77.841  37.057  1.00  0.00     0.201 C 
ATOM      9  O   UNL     1      40.449 -77.932  35.932  1.00  0.00    -0.288 OA
ATOM     10  C   UNL     1      38.420 -78.042  37.181  1.00  0.00     0.076 A 
ATOM     11  C   UNL     1      37.895 -78.403  38.445  1.00  0.00     0.041 A 
ATOM     12  C   UNL     1      38.772 -78.417  39.639  1.00  0.00     0.194 C 
ATOM     13  O   UNL     1      38.318 -78.808  40.750  1.00  0.00    -0.289 OA
ATOM     14  C   UNL     1      36.536 -78.743  38.567  1.00  0.00     0.059 A 
ATOM     15  C   UNL     1      35.693 -78.709  37.454  1.00  0.00     0.120 A 
ATOM     16  C   UNL     1      36.194 -78.307  36.217  1.00  0.00     0.093 A 
ATOM     17  C   UNL     1      37.535 -77.938  36.073  1.00  0.00     0.131 A 
ENDROOT
BRANCH   6  18
ATOM     18  O   UNL     1      42.632 -76.888  36.956  1.00  0.00    -0.507 OA
ATOM     19  H   UNL     1      43.581 -76.538  36.880  1.00  0.00     0.293 HD
ENDBRANCH   6  18
BRANCH  17  20
ATOM     20  O   UNL     1      37.930 -77.445  34.827  1.00  0.00    -0.507 OA
ATOM     21  H   UNL     1      37.410 -77.592  33.974  1.00  0.00     0.293 HD
ENDBRANCH  17  20
BRANCH  15  22
ATOM     22  O   UNL     1      34.350 -79.061  37.569  1.00  0.00    -0.508 OA
ATOM     23  H   UNL     1      33.757 -78.663  38.288  1.00  0.00     0.293 HD
ENDBRANCH  15  22
TORSDOF 3
ENDMDL
MODEL 6
REMARK VINA RESULT:    -5.224      1.981      6.169
REMARK INTER + INTRA:          -5.682
REMARK INTER:                  -5.682
REMARK INTRA:                   0.000
REMARK UNBOUND:                 0.000
REMARK SMILES Cc1cc(O)c2c(c1)C(=O)c1cc(O)cc(O)c1C2=O
REMARK SMILES IDX 1 1 2 2 8 3 7 4 6 5 4 6 3 7 19 8 20 9 18 10 11 11 9 12 10 13
REMARK SMILES IDX 12 14 13 15 15 16 16 17 5 18 17 20 14 22
REMARK H PARENT 5 19 17 21 14 23
REMARK Flexibility Score: inf
ROOT
ATOM      1  C   UNL     1      37.020 -78.571  39.647  1.00  0.00     0.044 C 
ATOM      2  C   UNL     1      36.907 -78.338  38.169  1.00  0.00    -0.047 A 
ATOM      3  C   UNL     1      38.048 -78.049  37.412  1.00  0.00     0.016 A 
ATOM      4  C   UNL     1      37.950 -77.796  36.033  1.00  0.00     0.038 A 
ATOM      5  C   UNL     1      36.686 -77.812  35.405  1.00  0.00     0.076 A 
ATOM      6  C   UNL     1      35.534 -78.092  36.176  1.00  0.00     0.127 A 
ATOM      7  C   UNL     1      35.653 -78.344  37.549  1.00  0.00     0.050 A 
ATOM      8  C   UNL     1      36.594 -77.504  33.954  1.00  0.00     0.201 C 
ATOM      9  O   UNL     1      35.487 -77.162  33.462  1.00  0.00    -0.288 OA
ATOM     10  C   UNL     1      37.825 -77.487  33.113  1.00  0.00     0.076 A 
ATOM     11  C   UNL     1      39.080 -77.407  33.761  1.00  0.00     0.041 A 
ATOM     12  C   UNL     1      39.164 -77.507  35.237  1.00  0.00     0.194 C 
ATOM     13  O   UNL     1      40.276 -77.364  35.817  1.00  0.00    -0.289 OA
ATOM     14  C   UNL     1      40.251 -77.240  33.000  1.00  0.00     0.059 A 
ATOM     15  C   UNL     1      40.188 -77.171  31.607  1.00  0.00     0.120 A 
ATOM     16  C   UNL     1      38.960 -77.297  30.962  1.00  0.00     0.093 A 
ATOM     17  C   UNL     1      37.783 -77.490  31.691  1.00  0.00     0.131 A 
ENDROOT
BRANCH   6  18
ATOM     18  O   UNL     1      34.272 -78.128  35.582  1.00  0.00    -0.507 OA
ATOM     19  H   UNL     1      33.422 -78.154  36.134  1.00  0.00     0.293 HD
ENDBRANCH   6  18
BRANCH  17  20
ATOM     20  O   UNL     1      36.612 -77.715  30.965  1.00  0.00    -0.507 OA
ATOM     21  H   UNL     1      36.461 -78.524  30.381  1.00  0.00     0.293 HD
ENDBRANCH  17  20
BRANCH  15  22
ATOM     22  O   UNL     1      41.345 -76.989  30.852  1.00  0.00    -0.508 OA
ATOM     23  H   UNL     1      41.745 -76.069  30.708  1.00  0.00     0.293 HD
ENDBRANCH  15  22
TORSDOF 3
ENDMDL
MODEL 7
REMARK VINA RESULT:    -5.177      1.475      2.247
REMARK INTER + INTRA:          -5.631
REMARK INTER:                  -5.631
REMARK INTRA:                   0.000
REMARK UNBOUND:                 0.000
REMARK SMILES Cc1cc(O)c2c(c1)C(=O)c1cc(O)cc(O)c1C2=O
REMARK SMILES IDX 1 1 2 2 8 3 7 4 6 5 4 6 3 7 19 8 20 9 18 10 11 11 9 12 10 13
REMARK SMILES IDX 12 14 13 15 15 16 16 17 5 18 17 20 14 22
REMARK H PARENT 5 19 17 21 14 23
REMARK Flexibility Score: inf
ROOT
ATOM      1  C   UNL     1      38.992 -77.246  29.258  1.00  0.00     0.044 C 
ATOM      2  C   UNL     1      39.226 -77.316  30.739  1.00  0.00    -0.047 A 
ATOM      3  C   UNL     1      38.142 -77.348  31.623  1.00  0.00     0.016 A 
ATOM      4  C   UNL     1      38.350 -77.379  33.013  1.00  0.00     0.038 A 
ATOM      5  C   UNL     1      39.665 -77.357  33.527  1.00  0.00     0.076 A 
ATOM      6  C   UNL     1      40.757 -77.311  32.630  1.00  0.00     0.127 A 
ATOM      7  C   UNL     1      40.529 -77.283  31.248  1.00  0.00     0.050 A 
ATOM      8  C   UNL     1      39.867 -77.351  35.000  1.00  0.00     0.201 C 
ATOM      9  O   UNL     1      40.972 -76.973  35.472  1.00  0.00    -0.288 OA
ATOM     10  C   UNL     1      38.734 -77.675  35.912  1.00  0.00     0.076 A 
ATOM     11  C   UNL     1      37.418 -77.630  35.392  1.00  0.00     0.041 A 
ATOM     12  C   UNL     1      37.198 -77.429  33.941  1.00  0.00     0.194 C 
ATOM     13  O   UNL     1      36.023 -77.318  33.491  1.00  0.00    -0.289 OA
ATOM     14  C   UNL     1      36.320 -77.786  36.255  1.00  0.00     0.059 A 
ATOM     15  C   UNL     1      36.514 -78.002  37.621  1.00  0.00     0.120 A 
ATOM     16  C   UNL     1      37.808 -78.095  38.130  1.00  0.00     0.093 A 
ATOM     17  C   UNL     1      38.919 -77.971  37.291  1.00  0.00     0.131 A 
ENDROOT
BRANCH   6  18
ATOM     18  O   UNL     1      42.068 -77.302  33.107  1.00  0.00    -0.507 OA
ATOM     19  H   UNL     1      42.277 -77.361  34.098  1.00  0.00     0.293 HD
ENDBRANCH   6  18
BRANCH  17  20
ATOM     20  O   UNL     1      40.176 -78.184  37.861  1.00  0.00    -0.507 OA
ATOM     21  H   UNL     1      40.326 -78.708  38.711  1.00  0.00     0.293 HD
ENDBRANCH  17  20
BRANCH  15  22
ATOM     22  O   UNL     1      35.427 -78.140  38.481  1.00  0.00    -0.508 OA
ATOM     23  H   UNL     1      35.528 -78.034  39.484  1.00  0.00     0.293 HD
ENDBRANCH  15  22
TORSDOF 3
ENDMDL
MODEL 8
REMARK VINA RESULT:    -5.091      2.796      4.249
REMARK INTER + INTRA:          -5.537
REMARK INTER:                  -5.537
REMARK INTRA:                   0.000
REMARK UNBOUND:                 0.000
REMARK SMILES Cc1cc(O)c2c(c1)C(=O)c1cc(O)cc(O)c1C2=O
REMARK SMILES IDX 1 1 2 2 8 3 7 4 6 5 4 6 3 7 19 8 20 9 18 10 11 11 9 12 10 13
REMARK SMILES IDX 12 14 13 15 15 16 16 17 5 18 17 20 14 22
REMARK H PARENT 5 19 17 21 14 23
REMARK Flexibility Score: inf
ROOT
ATOM      1  C   UNL     1      34.798 -77.366  33.628  1.00  0.00     0.044 C 
ATOM      2  C   UNL     1      35.990 -77.518  34.526  1.00  0.00    -0.047 A 
ATOM      3  C   UNL     1      35.829 -77.965  35.842  1.00  0.00     0.016 A 
ATOM      4  C   UNL     1      36.935 -78.078  36.702  1.00  0.00     0.038 A 
ATOM      5  C   UNL     1      38.220 -77.717  36.244  1.00  0.00     0.076 A 
ATOM      6  C   UNL     1      38.376 -77.253  34.918  1.00  0.00     0.127 A 
ATOM      7  C   UNL     1      37.263 -77.150  34.075  1.00  0.00     0.050 A 
ATOM      8  C   UNL     1      39.373 -77.806  37.179  1.00  0.00     0.201 C 
ATOM      9  O   UNL     1      40.428 -77.166  36.923  1.00  0.00    -0.288 OA
ATOM     10  C   UNL     1      39.240 -78.548  38.463  1.00  0.00     0.076 A 
ATOM     11  C   UNL     1      37.940 -78.845  38.937  1.00  0.00     0.041 A 
ATOM     12  C   UNL     1      36.757 -78.568  38.087  1.00  0.00     0.194 C 
ATOM     13  O   UNL     1      35.596 -78.768  38.540  1.00  0.00    -0.289 OA
ATOM     14  C   UNL     1      37.772 -79.412  40.212  1.00  0.00     0.059 A 
ATOM     15  C   UNL     1      38.879 -79.703  41.011  1.00  0.00     0.120 A 
ATOM     16  C   UNL     1      40.164 -79.457  40.531  1.00  0.00     0.093 A 
ATOM     17  C   UNL     1      40.362 -78.918  39.256  1.00  0.00     0.131 A 
ENDROOT
BRANCH   6  18
ATOM     18  O   UNL     1      39.636 -76.901  34.432  1.00  0.00    -0.507 OA
ATOM     19  H   UNL     1      39.850 -75.955  34.137  1.00  0.00     0.293 HD
ENDBRANCH   6  18
BRANCH  17  20
ATOM     20  O   UNL     1      41.680 -78.803  38.809  1.00  0.00    -0.507 OA
ATOM     21  H   UNL     1      42.454 -78.548  39.404  1.00  0.00     0.293 HD
ENDBRANCH  17  20
BRANCH  15  22
ATOM     22  O   UNL     1      38.715 -80.249  42.282  1.00  0.00    -0.508 OA
ATOM     23  H   UNL     1      38.995 -81.200  42.491  1.00  0.00     0.293 HD
ENDBRANCH  15  22
TORSDOF 3
ENDMDL
MODEL 9
REMARK VINA RESULT:    -4.998     18.141     18.379
REMARK INTER + INTRA:          -5.437
REMARK INTER:                  -5.437
REMARK INTRA:                   0.000
REMARK UNBOUND:                 0.000
REMARK SMILES Cc1cc(O)c2c(c1)C(=O)c1cc(O)cc(O)c1C2=O
REMARK SMILES IDX 1 1 2 2 8 3 7 4 6 5 4 6 3 7 19 8 20 9 18 10 11 11 9 12 10 13
REMARK SMILES IDX 12 14 13 15 15 16 16 17 5 18 17 20 14 22
REMARK H PARENT 5 19 17 21 14 23
REMARK Flexibility Score: inf
ROOT
ATOM      1  C   UNL     1      34.070 -95.503  29.216  1.00  0.00     0.044 C 
ATOM      2  C   UNL     1      35.538 -95.596  29.515  1.00  0.00    -0.047 A 
ATOM      3  C   UNL     1      36.027 -95.218  30.770  1.00  0.00     0.016 A 
ATOM      4  C   UNL     1      37.404 -95.268  31.049  1.00  0.00     0.038 A 
ATOM      5  C   UNL     1      38.308 -95.683  30.048  1.00  0.00     0.076 A 
ATOM      6  C   UNL     1      37.811 -96.051  28.777  1.00  0.00     0.127 A 
ATOM      7  C   UNL     1      36.435 -95.997  28.519  1.00  0.00     0.050 A 
ATOM      8  C   UNL     1      39.764 -95.693  30.347  1.00  0.00     0.201 C 
ATOM      9  O   UNL     1      40.592 -95.704  29.397  1.00  0.00    -0.288 OA
ATOM     10  C   UNL     1      40.241 -95.572  31.753  1.00  0.00     0.076 A 
ATOM     11  C   UNL     1      39.336 -95.094  32.731  1.00  0.00     0.041 A 
ATOM     12  C   UNL     1      37.911 -94.882  32.385  1.00  0.00     0.194 C 
ATOM     13  O   UNL     1      37.122 -94.389  33.239  1.00  0.00    -0.289 OA
ATOM     14  C   UNL     1      39.791 -94.828  34.034  1.00  0.00     0.059 A 
ATOM     15  C   UNL     1      41.125 -95.048  34.379  1.00  0.00     0.120 A 
ATOM     16  C   UNL     1      42.010 -95.564  33.434  1.00  0.00     0.093 A 
ATOM     17  C   UNL     1      41.579 -95.862  32.138  1.00  0.00     0.131 A 
ENDROOT
BRANCH   6  18
ATOM     18  O   UNL     1      38.678 -96.478  27.770  1.00  0.00    -0.507 OA
ATOM     19  H   UNL     1      38.368 -96.595  26.812  1.00  0.00     0.293 HD
ENDBRANCH   6  18
BRANCH  17  20
ATOM     20  O   UNL     1      42.499 -96.476  31.286  1.00  0.00    -0.507 OA
ATOM     21  H   UNL     1      42.276 -97.258  30.687  1.00  0.00     0.293 HD
ENDBRANCH  17  20
BRANCH  15  22
ATOM     22  O   UNL     1      41.582 -94.769  35.666  1.00  0.00    -0.508 OA
ATOM     23  H   UNL     1      41.614 -95.484  36.384  1.00  0.00     0.293 HD
ENDBRANCH  15  22
TORSDOF 3
ENDMDL
