MODEL 1
REMARK VINA RESULT:    -5.229      0.000      0.000
REMARK INTER + INTRA:          -6.091
REMARK INTER:                  -5.994
REMARK INTRA:                  -0.097
REMARK UNBOUND:                -0.097
REMARK SMILES COc1cc(C(=O)[O-])ccc1O
REMARK SMILES IDX 5 1 9 2 4 3 10 4 3 5 11 6 6 7 7 8 8 9 2 10 1 11 12 12
REMARK H PARENT 12 13
REMARK Flexibility Score: inf
ROOT
ATOM      1  C   UNL     1     308.124 223.283 204.394  1.00  0.00     0.001 A 
ATOM      2  C   UNL     1     309.338 222.858 203.832  1.00  0.00     0.014 A 
ATOM      3  C   UNL     1     307.929 224.653 204.647  1.00  0.00     0.060 A 
ATOM      4  C   UNL     1     310.338 223.783 203.527  1.00  0.00     0.051 A 
ATOM      5  C   UNL     1     308.937 225.592 204.342  1.00  0.00     0.161 A 
ATOM      6  C   UNL     1     310.146 225.145 203.778  1.00  0.00     0.157 A 
ENDROOT
BRANCH   1   7
ATOM      7  C   UNL     1     307.067 222.298 204.714  1.00  0.00     0.072 C 
ATOM      8  O   UNL     1     305.880 222.485 204.335  1.00  0.00    -0.545 OA
ATOM      9  O   UNL     1     307.370 221.150 205.438  1.00  0.00    -0.545 OA
ENDBRANCH   1   7
BRANCH   5  10
ATOM     10  O   UNL     1     308.771 226.965 204.583  1.00  0.00    -0.493 OA
ATOM     11  C   UNL     1     307.948 227.830 203.807  1.00  0.00     0.278 C 
ENDBRANCH   5  10
BRANCH   6  12
ATOM     12  O   UNL     1     311.167 226.039 203.461  1.00  0.00    -0.504 OA
ATOM     13  H   UNL     1     311.420 226.255 202.504  1.00  0.00     0.293 HD
ENDBRANCH   6  12
TORSDOF 3
ENDMDL
MODEL 2
REMARK VINA RESULT:    -4.927      1.430      4.134
REMARK INTER + INTRA:          -5.744
REMARK INTER:                  -5.661
REMARK INTRA:                  -0.084
REMARK UNBOUND:                -0.097
REMARK SMILES COc1cc(C(=O)[O-])ccc1O
REMARK SMILES IDX 5 1 9 2 4 3 10 4 3 5 11 6 6 7 7 8 8 9 2 10 1 11 12 12
REMARK H PARENT 12 13
REMARK Flexibility Score: inf
ROOT
ATOM      1  C   UNL     1     308.474 224.967 204.487  1.00  0.00     0.001 A 
ATOM      2  C   UNL     1     309.646 224.888 203.718  1.00  0.00     0.014 A 
ATOM      3  C   UNL     1     307.835 223.779 204.884  1.00  0.00     0.060 A 
ATOM      4  C   UNL     1     310.170 223.647 203.353  1.00  0.00     0.051 A 
ATOM      5  C   UNL     1     308.359 222.521 204.518  1.00  0.00     0.161 A 
ATOM      6  C   UNL     1     309.535 222.465 203.747  1.00  0.00     0.157 A 
ENDROOT
BRANCH   1   7
ATOM      7  C   UNL     1     307.923 226.285 204.871  1.00  0.00     0.072 C 
ATOM      8  O   UNL     1     308.224 227.321 204.218  1.00  0.00    -0.545 OA
ATOM      9  O   UNL     1     307.064 226.402 205.957  1.00  0.00    -0.545 OA
ENDBRANCH   1   7
BRANCH   5  10
ATOM     10  O   UNL     1     307.743 221.319 204.899  1.00  0.00    -0.493 OA
ATOM     11  C   UNL     1     306.335 221.122 204.982  1.00  0.00     0.278 C 
ENDBRANCH   5  10
BRANCH   6  12
ATOM     12  O   UNL     1     310.088 221.244 203.364  1.00  0.00    -0.504 OA
ATOM     13  H   UNL     1     311.085 221.118 203.235  1.00  0.00     0.293 HD
ENDBRANCH   6  12
TORSDOF 3
ENDMDL
MODEL 3
REMARK VINA RESULT:    -4.652      2.099      3.512
REMARK INTER + INTRA:          -5.429
REMARK INTER:                  -5.356
REMARK INTRA:                  -0.074
REMARK UNBOUND:                -0.097
REMARK SMILES COc1cc(C(=O)[O-])ccc1O
REMARK SMILES IDX 5 1 9 2 4 3 10 4 3 5 11 6 6 7 7 8 8 9 2 10 1 11 12 12
REMARK H PARENT 12 13
REMARK Flexibility Score: inf
ROOT
ATOM      1  C   UNL     1     307.712 224.405 204.863  1.00  0.00     0.001 A 
ATOM      2  C   UNL     1     307.303 223.066 204.962  1.00  0.00     0.014 A 
ATOM      3  C   UNL     1     308.946 224.700 204.257  1.00  0.00     0.060 A 
ATOM      4  C   UNL     1     308.110 222.041 204.464  1.00  0.00     0.051 A 
ATOM      5  C   UNL     1     309.766 223.670 203.752  1.00  0.00     0.161 A 
ATOM      6  C   UNL     1     309.337 222.334 203.861  1.00  0.00     0.157 A 
ENDROOT
BRANCH   1   7
ATOM      7  C   UNL     1     306.852 225.486 205.393  1.00  0.00     0.072 C 
ATOM      8  O   UNL     1     306.922 225.826 206.604  1.00  0.00    -0.545 OA
ATOM      9  O   UNL     1     305.954 226.145 204.560  1.00  0.00    -0.545 OA
ENDBRANCH   1   7
BRANCH   5  10
ATOM     10  O   UNL     1     311.002 223.934 203.143  1.00  0.00    -0.493 OA
ATOM     11  C   UNL     1     311.735 225.147 203.291  1.00  0.00     0.278 C 
ENDBRANCH   5  10
BRANCH   6  12
ATOM     12  O   UNL     1     310.116 221.285 203.376  1.00  0.00    -0.504 OA
ATOM     13  H   UNL     1     311.056 221.111 203.710  1.00  0.00     0.293 HD
ENDBRANCH   6  12
TORSDOF 3
ENDMDL
MODEL 4
REMARK VINA RESULT:    -4.604      1.076      2.423
REMARK INTER + INTRA:          -5.374
REMARK INTER:                  -5.304
REMARK INTRA:                  -0.070
REMARK UNBOUND:                -0.097
REMARK SMILES COc1cc(C(=O)[O-])ccc1O
REMARK SMILES IDX 5 1 9 2 4 3 10 4 3 5 11 6 6 7 7 8 8 9 2 10 1 11 12 12
REMARK H PARENT 12 13
REMARK Flexibility Score: inf
ROOT
ATOM      1  C   UNL     1     307.612 223.355 204.705  1.00  0.00     0.001 A 
ATOM      2  C   UNL     1     307.089 224.510 205.308  1.00  0.00     0.014 A 
ATOM      3  C   UNL     1     308.725 223.471 203.854  1.00  0.00     0.060 A 
ATOM      4  C   UNL     1     307.667 225.757 205.065  1.00  0.00     0.051 A 
ATOM      5  C   UNL     1     309.313 224.729 203.604  1.00  0.00     0.161 A 
ATOM      6  C   UNL     1     308.773 225.874 204.219  1.00  0.00     0.157 A 
ENDROOT
BRANCH   1   7
ATOM      7  C   UNL     1     306.995 222.035 204.966  1.00  0.00     0.072 C 
ATOM      8  O   UNL     1     305.875 221.741 204.469  1.00  0.00    -0.545 OA
ATOM      9  O   UNL     1     307.644 221.099 205.763  1.00  0.00    -0.545 OA
ENDBRANCH   1   7
BRANCH   5  10
ATOM     10  O   UNL     1     310.424 224.876 202.759  1.00  0.00    -0.493 OA
ATOM     11  C   UNL     1     311.779 224.873 203.195  1.00  0.00     0.278 C 
ENDBRANCH   5  10
BRANCH   6  12
ATOM     12  O   UNL     1     309.324 227.136 204.000  1.00  0.00    -0.504 OA
ATOM     13  H   UNL     1     309.209 227.631 203.124  1.00  0.00     0.293 HD
ENDBRANCH   6  12
TORSDOF 3
ENDMDL
MODEL 5
REMARK VINA RESULT:    -4.586      1.385      3.992
REMARK INTER + INTRA:          -5.354
REMARK INTER:                  -5.274
REMARK INTRA:                  -0.080
REMARK UNBOUND:                -0.097
REMARK SMILES COc1cc(C(=O)[O-])ccc1O
REMARK SMILES IDX 5 1 9 2 4 3 10 4 3 5 11 6 6 7 7 8 8 9 2 10 1 11 12 12
REMARK H PARENT 12 13
REMARK Flexibility Score: inf
ROOT
ATOM      1  C   UNL     1     309.563 224.404 203.895  1.00  0.00     0.001 A 
ATOM      2  C   UNL     1     309.542 223.001 203.917  1.00  0.00     0.014 A 
ATOM      3  C   UNL     1     308.401 225.112 204.250  1.00  0.00     0.060 A 
ATOM      4  C   UNL     1     308.383 222.317 204.289  1.00  0.00     0.051 A 
ATOM      5  C   UNL     1     307.226 224.427 204.625  1.00  0.00     0.161 A 
ATOM      6  C   UNL     1     307.227 223.020 204.642  1.00  0.00     0.157 A 
ENDROOT
BRANCH   1   7
ATOM      7  C   UNL     1     310.795 225.123 203.500  1.00  0.00     0.072 C 
ATOM      8  O   UNL     1     310.939 226.345 203.773  1.00  0.00    -0.545 OA
ATOM      9  O   UNL     1     311.812 224.459 202.824  1.00  0.00    -0.545 OA
ENDBRANCH   1   7
BRANCH   5  10
ATOM     10  O   UNL     1     306.052 225.106 204.984  1.00  0.00    -0.493 OA
ATOM     11  C   UNL     1     305.950 226.517 205.144  1.00  0.00     0.278 C 
ENDBRANCH   5  10
BRANCH   6  12
ATOM     12  O   UNL     1     306.088 222.303 205.007  1.00  0.00    -0.504 OA
ATOM     13  H   UNL     1     305.695 221.577 204.420  1.00  0.00     0.293 HD
ENDBRANCH   6  12
TORSDOF 3
ENDMDL
MODEL 6
REMARK VINA RESULT:    -4.369      1.228      4.890
REMARK INTER + INTRA:          -5.105
REMARK INTER:                  -5.024
REMARK INTRA:                  -0.081
REMARK UNBOUND:                -0.097
REMARK SMILES COc1cc(C(=O)[O-])ccc1O
REMARK SMILES IDX 5 1 9 2 4 3 10 4 3 5 11 6 6 7 7 8 8 9 2 10 1 11 12 12
REMARK H PARENT 12 13
REMARK Flexibility Score: inf
ROOT
ATOM      1  C   UNL     1     309.314 225.062 204.306  1.00  0.00     0.001 A 
ATOM      2  C   UNL     1     308.077 225.496 204.808  1.00  0.00     0.014 A 
ATOM      3  C   UNL     1     309.536 223.684 204.131  1.00  0.00     0.060 A 
ATOM      4  C   UNL     1     307.080 224.573 205.128  1.00  0.00     0.051 A 
ATOM      5  C   UNL     1     308.533 222.746 204.453  1.00  0.00     0.161 A 
ATOM      6  C   UNL     1     307.300 223.203 204.954  1.00  0.00     0.157 A 
ENDROOT
BRANCH   1   7
ATOM      7  C   UNL     1     310.366 226.045 203.969  1.00  0.00     0.072 C 
ATOM      8  O   UNL     1     310.124 227.282 204.004  1.00  0.00    -0.545 OA
ATOM      9  O   UNL     1     311.640 225.620 203.610  1.00  0.00    -0.545 OA
ENDBRANCH   1   7
BRANCH   5  10
ATOM     10  O   UNL     1     308.726 221.365 204.290  1.00  0.00    -0.493 OA
ATOM     11  C   UNL     1     309.727 220.780 203.464  1.00  0.00     0.278 C 
ENDBRANCH   5  10
BRANCH   6  12
ATOM     12  O   UNL     1     306.281 222.310 205.285  1.00  0.00    -0.504 OA
ATOM     13  H   UNL     1     306.470 221.396 205.677  1.00  0.00     0.293 HD
ENDBRANCH   6  12
TORSDOF 3
ENDMDL
MODEL 7
REMARK VINA RESULT:    -4.323      1.998      3.731
REMARK INTER + INTRA:          -5.052
REMARK INTER:                  -4.974
REMARK INTRA:                  -0.078
REMARK UNBOUND:                -0.097
REMARK SMILES COc1cc(C(=O)[O-])ccc1O
REMARK SMILES IDX 5 1 9 2 4 3 10 4 3 5 11 6 6 7 7 8 8 9 2 10 1 11 12 12
REMARK H PARENT 12 13
REMARK Flexibility Score: inf
ROOT
ATOM      1  C   UNL     1     308.390 225.803 204.489  1.00  0.00     0.001 A 
ATOM      2  C   UNL     1     309.502 226.632 204.275  1.00  0.00     0.014 A 
ATOM      3  C   UNL     1     308.504 224.425 204.230  1.00  0.00     0.060 A 
ATOM      4  C   UNL     1     310.705 226.096 203.813  1.00  0.00     0.051 A 
ATOM      5  C   UNL     1     309.717 223.878 203.763  1.00  0.00     0.161 A 
ATOM      6  C   UNL     1     310.819 224.727 203.556  1.00  0.00     0.157 A 
ENDROOT
BRANCH   1   7
ATOM      7  C   UNL     1     307.117 226.377 204.978  1.00  0.00     0.072 C 
ATOM      8  O   UNL     1     306.025 226.084 204.422  1.00  0.00    -0.545 OA
ATOM      9  O   UNL     1     307.107 227.247 206.062  1.00  0.00    -0.545 OA
ENDBRANCH   1   7
BRANCH   5  10
ATOM     10  O   UNL     1     309.860 222.507 203.496  1.00  0.00    -0.493 OA
ATOM     11  C   UNL     1     309.090 221.478 204.108  1.00  0.00     0.278 C 
ENDBRANCH   5  10
BRANCH   6  12
ATOM     12  O   UNL     1     312.037 224.228 203.095  1.00  0.00    -0.504 OA
ATOM     13  H   UNL     1     312.626 223.631 203.663  1.00  0.00     0.293 HD
ENDBRANCH   6  12
TORSDOF 3
ENDMDL
MODEL 8
REMARK VINA RESULT:    -4.188     15.735     18.111
REMARK INTER + INTRA:          -4.897
REMARK INTER:                  -4.809
REMARK INTRA:                  -0.088
REMARK UNBOUND:                -0.097
REMARK SMILES COc1cc(C(=O)[O-])ccc1O
REMARK SMILES IDX 5 1 9 2 4 3 10 4 3 5 11 6 6 7 7 8 8 9 2 10 1 11 12 12
REMARK H PARENT 12 13
REMARK Flexibility Score: inf
ROOT
ATOM      1  C   UNL     1     323.521 233.301 198.428  1.00  0.00     0.001 A 
ATOM      2  C   UNL     1     324.643 233.392 199.266  1.00  0.00     0.014 A 
ATOM      3  C   UNL     1     322.266 233.704 198.918  1.00  0.00     0.060 A 
ATOM      4  C   UNL     1     324.515 233.877 200.569  1.00  0.00     0.051 A 
ATOM      5  C   UNL     1     322.130 234.194 200.234  1.00  0.00     0.161 A 
ATOM      6  C   UNL     1     323.268 234.278 201.057  1.00  0.00     0.157 A 
ENDROOT
BRANCH   1   7
ATOM      7  C   UNL     1     323.664 232.786 197.048  1.00  0.00     0.072 C 
ATOM      8  O   UNL     1     324.625 232.032 196.741  1.00  0.00    -0.545 OA
ATOM      9  O   UNL     1     322.737 233.127 196.069  1.00  0.00    -0.545 OA
ENDBRANCH   1   7
BRANCH   5  10
ATOM     10  O   UNL     1     320.890 234.603 200.750  1.00  0.00    -0.493 OA
ATOM     11  C   UNL     1     319.684 233.854 200.648  1.00  0.00     0.278 C 
ENDBRANCH   5  10
BRANCH   6  12
ATOM     12  O   UNL     1     323.178 234.756 202.363  1.00  0.00    -0.504 OA
ATOM     13  H   UNL     1     323.408 235.712 202.606  1.00  0.00     0.293 HD
ENDBRANCH   6  12
TORSDOF 3
ENDMDL
