MODEL 1
REMARK VINA RESULT:    -4.407      0.000      0.000
REMARK INTER + INTRA:          -6.174
REMARK INTER:                  -6.210
REMARK INTRA:                   0.036
REMARK UNBOUND:                 0.036
REMARK SMILES CC1=CCC(=C(C)C)C(=O)CC(C)=CCC1
REMARK SMILES IDX 12 1 14 2 13 3 15 4 16 5 2 6 1 7 3 8 11 10 9 11 10 12 5 13
REMARK SMILES IDX 6 14 7 15 8 16 4 17
REMARK H PARENT
REMARK Flexibility Score: 60.00
ROOT
ATOM      1  C   UNL     1       1.689 -21.250  -7.370  1.00  0.00    -0.070 C 
ATOM      2  C   UNL     1       0.548 -21.304  -6.646  1.00  0.00    -0.027 C 
ATOM      3  C   UNL     1       1.577 -21.053  -8.860  1.00  0.00     0.039 C 
ENDROOT
BRANCH   2   4
ATOM      4  C   UNL     1       0.469 -21.642  -5.180  1.00  0.00     0.032 C 
BRANCH   4   5
ATOM      5  C   UNL     1       0.498 -20.356  -4.346  1.00  0.00     0.034 C 
BRANCH   5   6
ATOM      6  C   UNL     1       1.209 -20.538  -3.021  1.00  0.00    -0.077 C 
ATOM      7  C   UNL     1       0.518 -21.322  -1.932  1.00  0.00     0.039 C 
ATOM      8  C   UNL     1       2.468 -20.096  -2.777  1.00  0.00    -0.023 CG0
ATOM      9  G   UNL     1       3.337 -19.243  -3.683  1.00  0.00     0.000 G0
ENDBRANCH   5   6
ENDBRANCH   4   5
ENDBRANCH   2   4
BRANCH   1  10
ATOM     10  C   UNL     1       3.071 -21.359  -6.756  1.00  0.00     0.111 C 
BRANCH  10  11
ATOM     11  C   UNL     1       3.514 -20.058  -6.132  1.00  0.00     0.163 C 
ATOM     12  O   UNL     1       3.331 -19.007  -6.804  1.00  0.00    -0.294 OA
BRANCH  11  13
ATOM     13  C   UNL     1       4.130 -19.954  -4.767  1.00  0.00    -0.002 C 
ATOM     14  C   UNL     1       5.422 -20.352  -4.555  1.00  0.00    -0.069 C 
ATOM     15  C   UNL     1       6.178 -21.160  -5.585  1.00  0.00     0.039 C 
ATOM     16  C   UNL     1       6.152 -20.053  -3.265  1.00  0.00     0.039 C 
BRANCH  13  17
ATOM     17  C   UNL     1       3.339 -19.231  -3.683  1.00  0.00     0.066 CG0
ATOM     18  G   UNL     1       2.470 -20.096  -2.787  1.00  0.00     0.000 G0
ENDBRANCH  13  17
ENDBRANCH  11  13
ENDBRANCH  10  11
ENDBRANCH   1  10
TORSDOF 0
ENDMDL
MODEL 2
REMARK VINA RESULT:    -4.263      1.990      2.707
REMARK INTER + INTRA:          -5.971
REMARK INTER:                  -5.853
REMARK INTRA:                  -0.118
REMARK UNBOUND:                 0.036
REMARK SMILES CC1=CCC(=C(C)C)C(=O)CC(C)=CCC1
REMARK SMILES IDX 12 1 14 2 13 3 15 4 16 5 2 6 1 7 3 8 11 10 9 11 10 12 5 13
REMARK SMILES IDX 6 14 7 15 8 16 4 17
REMARK H PARENT
REMARK Flexibility Score: 60.00
ROOT
ATOM      1  C   UNL     1       1.116 -21.296  -5.532  1.00  0.00    -0.070 C 
ATOM      2  C   UNL     1       0.471 -20.670  -4.522  1.00  0.00    -0.027 C 
ATOM      3  C   UNL     1       0.298 -22.111  -6.501  1.00  0.00     0.039 C 
ENDROOT
BRANCH   2   4
ATOM      4  C   UNL     1       1.143 -19.942  -3.387  1.00  0.00     0.032 C 
BRANCH   4   5
ATOM      5  C   UNL     1       1.153 -18.435  -3.667  1.00  0.00     0.034 C 
BRANCH   5   6
ATOM      6  C   UNL     1       2.506 -17.805  -3.408  1.00  0.00    -0.077 C 
ATOM      7  C   UNL     1       2.896 -17.488  -1.986  1.00  0.00     0.039 C 
ATOM      8  C   UNL     1       3.424 -17.572  -4.380  1.00  0.00    -0.023 CG0
ATOM      9  G   UNL     1       3.247 -17.752  -5.877  1.00  0.00     0.000 G0
ENDBRANCH   5   6
ENDBRANCH   4   5
ENDBRANCH   2   4
BRANCH   1  10
ATOM     10  C   UNL     1       2.614 -21.203  -5.749  1.00  0.00     0.111 C 
BRANCH  10  11
ATOM     11  C   UNL     1       2.970 -20.160  -6.781  1.00  0.00     0.163 C 
ATOM     12  O   UNL     1       2.450 -20.282  -7.923  1.00  0.00    -0.294 OA
BRANCH  11  13
ATOM     13  C   UNL     1       3.877 -18.995  -6.511  1.00  0.00    -0.002 C 
ATOM     14  C   UNL     1       5.169 -19.001  -6.963  1.00  0.00    -0.069 C 
ATOM     15  C   UNL     1       5.817 -20.263  -7.486  1.00  0.00     0.039 C 
ATOM     16  C   UNL     1       6.040 -17.765  -6.918  1.00  0.00     0.039 C 
BRANCH  13  17
ATOM     17  C   UNL     1       3.265 -17.746  -5.888  1.00  0.00     0.066 CG0
ATOM     18  G   UNL     1       3.421 -17.593  -4.385  1.00  0.00     0.000 G0
ENDBRANCH  13  17
ENDBRANCH  11  13
ENDBRANCH  10  11
ENDBRANCH   1  10
TORSDOF 0
ENDMDL
MODEL 3
REMARK VINA RESULT:    -4.243      1.747      4.545
REMARK INTER + INTRA:          -5.944
REMARK INTER:                  -5.901
REMARK INTRA:                  -0.043
REMARK UNBOUND:                 0.036
REMARK SMILES CC1=CCC(=C(C)C)C(=O)CC(C)=CCC1
REMARK SMILES IDX 12 1 14 2 13 3 15 4 16 5 2 6 1 7 3 8 11 10 9 11 10 12 5 13
REMARK SMILES IDX 6 14 7 15 8 16 4 17
REMARK H PARENT
REMARK Flexibility Score: 60.00
ROOT
ATOM      1  C   UNL     1       5.931 -20.996  -4.743  1.00  0.00    -0.070 C 
ATOM      2  C   UNL     1       5.777 -21.159  -6.077  1.00  0.00    -0.027 C 
ATOM      3  C   UNL     1       7.325 -20.787  -4.210  1.00  0.00     0.039 C 
ENDROOT
BRANCH   2   4
ATOM      4  C   UNL     1       4.483 -21.524  -6.758  1.00  0.00     0.032 C 
BRANCH   4   5
ATOM      5  C   UNL     1       3.937 -20.312  -7.522  1.00  0.00     0.034 C 
BRANCH   5   6
ATOM      6  C   UNL     1       2.423 -20.253  -7.511  1.00  0.00    -0.077 C 
ATOM      7  C   UNL     1       1.663 -20.971  -8.599  1.00  0.00     0.039 C 
ATOM      8  C   UNL     1       1.703 -19.647  -6.534  1.00  0.00    -0.023 CG0
ATOM      9  G   UNL     1       2.233 -18.819  -5.377  1.00  0.00     0.000 G0
ENDBRANCH   5   6
ENDBRANCH   4   5
ENDBRANCH   2   4
BRANCH   1  10
ATOM     10  C   UNL     1       4.774 -20.993  -3.764  1.00  0.00     0.111 C 
BRANCH  10  11
ATOM     11  C   UNL     1       4.051 -19.668  -3.750  1.00  0.00     0.163 C 
ATOM     12  O   UNL     1       4.731 -18.646  -3.459  1.00  0.00    -0.294 OA
BRANCH  11  13
ATOM     13  C   UNL     1       2.596 -19.507  -4.081  1.00  0.00    -0.002 C 
ATOM     14  C   UNL     1       1.634 -19.844  -3.168  1.00  0.00    -0.069 C 
ATOM     15  C   UNL     1       1.967 -20.642  -1.928  1.00  0.00     0.039 C 
ATOM     16  C   UNL     1       0.178 -19.485  -3.368  1.00  0.00     0.039 C 
BRANCH  13  17
ATOM     17  C   UNL     1       2.236 -18.794  -5.379  1.00  0.00     0.066 CG0
ATOM     18  G   UNL     1       1.699 -19.663  -6.503  1.00  0.00     0.000 G0
ENDBRANCH  13  17
ENDBRANCH  11  13
ENDBRANCH  10  11
ENDBRANCH   1  10
TORSDOF 0
ENDMDL
MODEL 4
REMARK VINA RESULT:    -4.192      1.718      3.804
REMARK INTER + INTRA:          -5.872
REMARK INTER:                  -5.694
REMARK INTRA:                  -0.179
REMARK UNBOUND:                 0.036
REMARK SMILES CC1=CCC(=C(C)C)C(=O)CC(C)=CCC1
REMARK SMILES IDX 12 1 14 2 13 3 15 4 16 5 2 6 1 7 3 8 11 10 9 11 10 12 5 13
REMARK SMILES IDX 6 14 7 15 8 16 4 17
REMARK H PARENT
REMARK Flexibility Score: 60.00
ROOT
ATOM      1  C   UNL     1       2.052 -20.766  -7.044  1.00  0.00    -0.070 C 
ATOM      2  C   UNL     1       3.224 -21.376  -7.331  1.00  0.00    -0.027 C 
ATOM      3  C   UNL     1       0.789 -21.344  -7.627  1.00  0.00     0.039 C 
ENDROOT
BRANCH   2   4
ATOM      4  C   UNL     1       4.586 -20.850  -6.957  1.00  0.00     0.032 C 
BRANCH   4   5
ATOM      5  C   UNL     1       5.070 -21.523  -5.668  1.00  0.00     0.034 C 
BRANCH   5   6
ATOM      6  C   UNL     1       5.764 -20.556  -4.732  1.00  0.00    -0.077 C 
ATOM      7  C   UNL     1       7.179 -20.136  -5.045  1.00  0.00     0.039 C 
ATOM      8  C   UNL     1       5.160 -19.985  -3.660  1.00  0.00    -0.023 CG0
ATOM      9  G   UNL     1       3.776 -20.285  -3.112  1.00  0.00     0.000 G0
ENDBRANCH   5   6
ENDBRANCH   4   5
ENDBRANCH   2   4
BRANCH   1  10
ATOM     10  C   UNL     1       1.944 -19.544  -6.153  1.00  0.00     0.111 C 
BRANCH  10  11
ATOM     11  C   UNL     1       1.766 -19.920  -4.702  1.00  0.00     0.163 C 
ATOM     12  O   UNL     1       0.848 -20.740  -4.429  1.00  0.00    -0.294 OA
BRANCH  11  13
ATOM     13  C   UNL     1       2.628 -19.392  -3.591  1.00  0.00    -0.002 C 
ATOM     14  C   UNL     1       2.294 -18.234  -2.944  1.00  0.00    -0.069 C 
ATOM     15  C   UNL     1       1.235 -17.301  -3.488  1.00  0.00     0.039 C 
ATOM     16  C   UNL     1       2.996 -17.791  -1.679  1.00  0.00     0.039 C 
BRANCH  13  17
ATOM     17  C   UNL     1       3.767 -20.273  -3.094  1.00  0.00     0.066 CG0
ATOM     18  G   UNL     1       5.145 -19.983  -3.662  1.00  0.00     0.000 G0
ENDBRANCH  13  17
ENDBRANCH  11  13
ENDBRANCH  10  11
ENDBRANCH   1  10
TORSDOF 0
ENDMDL
MODEL 5
REMARK VINA RESULT:    -4.045      1.355      2.401
REMARK INTER + INTRA:          -5.664
REMARK INTER:                  -5.740
REMARK INTRA:                   0.076
REMARK UNBOUND:                 0.036
REMARK SMILES CC1=CCC(=C(C)C)C(=O)CC(C)=CCC1
REMARK SMILES IDX 12 1 14 2 13 3 15 4 16 5 2 6 1 7 3 8 11 10 9 11 10 12 5 13
REMARK SMILES IDX 6 14 7 15 8 16 4 17
REMARK H PARENT
REMARK Flexibility Score: 60.00
ROOT
ATOM      1  C   UNL     1       1.120 -20.569  -5.617  1.00  0.00    -0.070 C 
ATOM      2  C   UNL     1       0.655 -20.718  -4.355  1.00  0.00    -0.027 C 
ATOM      3  C   UNL     1       1.146 -21.781  -6.511  1.00  0.00     0.039 C 
ENDROOT
BRANCH   2   4
ATOM      4  C   UNL     1       0.696 -19.654  -3.288  1.00  0.00     0.032 C 
BRANCH   4   5
ATOM      5  C   UNL     1       1.832 -19.949  -2.302  1.00  0.00     0.034 C 
BRANCH   5   6
ATOM      6  C   UNL     1       2.988 -18.980  -2.439  1.00  0.00    -0.077 C 
ATOM      7  C   UNL     1       2.966 -17.708  -1.628  1.00  0.00     0.039 C 
ATOM      8  C   UNL     1       4.084 -19.223  -3.201  1.00  0.00    -0.023 CG0
ATOM      9  G   UNL     1       4.313 -20.393  -4.142  1.00  0.00     0.000 G0
ENDBRANCH   5   6
ENDBRANCH   4   5
ENDBRANCH   2   4
BRANCH   1  10
ATOM     10  C   UNL     1       1.597 -19.244  -6.179  1.00  0.00     0.111 C 
BRANCH  10  11
ATOM     11  C   UNL     1       3.082 -19.052  -5.988  1.00  0.00     0.163 C 
ATOM     12  O   UNL     1       3.532 -17.883  -6.128  1.00  0.00    -0.294 OA
BRANCH  11  13
ATOM     13  C   UNL     1       4.026 -20.161  -5.624  1.00  0.00    -0.002 C 
ATOM     14  C   UNL     1       4.729 -20.822  -6.595  1.00  0.00    -0.069 C 
ATOM     15  C   UNL     1       4.383 -20.672  -8.060  1.00  0.00     0.039 C 
ATOM     16  C   UNL     1       5.853 -21.777  -6.262  1.00  0.00     0.039 C 
BRANCH  13  17
ATOM     17  C   UNL     1       4.311 -20.397  -4.146  1.00  0.00     0.066 CG0
ATOM     18  G   UNL     1       4.074 -19.221  -3.215  1.00  0.00     0.000 G0
ENDBRANCH  13  17
ENDBRANCH  11  13
ENDBRANCH  10  11
ENDBRANCH   1  10
TORSDOF 0
ENDMDL
MODEL 6
REMARK VINA RESULT:    -3.922      1.881      3.963
REMARK INTER + INTRA:          -5.491
REMARK INTER:                  -5.629
REMARK INTRA:                   0.138
REMARK UNBOUND:                 0.036
REMARK SMILES CC1=CCC(=C(C)C)C(=O)CC(C)=CCC1
REMARK SMILES IDX 12 1 14 2 13 3 15 4 16 5 2 6 1 7 3 8 11 10 9 11 10 12 5 13
REMARK SMILES IDX 6 14 7 15 8 16 4 17
REMARK H PARENT
REMARK Flexibility Score: 60.00
ROOT
ATOM      1  C   UNL     1       1.303 -20.900  -6.115  1.00  0.00    -0.070 C 
ATOM      2  C   UNL     1       2.067 -21.314  -7.152  1.00  0.00    -0.027 C 
ATOM      3  C   UNL     1       0.138 -21.762  -5.702  1.00  0.00     0.039 C 
ENDROOT
BRANCH   2   4
ATOM      4  C   UNL     1       3.172 -20.510  -7.786  1.00  0.00     0.032 C 
BRANCH   4   5
ATOM      5  C   UNL     1       4.527 -21.165  -7.498  1.00  0.00     0.034 C 
BRANCH   5   6
ATOM      6  C   UNL     1       5.494 -20.223  -6.812  1.00  0.00    -0.077 C 
ATOM      7  C   UNL     1       6.475 -19.451  -7.660  1.00  0.00     0.039 C 
ATOM      8  C   UNL     1       5.484 -19.976  -5.478  1.00  0.00    -0.023 CG0
ATOM      9  G   UNL     1       4.639 -20.663  -4.420  1.00  0.00     0.000 G0
ENDBRANCH   5   6
ENDBRANCH   4   5
ENDBRANCH   2   4
BRANCH   1  10
ATOM     10  C   UNL     1       1.573 -19.627  -5.337  1.00  0.00     0.111 C 
BRANCH  10  11
ATOM     11  C   UNL     1       2.180 -19.910  -3.985  1.00  0.00     0.163 C 
ATOM     12  O   UNL     1       1.404 -20.330  -3.084  1.00  0.00    -0.294 OA
BRANCH  11  13
ATOM     13  C   UNL     1       3.639 -19.741  -3.672  1.00  0.00    -0.002 C 
ATOM     14  C   UNL     1       4.040 -18.926  -2.649  1.00  0.00    -0.069 C 
ATOM     15  C   UNL     1       3.084 -17.959  -1.988  1.00  0.00     0.039 C 
ATOM     16  C   UNL     1       5.469 -18.907  -2.153  1.00  0.00     0.039 C 
BRANCH  13  17
ATOM     17  C   UNL     1       4.631 -20.638  -4.403  1.00  0.00     0.066 CG0
ATOM     18  G   UNL     1       5.474 -19.979  -5.480  1.00  0.00     0.000 G0
ENDBRANCH  13  17
ENDBRANCH  11  13
ENDBRANCH  10  11
ENDBRANCH   1  10
TORSDOF 0
ENDMDL
MODEL 7
REMARK VINA RESULT:    -3.833     12.028     14.256
REMARK INTER + INTRA:          -5.367
REMARK INTER:                  -5.721
REMARK INTRA:                   0.354
REMARK UNBOUND:                 0.036
REMARK SMILES CC1=CCC(=C(C)C)C(=O)CC(C)=CCC1
REMARK SMILES IDX 12 1 14 2 13 3 15 4 16 5 2 6 1 7 3 8 11 10 9 11 10 12 5 13
REMARK SMILES IDX 6 14 7 15 8 16 4 17
REMARK H PARENT
REMARK Flexibility Score: 60.00
ROOT
ATOM      1  C   UNL     1      -6.140 -28.001  -2.645  1.00  0.00    -0.070 C 
ATOM      2  C   UNL     1      -6.426 -29.198  -3.207  1.00  0.00    -0.027 C 
ATOM      3  C   UNL     1      -5.426 -26.974  -3.486  1.00  0.00     0.039 C 
ENDROOT
BRANCH   2   4
ATOM      4  C   UNL     1      -6.998 -30.382  -2.472  1.00  0.00     0.032 C 
BRANCH   4   5
ATOM      5  C   UNL     1      -8.379 -30.730  -3.038  1.00  0.00     0.034 C 
BRANCH   5   6
ATOM      6  C   UNL     1      -9.503 -30.384  -2.084  1.00  0.00    -0.077 C 
ATOM      7  C   UNL     1      -9.997 -31.446  -1.133  1.00  0.00     0.039 C 
ATOM      8  C   UNL     1     -10.047 -29.145  -1.983  1.00  0.00    -0.023 CG0
ATOM      9  G   UNL     1      -9.761 -27.938  -2.858  1.00  0.00     0.000 G0
ENDBRANCH   5   6
ENDBRANCH   4   5
ENDBRANCH   2   4
BRANCH   1  10
ATOM     10  C   UNL     1      -6.520 -27.635  -1.224  1.00  0.00     0.111 C 
BRANCH  10  11
ATOM     11  C   UNL     1      -7.979 -27.268  -1.107  1.00  0.00     0.163 C 
ATOM     12  O   UNL     1      -8.483 -27.278   0.049  1.00  0.00    -0.294 OA
BRANCH  11  13
ATOM     13  C   UNL     1      -8.837 -26.875  -2.275  1.00  0.00    -0.002 C 
ATOM     14  C   UNL     1      -8.661 -25.666  -2.890  1.00  0.00    -0.069 C 
ATOM     15  C   UNL     1      -7.819 -24.576  -2.266  1.00  0.00     0.039 C 
ATOM     16  C   UNL     1      -9.336 -25.328  -4.201  1.00  0.00     0.039 C 
BRANCH  13  17
ATOM     17  C   UNL     1      -9.770 -27.929  -2.858  1.00  0.00     0.066 CG0
ATOM     18  G   UNL     1     -10.041 -29.147  -1.993  1.00  0.00     0.000 G0
ENDBRANCH  13  17
ENDBRANCH  11  13
ENDBRANCH  10  11
ENDBRANCH   1  10
TORSDOF 0
ENDMDL
MODEL 8
REMARK VINA RESULT:    -3.761     11.903     14.191
REMARK INTER + INTRA:          -5.264
REMARK INTER:                  -5.817
REMARK INTRA:                   0.553
REMARK UNBOUND:                 0.036
REMARK SMILES CC1=CCC(=C(C)C)C(=O)CC(C)=CCC1
REMARK SMILES IDX 12 1 14 2 13 3 15 4 16 5 2 6 1 7 3 8 11 10 9 11 10 12 5 13
REMARK SMILES IDX 6 14 7 15 8 16 4 17
REMARK H PARENT
REMARK Flexibility Score: 60.00
ROOT
ATOM      1  C   UNL     1      -6.518 -27.831  -3.377  1.00  0.00    -0.070 C 
ATOM      2  C   UNL     1      -6.005 -29.035  -3.036  1.00  0.00    -0.027 C 
ATOM      3  C   UNL     1      -5.880 -26.596  -2.795  1.00  0.00     0.039 C 
ENDROOT
BRANCH   2   4
ATOM      4  C   UNL     1      -6.606 -30.366  -3.404  1.00  0.00     0.032 C 
BRANCH   4   5
ATOM      5  C   UNL     1      -8.131 -30.309  -3.255  1.00  0.00     0.034 C 
BRANCH   5   6
ATOM      6  C   UNL     1      -8.571 -30.249  -1.806  1.00  0.00    -0.077 C 
ATOM      7  C   UNL     1      -8.011 -31.261  -0.838  1.00  0.00     0.039 C 
ATOM      8  C   UNL     1      -9.389 -29.288  -1.310  1.00  0.00    -0.023 CG0
ATOM      9  G   UNL     1     -10.117 -28.205  -2.087  1.00  0.00     0.000 G0
ENDBRANCH   5   6
ENDBRANCH   4   5
ENDBRANCH   2   4
BRANCH   1  10
ATOM     10  C   UNL     1      -7.686 -27.662  -4.329  1.00  0.00     0.111 C 
BRANCH  10  11
ATOM     11  C   UNL     1      -8.754 -26.763  -3.756  1.00  0.00     0.163 C 
ATOM     12  O   UNL     1      -9.190 -25.843  -4.500  1.00  0.00    -0.294 OA
BRANCH  11  13
ATOM     13  C   UNL     1      -9.328 -26.921  -2.377  1.00  0.00    -0.002 C 
ATOM     14  C   UNL     1      -9.279 -25.888  -1.481  1.00  0.00    -0.069 C 
ATOM     15  C   UNL     1      -8.416 -24.671  -1.726  1.00  0.00     0.039 C 
ATOM     16  C   UNL     1     -10.043 -25.922  -0.176  1.00  0.00     0.039 C 
BRANCH  13  17
ATOM     17  C   UNL     1     -10.118 -28.189  -2.077  1.00  0.00     0.066 CG0
ATOM     18  G   UNL     1      -9.388 -29.274  -1.304  1.00  0.00     0.000 G0
ENDBRANCH  13  17
ENDBRANCH  11  13
ENDBRANCH  10  11
ENDBRANCH   1  10
TORSDOF 0
ENDMDL
MODEL 9
REMARK VINA RESULT:    -3.757     11.808     13.629
REMARK INTER + INTRA:          -5.259
REMARK INTER:                  -5.493
REMARK INTRA:                   0.234
REMARK UNBOUND:                 0.036
REMARK SMILES CC1=CCC(=C(C)C)C(=O)CC(C)=CCC1
REMARK SMILES IDX 12 1 14 2 13 3 15 4 16 5 2 6 1 7 3 8 11 10 9 11 10 12 5 13
REMARK SMILES IDX 6 14 7 15 8 16 4 17
REMARK H PARENT
REMARK Flexibility Score: 60.00
ROOT
ATOM      1  C   UNL     1      -6.090 -27.997  -2.528  1.00  0.00    -0.070 C 
ATOM      2  C   UNL     1      -6.461 -28.873  -1.567  1.00  0.00    -0.027 C 
ATOM      3  C   UNL     1      -5.275 -28.514  -3.685  1.00  0.00     0.039 C 
ENDROOT
BRANCH   2   4
ATOM      4  C   UNL     1      -7.145 -28.503  -0.277  1.00  0.00     0.032 C 
BRANCH   4   5
ATOM      5  C   UNL     1      -8.648 -28.785  -0.383  1.00  0.00     0.034 C 
BRANCH   5   6
ATOM      6  C   UNL     1      -9.475 -27.863   0.488  1.00  0.00    -0.077 C 
ATOM      7  C   UNL     1      -9.601 -28.177   1.958  1.00  0.00     0.039 C 
ATOM      8  C   UNL     1     -10.056 -26.723   0.036  1.00  0.00    -0.023 CG0
ATOM      9  G   UNL     1     -10.117 -26.226  -1.397  1.00  0.00     0.000 G0
ENDBRANCH   5   6
ENDBRANCH   4   5
ENDBRANCH   2   4
BRANCH   1  10
ATOM     10  C   UNL     1      -6.469 -26.529  -2.508  1.00  0.00     0.111 C 
BRANCH  10  11
ATOM     11  C   UNL     1      -7.935 -26.321  -2.800  1.00  0.00     0.163 C 
ATOM     12  O   UNL     1      -8.398 -26.873  -3.835  1.00  0.00    -0.294 OA
BRANCH  11  13
ATOM     13  C   UNL     1      -8.856 -25.524  -1.922  1.00  0.00    -0.002 C 
ATOM     14  C   UNL     1      -8.657 -24.182  -1.743  1.00  0.00    -0.069 C 
ATOM     15  C   UNL     1      -7.371 -23.511  -2.171  1.00  0.00     0.039 C 
ATOM     16  C   UNL     1      -9.683 -23.303  -1.063  1.00  0.00     0.039 C 
BRANCH  13  17
ATOM     17  C   UNL     1     -10.109 -26.213  -1.395  1.00  0.00     0.066 CG0
ATOM     18  G   UNL     1     -10.046 -26.735   0.030  1.00  0.00     0.000 G0
ENDBRANCH  13  17
ENDBRANCH  11  13
ENDBRANCH  10  11
ENDBRANCH   1  10
TORSDOF 0
ENDMDL
