MODEL 1
REMARK VINA RESULT:    -3.427      0.000      0.000
REMARK INTER + INTRA:          -6.346
REMARK INTER:                  -4.929
REMARK INTRA:                  -1.417
REMARK UNBOUND:                -1.417
REMARK SMILES O=C(CO)[C@@H](O)[C@H](O)[C@@H](O)CO
REMARK SMILES IDX 7 1 9 2 11 3 12 4 10 6 5 8 2 9 1 10 3 11 4 12 6 14 8 16
REMARK H PARENT 12 5 10 7 4 13 6 15 8 17
REMARK Flexibility Score: inf
ROOT
ATOM      1  C   UNL     1     -11.466   5.811  29.794  1.00  0.00     0.181 C 
ENDROOT
BRANCH   1   2
ATOM      2  C   UNL     1     -12.711   6.010  30.698  1.00  0.00     0.171 C 
BRANCH   2   3
ATOM      3  C   UNL     1     -12.887   4.850  31.696  1.00  0.00     0.190 C 
BRANCH   3   4
ATOM      4  O   UNL     1     -13.642   3.819  31.119  1.00  0.00    -0.394 OA
ATOM      5  H   UNL     1     -14.404   4.252  30.654  1.00  0.00     0.210 HD
ENDBRANCH   3   4
ENDBRANCH   2   3
BRANCH   2   6
ATOM      6  O   UNL     1     -13.879   6.187  29.934  1.00  0.00    -0.388 OA
ATOM      7  H   UNL     1     -14.646   5.860  30.470  1.00  0.00     0.211 HD
ENDBRANCH   2   6
ENDBRANCH   1   2
BRANCH   1   8
ATOM      8  C   UNL     1     -11.167   7.074  28.948  1.00  0.00     0.214 C 
BRANCH   8   9
ATOM      9  C   UNL     1     -11.165   6.759  27.466  1.00  0.00     0.189 C 
ATOM     10  O   UNL     1     -10.175   6.264  26.948  1.00  0.00    -0.294 OA
BRANCH   9  11
ATOM     11  C   UNL     1     -12.366   7.067  26.619  1.00  0.00     0.234 C 
BRANCH  11  12
ATOM     12  O   UNL     1     -13.461   6.326  27.079  1.00  0.00    -0.388 OA
ATOM     13  H   UNL     1     -14.162   6.988  27.309  1.00  0.00     0.211 HD
ENDBRANCH  11  12
ENDBRANCH   9  11
ENDBRANCH   8   9
BRANCH   8  14
ATOM     14  O   UNL     1     -12.067   8.119  29.227  1.00  0.00    -0.382 OA
ATOM     15  H   UNL     1     -12.247   8.605  28.381  1.00  0.00     0.211 HD
ENDBRANCH   8  14
ENDBRANCH   1   8
BRANCH   1  16
ATOM     16  O   UNL     1     -11.636   4.694  28.956  1.00  0.00    -0.387 OA
ATOM     17  H   UNL     1     -11.141   4.878  28.115  1.00  0.00     0.211 HD
ENDBRANCH   1  16
TORSDOF 10
ENDMDL
MODEL 2
REMARK VINA RESULT:    -3.370      2.041      4.767
REMARK INTER + INTRA:          -6.265
REMARK INTER:                  -4.806
REMARK INTRA:                  -1.458
REMARK UNBOUND:                -1.417
REMARK SMILES O=C(CO)[C@@H](O)[C@H](O)[C@@H](O)CO
REMARK SMILES IDX 7 1 9 2 11 3 12 4 10 6 5 8 2 9 1 10 3 11 4 12 6 14 8 16
REMARK H PARENT 12 5 10 7 4 13 6 15 8 17
REMARK Flexibility Score: inf
ROOT
ATOM      1  C   UNL     1     -11.796   5.418  30.687  1.00  0.00     0.181 C 
ENDROOT
BRANCH   1   2
ATOM      2  C   UNL     1     -12.618   4.790  29.530  1.00  0.00     0.171 C 
BRANCH   2   3
ATOM      3  C   UNL     1     -12.726   5.740  28.322  1.00  0.00     0.190 C 
BRANCH   3   4
ATOM      4  O   UNL     1     -13.482   6.873  28.658  1.00  0.00    -0.394 OA
ATOM      5  H   UNL     1     -12.922   7.662  28.439  1.00  0.00     0.210 HD
ENDBRANCH   3   4
ENDBRANCH   2   3
BRANCH   2   6
ATOM      6  O   UNL     1     -13.897   4.392  29.964  1.00  0.00    -0.388 OA
ATOM      7  H   UNL     1     -14.485   5.191  29.948  1.00  0.00     0.211 HD
ENDBRANCH   2   6
ENDBRANCH   1   2
BRANCH   1   8
ATOM      8  C   UNL     1     -11.279   4.338  31.670  1.00  0.00     0.214 C 
BRANCH   8   9
ATOM      9  C   UNL     1     -11.712   4.631  33.092  1.00  0.00     0.189 C 
ATOM     10  O   UNL     1     -11.091   5.439  33.766  1.00  0.00    -0.294 OA
BRANCH   9  11
ATOM     11  C   UNL     1     -12.892   3.922  33.691  1.00  0.00     0.234 C 
BRANCH  11  12
ATOM     12  O   UNL     1     -14.003   4.080  32.854  1.00  0.00    -0.388 OA
ATOM     13  H   UNL     1     -14.187   3.183  32.472  1.00  0.00     0.211 HD
ENDBRANCH  11  12
ENDBRANCH   9  11
ENDBRANCH   8   9
BRANCH   8  14
ATOM     14  O   UNL     1     -11.682   3.044  31.290  1.00  0.00    -0.382 OA
ATOM     15  H   UNL     1     -12.341   2.718  31.956  1.00  0.00     0.211 HD
ENDBRANCH   8  14
ENDBRANCH   1   8
BRANCH   1  16
ATOM     16  O   UNL     1     -12.563   6.374  31.376  1.00  0.00    -0.387 OA
ATOM     17  H   UNL     1     -13.417   5.939  31.632  1.00  0.00     0.211 HD
ENDBRANCH   1  16
TORSDOF 10
ENDMDL
MODEL 3
REMARK VINA RESULT:    -3.358      3.700      6.583
REMARK INTER + INTRA:          -6.248
REMARK INTER:                  -5.091
REMARK INTRA:                  -1.157
REMARK UNBOUND:                -1.417
REMARK SMILES O=C(CO)[C@@H](O)[C@H](O)[C@@H](O)CO
REMARK SMILES IDX 7 1 9 2 11 3 12 4 10 6 5 8 2 9 1 10 3 11 4 12 6 14 8 16
REMARK H PARENT 12 5 10 7 4 13 6 15 8 17
REMARK Flexibility Score: inf
ROOT
ATOM      1  C   UNL     1     -13.627   2.130  31.365  1.00  0.00     0.181 C 
ENDROOT
BRANCH   1   2
ATOM      2  C   UNL     1     -12.866   2.586  30.092  1.00  0.00     0.171 C 
BRANCH   2   3
ATOM      3  C   UNL     1     -12.685   4.115  30.049  1.00  0.00     0.190 C 
BRANCH   3   4
ATOM      4  O   UNL     1     -13.930   4.751  29.938  1.00  0.00    -0.394 OA
ATOM      5  H   UNL     1     -14.027   5.328  30.740  1.00  0.00     0.210 HD
ENDBRANCH   3   4
ENDBRANCH   2   3
BRANCH   2   6
ATOM      6  O   UNL     1     -13.500   2.129  28.921  1.00  0.00    -0.388 OA
ATOM      7  H   UNL     1     -14.144   1.421  29.182  1.00  0.00     0.211 HD
ENDBRANCH   2   6
ENDBRANCH   1   2
BRANCH   1   8
ATOM      8  C   UNL     1     -14.963   1.429  31.011  1.00  0.00     0.214 C 
BRANCH   8   9
ATOM      9  C   UNL     1     -15.563   0.740  32.218  1.00  0.00     0.189 C 
ATOM     10  O   UNL     1     -14.857   0.456  33.174  1.00  0.00    -0.294 OA
BRANCH   9  11
ATOM     11  C   UNL     1     -17.021   0.383  32.246  1.00  0.00     0.234 C 
BRANCH  11  12
ATOM     12  O   UNL     1     -17.350  -0.325  31.085  1.00  0.00    -0.388 OA
ATOM     13  H   UNL     1     -18.093  -0.933  31.336  1.00  0.00     0.211 HD
ENDBRANCH  11  12
ENDBRANCH   9  11
ENDBRANCH   8   9
BRANCH   8  14
ATOM     14  O   UNL     1     -15.891   2.323  30.443  1.00  0.00    -0.382 OA
ATOM     15  H   UNL     1     -15.403   3.143  30.172  1.00  0.00     0.211 HD
ENDBRANCH   8  14
ENDBRANCH   1   8
BRANCH   1  16
ATOM     16  O   UNL     1     -13.864   3.223  32.218  1.00  0.00    -0.387 OA
ATOM     17  H   UNL     1     -13.852   4.042  31.658  1.00  0.00     0.211 HD
ENDBRANCH   1  16
TORSDOF 10
ENDMDL
MODEL 4
REMARK VINA RESULT:    -3.346     14.993     16.254
REMARK INTER + INTRA:          -6.230
REMARK INTER:                  -5.301
REMARK INTRA:                  -0.929
REMARK UNBOUND:                -1.417
REMARK SMILES O=C(CO)[C@@H](O)[C@H](O)[C@@H](O)CO
REMARK SMILES IDX 7 1 9 2 11 3 12 4 10 6 5 8 2 9 1 10 3 11 4 12 6 14 8 16
REMARK H PARENT 12 5 10 7 4 13 6 15 8 17
REMARK Flexibility Score: inf
ROOT
ATOM      1  C   UNL     1      -2.579  -5.645  31.507  1.00  0.00     0.181 C 
ENDROOT
BRANCH   1   2
ATOM      2  C   UNL     1      -2.483  -5.110  32.960  1.00  0.00     0.171 C 
BRANCH   2   3
ATOM      3  C   UNL     1      -2.787  -3.602  33.037  1.00  0.00     0.190 C 
BRANCH   3   4
ATOM      4  O   UNL     1      -3.408  -3.168  31.857  1.00  0.00    -0.394 OA
ATOM      5  H   UNL     1      -3.565  -2.194  31.960  1.00  0.00     0.210 HD
ENDBRANCH   3   4
ENDBRANCH   2   3
BRANCH   2   6
ATOM      6  O   UNL     1      -1.228  -5.393  33.531  1.00  0.00    -0.388 OA
ATOM      7  H   UNL     1      -0.549  -4.849  33.055  1.00  0.00     0.211 HD
ENDBRANCH   2   6
ENDBRANCH   1   2
BRANCH   1   8
ATOM      8  C   UNL     1      -2.559  -7.194  31.466  1.00  0.00     0.214 C 
BRANCH   8   9
ATOM      9  C   UNL     1      -3.342  -7.727  30.285  1.00  0.00     0.189 C 
ATOM     10  O   UNL     1      -3.480  -7.041  29.282  1.00  0.00    -0.294 OA
BRANCH   9  11
ATOM     11  C   UNL     1      -3.969  -9.091  30.337  1.00  0.00     0.234 C 
BRANCH  11  12
ATOM     12  O   UNL     1      -3.501  -9.774  31.466  1.00  0.00    -0.388 OA
ATOM     13  H   UNL     1      -4.287 -10.243  31.847  1.00  0.00     0.211 HD
ENDBRANCH  11  12
ENDBRANCH   9  11
ENDBRANCH   8   9
BRANCH   8  14
ATOM     14  O   UNL     1      -1.246  -7.703  31.457  1.00  0.00    -0.382 OA
ATOM     15  H   UNL     1      -0.623  -6.946  31.303  1.00  0.00     0.211 HD
ENDBRANCH   8  14
ENDBRANCH   1   8
BRANCH   1  16
ATOM     16  O   UNL     1      -1.537  -5.126  30.718  1.00  0.00    -0.387 OA
ATOM     17  H   UNL     1      -1.876  -4.298  30.288  1.00  0.00     0.211 HD
ENDBRANCH   1  16
TORSDOF 10
ENDMDL
MODEL 5
REMARK VINA RESULT:    -3.334      3.537      5.372
REMARK INTER + INTRA:          -6.213
REMARK INTER:                  -5.315
REMARK INTRA:                  -0.898
REMARK UNBOUND:                -1.417
REMARK SMILES O=C(CO)[C@@H](O)[C@H](O)[C@@H](O)CO
REMARK SMILES IDX 7 1 9 2 11 3 12 4 10 6 5 8 2 9 1 10 3 11 4 12 6 14 8 16
REMARK H PARENT 12 5 10 7 4 13 6 15 8 17
REMARK Flexibility Score: inf
ROOT
ATOM      1  C   UNL     1     -14.885   1.504  30.825  1.00  0.00     0.181 C 
ENDROOT
BRANCH   1   2
ATOM      2  C   UNL     1     -15.207   0.527  31.987  1.00  0.00     0.171 C 
BRANCH   2   3
ATOM      3  C   UNL     1     -16.720   0.444  32.265  1.00  0.00     0.190 C 
BRANCH   3   4
ATOM      4  O   UNL     1     -17.375  -0.212  31.213  1.00  0.00    -0.394 OA
ATOM      5  H   UNL     1     -17.044   0.199  30.373  1.00  0.00     0.210 HD
ENDBRANCH   3   4
ENDBRANCH   2   3
BRANCH   2   6
ATOM      6  O   UNL     1     -14.505   0.870  33.158  1.00  0.00    -0.388 OA
ATOM      7  H   UNL     1     -13.988   1.696  32.971  1.00  0.00     0.211 HD
ENDBRANCH   2   6
ENDBRANCH   1   2
BRANCH   1   8
ATOM      8  C   UNL     1     -13.748   2.485  31.204  1.00  0.00     0.214 C 
BRANCH   8   9
ATOM      9  C   UNL     1     -13.228   3.225  29.989  1.00  0.00     0.189 C 
ATOM     10  O   UNL     1     -13.196   2.668  28.901  1.00  0.00    -0.294 OA
BRANCH   9  11
ATOM     11  C   UNL     1     -12.731   4.637  30.109  1.00  0.00     0.234 C 
BRANCH  11  12
ATOM     12  O   UNL     1     -13.823   5.513  30.132  1.00  0.00    -0.388 OA
ATOM     13  H   UNL     1     -14.417   5.230  29.389  1.00  0.00     0.211 HD
ENDBRANCH  11  12
ENDBRANCH   9  11
ENDBRANCH   8   9
BRANCH   8  14
ATOM     14  O   UNL     1     -14.148   3.396  32.199  1.00  0.00    -0.382 OA
ATOM     15  H   UNL     1     -15.138   3.365  32.265  1.00  0.00     0.211 HD
ENDBRANCH   8  14
ENDBRANCH   1   8
BRANCH   1  16
ATOM     16  O   UNL     1     -16.036   2.218  30.447  1.00  0.00    -0.387 OA
ATOM     17  H   UNL     1     -16.178   2.056  29.478  1.00  0.00     0.211 HD
ENDBRANCH   1  16
TORSDOF 10
ENDMDL
MODEL 6
REMARK VINA RESULT:    -3.320     15.344     16.542
REMARK INTER + INTRA:          -6.193
REMARK INTER:                  -5.557
REMARK INTRA:                  -0.636
REMARK UNBOUND:                -1.417
REMARK SMILES O=C(CO)[C@@H](O)[C@H](O)[C@@H](O)CO
REMARK SMILES IDX 7 1 9 2 11 3 12 4 10 6 5 8 2 9 1 10 3 11 4 12 6 14 8 16
REMARK H PARENT 12 5 10 7 4 13 6 15 8 17
REMARK Flexibility Score: inf
ROOT
ATOM      1  C   UNL     1      -3.021  -7.129  30.088  1.00  0.00     0.181 C 
ENDROOT
BRANCH   1   2
ATOM      2  C   UNL     1      -3.855  -8.049  31.018  1.00  0.00     0.171 C 
BRANCH   2   3
ATOM      3  C   UNL     1      -3.828  -9.516  30.547  1.00  0.00     0.190 C 
BRANCH   3   4
ATOM      4  O   UNL     1      -3.688 -10.378  31.643  1.00  0.00    -0.394 OA
ATOM      5  H   UNL     1      -4.526 -10.307  32.170  1.00  0.00     0.210 HD
ENDBRANCH   3   4
ENDBRANCH   2   3
BRANCH   2   6
ATOM      6  O   UNL     1      -5.181  -7.592  31.140  1.00  0.00    -0.388 OA
ATOM      7  H   UNL     1      -5.778  -8.384  31.120  1.00  0.00     0.211 HD
ENDBRANCH   2   6
ENDBRANCH   1   2
BRANCH   1   8
ATOM      8  C   UNL     1      -1.725  -6.640  30.783  1.00  0.00     0.214 C 
BRANCH   8   9
ATOM      9  C   UNL     1      -1.953  -5.345  31.534  1.00  0.00     0.189 C 
ATOM     10  O   UNL     1      -1.981  -4.284  30.928  1.00  0.00    -0.294 OA
BRANCH   9  11
ATOM     11  C   UNL     1      -2.130  -5.348  33.025  1.00  0.00     0.234 C 
BRANCH  11  12
ATOM     12  O   UNL     1      -0.875  -5.420  33.642  1.00  0.00    -0.388 OA
ATOM     13  H   UNL     1      -0.575  -4.481  33.760  1.00  0.00     0.211 HD
ENDBRANCH  11  12
ENDBRANCH   9  11
ENDBRANCH   8   9
BRANCH   8  14
ATOM     14  O   UNL     1      -1.187  -7.618  31.641  1.00  0.00    -0.382 OA
ATOM     15  H   UNL     1      -0.541  -8.163  31.121  1.00  0.00     0.211 HD
ENDBRANCH   8  14
ENDBRANCH   1   8
BRANCH   1  16
ATOM     16  O   UNL     1      -3.787  -6.028  29.664  1.00  0.00    -0.387 OA
ATOM     17  H   UNL     1      -3.316  -5.207  29.964  1.00  0.00     0.211 HD
ENDBRANCH   1  16
TORSDOF 10
ENDMDL
MODEL 7
REMARK VINA RESULT:    -3.316      1.646      4.009
REMARK INTER + INTRA:          -6.187
REMARK INTER:                  -4.947
REMARK INTRA:                  -1.240
REMARK UNBOUND:                -1.417
REMARK SMILES O=C(CO)[C@@H](O)[C@H](O)[C@@H](O)CO
REMARK SMILES IDX 7 1 9 2 11 3 12 4 10 6 5 8 2 9 1 10 3 11 4 12 6 14 8 16
REMARK H PARENT 12 5 10 7 4 13 6 15 8 17
REMARK Flexibility Score: inf
ROOT
ATOM      1  C   UNL     1     -11.712   5.152  28.674  1.00  0.00     0.181 C 
ENDROOT
BRANCH   1   2
ATOM      2  C   UNL     1     -12.029   6.398  27.806  1.00  0.00     0.171 C 
BRANCH   2   3
ATOM      3  C   UNL     1     -11.556   7.701  28.480  1.00  0.00     0.190 C 
BRANCH   3   4
ATOM      4  O   UNL     1     -12.342   7.980  29.607  1.00  0.00    -0.394 OA
ATOM      5  H   UNL     1     -11.869   7.588  30.387  1.00  0.00     0.210 HD
ENDBRANCH   3   4
ENDBRANCH   2   3
BRANCH   2   6
ATOM      6  O   UNL     1     -13.399   6.472  27.491  1.00  0.00    -0.388 OA
ATOM      7  H   UNL     1     -13.536   7.271  26.919  1.00  0.00     0.211 HD
ENDBRANCH   2   6
ENDBRANCH   1   2
BRANCH   1   8
ATOM      8  C   UNL     1     -13.006   4.479  29.200  1.00  0.00     0.214 C 
BRANCH   8   9
ATOM      9  C   UNL     1     -12.705   3.165  29.889  1.00  0.00     0.189 C 
ATOM     10  O   UNL     1     -11.674   2.561  29.632  1.00  0.00    -0.294 OA
BRANCH   9  11
ATOM     11  C   UNL     1     -13.674   2.583  30.878  1.00  0.00     0.234 C 
BRANCH  11  12
ATOM     12  O   UNL     1     -14.960   2.586  30.326  1.00  0.00    -0.388 OA
ATOM     13  H   UNL     1     -14.941   1.928  29.583  1.00  0.00     0.211 HD
ENDBRANCH  11  12
ENDBRANCH   9  11
ENDBRANCH   8   9
BRANCH   8  14
ATOM     14  O   UNL     1     -13.730   5.330  30.057  1.00  0.00    -0.382 OA
ATOM     15  H   UNL     1     -13.612   6.262  29.737  1.00  0.00     0.211 HD
ENDBRANCH   8  14
ENDBRANCH   1   8
BRANCH   1  16
ATOM     16  O   UNL     1     -10.874   5.497  29.749  1.00  0.00    -0.387 OA
ATOM     17  H   UNL     1     -10.805   6.487  29.763  1.00  0.00     0.211 HD
ENDBRANCH   1  16
TORSDOF 10
ENDMDL
MODEL 8
REMARK VINA RESULT:    -3.291      6.924      9.958
REMARK INTER + INTRA:          -6.152
REMARK INTER:                  -4.988
REMARK INTRA:                  -1.163
REMARK UNBOUND:                -1.417
REMARK SMILES O=C(CO)[C@@H](O)[C@H](O)[C@@H](O)CO
REMARK SMILES IDX 7 1 9 2 11 3 12 4 10 6 5 8 2 9 1 10 3 11 4 12 6 14 8 16
REMARK H PARENT 12 5 10 7 4 13 6 15 8 17
REMARK Flexibility Score: inf
ROOT
ATOM      1  C   UNL     1     -15.690  -0.642  32.841  1.00  0.00     0.181 C 
ENDROOT
BRANCH   1   2
ATOM      2  C   UNL     1     -15.897  -0.121  31.395  1.00  0.00     0.171 C 
BRANCH   2   3
ATOM      3  C   UNL     1     -15.412   1.332  31.233  1.00  0.00     0.190 C 
BRANCH   3   4
ATOM      4  O   UNL     1     -16.401   2.111  30.615  1.00  0.00    -0.394 OA
ATOM      5  H   UNL     1     -16.281   1.999  29.637  1.00  0.00     0.210 HD
ENDBRANCH   3   4
ENDBRANCH   2   3
BRANCH   2   6
ATOM      6  O   UNL     1     -17.240  -0.243  30.991  1.00  0.00    -0.388 OA
ATOM      7  H   UNL     1     -17.262  -0.233  29.999  1.00  0.00     0.211 HD
ENDBRANCH   2   6
ENDBRANCH   1   2
BRANCH   1   8
ATOM      8  C   UNL     1     -15.506  -2.180  32.873  1.00  0.00     0.214 C 
BRANCH   8   9
ATOM      9  C   UNL     1     -16.565  -2.847  33.726  1.00  0.00     0.189 C 
ATOM     10  O   UNL     1     -16.484  -2.807  34.945  1.00  0.00    -0.294 OA
BRANCH   9  11
ATOM     11  C   UNL     1     -17.712  -3.576  33.087  1.00  0.00     0.234 C 
BRANCH  11  12
ATOM     12  O   UNL     1     -18.269  -2.776  32.083  1.00  0.00    -0.388 OA
ATOM     13  H   UNL     1     -17.547  -2.162  31.790  1.00  0.00     0.211 HD
ENDBRANCH  11  12
ENDBRANCH   9  11
ENDBRANCH   8   9
BRANCH   8  14
ATOM     14  O   UNL     1     -15.495  -2.736  31.580  1.00  0.00    -0.382 OA
ATOM     15  H   UNL     1     -16.435  -2.844  31.283  1.00  0.00     0.211 HD
ENDBRANCH   8  14
ENDBRANCH   1   8
BRANCH   1  16
ATOM     16  O   UNL     1     -16.769  -0.266  33.662  1.00  0.00    -0.387 OA
ATOM     17  H   UNL     1     -17.290   0.420  33.168  1.00  0.00     0.211 HD
ENDBRANCH   1  16
TORSDOF 10
ENDMDL
MODEL 9
REMARK VINA RESULT:    -3.281      1.345      2.219
REMARK INTER + INTRA:          -6.136
REMARK INTER:                  -4.764
REMARK INTRA:                  -1.372
REMARK UNBOUND:                -1.417
REMARK SMILES O=C(CO)[C@@H](O)[C@H](O)[C@@H](O)CO
REMARK SMILES IDX 7 1 9 2 11 3 12 4 10 6 5 8 2 9 1 10 3 11 4 12 6 14 8 16
REMARK H PARENT 12 5 10 7 4 13 6 15 8 17
REMARK Flexibility Score: inf
ROOT
ATOM      1  C   UNL     1     -12.784   4.781  29.798  1.00  0.00     0.181 C 
ENDROOT
BRANCH   1   2
ATOM      2  C   UNL     1     -12.125   4.748  31.203  1.00  0.00     0.171 C 
BRANCH   2   3
ATOM      3  C   UNL     1     -12.736   3.652  32.097  1.00  0.00     0.190 C 
BRANCH   3   4
ATOM      4  O   UNL     1     -13.984   4.061  32.587  1.00  0.00    -0.394 OA
ATOM      5  H   UNL     1     -14.662   3.751  31.932  1.00  0.00     0.210 HD
ENDBRANCH   3   4
ENDBRANCH   2   3
BRANCH   2   6
ATOM      6  O   UNL     1     -12.201   6.003  31.836  1.00  0.00    -0.388 OA
ATOM      7  H   UNL     1     -12.533   5.858  32.760  1.00  0.00     0.211 HD
ENDBRANCH   2   6
ENDBRANCH   1   2
BRANCH   1   8
ATOM      8  C   UNL     1     -11.798   5.294  28.718  1.00  0.00     0.214 C 
BRANCH   8   9
ATOM      9  C   UNL     1     -12.400   6.428  27.914  1.00  0.00     0.189 C 
ATOM     10  O   UNL     1     -13.191   6.186  27.014  1.00  0.00    -0.294 OA
BRANCH   9  11
ATOM     11  C   UNL     1     -12.020   7.852  28.200  1.00  0.00     0.234 C 
BRANCH  11  12
ATOM     12  O   UNL     1     -12.229   8.125  29.557  1.00  0.00    -0.388 OA
ATOM     13  H   UNL     1     -13.213   8.154  29.682  1.00  0.00     0.211 HD
ENDBRANCH  11  12
ENDBRANCH   9  11
ENDBRANCH   8   9
BRANCH   8  14
ATOM     14  O   UNL     1     -10.566   5.686  29.274  1.00  0.00    -0.382 OA
ATOM     15  H   UNL     1      -9.961   5.946  28.531  1.00  0.00     0.211 HD
ENDBRANCH   8  14
ENDBRANCH   1   8
BRANCH   1  16
ATOM     16  O   UNL     1     -13.944   5.576  29.813  1.00  0.00    -0.387 OA
ATOM     17  H   UNL     1     -14.342   5.499  30.720  1.00  0.00     0.211 HD
ENDBRANCH   1  16
TORSDOF 10
ENDMDL
