MODEL 1
REMARK VINA RESULT:    -4.891      0.000      0.000
REMARK INTER + INTRA:          -6.112
REMARK INTER:                  -5.892
REMARK INTRA:                  -0.220
REMARK UNBOUND:                -0.220
REMARK SMILES C=CCc1ccc(O)c(OC)c1
REMARK SMILES IDX 9 1 7 2 6 3 5 4 4 5 12 6 10 7 11 8 8 9 3 11 2 12 1 13
REMARK H PARENT 8 10
REMARK Flexibility Score: inf
ROOT
ATOM      1  C   UNL     1       8.260  -8.425  42.433  1.00  0.00     0.160 A 
ATOM      2  C   UNL     1       8.249  -8.714  43.805  1.00  0.00     0.157 A 
ATOM      3  C   UNL     1       7.487  -9.785  44.293  1.00  0.00     0.050 A 
ATOM      4  C   UNL     1       6.737 -10.572  43.417  1.00  0.00     0.008 A 
ATOM      5  C   UNL     1       6.746 -10.302  42.040  1.00  0.00    -0.040 A 
ATOM      6  C   UNL     1       7.501  -9.223  41.554  1.00  0.00     0.054 A 
ENDROOT
BRANCH   1   7
ATOM      7  O   UNL     1       9.030  -7.341  41.983  1.00  0.00    -0.493 OA
ATOM      8  C   UNL     1       8.498  -6.176  41.363  1.00  0.00     0.278 C 
ENDBRANCH   1   7
BRANCH   2   9
ATOM      9  O   UNL     1       8.998  -7.929  44.681  1.00  0.00    -0.504 OA
ATOM     10  H   UNL     1       8.818  -7.929  45.678  1.00  0.00     0.293 HD
ENDBRANCH   2   9
BRANCH   5  11
ATOM     11  C   UNL     1       5.916 -11.131  41.097  1.00  0.00     0.062 C 
BRANCH  11  12
ATOM     12  C   UNL     1       6.402 -10.976  39.683  1.00  0.00    -0.030 C 
ATOM     13  C   UNL     1       6.879 -12.011  38.986  1.00  0.00     0.004 C 
ENDBRANCH  11  12
ENDBRANCH   5  11
TORSDOF 4
ENDMDL
MODEL 2
REMARK VINA RESULT:    -4.630      2.299      4.374
REMARK INTER + INTRA:          -5.797
REMARK INTER:                  -5.550
REMARK INTRA:                  -0.247
REMARK UNBOUND:                -0.220
REMARK SMILES C=CCc1ccc(O)c(OC)c1
REMARK SMILES IDX 9 1 7 2 6 3 5 4 4 5 12 6 10 7 11 8 8 9 3 11 2 12 1 13
REMARK H PARENT 8 10
REMARK Flexibility Score: inf
ROOT
ATOM      1  C   UNL     1       6.398 -10.440  41.994  1.00  0.00     0.160 A 
ATOM      2  C   UNL     1       6.507 -10.894  43.316  1.00  0.00     0.157 A 
ATOM      3  C   UNL     1       7.283 -10.185  44.242  1.00  0.00     0.050 A 
ATOM      4  C   UNL     1       7.953  -9.023  43.857  1.00  0.00     0.008 A 
ATOM      5  C   UNL     1       7.846  -8.549  42.540  1.00  0.00    -0.040 A 
ATOM      6  C   UNL     1       7.075  -9.265  41.610  1.00  0.00     0.054 A 
ENDROOT
BRANCH   1   7
ATOM      7  O   UNL     1       5.615 -11.179  41.094  1.00  0.00    -0.493 OA
ATOM      8  C   UNL     1       6.051 -11.607  39.808  1.00  0.00     0.278 C 
ENDBRANCH   1   7
BRANCH   2   9
ATOM      9  O   UNL     1       5.838 -12.054  43.703  1.00  0.00    -0.504 OA
ATOM     10  H   UNL     1       4.828 -12.123  43.661  1.00  0.00     0.293 HD
ENDBRANCH   2   9
BRANCH   5  11
ATOM     11  C   UNL     1       8.590  -7.311  42.114  1.00  0.00     0.062 C 
BRANCH  11  12
ATOM     12  C   UNL     1       7.635  -6.181  41.849  1.00  0.00    -0.030 C 
ATOM     13  C   UNL     1       7.312  -5.297  42.798  1.00  0.00     0.004 C 
ENDBRANCH  11  12
ENDBRANCH   5  11
TORSDOF 4
ENDMDL
MODEL 3
REMARK VINA RESULT:    -4.460      1.936      4.867
REMARK INTER + INTRA:          -5.592
REMARK INTER:                  -5.370
REMARK INTRA:                  -0.223
REMARK UNBOUND:                -0.220
REMARK SMILES C=CCc1ccc(O)c(OC)c1
REMARK SMILES IDX 9 1 7 2 6 3 5 4 4 5 12 6 10 7 11 8 8 9 3 11 2 12 1 13
REMARK H PARENT 8 10
REMARK Flexibility Score: inf
ROOT
ATOM      1  C   UNL     1       7.825  -8.629  42.310  1.00  0.00     0.160 A 
ATOM      2  C   UNL     1       7.938  -8.504  43.702  1.00  0.00     0.157 A 
ATOM      3  C   UNL     1       7.997  -7.234  44.293  1.00  0.00     0.050 A 
ATOM      4  C   UNL     1       7.942  -6.086  43.501  1.00  0.00     0.008 A 
ATOM      5  C   UNL     1       7.819  -6.193  42.107  1.00  0.00    -0.040 A 
ATOM      6  C   UNL     1       7.770  -7.465  41.516  1.00  0.00     0.054 A 
ENDROOT
BRANCH   1   7
ATOM      7  O   UNL     1       7.775  -9.916  41.754  1.00  0.00    -0.493 OA
ATOM      8  C   UNL     1       6.660 -10.446  41.047  1.00  0.00     0.278 C 
ENDBRANCH   1   7
BRANCH   2   9
ATOM      9  O   UNL     1       7.992  -9.650  44.494  1.00  0.00    -0.504 OA
ATOM     10  H   UNL     1       7.251 -10.340  44.478  1.00  0.00     0.293 HD
ENDBRANCH   2   9
BRANCH   5  11
ATOM     11  C   UNL     1       7.788  -4.957  41.249  1.00  0.00     0.062 C 
BRANCH  11  12
ATOM     12  C   UNL     1       8.559  -3.840  41.895  1.00  0.00    -0.030 C 
ATOM     13  C   UNL     1       8.326  -2.560  41.595  1.00  0.00     0.004 C 
ENDBRANCH  11  12
ENDBRANCH   5  11
TORSDOF 4
ENDMDL
MODEL 4
REMARK VINA RESULT:    -4.388     13.889     14.968
REMARK INTER + INTRA:          -5.505
REMARK INTER:                  -5.290
REMARK INTRA:                  -0.216
REMARK UNBOUND:                -0.220
REMARK SMILES C=CCc1ccc(O)c(OC)c1
REMARK SMILES IDX 9 1 7 2 6 3 5 4 4 5 12 6 10 7 11 8 8 9 3 11 2 12 1 13
REMARK H PARENT 8 10
REMARK Flexibility Score: inf
ROOT
ATOM      1  C   UNL     1      22.026 -13.690  46.501  1.00  0.00     0.160 A 
ATOM      2  C   UNL     1      22.612 -12.554  47.077  1.00  0.00     0.157 A 
ATOM      3  C   UNL     1      22.183 -11.273  46.701  1.00  0.00     0.050 A 
ATOM      4  C   UNL     1      21.170 -11.120  45.754  1.00  0.00     0.008 A 
ATOM      5  C   UNL     1      20.566 -12.247  45.175  1.00  0.00    -0.040 A 
ATOM      6  C   UNL     1      21.004 -13.529  45.545  1.00  0.00     0.054 A 
ENDROOT
BRANCH   1   7
ATOM      7  O   UNL     1      22.486 -14.955  46.898  1.00  0.00    -0.493 OA
ATOM      8  C   UNL     1      23.473 -15.709  46.203  1.00  0.00     0.278 C 
ENDBRANCH   1   7
BRANCH   2   9
ATOM      9  O   UNL     1      23.624 -12.705  48.024  1.00  0.00    -0.504 OA
ATOM     10  H   UNL     1      24.549 -13.026  47.764  1.00  0.00     0.293 HD
ENDBRANCH   2   9
BRANCH   5  11
ATOM     11  C   UNL     1      19.494 -12.084  44.132  1.00  0.00     0.062 C 
BRANCH  11  12
ATOM     12  C   UNL     1      18.754 -10.790  44.325  1.00  0.00    -0.030 C 
ATOM     13  C   UNL     1      17.979 -10.274  43.367  1.00  0.00     0.004 C 
ENDBRANCH  11  12
ENDBRANCH   5  11
TORSDOF 4
ENDMDL
MODEL 5
REMARK VINA RESULT:    -4.382      7.820      9.883
REMARK INTER + INTRA:          -5.499
REMARK INTER:                  -5.233
REMARK INTRA:                  -0.266
REMARK UNBOUND:                -0.220
REMARK SMILES C=CCc1ccc(O)c(OC)c1
REMARK SMILES IDX 9 1 7 2 6 3 5 4 4 5 12 6 10 7 11 8 8 9 3 11 2 12 1 13
REMARK H PARENT 8 10
REMARK Flexibility Score: inf
ROOT
ATOM      1  C   UNL     1       8.160  -3.546  36.078  1.00  0.00     0.160 A 
ATOM      2  C   UNL     1       7.900  -3.421  37.450  1.00  0.00     0.157 A 
ATOM      3  C   UNL     1       6.867  -2.585  37.898  1.00  0.00     0.050 A 
ATOM      4  C   UNL     1       6.091  -1.873  36.982  1.00  0.00     0.008 A 
ATOM      5  C   UNL     1       6.332  -1.995  35.606  1.00  0.00    -0.040 A 
ATOM      6  C   UNL     1       7.372  -2.824  35.158  1.00  0.00     0.054 A 
ENDROOT
BRANCH   1   7
ATOM      7  O   UNL     1       9.206  -4.387  35.668  1.00  0.00    -0.493 OA
ATOM      8  C   UNL     1       9.377  -4.874  34.342  1.00  0.00     0.278 C 
ENDBRANCH   1   7
BRANCH   2   9
ATOM      9  O   UNL     1       8.674  -4.132  38.366  1.00  0.00    -0.504 OA
ATOM     10  H   UNL     1       9.060  -3.689  39.191  1.00  0.00     0.293 HD
ENDBRANCH   2   9
BRANCH   5  11
ATOM     11  C   UNL     1       5.515  -1.206  34.617  1.00  0.00     0.062 C 
BRANCH  11  12
ATOM     12  C   UNL     1       5.455   0.243  35.012  1.00  0.00    -0.030 C 
ATOM     13  C   UNL     1       6.365   1.125  34.588  1.00  0.00     0.004 C 
ENDBRANCH  11  12
ENDBRANCH   5  11
TORSDOF 4
ENDMDL
MODEL 6
REMARK VINA RESULT:    -4.374     13.808     14.840
REMARK INTER + INTRA:          -5.489
REMARK INTER:                  -5.280
REMARK INTRA:                  -0.209
REMARK UNBOUND:                -0.220
REMARK SMILES C=CCc1ccc(O)c(OC)c1
REMARK SMILES IDX 9 1 7 2 6 3 5 4 4 5 12 6 10 7 11 8 8 9 3 11 2 12 1 13
REMARK H PARENT 8 10
REMARK Flexibility Score: inf
ROOT
ATOM      1  C   UNL     1      22.448 -13.016  46.601  1.00  0.00     0.160 A 
ATOM      2  C   UNL     1      21.721 -14.215  46.627  1.00  0.00     0.157 A 
ATOM      3  C   UNL     1      20.470 -14.293  46.001  1.00  0.00     0.050 A 
ATOM      4  C   UNL     1      19.938 -13.180  45.348  1.00  0.00     0.008 A 
ATOM      5  C   UNL     1      20.658 -11.976  45.304  1.00  0.00    -0.040 A 
ATOM      6  C   UNL     1      21.907 -11.895  45.939  1.00  0.00     0.054 A 
ENDROOT
BRANCH   1   7
ATOM      7  O   UNL     1      23.695 -12.974  47.243  1.00  0.00    -0.493 OA
ATOM      8  C   UNL     1      24.513 -11.814  47.343  1.00  0.00     0.278 C 
ENDBRANCH   1   7
BRANCH   2   9
ATOM      9  O   UNL     1      22.251 -15.327  47.279  1.00  0.00    -0.504 OA
ATOM     10  H   UNL     1      23.041 -15.246  47.908  1.00  0.00     0.293 HD
ENDBRANCH   2   9
BRANCH   5  11
ATOM     11  C   UNL     1      20.075 -10.765  44.624  1.00  0.00     0.062 C 
BRANCH  11  12
ATOM     12  C   UNL     1      18.664 -11.033  44.177  1.00  0.00    -0.030 C 
ATOM     13  C   UNL     1      17.991 -10.164  43.418  1.00  0.00     0.004 C 
ENDBRANCH  11  12
ENDBRANCH   5  11
TORSDOF 4
ENDMDL
MODEL 7
REMARK VINA RESULT:    -4.324      8.005      9.750
REMARK INTER + INTRA:          -5.429
REMARK INTER:                  -5.226
REMARK INTRA:                  -0.202
REMARK UNBOUND:                -0.220
REMARK SMILES C=CCc1ccc(O)c(OC)c1
REMARK SMILES IDX 9 1 7 2 6 3 5 4 4 5 12 6 10 7 11 8 8 9 3 11 2 12 1 13
REMARK H PARENT 8 10
REMARK Flexibility Score: inf
ROOT
ATOM      1  C   UNL     1       6.056  -1.436  36.573  1.00  0.00     0.160 A 
ATOM      2  C   UNL     1       6.397  -2.260  35.490  1.00  0.00     0.157 A 
ATOM      3  C   UNL     1       7.172  -3.409  35.698  1.00  0.00     0.050 A 
ATOM      4  C   UNL     1       7.608  -3.743  36.981  1.00  0.00     0.008 A 
ATOM      5  C   UNL     1       7.266  -2.935  38.076  1.00  0.00    -0.040 A 
ATOM      6  C   UNL     1       6.498  -1.778  37.866  1.00  0.00     0.054 A 
ENDROOT
BRANCH   1   7
ATOM      7  O   UNL     1       5.284  -0.290  36.325  1.00  0.00    -0.493 OA
ATOM      8  C   UNL     1       5.808   1.028  36.220  1.00  0.00     0.278 C 
ENDBRANCH   1   7
BRANCH   2   9
ATOM      9  O   UNL     1       5.963  -1.928  34.208  1.00  0.00    -0.504 OA
ATOM     10  H   UNL     1       6.057  -0.987  33.844  1.00  0.00     0.293 HD
ENDBRANCH   2   9
BRANCH   5  11
ATOM     11  C   UNL     1       7.758  -3.276  39.457  1.00  0.00     0.062 C 
BRANCH  11  12
ATOM     12  C   UNL     1       8.068  -2.029  40.236  1.00  0.00    -0.030 C 
ATOM     13  C   UNL     1       8.413  -2.073  41.525  1.00  0.00     0.004 C 
ENDBRANCH  11  12
ENDBRANCH   5  11
TORSDOF 4
ENDMDL
MODEL 8
REMARK VINA RESULT:    -4.289      7.428      9.336
REMARK INTER + INTRA:          -5.386
REMARK INTER:                  -5.151
REMARK INTRA:                  -0.236
REMARK UNBOUND:                -0.220
REMARK SMILES C=CCc1ccc(O)c(OC)c1
REMARK SMILES IDX 9 1 7 2 6 3 5 4 4 5 12 6 10 7 11 8 8 9 3 11 2 12 1 13
REMARK H PARENT 8 10
REMARK Flexibility Score: inf
ROOT
ATOM      1  C   UNL     1       7.498  -2.716  38.591  1.00  0.00     0.160 A 
ATOM      2  C   UNL     1       8.303  -3.650  37.924  1.00  0.00     0.157 A 
ATOM      3  C   UNL     1       8.250  -3.755  36.527  1.00  0.00     0.050 A 
ATOM      4  C   UNL     1       7.399  -2.929  35.791  1.00  0.00     0.008 A 
ATOM      5  C   UNL     1       6.595  -1.982  36.443  1.00  0.00    -0.040 A 
ATOM      6  C   UNL     1       6.641  -1.885  37.843  1.00  0.00     0.054 A 
ENDROOT
BRANCH   1   7
ATOM      7  O   UNL     1       7.574  -2.644  39.991  1.00  0.00    -0.493 OA
ATOM      8  C   UNL     1       8.218  -1.600  40.711  1.00  0.00     0.278 C 
ENDBRANCH   1   7
BRANCH   2   9
ATOM      9  O   UNL     1       9.154  -4.475  38.658  1.00  0.00    -0.504 OA
ATOM     10  H   UNL     1       9.909  -4.986  38.215  1.00  0.00     0.293 HD
ENDBRANCH   2   9
BRANCH   5  11
ATOM     11  C   UNL     1       5.654  -1.110  35.654  1.00  0.00     0.062 C 
BRANCH  11  12
ATOM     12  C   UNL     1       6.385  -0.404  34.547  1.00  0.00    -0.030 C 
ATOM     13  C   UNL     1       6.352   0.925  34.419  1.00  0.00     0.004 C 
ENDBRANCH  11  12
ENDBRANCH   5  11
TORSDOF 4
ENDMDL
MODEL 9
REMARK VINA RESULT:    -4.209      6.030      8.768
REMARK INTER + INTRA:          -5.290
REMARK INTER:                  -5.076
REMARK INTRA:                  -0.214
REMARK UNBOUND:                -0.220
REMARK SMILES C=CCc1ccc(O)c(OC)c1
REMARK SMILES IDX 9 1 7 2 6 3 5 4 4 5 12 6 10 7 11 8 8 9 3 11 2 12 1 13
REMARK H PARENT 8 10
REMARK Flexibility Score: inf
ROOT
ATOM      1  C   UNL     1       7.476  -3.559  36.278  1.00  0.00     0.160 A 
ATOM      2  C   UNL     1       6.671  -2.458  35.951  1.00  0.00     0.157 A 
ATOM      3  C   UNL     1       6.279  -1.552  36.947  1.00  0.00     0.050 A 
ATOM      4  C   UNL     1       6.688  -1.737  38.268  1.00  0.00     0.008 A 
ATOM      5  C   UNL     1       7.503  -2.828  38.610  1.00  0.00    -0.040 A 
ATOM      6  C   UNL     1       7.887  -3.740  37.614  1.00  0.00     0.054 A 
ENDROOT
BRANCH   1   7
ATOM      7  O   UNL     1       7.843  -4.447  35.256  1.00  0.00    -0.493 OA
ATOM      8  C   UNL     1       9.106  -4.445  34.600  1.00  0.00     0.278 C 
ENDBRANCH   1   7
BRANCH   2   9
ATOM      9  O   UNL     1       6.262  -2.272  34.632  1.00  0.00    -0.504 OA
ATOM     10  H   UNL     1       6.192  -1.347  34.225  1.00  0.00     0.293 HD
ENDBRANCH   2   9
BRANCH   5  11
ATOM     11  C   UNL     1       7.922  -3.046  40.039  1.00  0.00     0.062 C 
BRANCH  11  12
ATOM     12  C   UNL     1       8.158  -4.506  40.308  1.00  0.00    -0.030 C 
ATOM     13  C   UNL     1       7.767  -5.083  41.448  1.00  0.00     0.004 C 
ENDBRANCH  11  12
ENDBRANCH   5  11
TORSDOF 4
ENDMDL
