MODEL 1
REMARK VINA RESULT:    -2.859      0.000      0.000
REMARK INTER + INTRA:          -7.401
REMARK INTER:                  -5.032
REMARK INTRA:                  -2.369
REMARK UNBOUND:                -2.369
REMARK SMILES CCCCCCCCCCCCCCC(=O)[O-]
REMARK SMILES IDX 9 1 10 2 11 3 12 4 13 5 14 6 15 7 16 8 17 9 8 10 7 11 6 12
REMARK SMILES IDX 5 13 4 14 3 15 2 16 1 17
REMARK H PARENT
REMARK Flexibility Score: inf
ROOT
ATOM      1  C   UNL     1      53.931  32.691  86.402  1.00  0.00     0.000 C 
ENDROOT
BRANCH   1   2
ATOM      2  C   UNL     1      53.343  31.357  86.891  1.00  0.00     0.000 C 
BRANCH   2   3
ATOM      3  C   UNL     1      51.831  31.441  87.163  1.00  0.00     0.000 C 
BRANCH   3   4
ATOM      4  C   UNL     1      51.483  31.186  88.639  1.00  0.00     0.000 C 
BRANCH   4   5
ATOM      5  C   UNL     1      51.496  32.473  89.483  1.00  0.00     0.006 C 
BRANCH   5   6
ATOM      6  C   UNL     1      52.685  32.517  90.452  1.00  0.00     0.053 C 
BRANCH   6   7
ATOM      7  C   UNL     1      52.407  31.748  91.707  1.00  0.00     0.041 C 
ATOM      8  O   UNL     1      51.382  32.002  92.392  1.00  0.00    -0.550 OA
ATOM      9  O   UNL     1      53.301  30.775  92.140  1.00  0.00    -0.550 OA
ENDBRANCH   6   7
ENDBRANCH   5   6
ENDBRANCH   4   5
ENDBRANCH   3   4
ENDBRANCH   2   3
ENDBRANCH   1   2
BRANCH   1  10
ATOM     10  C   UNL     1      54.620  33.481  87.529  1.00  0.00     0.000 C 
BRANCH  10  11
ATOM     11  C   UNL     1      53.981  34.862  87.756  1.00  0.00    -0.000 C 
BRANCH  11  12
ATOM     12  C   UNL     1      52.901  35.193  86.712  1.00  0.00    -0.000 C 
BRANCH  12  13
ATOM     13  C   UNL     1      51.513  35.394  87.342  1.00  0.00    -0.000 C 
BRANCH  13  14
ATOM     14  C   UNL     1      50.381  34.798  86.485  1.00  0.00    -0.000 C 
BRANCH  14  15
ATOM     15  C   UNL     1      49.121  34.486  87.307  1.00  0.00    -0.000 C 
BRANCH  15  16
ATOM     16  C   UNL     1      48.486  33.142  86.924  1.00  0.00    -0.003 C 
ATOM     17  C   UNL     1      47.912  32.436  88.151  1.00  0.00     0.004 C 
ENDBRANCH  15  16
ENDBRANCH  14  15
ENDBRANCH  13  14
ENDBRANCH  12  13
ENDBRANCH  11  12
ENDBRANCH  10  11
ENDBRANCH   1  10
TORSDOF 13
ENDMDL
MODEL 2
REMARK VINA RESULT:    -2.832      3.311      5.358
REMARK INTER + INTRA:          -7.354
REMARK INTER:                  -5.459
REMARK INTRA:                  -1.895
REMARK UNBOUND:                -2.369
REMARK SMILES CCCCCCCCCCCCCCC(=O)[O-]
REMARK SMILES IDX 9 1 10 2 11 3 12 4 13 5 14 6 15 7 16 8 17 9 8 10 7 11 6 12
REMARK SMILES IDX 5 13 4 14 3 15 2 16 1 17
REMARK H PARENT
REMARK Flexibility Score: inf
ROOT
ATOM      1  C   UNL     1      51.022  31.068  90.278  1.00  0.00     0.000 C 
ENDROOT
BRANCH   1   2
ATOM      2  C   UNL     1      49.686  30.869  91.012  1.00  0.00     0.000 C 
BRANCH   2   3
ATOM      3  C   UNL     1      48.919  29.629  90.519  1.00  0.00     0.000 C 
BRANCH   3   4
ATOM      4  C   UNL     1      47.460  29.945  90.153  1.00  0.00     0.000 C 
BRANCH   4   5
ATOM      5  C   UNL     1      47.016  31.339  90.631  1.00  0.00     0.006 C 
BRANCH   5   6
ATOM      6  C   UNL     1      45.502  31.542  90.498  1.00  0.00     0.053 C 
BRANCH   6   7
ATOM      7  C   UNL     1      44.792  31.291  91.793  1.00  0.00     0.041 C 
ATOM      8  O   UNL     1      44.418  30.127  92.095  1.00  0.00    -0.550 OA
ATOM      9  O   UNL     1      44.509  32.349  92.649  1.00  0.00    -0.550 OA
ENDBRANCH   6   7
ENDBRANCH   5   6
ENDBRANCH   4   5
ENDBRANCH   3   4
ENDBRANCH   2   3
ENDBRANCH   1   2
BRANCH   1  10
ATOM     10  C   UNL     1      50.921  32.100  89.139  1.00  0.00     0.000 C 
BRANCH  10  11
ATOM     11  C   UNL     1      50.682  31.444  87.769  1.00  0.00    -0.000 C 
BRANCH  11  12
ATOM     12  C   UNL     1      49.245  31.645  87.259  1.00  0.00    -0.000 C 
BRANCH  12  13
ATOM     13  C   UNL     1      48.586  32.909  87.834  1.00  0.00    -0.000 C 
BRANCH  13  14
ATOM     14  C   UNL     1      48.602  34.089  86.845  1.00  0.00    -0.000 C 
BRANCH  14  15
ATOM     15  C   UNL     1      49.835  34.990  87.022  1.00  0.00    -0.000 C 
BRANCH  15  16
ATOM     16  C   UNL     1      50.897  34.756  85.938  1.00  0.00    -0.003 C 
ATOM     17  C   UNL     1      52.294  34.665  86.548  1.00  0.00     0.004 C 
ENDBRANCH  15  16
ENDBRANCH  14  15
ENDBRANCH  13  14
ENDBRANCH  12  13
ENDBRANCH  11  12
ENDBRANCH  10  11
ENDBRANCH   1  10
TORSDOF 13
ENDMDL
MODEL 3
REMARK VINA RESULT:    -2.821      3.384      5.622
REMARK INTER + INTRA:          -7.333
REMARK INTER:                  -6.055
REMARK INTRA:                  -1.279
REMARK UNBOUND:                -2.369
REMARK SMILES CCCCCCCCCCCCCCC(=O)[O-]
REMARK SMILES IDX 9 1 10 2 11 3 12 4 13 5 14 6 15 7 16 8 17 9 8 10 7 11 6 12
REMARK SMILES IDX 5 13 4 14 3 15 2 16 1 17
REMARK H PARENT
REMARK Flexibility Score: inf
ROOT
ATOM      1  C   UNL     1      48.202  32.200  86.791  1.00  0.00     0.000 C 
ENDROOT
BRANCH   1   2
ATOM      2  C   UNL     1      47.781  32.381  88.259  1.00  0.00     0.000 C 
BRANCH   2   3
ATOM      3  C   UNL     1      48.597  31.501  89.222  1.00  0.00     0.000 C 
BRANCH   3   4
ATOM      4  C   UNL     1      47.802  31.108  90.478  1.00  0.00     0.000 C 
BRANCH   4   5
ATOM      5  C   UNL     1      46.321  30.819  90.177  1.00  0.00     0.006 C 
BRANCH   5   6
ATOM      6  C   UNL     1      45.387  31.435  91.226  1.00  0.00     0.053 C 
BRANCH   6   7
ATOM      7  C   UNL     1      44.702  30.384  92.046  1.00  0.00     0.041 C 
ATOM      8  O   UNL     1      45.330  29.356  92.411  1.00  0.00    -0.550 OA
ATOM      9  O   UNL     1      43.359  30.524  92.375  1.00  0.00    -0.550 OA
ENDBRANCH   6   7
ENDBRANCH   5   6
ENDBRANCH   4   5
ENDBRANCH   3   4
ENDBRANCH   2   3
ENDBRANCH   1   2
BRANCH   1  10
ATOM     10  C   UNL     1      48.838  33.471  86.199  1.00  0.00     0.000 C 
BRANCH  10  11
ATOM     11  C   UNL     1      48.762  34.671  87.158  1.00  0.00    -0.000 C 
BRANCH  11  12
ATOM     12  C   UNL     1      50.126  35.349  87.368  1.00  0.00    -0.000 C 
BRANCH  12  13
ATOM     13  C   UNL     1      51.246  34.341  87.674  1.00  0.00    -0.000 C 
BRANCH  13  14
ATOM     14  C   UNL     1      52.648  34.904  87.382  1.00  0.00    -0.000 C 
BRANCH  14  15
ATOM     15  C   UNL     1      52.931  35.032  85.877  1.00  0.00    -0.000 C 
BRANCH  15  16
ATOM     16  C   UNL     1      52.500  33.787  85.089  1.00  0.00    -0.003 C 
ATOM     17  C   UNL     1      51.615  34.167  83.903  1.00  0.00     0.004 C 
ENDBRANCH  15  16
ENDBRANCH  14  15
ENDBRANCH  13  14
ENDBRANCH  12  13
ENDBRANCH  11  12
ENDBRANCH  10  11
ENDBRANCH   1  10
TORSDOF 13
ENDMDL
MODEL 4
REMARK VINA RESULT:    -2.810      2.503      4.833
REMARK INTER + INTRA:          -7.314
REMARK INTER:                  -4.938
REMARK INTRA:                  -2.376
REMARK UNBOUND:                -2.369
REMARK SMILES CCCCCCCCCCCCCCC(=O)[O-]
REMARK SMILES IDX 9 1 10 2 11 3 12 4 13 5 14 6 15 7 16 8 17 9 8 10 7 11 6 12
REMARK SMILES IDX 5 13 4 14 3 15 2 16 1 17
REMARK H PARENT
REMARK Flexibility Score: inf
ROOT
ATOM      1  C   UNL     1      53.878  33.293  86.573  1.00  0.00     0.000 C 
ENDROOT
BRANCH   1   2
ATOM      2  C   UNL     1      54.168  34.511  87.466  1.00  0.00     0.000 C 
BRANCH   2   3
ATOM      3  C   UNL     1      52.947  35.433  87.623  1.00  0.00     0.000 C 
BRANCH   3   4
ATOM      4  C   UNL     1      51.778  35.023  86.712  1.00  0.00     0.000 C 
BRANCH   4   5
ATOM      5  C   UNL     1      50.406  35.383  87.308  1.00  0.00     0.006 C 
BRANCH   5   6
ATOM      6  C   UNL     1      49.251  35.007  86.370  1.00  0.00     0.053 C 
BRANCH   6   7
ATOM      7  C   UNL     1      48.737  33.627  86.647  1.00  0.00     0.041 C 
ATOM      8  O   UNL     1      48.844  32.725  85.776  1.00  0.00    -0.550 OA
ATOM      9  O   UNL     1      48.108  33.348  87.854  1.00  0.00    -0.550 OA
ENDBRANCH   6   7
ENDBRANCH   5   6
ENDBRANCH   4   5
ENDBRANCH   3   4
ENDBRANCH   2   3
ENDBRANCH   1   2
BRANCH   1  10
ATOM     10  C   UNL     1      54.608  32.024  87.050  1.00  0.00     0.000 C 
BRANCH  10  11
ATOM     11  C   UNL     1      55.426  32.260  88.331  1.00  0.00    -0.000 C 
BRANCH  11  12
ATOM     12  C   UNL     1      55.023  31.312  89.474  1.00  0.00    -0.000 C 
BRANCH  12  13
ATOM     13  C   UNL     1      54.727  32.060  90.784  1.00  0.00    -0.000 C 
BRANCH  13  14
ATOM     14  C   UNL     1      53.457  32.926  90.700  1.00  0.00    -0.000 C 
BRANCH  14  15
ATOM     15  C   UNL     1      52.178  32.085  90.562  1.00  0.00    -0.000 C 
BRANCH  15  16
ATOM     16  C   UNL     1      51.360  32.456  89.317  1.00  0.00    -0.003 C 
ATOM     17  C   UNL     1      51.242  31.269  88.364  1.00  0.00     0.004 C 
ENDBRANCH  15  16
ENDBRANCH  14  15
ENDBRANCH  13  14
ENDBRANCH  12  13
ENDBRANCH  11  12
ENDBRANCH  10  11
ENDBRANCH   1  10
TORSDOF 13
ENDMDL
MODEL 5
REMARK VINA RESULT:    -2.802      4.187      7.373
REMARK INTER + INTRA:          -7.300
REMARK INTER:                  -5.113
REMARK INTRA:                  -2.187
REMARK UNBOUND:                -2.369
REMARK SMILES CCCCCCCCCCCCCCC(=O)[O-]
REMARK SMILES IDX 9 1 10 2 11 3 12 4 13 5 14 6 15 7 16 8 17 9 8 10 7 11 6 12
REMARK SMILES IDX 5 13 4 14 3 15 2 16 1 17
REMARK H PARENT
REMARK Flexibility Score: inf
ROOT
ATOM      1  C   UNL     1      45.514  31.666  91.327  1.00  0.00     0.000 C 
ENDROOT
BRANCH   1   2
ATOM      2  C   UNL     1      45.759  31.574  89.812  1.00  0.00     0.000 C 
BRANCH   2   3
ATOM      3  C   UNL     1      47.256  31.550  89.455  1.00  0.00     0.000 C 
BRANCH   3   4
ATOM      4  C   UNL     1      48.145  31.236  90.669  1.00  0.00     0.000 C 
BRANCH   4   5
ATOM      5  C   UNL     1      49.641  31.185  90.311  1.00  0.00     0.006 C 
BRANCH   5   6
ATOM      6  C   UNL     1      50.502  30.709  91.488  1.00  0.00     0.053 C 
BRANCH   6   7
ATOM      7  C   UNL     1      51.244  31.843  92.128  1.00  0.00     0.041 C 
ATOM      8  O   UNL     1      50.726  32.481  93.082  1.00  0.00    -0.550 OA
ATOM      9  O   UNL     1      52.492  32.219  91.645  1.00  0.00    -0.550 OA
ENDBRANCH   6   7
ENDBRANCH   5   6
ENDBRANCH   4   5
ENDBRANCH   3   4
ENDBRANCH   2   3
ENDBRANCH   1   2
BRANCH   1  10
ATOM     10  C   UNL     1      44.263  30.886  91.771  1.00  0.00     0.000 C 
BRANCH  10  11
ATOM     11  C   UNL     1      44.363  29.383  91.459  1.00  0.00    -0.000 C 
BRANCH  11  12
ATOM     12  C   UNL     1      45.320  28.644  92.411  1.00  0.00    -0.000 C 
BRANCH  12  13
ATOM     13  C   UNL     1      46.580  28.129  91.697  1.00  0.00    -0.000 C 
BRANCH  13  14
ATOM     14  C   UNL     1      46.330  27.802  90.213  1.00  0.00    -0.000 C 
BRANCH  14  15
ATOM     15  C   UNL     1      47.616  27.854  89.373  1.00  0.00    -0.000 C 
BRANCH  15  16
ATOM     16  C   UNL     1      48.863  27.465  90.180  1.00  0.00    -0.003 C 
ATOM     17  C   UNL     1      50.125  27.572  89.327  1.00  0.00     0.004 C 
ENDBRANCH  15  16
ENDBRANCH  14  15
ENDBRANCH  13  14
ENDBRANCH  12  13
ENDBRANCH  11  12
ENDBRANCH  10  11
ENDBRANCH   1  10
TORSDOF 13
ENDMDL
MODEL 6
REMARK VINA RESULT:    -2.726     15.732     17.332
REMARK INTER + INTRA:          -7.167
REMARK INTER:                  -5.039
REMARK INTRA:                  -2.128
REMARK UNBOUND:                -2.369
REMARK SMILES CCCCCCCCCCCCCCC(=O)[O-]
REMARK SMILES IDX 9 1 10 2 11 3 12 4 13 5 14 6 15 7 16 8 17 9 8 10 7 11 6 12
REMARK SMILES IDX 5 13 4 14 3 15 2 16 1 17
REMARK H PARENT
REMARK Flexibility Score: inf
ROOT
ATOM      1  C   UNL     1      50.174  23.504  76.298  1.00  0.00     0.000 C 
ENDROOT
BRANCH   1   2
ATOM      2  C   UNL     1      48.992  22.922  75.504  1.00  0.00     0.000 C 
BRANCH   2   3
ATOM      3  C   UNL     1      49.226  21.461  75.081  1.00  0.00     0.000 C 
BRANCH   3   4
ATOM      4  C   UNL     1      47.927  20.754  74.660  1.00  0.00     0.000 C 
BRANCH   4   5
ATOM      5  C   UNL     1      47.025  20.405  75.858  1.00  0.00     0.006 C 
BRANCH   5   6
ATOM      6  C   UNL     1      45.978  19.342  75.504  1.00  0.00     0.053 C 
BRANCH   6   7
ATOM      7  C   UNL     1      46.022  18.182  76.451  1.00  0.00     0.041 C 
ATOM      8  O   UNL     1      45.986  17.003  76.010  1.00  0.00    -0.550 OA
ATOM      9  O   UNL     1      46.066  18.403  77.822  1.00  0.00    -0.550 OA
ENDBRANCH   6   7
ENDBRANCH   5   6
ENDBRANCH   4   5
ENDBRANCH   3   4
ENDBRANCH   2   3
ENDBRANCH   1   2
BRANCH   1  10
ATOM     10  C   UNL     1      51.095  22.412  76.871  1.00  0.00     0.000 C 
BRANCH  10  11
ATOM     11  C   UNL     1      50.946  22.254  78.394  1.00  0.00    -0.000 C 
BRANCH  11  12
ATOM     12  C   UNL     1      50.724  20.792  78.818  1.00  0.00    -0.000 C 
BRANCH  12  13
ATOM     13  C   UNL     1      49.265  20.341  78.640  1.00  0.00    -0.000 C 
BRANCH  13  14
ATOM     14  C   UNL     1      48.387  20.673  79.860  1.00  0.00    -0.000 C 
BRANCH  14  15
ATOM     15  C   UNL     1      47.100  21.420  79.476  1.00  0.00    -0.000 C 
BRANCH  15  16
ATOM     16  C   UNL     1      47.379  22.806  78.880  1.00  0.00    -0.003 C 
ATOM     17  C   UNL     1      46.238  23.252  77.968  1.00  0.00     0.004 C 
ENDBRANCH  15  16
ENDBRANCH  14  15
ENDBRANCH  13  14
ENDBRANCH  12  13
ENDBRANCH  11  12
ENDBRANCH  10  11
ENDBRANCH   1  10
TORSDOF 13
ENDMDL
MODEL 7
REMARK VINA RESULT:    -2.698     16.808     18.615
REMARK INTER + INTRA:          -7.118
REMARK INTER:                  -5.810
REMARK INTRA:                  -1.308
REMARK UNBOUND:                -2.369
REMARK SMILES CCCCCCCCCCCCCCC(=O)[O-]
REMARK SMILES IDX 9 1 10 2 11 3 12 4 13 5 14 6 15 7 16 8 17 9 8 10 7 11 6 12
REMARK SMILES IDX 5 13 4 14 3 15 2 16 1 17
REMARK H PARENT
REMARK Flexibility Score: inf
ROOT
ATOM      1  C   UNL     1      45.968  18.787  77.669  1.00  0.00     0.000 C 
ENDROOT
BRANCH   1   2
ATOM      2  C   UNL     1      45.380  20.152  78.062  1.00  0.00     0.000 C 
BRANCH   2   3
ATOM      3  C   UNL     1      43.897  20.064  78.464  1.00  0.00     0.000 C 
BRANCH   3   4
ATOM      4  C   UNL     1      43.316  21.427  78.873  1.00  0.00     0.000 C 
BRANCH   4   5
ATOM      5  C   UNL     1      42.243  21.310  79.971  1.00  0.00     0.006 C 
BRANCH   5   6
ATOM      6  C   UNL     1      41.506  19.966  79.918  1.00  0.00     0.053 C 
BRANCH   6   7
ATOM      7  C   UNL     1      40.076  20.132  79.502  1.00  0.00     0.041 C 
ATOM      8  O   UNL     1      39.255  19.193  79.671  1.00  0.00    -0.550 OA
ATOM      9  O   UNL     1      39.661  21.310  78.893  1.00  0.00    -0.550 OA
ENDBRANCH   6   7
ENDBRANCH   5   6
ENDBRANCH   4   5
ENDBRANCH   3   4
ENDBRANCH   2   3
ENDBRANCH   1   2
BRANCH   1  10
ATOM     10  C   UNL     1      46.048  18.595  76.144  1.00  0.00     0.000 C 
BRANCH  10  11
ATOM     11  C   UNL     1      45.692  19.875  75.369  1.00  0.00    -0.000 C 
BRANCH  11  12
ATOM     12  C   UNL     1      46.645  20.138  74.191  1.00  0.00    -0.000 C 
BRANCH  12  13
ATOM     13  C   UNL     1      47.510  21.392  74.401  1.00  0.00    -0.000 C 
BRANCH  13  14
ATOM     14  C   UNL     1      48.644  21.168  75.418  1.00  0.00    -0.000 C 
BRANCH  14  15
ATOM     15  C   UNL     1      48.475  22.018  76.687  1.00  0.00    -0.000 C 
BRANCH  15  16
ATOM     16  C   UNL     1      49.553  21.725  77.740  1.00  0.00    -0.003 C 
ATOM     17  C   UNL     1      49.304  20.383  78.423  1.00  0.00     0.004 C 
ENDBRANCH  15  16
ENDBRANCH  14  15
ENDBRANCH  13  14
ENDBRANCH  12  13
ENDBRANCH  11  12
ENDBRANCH  10  11
ENDBRANCH   1  10
TORSDOF 13
ENDMDL
MODEL 8
REMARK VINA RESULT:    -2.693     16.162     17.795
REMARK INTER + INTRA:          -7.110
REMARK INTER:                  -4.690
REMARK INTRA:                  -2.420
REMARK UNBOUND:                -2.369
REMARK SMILES CCCCCCCCCCCCCCC(=O)[O-]
REMARK SMILES IDX 9 1 10 2 11 3 12 4 13 5 14 6 15 7 16 8 17 9 8 10 7 11 6 12
REMARK SMILES IDX 5 13 4 14 3 15 2 16 1 17
REMARK H PARENT
REMARK Flexibility Score: inf
ROOT
ATOM      1  C   UNL     1      46.054  19.588  75.005  1.00  0.00     0.000 C 
ENDROOT
BRANCH   1   2
ATOM      2  C   UNL     1      47.419  20.295  74.957  1.00  0.00     0.000 C 
BRANCH   2   3
ATOM      3  C   UNL     1      47.297  21.796  74.642  1.00  0.00     0.000 C 
BRANCH   3   4
ATOM      4  C   UNL     1      47.860  22.682  75.765  1.00  0.00     0.000 C 
BRANCH   4   5
ATOM      5  C   UNL     1      48.837  21.927  76.683  1.00  0.00     0.006 C 
BRANCH   5   6
ATOM      6  C   UNL     1      48.395  21.961  78.151  1.00  0.00     0.053 C 
BRANCH   6   7
ATOM      7  C   UNL     1      49.029  20.860  78.948  1.00  0.00     0.041 C 
ATOM      8  O   UNL     1      50.136  20.379  78.592  1.00  0.00    -0.550 OA
ATOM      9  O   UNL     1      48.378  20.343  80.061  1.00  0.00    -0.550 OA
ENDBRANCH   6   7
ENDBRANCH   5   6
ENDBRANCH   4   5
ENDBRANCH   3   4
ENDBRANCH   2   3
ENDBRANCH   1   2
BRANCH   1  10
ATOM     10  C   UNL     1      46.002  18.475  76.068  1.00  0.00     0.000 C 
BRANCH  10  11
ATOM     11  C   UNL     1      46.189  19.014  77.496  1.00  0.00    -0.000 C 
BRANCH  11  12
ATOM     12  C   UNL     1      44.880  19.543  78.105  1.00  0.00    -0.000 C 
BRANCH  12  13
ATOM     13  C   UNL     1      44.959  21.035  78.468  1.00  0.00    -0.000 C 
BRANCH  13  14
ATOM     14  C   UNL     1      44.526  21.952  77.309  1.00  0.00    -0.000 C 
BRANCH  14  15
ATOM     15  C   UNL     1      43.160  21.558  76.725  1.00  0.00    -0.000 C 
BRANCH  15  16
ATOM     16  C   UNL     1      43.079  21.788  75.210  1.00  0.00    -0.003 C 
ATOM     17  C   UNL     1      43.864  23.032  74.800  1.00  0.00     0.004 C 
ENDBRANCH  15  16
ENDBRANCH  14  15
ENDBRANCH  13  14
ENDBRANCH  12  13
ENDBRANCH  11  12
ENDBRANCH  10  11
ENDBRANCH   1  10
TORSDOF 13
ENDMDL
MODEL 9
REMARK VINA RESULT:    -2.692      1.672      4.515
REMARK INTER + INTRA:          -7.107
REMARK INTER:                  -5.309
REMARK INTRA:                  -1.798
REMARK UNBOUND:                -2.369
REMARK SMILES CCCCCCCCCCCCCCC(=O)[O-]
REMARK SMILES IDX 9 1 10 2 11 3 12 4 13 5 14 6 15 7 16 8 17 9 8 10 7 11 6 12
REMARK SMILES IDX 5 13 4 14 3 15 2 16 1 17
REMARK H PARENT
REMARK Flexibility Score: inf
ROOT
ATOM      1  C   UNL     1      46.848  32.021  89.030  1.00  0.00     0.000 C 
ENDROOT
BRANCH   1   2
ATOM      2  C   UNL     1      47.164  31.282  90.341  1.00  0.00     0.000 C 
BRANCH   2   3
ATOM      3  C   UNL     1      48.339  30.299  90.197  1.00  0.00     0.000 C 
BRANCH   3   4
ATOM      4  C   UNL     1      49.660  30.878  90.730  1.00  0.00     0.000 C 
BRANCH   4   5
ATOM      5  C   UNL     1      50.748  30.971  89.646  1.00  0.00     0.006 C 
BRANCH   5   6
ATOM      6  C   UNL     1      51.383  32.365  89.582  1.00  0.00     0.053 C 
BRANCH   6   7
ATOM      7  C   UNL     1      52.684  32.418  90.325  1.00  0.00     0.041 C 
ATOM      8  O   UNL     1      53.705  32.912  89.779  1.00  0.00    -0.550 OA
ATOM      9  O   UNL     1      52.776  31.887  91.606  1.00  0.00    -0.550 OA
ENDBRANCH   6   7
ENDBRANCH   5   6
ENDBRANCH   4   5
ENDBRANCH   3   4
ENDBRANCH   2   3
ENDBRANCH   1   2
BRANCH   1  10
ATOM     10  C   UNL     1      47.371  31.274  87.790  1.00  0.00     0.000 C 
BRANCH  10  11
ATOM     11  C   UNL     1      48.207  32.176  86.867  1.00  0.00    -0.000 C 
BRANCH  11  12
ATOM     12  C   UNL     1      48.499  33.552  87.490  1.00  0.00    -0.000 C 
BRANCH  12  13
ATOM     13  C   UNL     1      49.459  34.395  86.636  1.00  0.00    -0.000 C 
BRANCH  13  14
ATOM     14  C   UNL     1      50.399  35.269  87.486  1.00  0.00    -0.000 C 
BRANCH  14  15
ATOM     15  C   UNL     1      51.849  35.243  86.978  1.00  0.00    -0.000 C 
BRANCH  15  16
ATOM     16  C   UNL     1      52.078  34.169  85.904  1.00  0.00    -0.003 C 
ATOM     17  C   UNL     1      53.349  33.372  86.187  1.00  0.00     0.004 C 
ENDBRANCH  15  16
ENDBRANCH  14  15
ENDBRANCH  13  14
ENDBRANCH  12  13
ENDBRANCH  11  12
ENDBRANCH  10  11
ENDBRANCH   1  10
TORSDOF 13
ENDMDL
