MODEL 1
REMARK VINA RESULT:    -3.687      0.000      0.000
REMARK INTER + INTRA:          -7.115
REMARK INTER:                  -5.626
REMARK INTRA:                  -1.489
REMARK UNBOUND:                -1.489
REMARK SMILES COc1cc(C=CCOC(=O)C=Cc2ccc(O)c(OC)c2)ccc1O
REMARK SMILES IDX 9 1 8 2 7 3 6 4 5 5 3 6 25 7 4 8 24 9 23 10 2 11 1 12 26 13
REMARK SMILES IDX 10 15 11 16 12 17 13 18 14 19 22 20 15 21 19 22 16 23 17 24
REMARK SMILES IDX 20 25 21 26 18 27
REMARK H PARENT 26 14 18 28
REMARK Flexibility Score: inf
ROOT
ATOM      1  O   UNL     1     169.746  82.472  20.832  1.00  0.00    -0.458 OA
ENDROOT
BRANCH   1   2
ATOM      2  C   UNL     1     170.608  81.426  21.279  1.00  0.00     0.261 C 
BRANCH   2   3
ATOM      3  C   UNL     1     170.897  80.465  20.164  1.00  0.00     0.015 C 
ATOM      4  C   UNL     1     169.957  79.621  19.722  1.00  0.00     0.007 C 
BRANCH   4   5
ATOM      5  C   UNL     1     170.172  78.643  18.628  1.00  0.00    -0.022 A 
ATOM      6  C   UNL     1     169.965  76.340  17.825  1.00  0.00     0.161 A 
ATOM      7  C   UNL     1     170.511  76.725  16.594  1.00  0.00     0.157 A 
ATOM      8  C   UNL     1     169.793  77.306  18.837  1.00  0.00     0.058 A 
ATOM      9  C   UNL     1     170.876  78.058  16.374  1.00  0.00     0.051 A 
ATOM     10  C   UNL     1     170.704  79.012  17.378  1.00  0.00     0.012 A 
BRANCH   6  11
ATOM     11  O   UNL     1     169.606  74.995  18.007  1.00  0.00    -0.493 OA
ATOM     12  C   UNL     1     170.419  74.022  18.654  1.00  0.00     0.278 C 
ENDBRANCH   6  11
BRANCH   7  13
ATOM     13  O   UNL     1     170.686  75.773  15.590  1.00  0.00    -0.504 OA
ATOM     14  H   UNL     1     171.234  75.972  14.761  1.00  0.00     0.293 HD
ENDBRANCH   7  13
ENDBRANCH   4   5
ENDBRANCH   2   3
ENDBRANCH   1   2
BRANCH   1  15
ATOM     15  C   UNL     1     170.087  83.361  19.805  1.00  0.00     0.331 C 
ATOM     16  O   UNL     1     170.767  84.393  20.051  1.00  0.00    -0.247 OA
BRANCH  15  17
ATOM     17  C   UNL     1     169.656  83.102  18.422  1.00  0.00     0.094 C 
ATOM     18  C   UNL     1     168.452  82.584  18.141  1.00  0.00     0.016 C 
BRANCH  18  19
ATOM     19  C   UNL     1     167.974  82.315  16.762  1.00  0.00    -0.021 A 
ATOM     20  C   UNL     1     166.686  82.683  16.322  1.00  0.00     0.058 A 
ATOM     21  C   UNL     1     168.853  81.704  15.856  1.00  0.00     0.012 A 
ATOM     22  C   UNL     1     166.274  82.417  14.999  1.00  0.00     0.161 A 
ATOM     23  C   UNL     1     168.451  81.438  14.547  1.00  0.00     0.051 A 
ATOM     24  C   UNL     1     167.168  81.788  14.115  1.00  0.00     0.157 A 
BRANCH  22  25
ATOM     25  O   UNL     1     164.997  82.766  14.534  1.00  0.00    -0.493 OA
ATOM     26  C   UNL     1     163.814  82.006  14.766  1.00  0.00     0.278 C 
ENDBRANCH  22  25
BRANCH  24  27
ATOM     27  O   UNL     1     166.801  81.502  12.799  1.00  0.00    -0.504 OA
ATOM     28  H   UNL     1     165.842  81.571  12.480  1.00  0.00     0.293 HD
ENDBRANCH  24  27
ENDBRANCH  18  19
ENDBRANCH  15  17
ENDBRANCH   1  15
TORSDOF 10
ENDMDL
MODEL 2
REMARK VINA RESULT:    -3.613      4.024      7.403
REMARK INTER + INTRA:          -7.003
REMARK INTER:                  -6.529
REMARK INTRA:                  -0.474
REMARK UNBOUND:                -1.489
REMARK SMILES COc1cc(C=CCOC(=O)C=Cc2ccc(O)c(OC)c2)ccc1O
REMARK SMILES IDX 9 1 8 2 7 3 6 4 5 5 3 6 25 7 4 8 24 9 23 10 2 11 1 12 26 13
REMARK SMILES IDX 10 15 11 16 12 17 13 18 14 19 22 20 15 21 19 22 16 23 17 24
REMARK SMILES IDX 20 25 21 26 18 27
REMARK H PARENT 26 14 18 28
REMARK Flexibility Score: inf
ROOT
ATOM      1  O   UNL     1     166.801  82.444  15.514  1.00  0.00    -0.458 OA
ENDROOT
BRANCH   1   2
ATOM      2  C   UNL     1     168.124  81.927  15.643  1.00  0.00     0.261 C 
BRANCH   2   3
ATOM      3  C   UNL     1     168.813  82.526  16.833  1.00  0.00     0.015 C 
ATOM      4  C   UNL     1     168.263  82.463  18.051  1.00  0.00     0.007 C 
BRANCH   4   5
ATOM      5  C   UNL     1     168.884  83.035  19.271  1.00  0.00    -0.022 A 
ATOM      6  C   UNL     1     168.703  83.534  21.660  1.00  0.00     0.161 A 
ATOM      7  C   UNL     1     169.997  84.069  21.642  1.00  0.00     0.157 A 
ATOM      8  C   UNL     1     168.153  83.014  20.471  1.00  0.00     0.058 A 
ATOM      9  C   UNL     1     170.736  84.078  20.453  1.00  0.00     0.051 A 
ATOM     10  C   UNL     1     170.189  83.562  19.277  1.00  0.00     0.012 A 
BRANCH   6  11
ATOM     11  O   UNL     1     167.995  83.536  22.873  1.00  0.00    -0.493 OA
ATOM     12  C   UNL     1     166.601  83.272  22.995  1.00  0.00     0.278 C 
ENDBRANCH   6  11
BRANCH   7  13
ATOM     13  O   UNL     1     170.546  84.586  22.814  1.00  0.00    -0.504 OA
ATOM     14  H   UNL     1     170.305  85.512  23.150  1.00  0.00     0.293 HD
ENDBRANCH   7  13
ENDBRANCH   4   5
ENDBRANCH   2   3
ENDBRANCH   1   2
BRANCH   1  15
ATOM     15  C   UNL     1     165.893  81.997  14.545  1.00  0.00     0.331 C 
ATOM     16  O   UNL     1     166.248  81.159  13.675  1.00  0.00    -0.247 OA
BRANCH  15  17
ATOM     17  C   UNL     1     164.510  82.500  14.532  1.00  0.00     0.094 C 
ATOM     18  C   UNL     1     163.681  82.265  13.506  1.00  0.00     0.016 C 
BRANCH  18  19
ATOM     19  C   UNL     1     162.278  82.745  13.455  1.00  0.00    -0.021 A 
ATOM     20  C   UNL     1     161.178  81.865  13.393  1.00  0.00     0.058 A 
ATOM     21  C   UNL     1     162.040  84.126  13.509  1.00  0.00     0.012 A 
ATOM     22  C   UNL     1     159.859  82.363  13.356  1.00  0.00     0.161 A 
ATOM     23  C   UNL     1     160.738  84.625  13.473  1.00  0.00     0.051 A 
ATOM     24  C   UNL     1     159.648  83.753  13.393  1.00  0.00     0.157 A 
BRANCH  22  25
ATOM     25  O   UNL     1     158.745  81.512  13.286  1.00  0.00    -0.493 OA
ATOM     26  C   UNL     1     158.099  81.118  12.079  1.00  0.00     0.278 C 
ENDBRANCH  22  25
BRANCH  24  27
ATOM     27  O   UNL     1     158.360  84.289  13.355  1.00  0.00    -0.504 OA
ATOM     28  H   UNL     1     158.023  84.933  14.060  1.00  0.00     0.293 HD
ENDBRANCH  24  27
ENDBRANCH  18  19
ENDBRANCH  15  17
ENDBRANCH   1  15
TORSDOF 10
ENDMDL
MODEL 3
REMARK VINA RESULT:    -3.571      4.000      9.535
REMARK INTER + INTRA:          -6.938
REMARK INTER:                  -6.455
REMARK INTRA:                  -0.483
REMARK UNBOUND:                -1.489
REMARK SMILES COc1cc(C=CCOC(=O)C=Cc2ccc(O)c(OC)c2)ccc1O
REMARK SMILES IDX 9 1 8 2 7 3 6 4 5 5 3 6 25 7 4 8 24 9 23 10 2 11 1 12 26 13
REMARK SMILES IDX 10 15 11 16 12 17 13 18 14 19 22 20 15 21 19 22 16 23 17 24
REMARK SMILES IDX 20 25 21 26 18 27
REMARK H PARENT 26 14 18 28
REMARK Flexibility Score: inf
ROOT
ATOM      1  O   UNL     1     166.359  81.992  15.718  1.00  0.00    -0.458 OA
ENDROOT
BRANCH   1   2
ATOM      2  C   UNL     1     165.718  81.748  14.467  1.00  0.00     0.261 C 
BRANCH   2   3
ATOM      3  C   UNL     1     164.414  82.485  14.388  1.00  0.00     0.015 C 
ATOM      4  C   UNL     1     163.353  81.943  13.777  1.00  0.00     0.007 C 
BRANCH   4   5
ATOM      5  C   UNL     1     162.035  82.614  13.658  1.00  0.00    -0.022 A 
ATOM      6  C   UNL     1     159.602  82.406  13.495  1.00  0.00     0.161 A 
ATOM      7  C   UNL     1     159.490  83.802  13.463  1.00  0.00     0.157 A 
ATOM      8  C   UNL     1     160.879  81.818  13.598  1.00  0.00     0.058 A 
ATOM      9  C   UNL     1     160.636  84.600  13.539  1.00  0.00     0.051 A 
ATOM     10  C   UNL     1     161.899  84.015  13.640  1.00  0.00     0.012 A 
BRANCH   6  11
ATOM     11  O   UNL     1     158.429  81.638  13.424  1.00  0.00    -0.493 OA
ATOM     12  C   UNL     1     157.962  80.984  12.249  1.00  0.00     0.278 C 
ENDBRANCH   6  11
BRANCH   7  13
ATOM     13  O   UNL     1     158.229  84.390  13.360  1.00  0.00    -0.504 OA
ATOM     14  H   UNL     1     157.533  84.281  14.088  1.00  0.00     0.293 HD
ENDBRANCH   7  13
ENDBRANCH   4   5
ENDBRANCH   2   3
ENDBRANCH   1   2
BRANCH   1  15
ATOM     15  C   UNL     1     167.733  82.238  15.842  1.00  0.00     0.331 C 
ATOM     16  O   UNL     1     168.527  81.906  14.922  1.00  0.00    -0.247 OA
BRANCH  15  17
ATOM     17  C   UNL     1     168.267  82.888  17.049  1.00  0.00     0.094 C 
ATOM     18  C   UNL     1     168.180  82.317  18.258  1.00  0.00     0.016 C 
BRANCH  18  19
ATOM     19  C   UNL     1     168.713  82.932  19.499  1.00  0.00    -0.021 A 
ATOM     20  C   UNL     1     167.970  82.991  20.695  1.00  0.00     0.058 A 
ATOM     21  C   UNL     1     170.020  83.441  19.486  1.00  0.00     0.012 A 
ATOM     22  C   UNL     1     168.518  83.577  21.855  1.00  0.00     0.161 A 
ATOM     23  C   UNL     1     170.567  84.022  20.630  1.00  0.00     0.051 A 
ATOM     24  C   UNL     1     169.824  84.095  21.811  1.00  0.00     0.157 A 
BRANCH  22  25
ATOM     25  O   UNL     1     167.799  83.656  23.059  1.00  0.00    -0.493 OA
ATOM     26  C   UNL     1     166.504  83.101  23.267  1.00  0.00     0.278 C 
ENDBRANCH  22  25
BRANCH  24  27
ATOM     27  O   UNL     1     170.403  84.687  22.935  1.00  0.00    -0.504 OA
ATOM     28  H   UNL     1     171.161  85.356  22.862  1.00  0.00     0.293 HD
ENDBRANCH  24  27
ENDBRANCH  18  19
ENDBRANCH  15  17
ENDBRANCH   1  15
TORSDOF 10
ENDMDL
MODEL 4
REMARK VINA RESULT:    -3.552     12.203     15.175
REMARK INTER + INTRA:          -6.909
REMARK INTER:                  -5.562
REMARK INTRA:                  -1.347
REMARK UNBOUND:                -1.489
REMARK SMILES COc1cc(C=CCOC(=O)C=Cc2ccc(O)c(OC)c2)ccc1O
REMARK SMILES IDX 9 1 8 2 7 3 6 4 5 5 3 6 25 7 4 8 24 9 23 10 2 11 1 12 26 13
REMARK SMILES IDX 10 15 11 16 12 17 13 18 14 19 22 20 15 21 19 22 16 23 17 24
REMARK SMILES IDX 20 25 21 26 18 27
REMARK H PARENT 26 14 18 28
REMARK Flexibility Score: inf
ROOT
ATOM      1  O   UNL     1     157.841  83.785  16.005  1.00  0.00    -0.458 OA
ENDROOT
BRANCH   1   2
ATOM      2  C   UNL     1     156.985  84.842  16.432  1.00  0.00     0.261 C 
BRANCH   2   3
ATOM      3  C   UNL     1     155.760  84.294  17.103  1.00  0.00     0.015 C 
ATOM      4  C   UNL     1     155.807  83.147  17.791  1.00  0.00     0.007 C 
BRANCH   4   5
ATOM      5  C   UNL     1     154.638  82.544  18.476  1.00  0.00    -0.022 A 
ATOM      6  C   UNL     1     152.312  82.765  19.206  1.00  0.00     0.161 A 
ATOM      7  C   UNL     1     152.358  81.466  19.730  1.00  0.00     0.157 A 
ATOM      8  C   UNL     1     153.454  83.296  18.575  1.00  0.00     0.058 A 
ATOM      9  C   UNL     1     153.528  80.706  19.620  1.00  0.00     0.051 A 
ATOM     10  C   UNL     1     154.658  81.236  18.995  1.00  0.00     0.012 A 
BRANCH   6  11
ATOM     11  O   UNL     1     151.119  83.494  19.330  1.00  0.00    -0.493 OA
ATOM     12  C   UNL     1     150.876  84.483  20.324  1.00  0.00     0.278 C 
ENDBRANCH   6  11
BRANCH   7  13
ATOM     13  O   UNL     1     151.232  80.935  20.357  1.00  0.00    -0.504 OA
ATOM     14  H   UNL     1     151.090  81.022  21.356  1.00  0.00     0.293 HD
ENDBRANCH   7  13
ENDBRANCH   4   5
ENDBRANCH   2   3
ENDBRANCH   1   2
BRANCH   1  15
ATOM     15  C   UNL     1     157.770  83.206  14.731  1.00  0.00     0.331 C 
ATOM     16  O   UNL     1     158.134  83.855  13.713  1.00  0.00    -0.247 OA
BRANCH  15  17
ATOM     17  C   UNL     1     157.271  81.832  14.562  1.00  0.00     0.094 C 
ATOM     18  C   UNL     1     157.369  80.919  15.538  1.00  0.00     0.016 C 
BRANCH  18  19
ATOM     19  C   UNL     1     156.872  79.527  15.414  1.00  0.00    -0.021 A 
ATOM     20  C   UNL     1     156.610  78.713  16.536  1.00  0.00     0.058 A 
ATOM     21  C   UNL     1     156.618  79.018  14.132  1.00  0.00     0.012 A 
ATOM     22  C   UNL     1     156.129  77.397  16.374  1.00  0.00     0.161 A 
ATOM     23  C   UNL     1     156.142  77.717  13.966  1.00  0.00     0.051 A 
ATOM     24  C   UNL     1     155.900  76.904  15.077  1.00  0.00     0.157 A 
BRANCH  22  25
ATOM     25  O   UNL     1     155.866  76.562  17.471  1.00  0.00    -0.493 OA
ATOM     26  C   UNL     1     156.691  76.459  18.627  1.00  0.00     0.278 C 
ENDBRANCH  22  25
BRANCH  24  27
ATOM     27  O   UNL     1     155.427  75.608  14.871  1.00  0.00    -0.504 OA
ATOM     28  H   UNL     1     155.804  75.005  14.149  1.00  0.00     0.293 HD
ENDBRANCH  24  27
ENDBRANCH  18  19
ENDBRANCH  15  17
ENDBRANCH   1  15
TORSDOF 10
ENDMDL
MODEL 5
REMARK VINA RESULT:    -3.547      3.861      7.019
REMARK INTER + INTRA:          -6.902
REMARK INTER:                  -5.077
REMARK INTRA:                  -1.825
REMARK UNBOUND:                -1.489
REMARK SMILES COc1cc(C=CCOC(=O)C=Cc2ccc(O)c(OC)c2)ccc1O
REMARK SMILES IDX 9 1 8 2 7 3 6 4 5 5 3 6 25 7 4 8 24 9 23 10 2 11 1 12 26 13
REMARK SMILES IDX 10 15 11 16 12 17 13 18 14 19 22 20 15 21 19 22 16 23 17 24
REMARK SMILES IDX 20 25 21 26 18 27
REMARK H PARENT 26 14 18 28
REMARK Flexibility Score: inf
ROOT
ATOM      1  O   UNL     1     163.165  80.600  20.701  1.00  0.00    -0.458 OA
ENDROOT
BRANCH   1   2
ATOM      2  C   UNL     1     162.913  81.618  21.669  1.00  0.00     0.261 C 
BRANCH   2   3
ATOM      3  C   UNL     1     164.129  82.474  21.866  1.00  0.00     0.015 C 
ATOM      4  C   UNL     1     165.279  81.947  22.304  1.00  0.00     0.007 C 
BRANCH   4   5
ATOM      5  C   UNL     1     166.518  82.732  22.525  1.00  0.00    -0.022 A 
ATOM      6  C   UNL     1     168.909  82.742  23.049  1.00  0.00     0.161 A 
ATOM      7  C   UNL     1     168.924  84.138  22.929  1.00  0.00     0.157 A 
ATOM      8  C   UNL     1     167.702  82.044  22.840  1.00  0.00     0.058 A 
ATOM      9  C   UNL     1     167.752  84.827  22.599  1.00  0.00     0.051 A 
ATOM     10  C   UNL     1     166.558  84.133  22.394  1.00  0.00     0.012 A 
BRANCH   6  11
ATOM     11  O   UNL     1     170.106  82.085  23.375  1.00  0.00    -0.493 OA
ATOM     12  C   UNL     1     170.857  81.279  22.473  1.00  0.00     0.278 C 
ENDBRANCH   6  11
BRANCH   7  13
ATOM     13  O   UNL     1     170.114  84.834  23.135  1.00  0.00    -0.504 OA
ATOM     14  H   UNL     1     170.811  84.922  22.405  1.00  0.00     0.293 HD
ENDBRANCH   7  13
ENDBRANCH   4   5
ENDBRANCH   2   3
ENDBRANCH   1   2
BRANCH   1  15
ATOM     15  C   UNL     1     163.457  80.873  19.359  1.00  0.00     0.331 C 
ATOM     16  O   UNL     1     162.536  81.167  18.551  1.00  0.00    -0.247 OA
BRANCH  15  17
ATOM     17  C   UNL     1     164.845  80.821  18.872  1.00  0.00     0.094 C 
ATOM     18  C   UNL     1     165.557  81.933  18.644  1.00  0.00     0.016 C 
BRANCH  18  19
ATOM     19  C   UNL     1     166.960  81.927  18.161  1.00  0.00    -0.021 A 
ATOM     20  C   UNL     1     168.042  82.323  18.974  1.00  0.00     0.058 A 
ATOM     21  C   UNL     1     167.219  81.473  16.860  1.00  0.00     0.012 A 
ATOM     22  C   UNL     1     169.363  82.293  18.479  1.00  0.00     0.161 A 
ATOM     23  C   UNL     1     168.523  81.441  16.365  1.00  0.00     0.051 A 
ATOM     24  C   UNL     1     169.594  81.851  17.165  1.00  0.00     0.157 A 
BRANCH  22  25
ATOM     25  O   UNL     1     170.459  82.687  19.262  1.00  0.00    -0.493 OA
ATOM     26  C   UNL     1     170.674  84.009  19.747  1.00  0.00     0.278 C 
ENDBRANCH  22  25
BRANCH  24  27
ATOM     27  O   UNL     1     170.884  81.808  16.634  1.00  0.00    -0.504 OA
ATOM     28  H   UNL     1     171.082  82.076  15.677  1.00  0.00     0.293 HD
ENDBRANCH  24  27
ENDBRANCH  18  19
ENDBRANCH  15  17
ENDBRANCH   1  15
TORSDOF 10
ENDMDL
MODEL 6
REMARK VINA RESULT:    -3.537     14.043     17.784
REMARK INTER + INTRA:          -6.887
REMARK INTER:                  -6.319
REMARK INTRA:                  -0.568
REMARK UNBOUND:                -1.489
REMARK SMILES COc1cc(C=CCOC(=O)C=Cc2ccc(O)c(OC)c2)ccc1O
REMARK SMILES IDX 9 1 8 2 7 3 6 4 5 5 3 6 25 7 4 8 24 9 23 10 2 11 1 12 26 13
REMARK SMILES IDX 10 15 11 16 12 17 13 18 14 19 22 20 15 21 19 22 16 23 17 24
REMARK SMILES IDX 20 25 21 26 18 27
REMARK H PARENT 26 14 18 28
REMARK Flexibility Score: inf
ROOT
ATOM      1  O   UNL     1     158.072  68.562  15.156  1.00  0.00    -0.458 OA
ENDROOT
BRANCH   1   2
ATOM      2  C   UNL     1     158.518  69.498  14.177  1.00  0.00     0.261 C 
BRANCH   2   3
ATOM      3  C   UNL     1     157.386  70.375  13.728  1.00  0.00     0.015 C 
ATOM      4  C   UNL     1     156.198  70.334  14.343  1.00  0.00     0.007 C 
BRANCH   4   5
ATOM      5  C   UNL     1     155.035  71.168  13.953  1.00  0.00    -0.022 A 
ATOM      6  C   UNL     1     153.025  72.386  14.636  1.00  0.00     0.161 A 
ATOM      7  C   UNL     1     152.818  72.780  13.308  1.00  0.00     0.157 A 
ATOM      8  C   UNL     1     154.140  71.584  14.953  1.00  0.00     0.058 A 
ATOM      9  C   UNL     1     153.716  72.383  12.310  1.00  0.00     0.051 A 
ATOM     10  C   UNL     1     154.818  71.588  12.627  1.00  0.00     0.012 A 
BRANCH   6  11
ATOM     11  O   UNL     1     152.107  72.809  15.610  1.00  0.00    -0.493 OA
ATOM     12  C   UNL     1     151.208  71.948  16.301  1.00  0.00     0.278 C 
ENDBRANCH   6  11
BRANCH   7  13
ATOM     13  O   UNL     1     151.717  73.573  12.988  1.00  0.00    -0.504 OA
ATOM     14  H   UNL     1     150.805  73.405  13.397  1.00  0.00     0.293 HD
ENDBRANCH   7  13
ENDBRANCH   4   5
ENDBRANCH   2   3
ENDBRANCH   1   2
BRANCH   1  15
ATOM     15  C   UNL     1     158.743  67.364  15.435  1.00  0.00     0.331 C 
ATOM     16  O   UNL     1     158.096  66.308  15.666  1.00  0.00    -0.247 OA
BRANCH  15  17
ATOM     17  C   UNL     1     160.214  67.322  15.461  1.00  0.00     0.094 C 
ATOM     18  C   UNL     1     160.905  66.363  14.831  1.00  0.00     0.016 C 
BRANCH  18  19
ATOM     19  C   UNL     1     162.388  66.287  14.824  1.00  0.00    -0.021 A 
ATOM     20  C   UNL     1     163.163  66.723  13.731  1.00  0.00     0.058 A 
ATOM     21  C   UNL     1     163.038  65.798  15.966  1.00  0.00     0.012 A 
ATOM     22  C   UNL     1     164.571  66.642  13.769  1.00  0.00     0.161 A 
ATOM     23  C   UNL     1     164.431  65.716  16.010  1.00  0.00     0.051 A 
ATOM     24  C   UNL     1     165.199  66.131  14.918  1.00  0.00     0.157 A 
BRANCH  22  25
ATOM     25  O   UNL     1     165.369  67.062  12.693  1.00  0.00    -0.493 OA
ATOM     26  C   UNL     1     165.950  68.357  12.571  1.00  0.00     0.278 C 
ENDBRANCH  22  25
BRANCH  24  27
ATOM     27  O   UNL     1     166.588  66.030  14.997  1.00  0.00    -0.504 OA
ATOM     28  H   UNL     1     167.158  66.754  15.419  1.00  0.00     0.293 HD
ENDBRANCH  24  27
ENDBRANCH  18  19
ENDBRANCH  15  17
ENDBRANCH   1  15
TORSDOF 10
ENDMDL
MODEL 7
REMARK VINA RESULT:    -3.531      3.527      7.243
REMARK INTER + INTRA:          -6.877
REMARK INTER:                  -5.386
REMARK INTRA:                  -1.491
REMARK UNBOUND:                -1.489
REMARK SMILES COc1cc(C=CCOC(=O)C=Cc2ccc(O)c(OC)c2)ccc1O
REMARK SMILES IDX 9 1 8 2 7 3 6 4 5 5 3 6 25 7 4 8 24 9 23 10 2 11 1 12 26 13
REMARK SMILES IDX 10 15 11 16 12 17 13 18 14 19 22 20 15 21 19 22 16 23 17 24
REMARK SMILES IDX 20 25 21 26 18 27
REMARK H PARENT 26 14 18 28
REMARK Flexibility Score: inf
ROOT
ATOM      1  O   UNL     1     162.901  81.511  19.954  1.00  0.00    -0.458 OA
ENDROOT
BRANCH   1   2
ATOM      2  C   UNL     1     162.708  80.506  18.961  1.00  0.00     0.261 C 
BRANCH   2   3
ATOM      3  C   UNL     1     163.810  80.549  17.943  1.00  0.00     0.015 C 
ATOM      4  C   UNL     1     164.430  81.697  17.647  1.00  0.00     0.007 C 
BRANCH   4   5
ATOM      5  C   UNL     1     165.522  81.816  16.652  1.00  0.00    -0.022 A 
ATOM      6  C   UNL     1     167.886  82.265  16.199  1.00  0.00     0.161 A 
ATOM      7  C   UNL     1     167.664  82.030  14.836  1.00  0.00     0.157 A 
ATOM      8  C   UNL     1     166.811  82.151  17.103  1.00  0.00     0.058 A 
ATOM      9  C   UNL     1     166.387  81.680  14.382  1.00  0.00     0.051 A 
ATOM     10  C   UNL     1     165.325  81.568  15.280  1.00  0.00     0.012 A 
BRANCH   6  11
ATOM     11  O   UNL     1     169.181  82.608  16.617  1.00  0.00    -0.493 OA
ATOM     12  C   UNL     1     169.972  81.833  17.512  1.00  0.00     0.278 C 
ENDBRANCH   6  11
BRANCH   7  13
ATOM     13  O   UNL     1     168.723  82.142  13.936  1.00  0.00    -0.504 OA
ATOM     14  H   UNL     1     169.595  81.645  14.078  1.00  0.00     0.293 HD
ENDBRANCH   7  13
ENDBRANCH   4   5
ENDBRANCH   2   3
ENDBRANCH   1   2
BRANCH   1  15
ATOM     15  C   UNL     1     163.410  81.241  21.231  1.00  0.00     0.331 C 
ATOM     16  O   UNL     1     162.801  80.459  22.010  1.00  0.00    -0.247 OA
BRANCH  15  17
ATOM     17  C   UNL     1     164.663  81.867  21.682  1.00  0.00     0.094 C 
ATOM     18  C   UNL     1     165.688  82.080  20.846  1.00  0.00     0.016 C 
BRANCH  18  19
ATOM     19  C   UNL     1     166.966  82.715  21.255  1.00  0.00    -0.021 A 
ATOM     20  C   UNL     1     168.222  82.212  20.861  1.00  0.00     0.058 A 
ATOM     21  C   UNL     1     166.914  83.881  22.033  1.00  0.00     0.012 A 
ATOM     22  C   UNL     1     169.413  82.852  21.265  1.00  0.00     0.161 A 
ATOM     23  C   UNL     1     168.089  84.518  22.436  1.00  0.00     0.051 A 
ATOM     24  C   UNL     1     169.335  84.009  22.060  1.00  0.00     0.157 A 
BRANCH  22  25
ATOM     25  O   UNL     1     170.678  82.370  20.894  1.00  0.00    -0.493 OA
ATOM     26  C   UNL     1     171.066  81.000  20.930  1.00  0.00     0.278 C 
ENDBRANCH  22  25
BRANCH  24  27
ATOM     27  O   UNL     1     170.487  84.671  22.485  1.00  0.00    -0.504 OA
ATOM     28  H   UNL     1     170.945  85.374  21.917  1.00  0.00     0.293 HD
ENDBRANCH  24  27
ENDBRANCH  18  19
ENDBRANCH  15  17
ENDBRANCH   1  15
TORSDOF 10
ENDMDL
MODEL 8
REMARK VINA RESULT:    -3.504      3.778      6.868
REMARK INTER + INTRA:          -6.837
REMARK INTER:                  -5.119
REMARK INTRA:                  -1.718
REMARK UNBOUND:                -1.489
REMARK SMILES COc1cc(C=CCOC(=O)C=Cc2ccc(O)c(OC)c2)ccc1O
REMARK SMILES IDX 9 1 8 2 7 3 6 4 5 5 3 6 25 7 4 8 24 9 23 10 2 11 1 12 26 13
REMARK SMILES IDX 10 15 11 16 12 17 13 18 14 19 22 20 15 21 19 22 16 23 17 24
REMARK SMILES IDX 20 25 21 26 18 27
REMARK H PARENT 26 14 18 28
REMARK Flexibility Score: inf
ROOT
ATOM      1  O   UNL     1     163.157  81.239  20.423  1.00  0.00    -0.458 OA
ENDROOT
BRANCH   1   2
ATOM      2  C   UNL     1     163.295  81.439  21.828  1.00  0.00     0.261 C 
BRANCH   2   3
ATOM      3  C   UNL     1     164.696  81.854  22.169  1.00  0.00     0.015 C 
ATOM      4  C   UNL     1     165.224  82.976  21.666  1.00  0.00     0.007 C 
BRANCH   4   5
ATOM      5  C   UNL     1     166.600  83.446  21.956  1.00  0.00    -0.022 A 
ATOM      6  C   UNL     1     168.992  83.322  21.448  1.00  0.00     0.161 A 
ATOM      7  C   UNL     1     169.243  84.304  22.416  1.00  0.00     0.157 A 
ATOM      8  C   UNL     1     167.666  82.901  21.219  1.00  0.00     0.058 A 
ATOM      9  C   UNL     1     168.184  84.862  23.141  1.00  0.00     0.051 A 
ATOM     10  C   UNL     1     166.873  84.443  22.912  1.00  0.00     0.012 A 
BRANCH   6  11
ATOM     11  O   UNL     1     170.079  82.790  20.737  1.00  0.00    -0.493 OA
ATOM     12  C   UNL     1     170.390  81.403  20.655  1.00  0.00     0.278 C 
ENDBRANCH   6  11
BRANCH   7  13
ATOM     13  O   UNL     1     170.552  84.723  22.648  1.00  0.00    -0.504 OA
ATOM     14  H   UNL     1     170.867  85.649  22.381  1.00  0.00     0.293 HD
ENDBRANCH   7  13
ENDBRANCH   4   5
ENDBRANCH   2   3
ENDBRANCH   1   2
BRANCH   1  15
ATOM     15  C   UNL     1     163.674  80.123  19.752  1.00  0.00     0.331 C 
ATOM     16  O   UNL     1     162.972  79.088  19.598  1.00  0.00    -0.247 OA
BRANCH  15  17
ATOM     17  C   UNL     1     165.044  80.144  19.215  1.00  0.00     0.094 C 
ATOM     18  C   UNL     1     165.544  81.221  18.594  1.00  0.00     0.016 C 
BRANCH  18  19
ATOM     19  C   UNL     1     166.922  81.288  18.047  1.00  0.00    -0.021 A 
ATOM     20  C   UNL     1     167.753  80.155  17.947  1.00  0.00     0.058 A 
ATOM     21  C   UNL     1     167.396  82.522  17.578  1.00  0.00     0.012 A 
ATOM     22  C   UNL     1     169.054  80.261  17.411  1.00  0.00     0.161 A 
ATOM     23  C   UNL     1     168.682  82.633  17.047  1.00  0.00     0.051 A 
ATOM     24  C   UNL     1     169.513  81.513  16.964  1.00  0.00     0.157 A 
BRANCH  22  25
ATOM     25  O   UNL     1     169.907  79.151  17.306  1.00  0.00    -0.493 OA
ATOM     26  C   UNL     1     169.471  77.805  17.143  1.00  0.00     0.278 C 
ENDBRANCH  22  25
BRANCH  24  27
ATOM     27  O   UNL     1     170.793  81.663  16.431  1.00  0.00    -0.504 OA
ATOM     28  H   UNL     1     171.295  80.892  16.008  1.00  0.00     0.293 HD
ENDBRANCH  24  27
ENDBRANCH  18  19
ENDBRANCH  15  17
ENDBRANCH   1  15
TORSDOF 10
ENDMDL
MODEL 9
REMARK VINA RESULT:    -3.442      3.182      6.088
REMARK INTER + INTRA:          -6.741
REMARK INTER:                  -5.058
REMARK INTRA:                  -1.683
REMARK UNBOUND:                -1.489
REMARK SMILES COc1cc(C=CCOC(=O)C=Cc2ccc(O)c(OC)c2)ccc1O
REMARK SMILES IDX 9 1 8 2 7 3 6 4 5 5 3 6 25 7 4 8 24 9 23 10 2 11 1 12 26 13
REMARK SMILES IDX 10 15 11 16 12 17 13 18 14 19 22 20 15 21 19 22 16 23 17 24
REMARK SMILES IDX 20 25 21 26 18 27
REMARK H PARENT 26 14 18 28
REMARK Flexibility Score: inf
ROOT
ATOM      1  O   UNL     1     167.343  84.601  23.348  1.00  0.00    -0.458 OA
ENDROOT
BRANCH   1   2
ATOM      2  C   UNL     1     166.340  83.590  23.437  1.00  0.00     0.261 C 
BRANCH   2   3
ATOM      3  C   UNL     1     165.729  83.330  22.092  1.00  0.00     0.015 C 
ATOM      4  C   UNL     1     165.823  82.127  21.514  1.00  0.00     0.007 C 
BRANCH   4   5
ATOM      5  C   UNL     1     165.247  81.799  20.187  1.00  0.00    -0.022 A 
ATOM      6  C   UNL     1     165.551  81.667  17.761  1.00  0.00     0.161 A 
ATOM      7  C   UNL     1     164.248  81.170  17.630  1.00  0.00     0.157 A 
ATOM      8  C   UNL     1     166.047  81.975  19.044  1.00  0.00     0.058 A 
ATOM      9  C   UNL     1     163.452  80.977  18.765  1.00  0.00     0.051 A 
ATOM     10  C   UNL     1     163.946  81.283  20.034  1.00  0.00     0.012 A 
BRANCH   6  11
ATOM     11  O   UNL     1     166.321  81.841  16.600  1.00  0.00    -0.493 OA
ATOM     12  C   UNL     1     166.612  83.102  16.006  1.00  0.00     0.278 C 
ENDBRANCH   6  11
BRANCH   7  13
ATOM     13  O   UNL     1     163.751  80.865  16.364  1.00  0.00    -0.504 OA
ATOM     14  H   UNL     1     163.157  81.511  15.857  1.00  0.00     0.293 HD
ENDBRANCH   7  13
ENDBRANCH   4   5
ENDBRANCH   2   3
ENDBRANCH   1   2
BRANCH   1  15
ATOM     15  C   UNL     1     168.663  84.340  22.958  1.00  0.00     0.331 C 
ATOM     16  O   UNL     1     169.605  84.429  23.791  1.00  0.00    -0.247 OA
BRANCH  15  17
ATOM     17  C   UNL     1     168.969  83.959  21.570  1.00  0.00     0.094 C 
ATOM     18  C   UNL     1     169.395  82.729  21.251  1.00  0.00     0.016 C 
BRANCH  18  19
ATOM     19  C   UNL     1     169.707  82.300  19.865  1.00  0.00    -0.021 A 
ATOM     20  C   UNL     1     170.132  80.993  19.555  1.00  0.00     0.058 A 
ATOM     21  C   UNL     1     169.535  83.224  18.824  1.00  0.00     0.012 A 
ATOM     22  C   UNL     1     170.408  80.623  18.222  1.00  0.00     0.161 A 
ATOM     23  C   UNL     1     169.807  82.864  17.504  1.00  0.00     0.051 A 
ATOM     24  C   UNL     1     170.245  81.573  17.198  1.00  0.00     0.157 A 
BRANCH  22  25
ATOM     25  O   UNL     1     170.840  79.331  17.883  1.00  0.00    -0.493 OA
ATOM     26  C   UNL     1     170.119  78.136  18.166  1.00  0.00     0.278 C 
ENDBRANCH  22  25
BRANCH  24  27
ATOM     27  O   UNL     1     170.511  81.251  15.866  1.00  0.00    -0.504 OA
ATOM     28  H   UNL     1     170.076  81.744  15.095  1.00  0.00     0.293 HD
ENDBRANCH  24  27
ENDBRANCH  18  19
ENDBRANCH  15  17
ENDBRANCH   1  15
TORSDOF 10
ENDMDL
