MODEL 1
REMARK VINA RESULT:    -7.144      0.000      0.000
REMARK INTER + INTRA:          -7.353
REMARK INTER:                  -7.353
REMARK INTRA:                   0.000
REMARK UNBOUND:                 0.000
REMARK SMILES C=C1[C@H](O)C[C@@]23C[C@@H]1C(C)(C)[C@H]2CC[C@H]3C
REMARK SMILES IDX 16 1 15 2 14 3 13 4 12 5 6 6 7 7 8 8 9 9 10 10 11 11 2 12
REMARK SMILES IDX 1 13 3 14 5 15 4 16
REMARK H PARENT 4 17
REMARK Flexibility Score: inf
ROOT
ATOM      1  C   UNL     1     135.876 131.893 135.523  1.00  0.00     0.008 C 
ATOM      2  C   UNL     1     135.641 130.475 136.061  1.00  0.00    -0.008 C 
ATOM      3  C   UNL     1     135.550 129.393 134.941  1.00  0.00     0.004 C 
ATOM      4  C   UNL     1     134.602 128.282 135.465  1.00  0.00     0.005 C 
ATOM      5  C   UNL     1     134.373 128.714 136.903  1.00  0.00     0.002 C 
ATOM      6  C   UNL     1     134.347 130.239 136.870  1.00  0.00    -0.020 C 
ATOM      7  C   UNL     1     134.274 130.498 138.370  1.00  0.00     0.016 C 
ATOM      8  C   UNL     1     133.069 129.582 138.737  1.00  0.00     0.023 C 
ATOM      9  C   UNL     1     133.268 128.265 137.884  1.00  0.00    -0.025 C 
ATOM     10  C   UNL     1     132.014 127.731 137.151  1.00  0.00     0.012 C 
ATOM     11  C   UNL     1     133.778 127.135 138.811  1.00  0.00     0.012 C 
ATOM     12  C   UNL     1     131.811 130.329 138.336  1.00  0.00    -0.045 C 
ATOM     13  C   UNL     1     130.706 130.263 139.095  1.00  0.00     0.011 C 
ATOM     14  C   UNL     1     131.871 131.220 137.106  1.00  0.00     0.140 C 
ATOM     15  C   UNL     1     133.062 130.863 136.162  1.00  0.00     0.044 C 
ENDROOT
BRANCH  14  16
ATOM     16  O   UNL     1     130.657 131.228 136.394  1.00  0.00    -0.389 OA
ATOM     17  H   UNL     1     130.719 130.547 135.677  1.00  0.00     0.211 HD
ENDBRANCH  14  16
TORSDOF 1
ENDMDL
MODEL 2
REMARK VINA RESULT:    -6.919      2.657      4.562
REMARK INTER + INTRA:          -7.121
REMARK INTER:                  -7.121
REMARK INTRA:                   0.000
REMARK UNBOUND:                 0.000
REMARK SMILES C=C1[C@H](O)C[C@@]23C[C@@H]1C(C)(C)[C@H]2CC[C@H]3C
REMARK SMILES IDX 16 1 15 2 14 3 13 4 12 5 6 6 7 7 8 8 9 9 10 10 11 11 2 12
REMARK SMILES IDX 1 13 3 14 5 15 4 16
REMARK H PARENT 4 17
REMARK Flexibility Score: inf
ROOT
ATOM      1  C   UNL     1     134.653 133.889 141.449  1.00  0.00     0.008 C 
ATOM      2  C   UNL     1     133.578 132.802 141.325  1.00  0.00    -0.008 C 
ATOM      3  C   UNL     1     133.825 131.574 142.255  1.00  0.00     0.004 C 
ATOM      4  C   UNL     1     133.225 130.337 141.536  1.00  0.00     0.005 C 
ATOM      5  C   UNL     1     132.519 130.971 140.350  1.00  0.00     0.002 C 
ATOM      6  C   UNL     1     133.398 132.149 139.937  1.00  0.00    -0.020 C 
ATOM      7  C   UNL     1     132.488 132.751 138.874  1.00  0.00     0.016 C 
ATOM      8  C   UNL     1     132.214 131.482 138.013  1.00  0.00     0.023 C 
ATOM      9  C   UNL     1     132.020 130.304 139.051  1.00  0.00    -0.025 C 
ATOM     10  C   UNL     1     132.773 128.989 138.740  1.00  0.00     0.012 C 
ATOM     11  C   UNL     1     130.513 129.962 139.149  1.00  0.00     0.012 C 
ATOM     12  C   UNL     1     133.439 131.269 137.142  1.00  0.00    -0.045 C 
ATOM     13  C   UNL     1     133.311 130.839 135.878  1.00  0.00     0.011 C 
ATOM     14  C   UNL     1     134.796 131.644 137.715  1.00  0.00     0.140 C 
ATOM     15  C   UNL     1     134.787 131.735 139.273  1.00  0.00     0.044 C 
ENDROOT
BRANCH  14  16
ATOM     16  O   UNL     1     135.818 130.784 137.272  1.00  0.00    -0.389 OA
ATOM     17  H   UNL     1     136.477 130.690 138.005  1.00  0.00     0.211 HD
ENDBRANCH  14  16
TORSDOF 1
ENDMDL
MODEL 3
REMARK VINA RESULT:    -6.833      2.149      3.871
REMARK INTER + INTRA:          -7.033
REMARK INTER:                  -7.033
REMARK INTRA:                   0.000
REMARK UNBOUND:                 0.000
REMARK SMILES C=C1[C@H](O)C[C@@]23C[C@@H]1C(C)(C)[C@H]2CC[C@H]3C
REMARK SMILES IDX 16 1 15 2 14 3 13 4 12 5 6 6 7 7 8 8 9 9 10 10 11 11 2 12
REMARK SMILES IDX 1 13 3 14 5 15 4 16
REMARK H PARENT 4 17
REMARK Flexibility Score: inf
ROOT
ATOM      1  C   UNL     1     133.853 131.303 136.011  1.00  0.00     0.008 C 
ATOM      2  C   UNL     1     132.601 130.567 136.506  1.00  0.00    -0.008 C 
ATOM      3  C   UNL     1     131.635 131.470 137.333  1.00  0.00     0.004 C 
ATOM      4  C   UNL     1     130.922 130.546 138.356  1.00  0.00     0.005 C 
ATOM      5  C   UNL     1     131.387 129.169 137.918  1.00  0.00     0.002 C 
ATOM      6  C   UNL     1     132.825 129.359 137.442  1.00  0.00    -0.020 C 
ATOM      7  C   UNL     1     133.073 127.955 136.903  1.00  0.00     0.016 C 
ATOM      8  C   UNL     1     132.634 127.117 138.140  1.00  0.00     0.023 C 
ATOM      9  C   UNL     1     131.343 127.838 138.699  1.00  0.00    -0.025 C 
ATOM     10  C   UNL     1     131.293 128.058 140.230  1.00  0.00     0.012 C 
ATOM     11  C   UNL     1     130.093 127.011 138.311  1.00  0.00     0.012 C 
ATOM     12  C   UNL     1     133.781 127.164 139.132  1.00  0.00    -0.045 C 
ATOM     13  C   UNL     1     134.098 126.083 139.862  1.00  0.00     0.011 C 
ATOM     14  C   UNL     1     134.610 128.436 139.205  1.00  0.00     0.140 C 
ATOM     15  C   UNL     1     133.870 129.671 138.604  1.00  0.00     0.044 C 
ENDROOT
BRANCH  14  16
ATOM     16  O   UNL     1     135.054 128.708 140.512  1.00  0.00    -0.389 OA
ATOM     17  H   UNL     1     135.706 129.453 140.464  1.00  0.00     0.211 HD
ENDBRANCH  14  16
TORSDOF 1
ENDMDL
MODEL 4
REMARK VINA RESULT:    -6.830      2.347      4.505
REMARK INTER + INTRA:          -7.030
REMARK INTER:                  -7.030
REMARK INTRA:                   0.000
REMARK UNBOUND:                 0.000
REMARK SMILES C=C1[C@H](O)C[C@@]23C[C@@H]1C(C)(C)[C@H]2CC[C@H]3C
REMARK SMILES IDX 16 1 15 2 14 3 13 4 12 5 6 6 7 7 8 8 9 9 10 10 11 11 2 12
REMARK SMILES IDX 1 13 3 14 5 15 4 16
REMARK H PARENT 4 17
REMARK Flexibility Score: inf
ROOT
ATOM      1  C   UNL     1     131.525 127.048 140.797  1.00  0.00     0.008 C 
ATOM      2  C   UNL     1     131.294 127.749 139.452  1.00  0.00    -0.008 C 
ATOM      3  C   UNL     1     131.955 127.013 138.247  1.00  0.00     0.004 C 
ATOM      4  C   UNL     1     132.326 128.101 137.204  1.00  0.00     0.005 C 
ATOM      5  C   UNL     1     131.686 129.342 137.800  1.00  0.00     0.002 C 
ATOM      6  C   UNL     1     131.834 129.189 139.312  1.00  0.00    -0.020 C 
ATOM      7  C   UNL     1     131.019 130.402 139.745  1.00  0.00     0.016 C 
ATOM      8  C   UNL     1     131.702 131.500 138.877  1.00  0.00     0.023 C 
ATOM      9  C   UNL     1     131.957 130.825 137.469  1.00  0.00    -0.025 C 
ATOM     10  C   UNL     1     133.359 131.042 136.852  1.00  0.00     0.012 C 
ATOM     11  C   UNL     1     130.918 131.364 136.455  1.00  0.00     0.012 C 
ATOM     12  C   UNL     1     133.002 131.864 139.571  1.00  0.00    -0.045 C 
ATOM     13  C   UNL     1     133.431 133.135 139.594  1.00  0.00     0.011 C 
ATOM     14  C   UNL     1     133.747 130.766 140.311  1.00  0.00     0.140 C 
ATOM     15  C   UNL     1     133.328 129.336 139.847  1.00  0.00     0.044 C 
ENDROOT
BRANCH  14  16
ATOM     16  O   UNL     1     135.143 130.925 140.236  1.00  0.00    -0.389 OA
ATOM     17  H   UNL     1     135.562 130.063 140.487  1.00  0.00     0.211 HD
ENDBRANCH  14  16
TORSDOF 1
ENDMDL
MODEL 5
REMARK VINA RESULT:    -6.826      1.763      4.125
REMARK INTER + INTRA:          -7.025
REMARK INTER:                  -7.025
REMARK INTRA:                   0.000
REMARK UNBOUND:                 0.000
REMARK SMILES C=C1[C@H](O)C[C@@]23C[C@@H]1C(C)(C)[C@H]2CC[C@H]3C
REMARK SMILES IDX 16 1 15 2 14 3 13 4 12 5 6 6 7 7 8 8 9 9 10 10 11 11 2 12
REMARK SMILES IDX 1 13 3 14 5 15 4 16
REMARK H PARENT 4 17
REMARK Flexibility Score: inf
ROOT
ATOM      1  C   UNL     1     130.884 129.795 138.868  1.00  0.00     0.008 C 
ATOM      2  C   UNL     1     131.662 128.903 137.892  1.00  0.00    -0.008 C 
ATOM      3  C   UNL     1     132.247 127.618 138.555  1.00  0.00     0.004 C 
ATOM      4  C   UNL     1     133.546 127.265 137.782  1.00  0.00     0.005 C 
ATOM      5  C   UNL     1     133.507 128.252 136.629  1.00  0.00     0.002 C 
ATOM      6  C   UNL     1     132.897 129.527 137.206  1.00  0.00    -0.020 C 
ATOM      7  C   UNL     1     132.785 130.330 135.916  1.00  0.00     0.016 C 
ATOM      8  C   UNL     1     134.242 130.185 135.388  1.00  0.00     0.023 C 
ATOM      9  C   UNL     1     134.650 128.686 135.687  1.00  0.00    -0.025 C 
ATOM     10  C   UNL     1     136.046 128.472 136.320  1.00  0.00     0.012 C 
ATOM     11  C   UNL     1     134.614 127.880 134.366  1.00  0.00     0.012 C 
ATOM     12  C   UNL     1     135.094 131.168 136.171  1.00  0.00    -0.045 C 
ATOM     13  C   UNL     1     136.088 131.839 135.571  1.00  0.00     0.011 C 
ATOM     14  C   UNL     1     134.726 131.431 137.622  1.00  0.00     0.140 C 
ATOM     15  C   UNL     1     133.838 130.303 138.233  1.00  0.00     0.044 C 
ENDROOT
BRANCH  14  16
ATOM     16  O   UNL     1     135.859 131.663 138.425  1.00  0.00    -0.389 OA
ATOM     17  H   UNL     1     136.662 131.433 137.893  1.00  0.00     0.211 HD
ENDBRANCH  14  16
TORSDOF 1
ENDMDL
MODEL 6
REMARK VINA RESULT:    -6.699      2.020      4.133
REMARK INTER + INTRA:          -6.894
REMARK INTER:                  -6.894
REMARK INTRA:                   0.000
REMARK UNBOUND:                 0.000
REMARK SMILES C=C1[C@H](O)C[C@@]23C[C@@H]1C(C)(C)[C@H]2CC[C@H]3C
REMARK SMILES IDX 16 1 15 2 14 3 13 4 12 5 6 6 7 7 8 8 9 9 10 10 11 11 2 12
REMARK SMILES IDX 1 13 3 14 5 15 4 16
REMARK H PARENT 4 17
REMARK Flexibility Score: inf
ROOT
ATOM      1  C   UNL     1     134.035 130.858 142.001  1.00  0.00     0.008 C 
ATOM      2  C   UNL     1     134.043 131.322 140.538  1.00  0.00    -0.008 C 
ATOM      3  C   UNL     1     133.442 132.746 140.334  1.00  0.00     0.004 C 
ATOM      4  C   UNL     1     132.812 132.770 138.916  1.00  0.00     0.005 C 
ATOM      5  C   UNL     1     133.261 131.434 138.348  1.00  0.00     0.002 C 
ATOM      6  C   UNL     1     133.247 130.466 139.528  1.00  0.00    -0.020 C 
ATOM      7  C   UNL     1     133.860 129.255 138.836  1.00  0.00     0.016 C 
ATOM      8  C   UNL     1     132.934 129.169 137.587  1.00  0.00     0.023 C 
ATOM      9  C   UNL     1     132.708 130.666 137.129  1.00  0.00    -0.025 C 
ATOM     10  C   UNL     1     131.250 131.065 136.796  1.00  0.00     0.012 C 
ATOM     11  C   UNL     1     133.561 130.943 135.867  1.00  0.00     0.012 C 
ATOM     12  C   UNL     1     131.642 128.517 138.041  1.00  0.00    -0.045 C 
ATOM     13  C   UNL     1     130.995 127.653 137.244  1.00  0.00     0.011 C 
ATOM     14  C   UNL     1     131.157 128.801 139.454  1.00  0.00     0.140 C 
ATOM     15  C   UNL     1     131.791 130.092 140.059  1.00  0.00     0.044 C 
ENDROOT
BRANCH  14  16
ATOM     16  O   UNL     1     129.753 128.850 139.536  1.00  0.00    -0.389 OA
ATOM     17  H   UNL     1     129.399 127.981 139.220  1.00  0.00     0.211 HD
ENDBRANCH  14  16
TORSDOF 1
ENDMDL
MODEL 7
REMARK VINA RESULT:    -6.693      2.496      4.241
REMARK INTER + INTRA:          -6.889
REMARK INTER:                  -6.889
REMARK INTRA:                   0.000
REMARK UNBOUND:                 0.000
REMARK SMILES C=C1[C@H](O)C[C@@]23C[C@@H]1C(C)(C)[C@H]2CC[C@H]3C
REMARK SMILES IDX 16 1 15 2 14 3 13 4 12 5 6 6 7 7 8 8 9 9 10 10 11 11 2 12
REMARK SMILES IDX 1 13 3 14 5 15 4 16
REMARK H PARENT 4 17
REMARK Flexibility Score: inf
ROOT
ATOM      1  C   UNL     1     133.690 129.619 142.667  1.00  0.00     0.008 C 
ATOM      2  C   UNL     1     132.853 128.678 141.790  1.00  0.00    -0.008 C 
ATOM      3  C   UNL     1     133.613 127.384 141.366  1.00  0.00     0.004 C 
ATOM      4  C   UNL     1     133.049 126.964 139.982  1.00  0.00     0.005 C 
ATOM      5  C   UNL     1     131.890 127.930 139.807  1.00  0.00     0.002 C 
ATOM      6  C   UNL     1     132.352 129.239 140.442  1.00  0.00    -0.020 C 
ATOM      7  C   UNL     1     131.049 130.020 140.326  1.00  0.00     0.016 C 
ATOM      8  C   UNL     1     130.747 129.807 138.813  1.00  0.00     0.023 C 
ATOM      9  C   UNL     1     131.124 128.299 138.519  1.00  0.00    -0.025 C 
ATOM     10  C   UNL     1     131.962 128.041 137.244  1.00  0.00     0.012 C 
ATOM     11  C   UNL     1     129.823 127.469 138.392  1.00  0.00     0.012 C 
ATOM     12  C   UNL     1     131.635 130.770 138.048  1.00  0.00    -0.045 C 
ATOM     13  C   UNL     1     131.182 131.389 136.947  1.00  0.00     0.011 C 
ATOM     14  C   UNL     1     133.012 131.076 138.616  1.00  0.00     0.140 C 
ATOM     15  C   UNL     1     133.497 129.996 139.632  1.00  0.00     0.044 C 
ENDROOT
BRANCH  14  16
ATOM     16  O   UNL     1     133.972 131.278 137.607  1.00  0.00    -0.389 OA
ATOM     17  H   UNL     1     134.867 131.118 138.001  1.00  0.00     0.211 HD
ENDBRANCH  14  16
TORSDOF 1
ENDMDL
MODEL 8
REMARK VINA RESULT:    -6.609      1.820      4.705
REMARK INTER + INTRA:          -6.802
REMARK INTER:                  -6.802
REMARK INTRA:                   0.000
REMARK UNBOUND:                 0.000
REMARK SMILES C=C1[C@H](O)C[C@@]23C[C@@H]1C(C)(C)[C@H]2CC[C@H]3C
REMARK SMILES IDX 16 1 15 2 14 3 13 4 12 5 6 6 7 7 8 8 9 9 10 10 11 11 2 12
REMARK SMILES IDX 1 13 3 14 5 15 4 16
REMARK H PARENT 4 17
REMARK Flexibility Score: inf
ROOT
ATOM      1  C   UNL     1     132.713 126.792 141.063  1.00  0.00     0.008 C 
ATOM      2  C   UNL     1     132.180 128.171 140.651  1.00  0.00    -0.008 C 
ATOM      3  C   UNL     1     130.651 128.181 140.348  1.00  0.00     0.004 C 
ATOM      4  C   UNL     1     130.412 129.277 139.275  1.00  0.00     0.005 C 
ATOM      5  C   UNL     1     131.778 129.934 139.184  1.00  0.00     0.002 C 
ATOM      6  C   UNL     1     132.786 128.804 139.379  1.00  0.00    -0.020 C 
ATOM      7  C   UNL     1     134.060 129.640 139.421  1.00  0.00     0.016 C 
ATOM      8  C   UNL     1     133.873 130.468 138.116  1.00  0.00     0.023 C 
ATOM      9  C   UNL     1     132.339 130.852 138.077  1.00  0.00    -0.025 C 
ATOM     10  C   UNL     1     131.618 130.646 136.723  1.00  0.00     0.012 C 
ATOM     11  C   UNL     1     132.181 132.343 138.462  1.00  0.00     0.012 C 
ATOM     12  C   UNL     1     134.257 129.562 136.961  1.00  0.00    -0.045 C 
ATOM     13  C   UNL     1     134.914 130.050 135.898  1.00  0.00     0.011 C 
ATOM     14  C   UNL     1     133.955 128.078 137.088  1.00  0.00     0.140 C 
ATOM     15  C   UNL     1     132.867 127.775 138.165  1.00  0.00     0.044 C 
ENDROOT
BRANCH  14  16
ATOM     16  O   UNL     1     133.610 127.496 135.854  1.00  0.00    -0.389 OA
ATOM     17  H   UNL     1     134.201 126.714 135.709  1.00  0.00     0.211 HD
ENDBRANCH  14  16
TORSDOF 1
ENDMDL
MODEL 9
REMARK VINA RESULT:    -6.467      2.974      4.322
REMARK INTER + INTRA:          -6.656
REMARK INTER:                  -6.656
REMARK INTRA:                   0.000
REMARK UNBOUND:                 0.000
REMARK SMILES C=C1[C@H](O)C[C@@]23C[C@@H]1C(C)(C)[C@H]2CC[C@H]3C
REMARK SMILES IDX 16 1 15 2 14 3 13 4 12 5 6 6 7 7 8 8 9 9 10 10 11 11 2 12
REMARK SMILES IDX 1 13 3 14 5 15 4 16
REMARK H PARENT 4 17
REMARK Flexibility Score: inf
ROOT
ATOM      1  C   UNL     1     134.988 126.120 141.732  1.00  0.00     0.008 C 
ATOM      2  C   UNL     1     134.147 125.976 140.457  1.00  0.00    -0.008 C 
ATOM      3  C   UNL     1     135.001 125.912 139.154  1.00  0.00     0.004 C 
ATOM      4  C   UNL     1     134.140 126.532 138.020  1.00  0.00     0.005 C 
ATOM      5  C   UNL     1     132.802 126.729 138.711  1.00  0.00     0.002 C 
ATOM      6  C   UNL     1     133.140 127.107 140.151  1.00  0.00    -0.020 C 
ATOM      7  C   UNL     1     131.728 127.108 140.724  1.00  0.00     0.016 C 
ATOM      8  C   UNL     1     131.025 128.034 139.688  1.00  0.00     0.023 C 
ATOM      9  C   UNL     1     131.612 127.612 138.281  1.00  0.00    -0.025 C 
ATOM     10  C   UNL     1     132.046 128.768 137.348  1.00  0.00     0.012 C 
ATOM     11  C   UNL     1     130.551 126.779 137.520  1.00  0.00     0.012 C 
ATOM     12  C   UNL     1     131.396 129.460 140.050  1.00  0.00    -0.045 C 
ATOM     13  C   UNL     1     130.499 130.450 139.933  1.00  0.00     0.011 C 
ATOM     14  C   UNL     1     132.779 129.712 140.630  1.00  0.00     0.140 C 
ATOM     15  C   UNL     1     133.781 128.557 140.320  1.00  0.00     0.044 C 
ENDROOT
BRANCH  14  16
ATOM     16  O   UNL     1     133.308 130.952 140.227  1.00  0.00    -0.389 OA
ATOM     17  H   UNL     1     133.801 130.813 139.379  1.00  0.00     0.211 HD
ENDBRANCH  14  16
TORSDOF 1
ENDMDL
