MODEL 1
REMARK VINA RESULT:    -4.149      0.000      0.000
REMARK INTER + INTRA:          -4.527
REMARK INTER:                  -4.513
REMARK INTRA:                  -0.014
REMARK UNBOUND:                -0.014
REMARK SMILES OCc1ccco1
REMARK SMILES IDX 2 1 3 2 5 3 6 4 4 5 7 6 1 7
REMARK H PARENT 1 8
REMARK Flexibility Score: inf
ROOT
ATOM      1  C   UNL     1      54.411 -38.771  -2.111  1.00  0.00     0.231 C 
ENDROOT
BRANCH   1   2
ATOM      2  C   UNL     1      53.585 -40.016  -2.198  1.00  0.00     0.129 A 
ATOM      3  C   UNL     1      52.916 -42.105  -2.083  1.00  0.00     0.042 A 
ATOM      4  C   UNL     1      51.951 -41.304  -2.660  1.00  0.00     0.195 A 
ATOM      5  C   UNL     1      53.975 -41.274  -1.786  1.00  0.00     0.048 A 
ATOM      6  O   UNL     1      52.380 -40.063  -2.717  1.00  0.00    -0.467 OA
ENDBRANCH   1   2
BRANCH   1   7
ATOM      7  O   UNL     1      55.578 -38.916  -2.872  1.00  0.00    -0.388 OA
ATOM      8  H   UNL     1      56.071 -38.058  -2.803  1.00  0.00     0.211 HD
ENDBRANCH   1   7
TORSDOF 2
ENDMDL
MODEL 2
REMARK VINA RESULT:    -3.828      1.390      3.158
REMARK INTER + INTRA:          -4.177
REMARK INTER:                  -4.165
REMARK INTRA:                  -0.013
REMARK UNBOUND:                -0.014
REMARK SMILES OCc1ccco1
REMARK SMILES IDX 2 1 3 2 5 3 6 4 4 5 7 6 1 7
REMARK H PARENT 1 8
REMARK Flexibility Score: inf
ROOT
ATOM      1  C   UNL     1      50.865 -41.337  -2.908  1.00  0.00     0.231 C 
ENDROOT
BRANCH   1   2
ATOM      2  C   UNL     1      52.187 -40.694  -2.628  1.00  0.00     0.129 A 
ATOM      3  C   UNL     1      54.225 -40.312  -1.906  1.00  0.00     0.042 A 
ATOM      4  C   UNL     1      53.715 -39.209  -2.560  1.00  0.00     0.195 A 
ATOM      5  C   UNL     1      53.238 -41.273  -1.946  1.00  0.00     0.048 A 
ATOM      6  O   UNL     1      52.495 -39.467  -2.977  1.00  0.00    -0.467 OA
ENDBRANCH   1   2
BRANCH   1   7
ATOM      7  O   UNL     1      51.046 -42.491  -3.679  1.00  0.00    -0.388 OA
ATOM      8  H   UNL     1      50.231 -42.592  -4.236  1.00  0.00     0.211 HD
ENDBRANCH   1   7
TORSDOF 2
ENDMDL
MODEL 3
REMARK VINA RESULT:    -3.755      2.149      3.142
REMARK INTER + INTRA:          -4.098
REMARK INTER:                  -4.083
REMARK INTRA:                  -0.015
REMARK UNBOUND:                -0.014
REMARK SMILES OCc1ccco1
REMARK SMILES IDX 2 1 3 2 5 3 6 4 4 5 7 6 1 7
REMARK H PARENT 1 8
REMARK Flexibility Score: inf
ROOT
ATOM      1  C   UNL     1      52.887 -41.580  -1.901  1.00  0.00     0.231 C 
ENDROOT
BRANCH   1   2
ATOM      2  C   UNL     1      51.767 -41.097  -2.766  1.00  0.00     0.129 A 
ATOM      3  C   UNL     1      49.978 -41.019  -4.038  1.00  0.00     0.042 A 
ATOM      4  C   UNL     1      50.563 -39.774  -3.928  1.00  0.00     0.195 A 
ATOM      5  C   UNL     1      50.756 -41.876  -3.290  1.00  0.00     0.048 A 
ATOM      6  O   UNL     1      51.631 -39.853  -3.165  1.00  0.00    -0.467 OA
ENDBRANCH   1   2
BRANCH   1   7
ATOM      7  O   UNL     1      53.323 -42.837  -2.338  1.00  0.00    -0.388 OA
ATOM      8  H   UNL     1      53.074 -42.907  -3.296  1.00  0.00     0.211 HD
ENDBRANCH   1   7
TORSDOF 2
ENDMDL
MODEL 4
REMARK VINA RESULT:    -3.543     13.365     13.645
REMARK INTER + INTRA:          -3.868
REMARK INTER:                  -3.854
REMARK INTRA:                  -0.014
REMARK UNBOUND:                -0.014
REMARK SMILES OCc1ccco1
REMARK SMILES IDX 2 1 3 2 5 3 6 4 4 5 7 6 1 7
REMARK H PARENT 1 8
REMARK Flexibility Score: inf
ROOT
ATOM      1  C   UNL     1      51.479 -33.794  11.235  1.00  0.00     0.231 C 
ENDROOT
BRANCH   1   2
ATOM      2  C   UNL     1      51.127 -34.845  10.231  1.00  0.00     0.129 A 
ATOM      3  C   UNL     1      50.842 -36.776   9.223  1.00  0.00     0.042 A 
ATOM      4  C   UNL     1      50.491 -35.727   8.397  1.00  0.00     0.195 A 
ATOM      5  C   UNL     1      51.256 -36.207  10.409  1.00  0.00     0.048 A 
ATOM      6  O   UNL     1      50.674 -34.587   9.026  1.00  0.00    -0.467 OA
ENDBRANCH   1   2
BRANCH   1   7
ATOM      7  O   UNL     1      52.869 -33.640  11.301  1.00  0.00    -0.388 OA
ATOM      8  H   UNL     1      53.255 -34.238  10.609  1.00  0.00     0.211 HD
ENDBRANCH   1   7
TORSDOF 2
ENDMDL
MODEL 5
REMARK VINA RESULT:    -3.531      1.676      2.248
REMARK INTER + INTRA:          -3.854
REMARK INTER:                  -3.840
REMARK INTRA:                  -0.014
REMARK UNBOUND:                -0.014
REMARK SMILES OCc1ccco1
REMARK SMILES IDX 2 1 3 2 5 3 6 4 4 5 7 6 1 7
REMARK H PARENT 1 8
REMARK Flexibility Score: inf
ROOT
ATOM      1  C   UNL     1      51.938 -38.601  -3.422  1.00  0.00     0.231 C 
ENDROOT
BRANCH   1   2
ATOM      2  C   UNL     1      52.762 -39.641  -2.733  1.00  0.00     0.129 A 
ATOM      3  C   UNL     1      54.411 -40.692  -1.733  1.00  0.00     0.042 A 
ATOM      4  C   UNL     1      53.331 -41.530  -1.924  1.00  0.00     0.195 A 
ATOM      5  C   UNL     1      54.046 -39.471  -2.259  1.00  0.00     0.048 A 
ATOM      6  O   UNL     1      52.363 -40.875  -2.525  1.00  0.00    -0.467 OA
ENDBRANCH   1   2
BRANCH   1   7
ATOM      7  O   UNL     1      52.174 -38.638  -4.802  1.00  0.00    -0.388 OA
ATOM      8  H   UNL     1      51.304 -38.845  -5.234  1.00  0.00     0.211 HD
ENDBRANCH   1   7
TORSDOF 2
ENDMDL
MODEL 6
REMARK VINA RESULT:    -3.446      6.318      8.032
REMARK INTER + INTRA:          -3.762
REMARK INTER:                  -3.746
REMARK INTRA:                  -0.016
REMARK UNBOUND:                -0.014
REMARK SMILES OCc1ccco1
REMARK SMILES IDX 2 1 3 2 5 3 6 4 4 5 7 6 1 7
REMARK H PARENT 1 8
REMARK Flexibility Score: inf
ROOT
ATOM      1  C   UNL     1      44.560 -39.774  -1.500  1.00  0.00     0.231 C 
ENDROOT
BRANCH   1   2
ATOM      2  C   UNL     1      45.821 -40.092  -2.238  1.00  0.00     0.129 A 
ATOM      3  C   UNL     1      47.265 -40.559  -3.826  1.00  0.00     0.042 A 
ATOM      4  C   UNL     1      47.868 -40.576  -2.585  1.00  0.00     0.195 A 
ATOM      5  C   UNL     1      45.940 -40.249  -3.603  1.00  0.00     0.048 A 
ATOM      6  O   UNL     1      46.981 -40.296  -1.656  1.00  0.00    -0.467 OA
ENDBRANCH   1   2
BRANCH   1   7
ATOM      7  O   UNL     1      44.146 -40.886  -0.755  1.00  0.00    -0.388 OA
ATOM      8  H   UNL     1      43.163 -40.805  -0.645  1.00  0.00     0.211 HD
ENDBRANCH   1   7
TORSDOF 2
ENDMDL
MODEL 7
REMARK VINA RESULT:    -3.356     13.703     14.192
REMARK INTER + INTRA:          -3.664
REMARK INTER:                  -3.651
REMARK INTRA:                  -0.013
REMARK UNBOUND:                -0.014
REMARK SMILES OCc1ccco1
REMARK SMILES IDX 2 1 3 2 5 3 6 4 4 5 7 6 1 7
REMARK H PARENT 1 8
REMARK Flexibility Score: inf
ROOT
ATOM      1  C   UNL     1      50.812 -36.396   9.060  1.00  0.00     0.231 C 
ENDROOT
BRANCH   1   2
ATOM      2  C   UNL     1      50.699 -35.277  10.046  1.00  0.00     0.129 A 
ATOM      3  C   UNL     1      50.287 -34.110  11.861  1.00  0.00     0.042 A 
ATOM      4  C   UNL     1      50.763 -33.303  10.848  1.00  0.00     0.195 A 
ATOM      5  C   UNL     1      50.242 -35.387  11.343  1.00  0.00     0.048 A 
ATOM      6  O   UNL     1      50.998 -34.027   9.776  1.00  0.00    -0.467 OA
ENDBRANCH   1   2
BRANCH   1   7
ATOM      7  O   UNL     1      52.131 -36.864   9.014  1.00  0.00    -0.388 OA
ATOM      8  H   UNL     1      52.578 -36.536   9.837  1.00  0.00     0.211 HD
ENDBRANCH   1   7
TORSDOF 2
ENDMDL
MODEL 8
REMARK VINA RESULT:    -3.303      3.791      5.287
REMARK INTER + INTRA:          -3.606
REMARK INTER:                  -3.593
REMARK INTRA:                  -0.013
REMARK UNBOUND:                -0.014
REMARK SMILES OCc1ccco1
REMARK SMILES IDX 2 1 3 2 5 3 6 4 4 5 7 6 1 7
REMARK H PARENT 1 8
REMARK Flexibility Score: inf
ROOT
ATOM      1  C   UNL     1      50.588 -41.336  -3.011  1.00  0.00     0.231 C 
ENDROOT
BRANCH   1   2
ATOM      2  C   UNL     1      49.196 -40.928  -3.374  1.00  0.00     0.129 A 
ATOM      3  C   UNL     1      47.412 -40.318  -4.501  1.00  0.00     0.042 A 
ATOM      4  C   UNL     1      47.159 -40.342  -3.145  1.00  0.00     0.195 A 
ATOM      5  C   UNL     1      48.730 -40.693  -4.652  1.00  0.00     0.048 A 
ATOM      6  O   UNL     1      48.243 -40.708  -2.498  1.00  0.00    -0.467 OA
ENDBRANCH   1   2
BRANCH   1   7
ATOM      7  O   UNL     1      50.940 -42.505  -3.699  1.00  0.00    -0.388 OA
ATOM      8  H   UNL     1      51.931 -42.550  -3.695  1.00  0.00     0.211 HD
ENDBRANCH   1   7
TORSDOF 2
ENDMDL
MODEL 9
REMARK VINA RESULT:    -3.213      2.211      2.900
REMARK INTER + INTRA:          -3.508
REMARK INTER:                  -3.493
REMARK INTRA:                  -0.016
REMARK UNBOUND:                -0.014
REMARK SMILES OCc1ccco1
REMARK SMILES IDX 2 1 3 2 5 3 6 4 4 5 7 6 1 7
REMARK H PARENT 1 8
REMARK Flexibility Score: inf
ROOT
ATOM      1  C   UNL     1      51.982 -38.998  -3.425  1.00  0.00     0.231 C 
ENDROOT
BRANCH   1   2
ATOM      2  C   UNL     1      51.011 -40.130  -3.537  1.00  0.00     0.129 A 
ATOM      3  C   UNL     1      50.054 -42.100  -3.376  1.00  0.00     0.042 A 
ATOM      4  C   UNL     1      49.283 -41.232  -4.122  1.00  0.00     0.195 A 
ATOM      5  C   UNL     1      51.174 -41.390  -2.999  1.00  0.00     0.048 A 
ATOM      6  O   UNL     1      49.881 -40.065  -4.203  1.00  0.00    -0.467 OA
ENDBRANCH   1   2
BRANCH   1   7
ATOM      7  O   UNL     1      53.225 -39.473  -2.987  1.00  0.00    -0.388 OA
ATOM      8  H   UNL     1      53.247 -39.348  -2.003  1.00  0.00     0.211 HD
ENDBRANCH   1   7
TORSDOF 2
ENDMDL
