MODEL 1
REMARK VINA RESULT:    -8.036      0.000      0.000
REMARK INTER + INTRA:         -10.431
REMARK INTER:                  -9.915
REMARK INTRA:                  -0.516
REMARK UNBOUND:                -0.516
REMARK SMILES COc1ccc(-c2cc3cc(O)c(OC)cc3o2)c(O)c1
REMARK SMILES IDX 7 1 8 2 9 3 10 4 11 5 13 6 16 7 17 8 18 9 6 10 3 11 21 12
REMARK SMILES IDX 4 13 19 14 5 15 2 16 1 17 20 18 12 20 14 22 15 23
REMARK H PARENT 20 19 12 21
REMARK Flexibility Score: inf
ROOT
ATOM      1  C   UNL     1       5.936 -55.716 -29.463  1.00  0.00     0.139 A 
ATOM      2  C   UNL     1       6.116 -56.342 -28.225  1.00  0.00     0.060 A 
ATOM      3  C   UNL     1       4.932 -56.136 -27.557  1.00  0.00     0.025 A 
ATOM      4  C   UNL     1       4.523 -56.525 -26.287  1.00  0.00     0.062 A 
ATOM      5  C   UNL     1       3.227 -56.158 -25.869  1.00  0.00     0.158 A 
ATOM      6  C   UNL     1       2.377 -55.416 -26.728  1.00  0.00     0.164 A 
ATOM      7  C   UNL     1       2.835 -55.041 -28.016  1.00  0.00     0.098 A 
ATOM      8  C   UNL     1       4.121 -55.422 -28.391  1.00  0.00     0.138 A 
ATOM      9  O   UNL     1       4.730 -55.177 -29.523  1.00  0.00    -0.456 OA
ENDROOT
BRANCH   1  10
ATOM     10  C   UNL     1       6.927 -55.644 -30.569  1.00  0.00     0.059 A 
ATOM     11  C   UNL     1       8.824 -55.526 -32.663  1.00  0.00     0.122 A 
ATOM     12  C   UNL     1       7.517 -55.048 -32.861  1.00  0.00     0.093 A 
ATOM     13  C   UNL     1       9.172 -56.061 -31.423  1.00  0.00     0.047 A 
ATOM     14  C   UNL     1       6.572 -55.103 -31.825  1.00  0.00     0.130 A 
ATOM     15  C   UNL     1       8.238 -56.121 -30.385  1.00  0.00     0.020 A 
BRANCH  11  16
ATOM     16  O   UNL     1       9.800 -55.489 -33.671  1.00  0.00    -0.497 OA
ATOM     17  C   UNL     1      11.197 -55.349 -33.434  1.00  0.00     0.278 C 
ENDBRANCH  11  16
BRANCH  14  18
ATOM     18  O   UNL     1       5.284 -54.615 -32.048  1.00  0.00    -0.507 OA
ATOM     19  H   UNL     1       4.461 -55.172 -31.852  1.00  0.00     0.293 HD
ENDBRANCH  14  18
ENDBRANCH   1  10
BRANCH   5  20
ATOM     20  O   UNL     1       2.771 -56.525 -24.603  1.00  0.00    -0.504 OA
ATOM     21  H   UNL     1       3.264 -57.207 -24.041  1.00  0.00     0.293 HD
ENDBRANCH   5  20
BRANCH   6  22
ATOM     22  O   UNL     1       1.096 -55.076 -26.268  1.00  0.00    -0.493 OA
ATOM     23  C   UNL     1       0.713 -53.770 -25.848  1.00  0.00     0.278 C 
ENDBRANCH   6  22
TORSDOF 5
ENDMDL
MODEL 2
REMARK VINA RESULT:    -7.977      1.612      7.970
REMARK INTER + INTRA:         -10.359
REMARK INTER:                  -9.898
REMARK INTRA:                  -0.460
REMARK UNBOUND:                -0.516
REMARK SMILES COc1ccc(-c2cc3cc(O)c(OC)cc3o2)c(O)c1
REMARK SMILES IDX 7 1 8 2 9 3 10 4 11 5 13 6 16 7 17 8 18 9 6 10 3 11 21 12
REMARK SMILES IDX 4 13 19 14 5 15 2 16 1 17 20 18 12 20 14 22 15 23
REMARK H PARENT 20 19 12 21
REMARK Flexibility Score: inf
ROOT
ATOM      1  C   UNL     1       5.146 -55.901 -28.532  1.00  0.00     0.139 A 
ATOM      2  C   UNL     1       4.684 -55.469 -29.781  1.00  0.00     0.060 A 
ATOM      3  C   UNL     1       5.811 -55.412 -30.566  1.00  0.00     0.025 A 
ATOM      4  C   UNL     1       5.975 -55.049 -31.898  1.00  0.00     0.062 A 
ATOM      5  C   UNL     1       7.279 -55.088 -32.437  1.00  0.00     0.158 A 
ATOM      6  C   UNL     1       8.377 -55.486 -31.635  1.00  0.00     0.164 A 
ATOM      7  C   UNL     1       8.163 -55.849 -30.281  1.00  0.00     0.098 A 
ATOM      8  C   UNL     1       6.863 -55.797 -29.787  1.00  0.00     0.138 A 
ATOM      9  O   UNL     1       6.456 -56.085 -28.577  1.00  0.00    -0.456 OA
ENDROOT
BRANCH   1  10
ATOM     10  C   UNL     1       4.323 -56.128 -27.315  1.00  0.00     0.059 A 
ATOM     11  C   UNL     1       2.737 -56.553 -25.013  1.00  0.00     0.122 A 
ATOM     12  C   UNL     1       3.959 -57.229 -25.168  1.00  0.00     0.093 A 
ATOM     13  C   UNL     1       2.315 -55.672 -26.010  1.00  0.00     0.047 A 
ATOM     14  C   UNL     1       4.751 -57.021 -26.308  1.00  0.00     0.130 A 
ATOM     15  C   UNL     1       3.096 -55.459 -27.149  1.00  0.00     0.020 A 
BRANCH  11  16
ATOM     16  O   UNL     1       1.915 -56.731 -23.890  1.00  0.00    -0.497 OA
ATOM     17  C   UNL     1       1.652 -55.724 -22.918  1.00  0.00     0.278 C 
ENDBRANCH  11  16
BRANCH  14  18
ATOM     18  O   UNL     1       5.963 -57.700 -26.432  1.00  0.00    -0.507 OA
ATOM     19  H   UNL     1       6.622 -57.487 -27.172  1.00  0.00     0.293 HD
ENDBRANCH  14  18
ENDBRANCH   1  10
BRANCH   5  20
ATOM     20  O   UNL     1       7.494 -54.733 -33.768  1.00  0.00    -0.504 OA
ATOM     21  H   UNL     1       7.066 -53.909 -34.173  1.00  0.00     0.293 HD
ENDBRANCH   5  20
BRANCH   6  22
ATOM     22  O   UNL     1       9.654 -55.510 -32.217  1.00  0.00    -0.493 OA
ATOM     23  C   UNL     1      10.111 -56.518 -33.114  1.00  0.00     0.278 C 
ENDBRANCH   6  22
TORSDOF 5
ENDMDL
MODEL 3
REMARK VINA RESULT:    -7.896      1.463      2.565
REMARK INTER + INTRA:         -10.259
REMARK INTER:                  -9.785
REMARK INTRA:                  -0.474
REMARK UNBOUND:                -0.516
REMARK SMILES COc1ccc(-c2cc3cc(O)c(OC)cc3o2)c(O)c1
REMARK SMILES IDX 7 1 8 2 9 3 10 4 11 5 13 6 16 7 17 8 18 9 6 10 3 11 21 12
REMARK SMILES IDX 4 13 19 14 5 15 2 16 1 17 20 18 12 20 14 22 15 23
REMARK H PARENT 20 19 12 21
REMARK Flexibility Score: inf
ROOT
ATOM      1  C   UNL     1       4.986 -55.562 -28.829  1.00  0.00     0.139 A 
ATOM      2  C   UNL     1       3.659 -55.121 -28.897  1.00  0.00     0.060 A 
ATOM      3  C   UNL     1       3.157 -55.338 -27.636  1.00  0.00     0.025 A 
ATOM      4  C   UNL     1       1.895 -55.097 -27.105  1.00  0.00     0.062 A 
ATOM      5  C   UNL     1       1.673 -55.432 -25.753  1.00  0.00     0.158 A 
ATOM      6  C   UNL     1       2.713 -55.995 -24.971  1.00  0.00     0.164 A 
ATOM      7  C   UNL     1       3.984 -56.223 -25.554  1.00  0.00     0.098 A 
ATOM      8  C   UNL     1       4.164 -55.880 -26.891  1.00  0.00     0.138 A 
ATOM      9  O   UNL     1       5.248 -56.009 -27.612  1.00  0.00    -0.456 OA
ENDROOT
BRANCH   1  10
ATOM     10  C   UNL     1       5.980 -55.549 -29.935  1.00  0.00     0.059 A 
ATOM     11  C   UNL     1       7.859 -55.505 -32.047  1.00  0.00     0.122 A 
ATOM     12  C   UNL     1       8.209 -56.043 -30.797  1.00  0.00     0.093 A 
ATOM     13  C   UNL     1       6.575 -54.991 -32.232  1.00  0.00     0.047 A 
ATOM     14  C   UNL     1       7.280 -56.069 -29.745  1.00  0.00     0.130 A 
ATOM     15  C   UNL     1       5.643 -55.011 -31.191  1.00  0.00     0.020 A 
BRANCH  11  16
ATOM     16  O   UNL     1       8.755 -55.461 -33.126  1.00  0.00    -0.497 OA
ATOM     17  C   UNL     1       9.749 -56.446 -33.387  1.00  0.00     0.278 C 
ENDBRANCH  11  16
BRANCH  14  18
ATOM     18  O   UNL     1       7.653 -56.616 -28.517  1.00  0.00    -0.507 OA
ATOM     19  H   UNL     1       8.552 -57.063 -28.383  1.00  0.00     0.293 HD
ENDBRANCH  14  18
ENDBRANCH   1  10
BRANCH   5  20
ATOM     20  O   UNL     1       0.423 -55.210 -25.175  1.00  0.00    -0.504 OA
ATOM     21  H   UNL     1      -0.064 -54.329 -25.290  1.00  0.00     0.293 HD
ENDBRANCH   5  20
BRANCH   6  22
ATOM     22  O   UNL     1       2.443 -56.311 -23.630  1.00  0.00    -0.493 OA
ATOM     23  C   UNL     1       2.615 -55.408 -22.542  1.00  0.00     0.278 C 
ENDBRANCH   6  22
TORSDOF 5
ENDMDL
MODEL 4
REMARK VINA RESULT:    -7.740      1.388      7.700
REMARK INTER + INTRA:         -10.066
REMARK INTER:                  -9.657
REMARK INTRA:                  -0.409
REMARK UNBOUND:                -0.516
REMARK SMILES COc1ccc(-c2cc3cc(O)c(OC)cc3o2)c(O)c1
REMARK SMILES IDX 7 1 8 2 9 3 10 4 11 5 13 6 16 7 17 8 18 9 6 10 3 11 21 12
REMARK SMILES IDX 4 13 19 14 5 15 2 16 1 17 20 18 12 20 14 22 15 23
REMARK H PARENT 20 19 12 21
REMARK Flexibility Score: inf
ROOT
ATOM      1  C   UNL     1       5.863 -56.023 -28.438  1.00  0.00     0.139 A 
ATOM      2  C   UNL     1       7.249 -56.131 -28.274  1.00  0.00     0.060 A 
ATOM      3  C   UNL     1       7.766 -55.877 -29.522  1.00  0.00     0.025 A 
ATOM      4  C   UNL     1       9.080 -55.844 -29.973  1.00  0.00     0.062 A 
ATOM      5  C   UNL     1       9.304 -55.551 -31.335  1.00  0.00     0.158 A 
ATOM      6  C   UNL     1       8.213 -55.298 -32.205  1.00  0.00     0.164 A 
ATOM      7  C   UNL     1       6.889 -55.341 -31.701  1.00  0.00     0.098 A 
ATOM      8  C   UNL     1       6.710 -55.635 -30.352  1.00  0.00     0.138 A 
ATOM      9  O   UNL     1       5.581 -55.725 -29.695  1.00  0.00    -0.456 OA
ENDROOT
BRANCH   1  10
ATOM     10  C   UNL     1       4.831 -56.208 -27.383  1.00  0.00     0.059 A 
ATOM     11  C   UNL     1       2.886 -56.567 -25.362  1.00  0.00     0.122 A 
ATOM     12  C   UNL     1       2.647 -55.685 -26.430  1.00  0.00     0.093 A 
ATOM     13  C   UNL     1       4.096 -57.261 -25.311  1.00  0.00     0.047 A 
ATOM     14  C   UNL     1       3.608 -55.504 -27.436  1.00  0.00     0.130 A 
ATOM     15  C   UNL     1       5.060 -57.086 -26.308  1.00  0.00     0.020 A 
BRANCH  11  16
ATOM     16  O   UNL     1       1.953 -56.779 -24.336  1.00  0.00    -0.497 OA
ATOM     17  C   UNL     1       0.673 -56.159 -24.271  1.00  0.00     0.278 C 
ENDBRANCH  11  16
BRANCH  14  18
ATOM     18  O   UNL     1       3.340 -54.627 -28.488  1.00  0.00    -0.507 OA
ATOM     19  H   UNL     1       3.249 -54.951 -29.443  1.00  0.00     0.293 HD
ENDBRANCH  14  18
ENDBRANCH   1  10
BRANCH   5  20
ATOM     20  O   UNL     1      10.604 -55.506 -31.835  1.00  0.00    -0.504 OA
ATOM     21  H   UNL     1      10.849 -54.919 -32.623  1.00  0.00     0.293 HD
ENDBRANCH   5  20
BRANCH   6  22
ATOM     22  O   UNL     1       8.486 -55.010 -33.551  1.00  0.00    -0.493 OA
ATOM     23  C   UNL     1       8.977 -55.958 -34.493  1.00  0.00     0.278 C 
ENDBRANCH   6  22
TORSDOF 5
ENDMDL
MODEL 5
REMARK VINA RESULT:    -7.394      2.384      8.337
REMARK INTER + INTRA:          -9.639
REMARK INTER:                  -9.236
REMARK INTRA:                  -0.403
REMARK UNBOUND:                -0.516
REMARK SMILES COc1ccc(-c2cc3cc(O)c(OC)cc3o2)c(O)c1
REMARK SMILES IDX 7 1 8 2 9 3 10 4 11 5 13 6 16 7 17 8 18 9 6 10 3 11 21 12
REMARK SMILES IDX 4 13 19 14 5 15 2 16 1 17 20 18 12 20 14 22 15 23
REMARK H PARENT 20 19 12 21
REMARK Flexibility Score: inf
ROOT
ATOM      1  C   UNL     1       3.613 -55.471 -26.737  1.00  0.00     0.139 A 
ATOM      2  C   UNL     1       3.177 -55.077 -28.007  1.00  0.00     0.060 A 
ATOM      3  C   UNL     1       4.240 -55.347 -28.836  1.00  0.00     0.025 A 
ATOM      4  C   UNL     1       4.395 -55.165 -30.206  1.00  0.00     0.062 A 
ATOM      5  C   UNL     1       5.625 -55.542 -30.787  1.00  0.00     0.158 A 
ATOM      6  C   UNL     1       6.661 -56.088 -29.988  1.00  0.00     0.164 A 
ATOM      7  C   UNL     1       6.458 -56.256 -28.595  1.00  0.00     0.098 A 
ATOM      8  C   UNL     1       5.232 -55.871 -28.060  1.00  0.00     0.138 A 
ATOM      9  O   UNL     1       4.848 -55.940 -26.810  1.00  0.00    -0.456 OA
ENDROOT
BRANCH   1  10
ATOM     10  C   UNL     1       2.837 -55.388 -25.471  1.00  0.00     0.059 A 
ATOM     11  C   UNL     1       1.362 -55.255 -23.062  1.00  0.00     0.122 A 
ATOM     12  C   UNL     1       2.096 -54.143 -23.508  1.00  0.00     0.093 A 
ATOM     13  C   UNL     1       1.372 -56.426 -23.822  1.00  0.00     0.047 A 
ATOM     14  C   UNL     1       2.829 -54.202 -24.703  1.00  0.00     0.130 A 
ATOM     15  C   UNL     1       2.100 -56.496 -25.013  1.00  0.00     0.020 A 
BRANCH  11  16
ATOM     16  O   UNL     1       0.615 -55.238 -21.874  1.00  0.00    -0.497 OA
ATOM     17  C   UNL     1       1.173 -55.359 -20.570  1.00  0.00     0.278 C 
ENDBRANCH  11  16
BRANCH  14  18
ATOM     18  O   UNL     1       3.543 -53.080 -25.124  1.00  0.00    -0.507 OA
ATOM     19  H   UNL     1       3.438 -52.180 -24.671  1.00  0.00     0.293 HD
ENDBRANCH  14  18
ENDBRANCH   1  10
BRANCH   5  20
ATOM     20  O   UNL     1       5.828 -55.379 -32.157  1.00  0.00    -0.504 OA
ATOM     21  H   UNL     1       6.425 -54.646 -32.520  1.00  0.00     0.293 HD
ENDBRANCH   5  20
BRANCH   6  22
ATOM     22  O   UNL     1       7.865 -56.448 -30.612  1.00  0.00    -0.493 OA
ATOM     23  C   UNL     1       9.031 -55.631 -30.643  1.00  0.00     0.278 C 
ENDBRANCH   6  22
TORSDOF 5
ENDMDL
MODEL 6
REMARK VINA RESULT:    -7.073      2.061      8.362
REMARK INTER + INTRA:          -9.243
REMARK INTER:                  -8.746
REMARK INTRA:                  -0.497
REMARK UNBOUND:                -0.516
REMARK SMILES COc1ccc(-c2cc3cc(O)c(OC)cc3o2)c(O)c1
REMARK SMILES IDX 7 1 8 2 9 3 10 4 11 5 13 6 16 7 17 8 18 9 6 10 3 11 21 12
REMARK SMILES IDX 4 13 19 14 5 15 2 16 1 17 20 18 12 20 14 22 15 23
REMARK H PARENT 20 19 12 21
REMARK Flexibility Score: inf
ROOT
ATOM      1  C   UNL     1       2.811 -55.323 -26.809  1.00  0.00     0.139 A 
ATOM      2  C   UNL     1       4.030 -55.918 -26.463  1.00  0.00     0.060 A 
ATOM      3  C   UNL     1       4.757 -55.920 -27.630  1.00  0.00     0.025 A 
ATOM      4  C   UNL     1       6.039 -56.384 -27.903  1.00  0.00     0.062 A 
ATOM      5  C   UNL     1       6.524 -56.248 -29.221  1.00  0.00     0.158 A 
ATOM      6  C   UNL     1       5.719 -55.654 -30.226  1.00  0.00     0.164 A 
ATOM      7  C   UNL     1       4.417 -55.195 -29.902  1.00  0.00     0.098 A 
ATOM      8  C   UNL     1       3.976 -55.348 -28.591  1.00  0.00     0.138 A 
ATOM      9  O   UNL     1       2.818 -54.996 -28.091  1.00  0.00    -0.456 OA
ENDROOT
BRANCH   1  10
ATOM     10  C   UNL     1       1.659 -55.079 -25.902  1.00  0.00     0.059 A 
ATOM     11  C   UNL     1      -0.526 -54.633 -24.163  1.00  0.00     0.122 A 
ATOM     12  C   UNL     1      -0.020 -53.585 -24.950  1.00  0.00     0.093 A 
ATOM     13  C   UNL     1       0.064 -55.895 -24.249  1.00  0.00     0.047 A 
ATOM     14  C   UNL     1       1.064 -53.801 -25.816  1.00  0.00     0.130 A 
ATOM     15  C   UNL     1       1.143 -56.119 -25.107  1.00  0.00     0.020 A 
BRANCH  11  16
ATOM     16  O   UNL     1      -1.608 -54.461 -23.286  1.00  0.00    -0.497 OA
ATOM     17  C   UNL     1      -2.603 -55.448 -23.033  1.00  0.00     0.278 C 
ENDBRANCH  11  16
BRANCH  14  18
ATOM     18  O   UNL     1       1.541 -52.743 -26.590  1.00  0.00    -0.507 OA
ATOM     19  H   UNL     1       1.014 -52.373 -27.373  1.00  0.00     0.293 HD
ENDBRANCH  14  18
ENDBRANCH   1  10
BRANCH   5  20
ATOM     20  O   UNL     1       7.803 -56.698 -29.544  1.00  0.00    -0.504 OA
ATOM     21  H   UNL     1       7.959 -57.356 -30.298  1.00  0.00     0.293 HD
ENDBRANCH   5  20
BRANCH   6  22
ATOM     22  O   UNL     1       6.245 -55.540 -31.522  1.00  0.00    -0.493 OA
ATOM     23  C   UNL     1       7.203 -54.563 -31.917  1.00  0.00     0.278 C 
ENDBRANCH   6  22
TORSDOF 5
ENDMDL
MODEL 7
REMARK VINA RESULT:    -6.870      1.838      2.930
REMARK INTER + INTRA:          -8.993
REMARK INTER:                  -8.482
REMARK INTRA:                  -0.511
REMARK UNBOUND:                -0.516
REMARK SMILES COc1ccc(-c2cc3cc(O)c(OC)cc3o2)c(O)c1
REMARK SMILES IDX 7 1 8 2 9 3 10 4 11 5 13 6 16 7 17 8 18 9 6 10 3 11 21 12
REMARK SMILES IDX 4 13 19 14 5 15 2 16 1 17 20 18 12 20 14 22 15 23
REMARK H PARENT 20 19 12 21
REMARK Flexibility Score: inf
ROOT
ATOM      1  C   UNL     1       7.359 -55.727 -30.442  1.00  0.00     0.139 A 
ATOM      2  C   UNL     1       6.024 -55.422 -30.730  1.00  0.00     0.060 A 
ATOM      3  C   UNL     1       5.345 -55.713 -29.571  1.00  0.00     0.025 A 
ATOM      4  C   UNL     1       3.994 -55.612 -29.257  1.00  0.00     0.062 A 
ATOM      5  C   UNL     1       3.587 -55.995 -27.961  1.00  0.00     0.158 A 
ATOM      6  C   UNL     1       4.536 -56.464 -27.018  1.00  0.00     0.164 A 
ATOM      7  C   UNL     1       5.904 -56.550 -27.382  1.00  0.00     0.098 A 
ATOM      8  C   UNL     1       6.265 -56.164 -28.669  1.00  0.00     0.138 A 
ATOM      9  O   UNL     1       7.462 -56.169 -29.200  1.00  0.00    -0.456 OA
ENDROOT
BRANCH   1  10
ATOM     10  C   UNL     1       8.516 -55.592 -31.367  1.00  0.00     0.059 A 
ATOM     11  C   UNL     1      10.702 -55.344 -33.143  1.00  0.00     0.122 A 
ATOM     12  C   UNL     1      10.575 -54.473 -32.048  1.00  0.00     0.093 A 
ATOM     13  C   UNL     1       9.735 -56.330 -33.345  1.00  0.00     0.047 A 
ATOM     14  C   UNL     1       9.493 -54.593 -31.162  1.00  0.00     0.130 A 
ATOM     15  C   UNL     1       8.653 -56.455 -32.470  1.00  0.00     0.020 A 
BRANCH  11  16
ATOM     16  O   UNL     1      11.768 -55.261 -34.052  1.00  0.00    -0.497 OA
ATOM     17  C   UNL     1      13.124 -55.549 -33.729  1.00  0.00     0.278 C 
ENDBRANCH  11  16
BRANCH  14  18
ATOM     18  O   UNL     1       9.396 -53.718 -30.079  1.00  0.00    -0.507 OA
ATOM     19  H   UNL     1       8.565 -53.673 -29.502  1.00  0.00     0.293 HD
ENDBRANCH  14  18
ENDBRANCH   1  10
BRANCH   5  20
ATOM     20  O   UNL     1       2.244 -55.911 -27.599  1.00  0.00    -0.504 OA
ATOM     21  H   UNL     1       1.934 -55.307 -26.847  1.00  0.00     0.293 HD
ENDBRANCH   5  20
BRANCH   6  22
ATOM     22  O   UNL     1       4.083 -56.831 -25.742  1.00  0.00    -0.493 OA
ATOM     23  C   UNL     1       4.808 -57.660 -24.839  1.00  0.00     0.278 C 
ENDBRANCH   6  22
TORSDOF 5
ENDMDL
MODEL 8
REMARK VINA RESULT:    -6.792      2.210      4.512
REMARK INTER + INTRA:          -8.896
REMARK INTER:                  -8.317
REMARK INTRA:                  -0.579
REMARK UNBOUND:                -0.516
REMARK SMILES COc1ccc(-c2cc3cc(O)c(OC)cc3o2)c(O)c1
REMARK SMILES IDX 7 1 8 2 9 3 10 4 11 5 13 6 16 7 17 8 18 9 6 10 3 11 21 12
REMARK SMILES IDX 4 13 19 14 5 15 2 16 1 17 20 18 12 20 14 22 15 23
REMARK H PARENT 20 19 12 21
REMARK Flexibility Score: inf
ROOT
ATOM      1  C   UNL     1       2.949 -55.360 -27.063  1.00  0.00     0.139 A 
ATOM      2  C   UNL     1       2.267 -54.140 -27.003  1.00  0.00     0.060 A 
ATOM      3  C   UNL     1       1.265 -54.348 -26.085  1.00  0.00     0.025 A 
ATOM      4  C   UNL     1       0.270 -53.498 -25.614  1.00  0.00     0.062 A 
ATOM      5  C   UNL     1      -0.633 -54.006 -24.656  1.00  0.00     0.158 A 
ATOM      6  C   UNL     1      -0.517 -55.342 -24.195  1.00  0.00     0.164 A 
ATOM      7  C   UNL     1       0.513 -56.172 -24.703  1.00  0.00     0.098 A 
ATOM      8  C   UNL     1       1.383 -55.635 -25.647  1.00  0.00     0.138 A 
ATOM      9  O   UNL     1       2.390 -56.229 -26.237  1.00  0.00    -0.456 OA
ENDROOT
BRANCH   1  10
ATOM     10  C   UNL     1       4.128 -55.673 -27.913  1.00  0.00     0.059 A 
ATOM     11  C   UNL     1       6.365 -56.248 -29.545  1.00  0.00     0.122 A 
ATOM     12  C   UNL     1       6.346 -56.650 -28.198  1.00  0.00     0.093 A 
ATOM     13  C   UNL     1       5.268 -55.560 -30.065  1.00  0.00     0.047 A 
ATOM     14  C   UNL     1       5.238 -56.368 -27.384  1.00  0.00     0.130 A 
ATOM     15  C   UNL     1       4.161 -55.274 -29.262  1.00  0.00     0.020 A 
BRANCH  11  16
ATOM     16  O   UNL     1       7.451 -56.511 -30.394  1.00  0.00    -0.497 OA
ATOM     17  C   UNL     1       8.218 -55.508 -31.053  1.00  0.00     0.278 C 
ENDBRANCH  11  16
BRANCH  14  18
ATOM     18  O   UNL     1       5.245 -56.785 -26.053  1.00  0.00    -0.507 OA
ATOM     19  H   UNL     1       6.104 -56.861 -25.521  1.00  0.00     0.293 HD
ENDBRANCH  14  18
ENDBRANCH   1  10
BRANCH   5  20
ATOM     20  O   UNL     1      -1.647 -53.192 -24.154  1.00  0.00    -0.504 OA
ATOM     21  H   UNL     1      -2.423 -52.895 -24.733  1.00  0.00     0.293 HD
ENDBRANCH   5  20
BRANCH   6  22
ATOM     22  O   UNL     1      -1.438 -55.800 -23.241  1.00  0.00    -0.493 OA
ATOM     23  C   UNL     1      -2.692 -56.398 -23.555  1.00  0.00     0.278 C 
ENDBRANCH   6  22
TORSDOF 5
ENDMDL
