MODEL 1
REMARK VINA RESULT:    80.368      0.000      0.000
REMARK INTER + INTRA:         106.339
REMARK INTER:                 106.208
REMARK INTRA:                   0.131
REMARK UNBOUND:                 0.131
REMARK SMILES C=C(CC[C@@H](C)[C@@H]1CC[C@@]2(C)[C@H]3CC[C@H]4C(C)(C)[C@@H](O)CC[C@@]45C[C@@]35CC[C@]12C)C(C)C
REMARK SMILES IDX 4 1 3 2 2 3 1 4 30 5 31 6 32 7 5 8 6 9 7 10 8 11 28 12 9 13
REMARK SMILES IDX 10 14 27 15 29 16 11 17 12 18 26 19 25 20 13 21 23 22 24 23
REMARK SMILES IDX 14 24 15 25 22 26 16 27 21 28 19 29 17 30 18 31 20 32
REMARK H PARENT 20 33
REMARK Flexibility Score: inf
ROOT
ATOM      1  C   UNL     1     -29.602  28.035   5.621  1.00  0.00     0.008 C 
ENDROOT
BRANCH   1   2
ATOM      2  C   UNL     1     -28.175  27.871   6.194  1.00  0.00     0.031 C 
BRANCH   2   3
ATOM      3  C   UNL     1     -27.236  27.042   5.328  1.00  0.00    -0.075 C 
ATOM      4  C   UNL     1     -27.434  25.714   5.247  1.00  0.00     0.008 C 
BRANCH   3   5
ATOM      5  C   UNL     1     -26.121  27.657   4.477  1.00  0.00     0.008 C 
ATOM      6  C   UNL     1     -26.330  27.339   2.994  1.00  0.00     0.012 C 
ATOM      7  C   UNL     1     -24.703  27.266   4.913  1.00  0.00     0.012 C 
ENDBRANCH   3   5
ENDBRANCH   2   3
ENDBRANCH   1   2
BRANCH   1   8
ATOM      8  C   UNL     1     -30.537  26.797   5.762  1.00  0.00    -0.010 C 
ATOM      9  C   UNL     1     -30.390  26.224   7.192  1.00  0.00     0.008 C 
BRANCH   8  10
ATOM     10  C   UNL     1     -32.032  27.200   5.450  1.00  0.00    -0.002 C 
ATOM     11  C   UNL     1     -32.604  28.372   6.305  1.00  0.00     0.005 C 
ATOM     12  C   UNL     1     -33.152  26.073   5.513  1.00  0.00    -0.024 C 
ATOM     13  C   UNL     1     -34.004  27.962   6.771  1.00  0.00     0.008 C 
ATOM     14  C   UNL     1     -33.956  26.428   6.813  1.00  0.00    -0.024 C 
ATOM     15  C   UNL     1     -32.741  24.565   5.589  1.00  0.00     0.008 C 
ATOM     16  C   UNL     1     -33.974  26.255   4.189  1.00  0.00     0.012 C 
ATOM     17  C   UNL     1     -33.158  26.063   8.124  1.00  0.00     0.012 C 
ATOM     18  C   UNL     1     -35.337  25.666   6.900  1.00  0.00     0.002 C 
ATOM     19  C   UNL     1     -33.877  23.604   6.075  1.00  0.00     0.008 C 
ATOM     20  C   UNL     1     -35.277  24.278   6.188  1.00  0.00    -0.020 C 
ATOM     21  C   UNL     1     -36.597  26.467   6.529  1.00  0.00     0.005 C 
ATOM     22  C   UNL     1     -36.539  23.438   6.492  1.00  0.00    -0.020 C 
ATOM     23  C   UNL     1     -36.253  23.852   5.058  1.00  0.00     0.015 C 
ATOM     24  C   UNL     1     -37.904  25.677   6.795  1.00  0.00     0.005 C 
ATOM     25  C   UNL     1     -37.725  24.170   7.201  1.00  0.00     0.004 C 
ATOM     26  C   UNL     1     -36.318  21.961   6.864  1.00  0.00     0.010 C 
ATOM     27  C   UNL     1     -39.049  23.319   7.116  1.00  0.00    -0.006 C 
ATOM     28  C   UNL     1     -37.630  21.182   6.804  1.00  0.00     0.033 C 
ATOM     29  C   UNL     1     -38.744  21.864   7.616  1.00  0.00     0.120 C 
ATOM     30  C   UNL     1     -39.629  23.286   5.673  1.00  0.00     0.014 C 
ATOM     31  C   UNL     1     -40.121  23.930   8.051  1.00  0.00     0.014 C 
BRANCH  29  32
ATOM     32  O   UNL     1     -39.901  21.063   7.542  1.00  0.00    -0.393 OA
ATOM     33  H   UNL     1     -39.968  20.717   6.612  1.00  0.00     0.210 HD
ENDBRANCH  29  32
ENDBRANCH   8  10
ENDBRANCH   1   8
TORSDOF 6
ENDMDL
MODEL 2
REMARK VINA RESULT:    83.350      1.503      3.228
REMARK INTER + INTRA:         110.281
REMARK INTER:                 110.046
REMARK INTRA:                   0.235
REMARK UNBOUND:                 0.131
REMARK SMILES C=C(CC[C@@H](C)[C@@H]1CC[C@@]2(C)[C@H]3CC[C@H]4C(C)(C)[C@@H](O)CC[C@@]45C[C@@]35CC[C@]12C)C(C)C
REMARK SMILES IDX 4 1 3 2 2 3 1 4 30 5 31 6 32 7 5 8 6 9 7 10 8 11 28 12 9 13
REMARK SMILES IDX 10 14 27 15 29 16 11 17 12 18 26 19 25 20 13 21 23 22 24 23
REMARK SMILES IDX 14 24 15 25 22 26 16 27 21 28 19 29 17 30 18 31 20 32
REMARK H PARENT 20 33
REMARK Flexibility Score: inf
ROOT
ATOM      1  C   UNL     1     -27.699  26.235   6.022  1.00  0.00     0.008 C 
ENDROOT
BRANCH   1   2
ATOM      2  C   UNL     1     -26.921  27.544   5.751  1.00  0.00     0.031 C 
BRANCH   2   3
ATOM      3  C   UNL     1     -26.005  27.495   4.534  1.00  0.00    -0.075 C 
ATOM      4  C   UNL     1     -26.525  27.131   3.348  1.00  0.00     0.008 C 
BRANCH   3   5
ATOM      5  C   UNL     1     -24.534  27.917   4.578  1.00  0.00     0.008 C 
ATOM      6  C   UNL     1     -23.646  26.750   5.017  1.00  0.00     0.012 C 
ATOM      7  C   UNL     1     -24.256  29.154   5.442  1.00  0.00     0.012 C 
ENDBRANCH   3   5
ENDBRANCH   2   3
ENDBRANCH   1   2
BRANCH   1   8
ATOM      8  C   UNL     1     -29.055  26.394   6.774  1.00  0.00    -0.010 C 
ATOM      9  C   UNL     1     -29.784  27.642   6.225  1.00  0.00     0.008 C 
BRANCH   8  10
ATOM     10  C   UNL     1     -29.930  25.090   6.607  1.00  0.00    -0.002 C 
ATOM     11  C   UNL     1     -29.838  24.393   5.216  1.00  0.00     0.005 C 
ATOM     12  C   UNL     1     -31.488  25.178   6.910  1.00  0.00    -0.024 C 
ATOM     13  C   UNL     1     -31.263  24.039   4.782  1.00  0.00     0.008 C 
ATOM     14  C   UNL     1     -32.144  25.080   5.488  1.00  0.00    -0.024 C 
ATOM     15  C   UNL     1     -32.076  26.436   7.633  1.00  0.00     0.008 C 
ATOM     16  C   UNL     1     -31.786  23.943   7.831  1.00  0.00     0.012 C 
ATOM     17  C   UNL     1     -31.973  26.412   4.661  1.00  0.00     0.012 C 
ATOM     18  C   UNL     1     -33.695  24.787   5.553  1.00  0.00     0.002 C 
ATOM     19  C   UNL     1     -33.625  26.605   7.489  1.00  0.00     0.008 C 
ATOM     20  C   UNL     1     -34.343  25.385   6.842  1.00  0.00    -0.020 C 
ATOM     21  C   UNL     1     -34.140  23.339   5.285  1.00  0.00     0.005 C 
ATOM     22  C   UNL     1     -35.886  25.315   6.776  1.00  0.00    -0.020 C 
ATOM     23  C   UNL     1     -35.156  24.542   7.861  1.00  0.00     0.015 C 
ATOM     24  C   UNL     1     -35.682  23.192   5.221  1.00  0.00     0.005 C 
ATOM     25  C   UNL     1     -36.510  24.466   5.621  1.00  0.00     0.004 C 
ATOM     26  C   UNL     1     -36.657  26.579   7.198  1.00  0.00     0.010 C 
ATOM     27  C   UNL     1     -38.038  24.184   5.886  1.00  0.00    -0.006 C 
ATOM     28  C   UNL     1     -38.137  26.268   7.409  1.00  0.00     0.033 C 
ATOM     29  C   UNL     1     -38.753  25.543   6.200  1.00  0.00     0.120 C 
ATOM     30  C   UNL     1     -38.250  23.177   7.052  1.00  0.00     0.014 C 
ATOM     31  C   UNL     1     -38.685  23.587   4.613  1.00  0.00     0.014 C 
BRANCH  29  32
ATOM     32  O   UNL     1     -40.122  25.334   6.460  1.00  0.00    -0.393 OA
ATOM     33  H   UNL     1     -40.416  26.030   7.106  1.00  0.00     0.210 HD
ENDBRANCH  29  32
ENDBRANCH   8  10
ENDBRANCH   1   8
TORSDOF 6
ENDMDL
