MODEL 1
REMARK VINA RESULT:    -7.213      0.000      0.000
REMARK INTER + INTRA:         -12.462
REMARK INTER:                 -10.798
REMARK INTRA:                  -1.664
REMARK UNBOUND:                -1.664
REMARK SMILES C=C(CC[C@@H](C(=O)[O-])[C@@H]1[C@@H](O)C[C@]2(C)C3=C(CC[C@]12C)[C@]1(C)CC[C@H](OC(C)=O)C(C)(C)[C@@H]1CC3)C(C)C
REMARK SMILES IDX 4 1 5 2 6 3 7 4 8 5 9 6 10 7 19 8 12 9 13 10 18 11 20 12
REMARK SMILES IDX 14 13 15 14 17 15 16 16 35 17 21 18 34 19 33 20 23 21 22 22
REMARK SMILES IDX 30 23 24 24 25 25 31 26 32 27 11 28 26 30 27 31 29 32 28 33
REMARK SMILES IDX 3 34 2 35 1 36 36 37 37 38 38 39
REMARK H PARENT 11 29
REMARK Flexibility Score: inf
ROOT
ATOM      1  C   UNL     1     -15.749 -19.048  25.075  1.00  0.00     0.014 C 
ENDROOT
BRANCH   1   2
ATOM      2  C   UNL     1     -14.638 -19.591  24.142  1.00  0.00     0.042 C 
BRANCH   2   3
ATOM      3  C   UNL     1     -13.284 -19.012  24.499  1.00  0.00     0.045 C 
ATOM      4  O   UNL     1     -12.895 -18.949  25.694  1.00  0.00    -0.550 OA
ATOM      5  O   UNL     1     -12.442 -18.551  23.495  1.00  0.00    -0.550 OA
ENDBRANCH   2   3
BRANCH   2   6
ATOM      6  C   UNL     1     -14.682 -21.157  23.940  1.00  0.00     0.033 C 
ATOM      7  C   UNL     1     -13.558 -21.970  24.591  1.00  0.00     0.119 C 
ATOM      8  C   UNL     1     -14.738 -21.682  22.468  1.00  0.00    -0.017 C 
ATOM      9  C   UNL     1     -13.610 -23.357  23.937  1.00  0.00     0.043 C 
ATOM     10  C   UNL     1     -14.472 -23.250  22.644  1.00  0.00    -0.003 C 
ATOM     11  C   UNL     1     -13.670 -20.989  21.538  1.00  0.00     0.012 C 
ATOM     12  C   UNL     1     -16.132 -21.363  21.849  1.00  0.00     0.013 C 
ATOM     13  C   UNL     1     -15.808 -24.018  22.897  1.00  0.00     0.017 C 
ATOM     14  C   UNL     1     -13.703 -23.884  21.448  1.00  0.00    -0.064 C 
ATOM     15  C   UNL     1     -12.420 -21.815  21.301  1.00  0.00     0.032 C 
ATOM     16  C   UNL     1     -12.826 -23.147  20.725  1.00  0.00    -0.064 C 
ATOM     17  C   UNL     1     -13.674 -25.382  21.225  1.00  0.00     0.032 C 
ATOM     18  C   UNL     1     -12.153 -23.708  19.451  1.00  0.00    -0.008 C 
ATOM     19  C   UNL     1     -13.809 -25.750  19.749  1.00  0.00     0.009 C 
ATOM     20  C   UNL     1     -13.057 -24.812  18.748  1.00  0.00     0.009 C 
ATOM     21  C   UNL     1     -11.833 -22.537  18.460  1.00  0.00     0.015 C 
ATOM     22  C   UNL     1     -10.798 -24.342  19.868  1.00  0.00     0.016 C 
ATOM     23  C   UNL     1     -13.987 -24.250  17.594  1.00  0.00     0.005 C 
ATOM     24  C   UNL     1     -11.759 -22.991  17.009  1.00  0.00     0.047 C 
ATOM     25  C   UNL     1     -13.114 -23.524  16.495  1.00  0.00     0.182 C 
ATOM     26  C   UNL     1     -15.076 -23.298  18.169  1.00  0.00     0.015 C 
ATOM     27  C   UNL     1     -14.723 -25.418  16.871  1.00  0.00     0.015 C 
BRANCH   7  28
ATOM     28  O   UNL     1     -13.749 -22.059  25.979  1.00  0.00    -0.393 OA
ATOM     29  H   UNL     1     -14.449 -22.749  26.125  1.00  0.00     0.210 HD
ENDBRANCH   7  28
BRANCH  25  30
ATOM     30  O   UNL     1     -13.863 -22.482  15.854  1.00  0.00    -0.462 OA
BRANCH  30  31
ATOM     31  C   UNL     1     -13.842 -22.236  14.474  1.00  0.00     0.302 C 
ATOM     32  O   UNL     1     -13.556 -21.093  14.032  1.00  0.00    -0.253 OA
ATOM     33  C   UNL     1     -14.226 -23.323  13.528  1.00  0.00     0.139 C 
ENDBRANCH  30  31
ENDBRANCH  25  30
ENDBRANCH   2   6
ENDBRANCH   1   2
BRANCH   1  34
ATOM     34  C   UNL     1     -17.196 -19.462  24.721  1.00  0.00     0.031 C 
BRANCH  34  35
ATOM     35  C   UNL     1     -17.978 -18.265  24.214  1.00  0.00    -0.075 C 
ATOM     36  C   UNL     1     -17.739 -17.802  22.970  1.00  0.00     0.008 C 
BRANCH  35  37
ATOM     37  C   UNL     1     -18.982 -17.573  25.129  1.00  0.00     0.008 C 
ATOM     38  C   UNL     1     -20.098 -18.525  25.591  1.00  0.00     0.012 C 
ATOM     39  C   UNL     1     -19.572 -16.335  24.443  1.00  0.00     0.012 C 
ENDBRANCH  35  37
ENDBRANCH  34  35
ENDBRANCH   1  34
TORSDOF 9
ENDMDL
MODEL 2
REMARK VINA RESULT:    -7.069      3.440      8.321
REMARK INTER + INTRA:         -12.247
REMARK INTER:                 -10.585
REMARK INTRA:                  -1.661
REMARK UNBOUND:                -1.664
REMARK SMILES C=C(CC[C@@H](C(=O)[O-])[C@@H]1[C@@H](O)C[C@]2(C)C3=C(CC[C@]12C)[C@]1(C)CC[C@H](OC(C)=O)C(C)(C)[C@@H]1CC3)C(C)C
REMARK SMILES IDX 4 1 5 2 6 3 7 4 8 5 9 6 10 7 19 8 12 9 13 10 18 11 20 12
REMARK SMILES IDX 14 13 15 14 17 15 16 16 35 17 21 18 34 19 33 20 23 21 22 22
REMARK SMILES IDX 30 23 24 24 25 25 31 26 32 27 11 28 26 30 27 31 29 32 28 33
REMARK SMILES IDX 3 34 2 35 1 36 36 37 37 38 38 39
REMARK H PARENT 11 29
REMARK Flexibility Score: inf
ROOT
ATOM      1  C   UNL     1     -16.083 -19.764  20.066  1.00  0.00     0.014 C 
ENDROOT
BRANCH   1   2
ATOM      2  C   UNL     1     -15.592 -20.813  21.096  1.00  0.00     0.042 C 
BRANCH   2   3
ATOM      3  C   UNL     1     -16.226 -22.167  20.849  1.00  0.00     0.045 C 
ATOM      4  O   UNL     1     -16.275 -22.666  19.694  1.00  0.00    -0.550 OA
ATOM      5  O   UNL     1     -16.756 -22.888  21.912  1.00  0.00    -0.550 OA
ENDBRANCH   2   3
BRANCH   2   6
ATOM      6  C   UNL     1     -14.028 -20.818  21.308  1.00  0.00     0.033 C 
ATOM      7  C   UNL     1     -13.259 -22.024  20.760  1.00  0.00     0.119 C 
ATOM      8  C   UNL     1     -13.509 -20.662  22.775  1.00  0.00    -0.017 C 
ATOM      9  C   UNL     1     -11.874 -21.976  21.419  1.00  0.00     0.043 C 
ATOM     10  C   UNL     1     -11.953 -21.006  22.636  1.00  0.00    -0.003 C 
ATOM     11  C   UNL     1     -14.251 -21.620  23.783  1.00  0.00     0.012 C 
ATOM     12  C   UNL     1     -13.773 -19.209  23.273  1.00  0.00     0.013 C 
ATOM     13  C   UNL     1     -11.128 -19.728  22.281  1.00  0.00     0.017 C 
ATOM     14  C   UNL     1     -11.358 -21.699  23.897  1.00  0.00    -0.064 C 
ATOM     15  C   UNL     1     -13.480 -22.878  24.130  1.00  0.00     0.032 C 
ATOM     16  C   UNL     1     -12.136 -22.482  24.684  1.00  0.00    -0.064 C 
ATOM     17  C   UNL     1      -9.864 -21.772  24.136  1.00  0.00     0.032 C 
ATOM     18  C   UNL     1     -11.611 -23.069  26.013  1.00  0.00    -0.008 C 
ATOM     19  C   UNL     1      -9.500 -21.530  25.599  1.00  0.00     0.009 C 
ATOM     20  C   UNL     1     -10.475 -22.157  26.650  1.00  0.00     0.009 C 
ATOM     21  C   UNL     1     -12.800 -23.257  27.017  1.00  0.00     0.015 C 
ATOM     22  C   UNL     1     -11.032 -24.479  25.716  1.00  0.00     0.016 C 
ATOM     23  C   UNL     1     -11.004 -21.112  27.718  1.00  0.00     0.005 C 
ATOM     24  C   UNL     1     -12.358 -23.230  28.473  1.00  0.00     0.047 C 
ATOM     25  C   UNL     1     -11.772 -21.861  28.879  1.00  0.00     0.182 C 
ATOM     26  C   UNL     1     -11.905 -20.036  27.047  1.00  0.00     0.015 C 
ATOM     27  C   UNL     1      -9.810 -20.367  28.388  1.00  0.00     0.015 C 
BRANCH   7  28
ATOM     28  O   UNL     1     -13.153 -21.953  19.362  1.00  0.00    -0.393 OA
ATOM     29  H   UNL     1     -12.892 -21.020  19.143  1.00  0.00     0.210 HD
ENDBRANCH   7  28
BRANCH  25  30
ATOM     30  O   UNL     1     -12.786 -21.018  29.446  1.00  0.00    -0.462 OA
BRANCH  30  31
ATOM     31  C   UNL     1     -12.780 -20.571  30.774  1.00  0.00     0.302 C 
ATOM     32  O   UNL     1     -13.344 -21.241  31.678  1.00  0.00    -0.253 OA
ATOM     33  C   UNL     1     -12.158 -19.257  31.105  1.00  0.00     0.139 C 
ENDBRANCH  30  31
ENDBRANCH  25  30
ENDBRANCH   2   6
ENDBRANCH   1   2
BRANCH   1  34
ATOM     34  C   UNL     1     -15.770 -18.287  20.401  1.00  0.00     0.031 C 
BRANCH  34  35
ATOM     35  C   UNL     1     -16.990 -17.612  20.999  1.00  0.00    -0.075 C 
ATOM     36  C   UNL     1     -17.360 -17.919  22.260  1.00  0.00     0.008 C 
BRANCH  35  37
ATOM     37  C   UNL     1     -17.809 -16.641  20.156  1.00  0.00     0.008 C 
ATOM     38  C   UNL     1     -17.942 -17.110  18.697  1.00  0.00     0.012 C 
ATOM     39  C   UNL     1     -17.208 -15.232  20.221  1.00  0.00     0.012 C 
ENDBRANCH  35  37
ENDBRANCH  34  35
ENDBRANCH   1  34
TORSDOF 9
ENDMDL
MODEL 3
REMARK VINA RESULT:    -6.840      3.853      6.860
REMARK INTER + INTRA:         -11.903
REMARK INTER:                  -9.337
REMARK INTRA:                  -2.566
REMARK UNBOUND:                -1.664
REMARK SMILES C=C(CC[C@@H](C(=O)[O-])[C@@H]1[C@@H](O)C[C@]2(C)C3=C(CC[C@]12C)[C@]1(C)CC[C@H](OC(C)=O)C(C)(C)[C@@H]1CC3)C(C)C
REMARK SMILES IDX 4 1 5 2 6 3 7 4 8 5 9 6 10 7 19 8 12 9 13 10 18 11 20 12
REMARK SMILES IDX 14 13 15 14 17 15 16 16 35 17 21 18 34 19 33 20 23 21 22 22
REMARK SMILES IDX 30 23 24 24 25 25 31 26 32 27 11 28 26 30 27 31 29 32 28 33
REMARK SMILES IDX 3 34 2 35 1 36 36 37 37 38 38 39
REMARK H PARENT 11 29
REMARK Flexibility Score: inf
ROOT
ATOM      1  C   UNL     1     -15.743 -18.657  30.469  1.00  0.00     0.014 C 
ENDROOT
BRANCH   1   2
ATOM      2  C   UNL     1     -16.036 -18.516  28.954  1.00  0.00     0.042 C 
BRANCH   2   3
ATOM      3  C   UNL     1     -17.122 -17.492  28.693  1.00  0.00     0.045 C 
ATOM      4  O   UNL     1     -17.237 -16.463  29.410  1.00  0.00    -0.550 OA
ATOM      5  O   UNL     1     -18.007 -17.674  27.639  1.00  0.00    -0.550 OA
ENDBRANCH   2   3
BRANCH   2   6
ATOM      6  C   UNL     1     -14.740 -18.380  28.062  1.00  0.00     0.033 C 
ATOM      7  C   UNL     1     -14.613 -17.110  27.215  1.00  0.00     0.119 C 
ATOM      8  C   UNL     1     -14.439 -19.545  27.062  1.00  0.00    -0.017 C 
ATOM      9  C   UNL     1     -13.509 -17.398  26.188  1.00  0.00     0.043 C 
ATOM     10  C   UNL     1     -13.269 -18.936  26.157  1.00  0.00    -0.003 C 
ATOM     11  C   UNL     1     -15.705 -19.956  26.217  1.00  0.00     0.012 C 
ATOM     12  C   UNL     1     -14.005 -20.816  27.852  1.00  0.00     0.013 C 
ATOM     13  C   UNL     1     -11.869 -19.213  26.793  1.00  0.00     0.017 C 
ATOM     14  C   UNL     1     -13.302 -19.442  24.685  1.00  0.00    -0.064 C 
ATOM     15  C   UNL     1     -15.736 -19.374  24.818  1.00  0.00     0.032 C 
ATOM     16  C   UNL     1     -14.475 -19.782  24.099  1.00  0.00    -0.064 C 
ATOM     17  C   UNL     1     -12.103 -19.303  23.768  1.00  0.00     0.032 C 
ATOM     18  C   UNL     1     -14.524 -20.415  22.690  1.00  0.00    -0.008 C 
ATOM     19  C   UNL     1     -11.890 -20.542  22.902  1.00  0.00     0.009 C 
ATOM     20  C   UNL     1     -13.193 -21.221  22.362  1.00  0.00     0.009 C 
ATOM     21  C   UNL     1     -15.780 -21.345  22.569  1.00  0.00     0.015 C 
ATOM     22  C   UNL     1     -14.699 -19.268  21.658  1.00  0.00     0.016 C 
ATOM     23  C   UNL     1     -13.275 -22.770  22.686  1.00  0.00     0.005 C 
ATOM     24  C   UNL     1     -15.609 -22.443  21.529  1.00  0.00     0.047 C 
ATOM     25  C   UNL     1     -14.480 -23.428  21.902  1.00  0.00     0.182 C 
ATOM     26  C   UNL     1     -13.399 -23.014  24.218  1.00  0.00     0.015 C 
ATOM     27  C   UNL     1     -11.985 -23.496  22.201  1.00  0.00     0.015 C 
BRANCH   7  28
ATOM     28  O   UNL     1     -14.278 -16.008  28.018  1.00  0.00    -0.393 OA
ATOM     29  H   UNL     1     -13.344 -15.762  27.787  1.00  0.00     0.210 HD
ENDBRANCH   7  28
BRANCH  25  30
ATOM     30  O   UNL     1     -15.001 -24.555  22.621  1.00  0.00    -0.462 OA
BRANCH  30  31
ATOM     31  C   UNL     1     -14.772 -25.889  22.259  1.00  0.00     0.302 C 
ATOM     32  O   UNL     1     -15.338 -26.828  22.878  1.00  0.00    -0.253 OA
ATOM     33  C   UNL     1     -13.796 -26.198  21.174  1.00  0.00     0.139 C 
ENDBRANCH  30  31
ENDBRANCH  25  30
ENDBRANCH   2   6
ENDBRANCH   1   2
BRANCH   1  34
ATOM     34  C   UNL     1     -14.446 -17.987  30.975  1.00  0.00     0.031 C 
BRANCH  34  35
ATOM     35  C   UNL     1     -13.346 -19.020  31.136  1.00  0.00    -0.075 C 
ATOM     36  C   UNL     1     -13.669 -20.268  31.531  1.00  0.00     0.008 C 
BRANCH  35  37
ATOM     37  C   UNL     1     -11.893 -18.623  30.901  1.00  0.00     0.008 C 
ATOM     38  C   UNL     1     -11.768 -17.392  29.986  1.00  0.00     0.012 C 
ATOM     39  C   UNL     1     -11.097 -19.804  30.334  1.00  0.00     0.012 C 
ENDBRANCH  35  37
ENDBRANCH  34  35
ENDBRANCH   1  34
TORSDOF 9
ENDMDL
MODEL 4
REMARK VINA RESULT:    -6.732      1.295      1.643
REMARK INTER + INTRA:         -11.741
REMARK INTER:                  -9.884
REMARK INTRA:                  -1.857
REMARK UNBOUND:                -1.664
REMARK SMILES C=C(CC[C@@H](C(=O)[O-])[C@@H]1[C@@H](O)C[C@]2(C)C3=C(CC[C@]12C)[C@]1(C)CC[C@H](OC(C)=O)C(C)(C)[C@@H]1CC3)C(C)C
REMARK SMILES IDX 4 1 5 2 6 3 7 4 8 5 9 6 10 7 19 8 12 9 13 10 18 11 20 12
REMARK SMILES IDX 14 13 15 14 17 15 16 16 35 17 21 18 34 19 33 20 23 21 22 22
REMARK SMILES IDX 30 23 24 24 25 25 31 26 32 27 11 28 26 30 27 31 29 32 28 33
REMARK SMILES IDX 3 34 2 35 1 36 36 37 37 38 38 39
REMARK H PARENT 11 29
REMARK Flexibility Score: inf
ROOT
ATOM      1  C   UNL     1     -15.965 -19.032  23.646  1.00  0.00     0.014 C 
ENDROOT
BRANCH   1   2
ATOM      2  C   UNL     1     -14.670 -19.724  23.149  1.00  0.00     0.042 C 
BRANCH   2   3
ATOM      3  C   UNL     1     -13.434 -19.053  23.713  1.00  0.00     0.045 C 
ATOM      4  O   UNL     1     -13.397 -18.644  24.903  1.00  0.00    -0.550 OA
ATOM      5  O   UNL     1     -12.309 -18.890  22.915  1.00  0.00    -0.550 OA
ENDBRANCH   2   3
BRANCH   2   6
ATOM      6  C   UNL     1     -14.704 -21.298  23.259  1.00  0.00     0.033 C 
ATOM      7  C   UNL     1     -13.612 -21.957  24.107  1.00  0.00     0.119 C 
ATOM      8  C   UNL     1     -14.692 -22.104  21.918  1.00  0.00    -0.017 C 
ATOM      9  C   UNL     1     -13.634 -23.447  23.739  1.00  0.00     0.043 C 
ATOM     10  C   UNL     1     -14.435 -23.604  22.412  1.00  0.00    -0.003 C 
ATOM     11  C   UNL     1     -13.582 -21.599  20.919  1.00  0.00     0.012 C 
ATOM     12  C   UNL     1     -16.056 -21.926  21.186  1.00  0.00     0.013 C 
ATOM     13  C   UNL     1     -15.782 -24.319  22.750  1.00  0.00     0.017 C 
ATOM     14  C   UNL     1     -13.612 -24.455  21.401  1.00  0.00    -0.064 C 
ATOM     15  C   UNL     1     -12.323 -22.444  20.907  1.00  0.00     0.032 C 
ATOM     16  C   UNL     1     -12.702 -23.867  20.587  1.00  0.00    -0.064 C 
ATOM     17  C   UNL     1     -13.572 -25.967  21.480  1.00  0.00     0.032 C 
ATOM     18  C   UNL     1     -11.971 -24.662  19.481  1.00  0.00    -0.008 C 
ATOM     19  C   UNL     1     -13.639 -26.620  20.101  1.00  0.00     0.009 C 
ATOM     20  C   UNL     1     -12.841 -25.891  18.969  1.00  0.00     0.009 C 
ATOM     21  C   UNL     1     -11.605 -23.707  18.294  1.00  0.00     0.015 C 
ATOM     22  C   UNL     1     -10.637 -25.189  20.076  1.00  0.00     0.016 C 
ATOM     23  C   UNL     1     -13.716 -25.576  17.686  1.00  0.00     0.005 C 
ATOM     24  C   UNL     1     -11.464 -24.437  16.966  1.00  0.00     0.047 C 
ATOM     25  C   UNL     1     -12.793 -25.073  16.506  1.00  0.00     0.182 C 
ATOM     26  C   UNL     1     -14.831 -24.539  18.011  1.00  0.00     0.015 C 
ATOM     27  C   UNL     1     -14.419 -26.870  17.175  1.00  0.00     0.015 C 
BRANCH   7  28
ATOM     28  O   UNL     1     -13.867 -21.773  25.475  1.00  0.00    -0.393 OA
ATOM     29  H   UNL     1     -13.273 -22.402  25.962  1.00  0.00     0.210 HD
ENDBRANCH   7  28
BRANCH  25  30
ATOM     30  O   UNL     1     -13.512 -24.184  15.639  1.00  0.00    -0.462 OA
BRANCH  30  31
ATOM     31  C   UNL     1     -13.718 -24.419  14.272  1.00  0.00     0.302 C 
ATOM     32  O   UNL     1     -14.019 -23.474  13.498  1.00  0.00    -0.253 OA
ATOM     33  C   UNL     1     -13.645 -25.813  13.747  1.00  0.00     0.139 C 
ENDBRANCH  30  31
ENDBRANCH  25  30
ENDBRANCH   2   6
ENDBRANCH   1   2
BRANCH   1  34
ATOM     34  C   UNL     1     -16.837 -19.849  24.626  1.00  0.00     0.031 C 
BRANCH  34  35
ATOM     35  C   UNL     1     -17.550 -18.924  25.595  1.00  0.00    -0.075 C 
ATOM     36  C   UNL     1     -18.886 -18.767  25.493  1.00  0.00     0.008 C 
BRANCH  35  37
ATOM     37  C   UNL     1     -16.746 -18.146  26.631  1.00  0.00     0.008 C 
ATOM     38  C   UNL     1     -15.795 -19.054  27.428  1.00  0.00     0.012 C 
ATOM     39  C   UNL     1     -17.681 -17.378  27.573  1.00  0.00     0.012 C 
ENDBRANCH  35  37
ENDBRANCH  34  35
ENDBRANCH   1  34
TORSDOF 9
ENDMDL
MODEL 5
REMARK VINA RESULT:    -6.555      3.728      8.692
REMARK INTER + INTRA:         -11.477
REMARK INTER:                  -9.983
REMARK INTRA:                  -1.494
REMARK UNBOUND:                -1.664
REMARK SMILES C=C(CC[C@@H](C(=O)[O-])[C@@H]1[C@@H](O)C[C@]2(C)C3=C(CC[C@]12C)[C@]1(C)CC[C@H](OC(C)=O)C(C)(C)[C@@H]1CC3)C(C)C
REMARK SMILES IDX 4 1 5 2 6 3 7 4 8 5 9 6 10 7 19 8 12 9 13 10 18 11 20 12
REMARK SMILES IDX 14 13 15 14 17 15 16 16 35 17 21 18 34 19 33 20 23 21 22 22
REMARK SMILES IDX 30 23 24 24 25 25 31 26 32 27 11 28 26 30 27 31 29 32 28 33
REMARK SMILES IDX 3 34 2 35 1 36 36 37 37 38 38 39
REMARK H PARENT 11 29
REMARK Flexibility Score: inf
ROOT
ATOM      1  C   UNL     1     -15.460 -20.030  19.744  1.00  0.00     0.014 C 
ENDROOT
BRANCH   1   2
ATOM      2  C   UNL     1     -15.151 -21.048  20.871  1.00  0.00     0.042 C 
BRANCH   2   3
ATOM      3  C   UNL     1     -15.868 -22.363  20.640  1.00  0.00     0.045 C 
ATOM      4  O   UNL     1     -15.785 -22.969  19.540  1.00  0.00    -0.550 OA
ATOM      5  O   UNL     1     -16.624 -22.927  21.659  1.00  0.00    -0.550 OA
ENDBRANCH   2   3
BRANCH   2   6
ATOM      6  C   UNL     1     -13.617 -21.159  21.228  1.00  0.00     0.033 C 
ATOM      7  C   UNL     1     -12.940 -22.507  20.963  1.00  0.00     0.119 C 
ATOM      8  C   UNL     1     -13.201 -20.797  22.692  1.00  0.00    -0.017 C 
ATOM      9  C   UNL     1     -11.613 -22.471  21.735  1.00  0.00     0.043 C 
ATOM     10  C   UNL     1     -11.684 -21.301  22.760  1.00  0.00    -0.003 C 
ATOM     11  C   UNL     1     -14.117 -21.492  23.770  1.00  0.00     0.012 C 
ATOM     12  C   UNL     1     -13.346 -19.262  22.915  1.00  0.00     0.013 C 
ATOM     13  C   UNL     1     -10.702 -20.185  22.278  1.00  0.00     0.017 C 
ATOM     14  C   UNL     1     -11.266 -21.814  24.170  1.00  0.00    -0.064 C 
ATOM     15  C   UNL     1     -13.513 -22.736  24.392  1.00  0.00     0.032 C 
ATOM     16  C   UNL     1     -12.182 -22.373  24.998  1.00  0.00    -0.064 C 
ATOM     17  C   UNL     1      -9.811 -21.980  24.558  1.00  0.00     0.032 C 
ATOM     18  C   UNL     1     -11.827 -22.765  26.450  1.00  0.00    -0.008 C 
ATOM     19  C   UNL     1      -9.538 -21.521  25.988  1.00  0.00     0.009 C 
ATOM     20  C   UNL     1     -10.654 -21.863  27.032  1.00  0.00     0.009 C 
ATOM     21  C   UNL     1     -13.104 -22.666  27.354  1.00  0.00     0.015 C 
ATOM     22  C   UNL     1     -11.380 -24.252  26.447  1.00  0.00     0.016 C 
ATOM     23  C   UNL     1     -11.150 -20.605  27.857  1.00  0.00     0.005 C 
ATOM     24  C   UNL     1     -12.777 -22.425  28.820  1.00  0.00     0.047 C 
ATOM     25  C   UNL     1     -12.082 -21.065  29.047  1.00  0.00     0.182 C 
ATOM     26  C   UNL     1     -11.877 -19.584  26.933  1.00  0.00     0.015 C 
ATOM     27  C   UNL     1      -9.940 -19.866  28.504  1.00  0.00     0.015 C 
BRANCH   7  28
ATOM     28  O   UNL     1     -12.718 -22.691  19.589  1.00  0.00    -0.393 OA
ATOM     29  H   UNL     1     -12.992 -21.848  19.142  1.00  0.00     0.210 HD
ENDBRANCH   7  28
BRANCH  25  30
ATOM     30  O   UNL     1     -13.041 -20.047  29.367  1.00  0.00    -0.462 OA
BRANCH  30  31
ATOM     31  C   UNL     1     -13.424 -19.715  30.674  1.00  0.00     0.302 C 
ATOM     32  O   UNL     1     -14.636 -19.531  30.960  1.00  0.00    -0.253 OA
ATOM     33  C   UNL     1     -12.377 -19.512  31.717  1.00  0.00     0.139 C 
ENDBRANCH  30  31
ENDBRANCH  25  30
ENDBRANCH   2   6
ENDBRANCH   1   2
BRANCH   1  34
ATOM     34  C   UNL     1     -16.956 -19.738  19.487  1.00  0.00     0.031 C 
BRANCH  34  35
ATOM     35  C   UNL     1     -17.219 -19.604  17.998  1.00  0.00    -0.075 C 
ATOM     36  C   UNL     1     -16.617 -20.458  17.145  1.00  0.00     0.008 C 
BRANCH  35  37
ATOM     37  C   UNL     1     -18.113 -18.482  17.484  1.00  0.00     0.008 C 
ATOM     38  C   UNL     1     -17.745 -18.057  16.052  1.00  0.00     0.012 C 
ATOM     39  C   UNL     1     -18.070 -17.280  18.435  1.00  0.00     0.012 C 
ENDBRANCH  35  37
ENDBRANCH  34  35
ENDBRANCH   1  34
TORSDOF 9
ENDMDL
MODEL 6
REMARK VINA RESULT:    -6.521      3.399      5.014
REMARK INTER + INTRA:         -11.426
REMARK INTER:                  -8.829
REMARK INTRA:                  -2.597
REMARK UNBOUND:                -1.664
REMARK SMILES C=C(CC[C@@H](C(=O)[O-])[C@@H]1[C@@H](O)C[C@]2(C)C3=C(CC[C@]12C)[C@]1(C)CC[C@H](OC(C)=O)C(C)(C)[C@@H]1CC3)C(C)C
REMARK SMILES IDX 4 1 5 2 6 3 7 4 8 5 9 6 10 7 19 8 12 9 13 10 18 11 20 12
REMARK SMILES IDX 14 13 15 14 17 15 16 16 35 17 21 18 34 19 33 20 23 21 22 22
REMARK SMILES IDX 30 23 24 24 25 25 31 26 32 27 11 28 26 30 27 31 29 32 28 33
REMARK SMILES IDX 3 34 2 35 1 36 36 37 37 38 38 39
REMARK H PARENT 11 29
REMARK Flexibility Score: inf
ROOT
ATOM      1  C   UNL     1     -14.124 -19.870  22.781  1.00  0.00     0.014 C 
ENDROOT
BRANCH   1   2
ATOM      2  C   UNL     1     -13.298 -21.131  23.141  1.00  0.00     0.042 C 
BRANCH   2   3
ATOM      3  C   UNL     1     -13.163 -21.294  24.641  1.00  0.00     0.045 C 
ATOM      4  O   UNL     1     -14.129 -21.058  25.414  1.00  0.00    -0.550 OA
ATOM      5  O   UNL     1     -11.960 -21.724  25.186  1.00  0.00    -0.550 OA
ENDBRANCH   2   3
BRANCH   2   6
ATOM      6  C   UNL     1     -13.731 -22.426  22.348  1.00  0.00     0.033 C 
ATOM      7  C   UNL     1     -14.255 -23.602  23.178  1.00  0.00     0.119 C 
ATOM      8  C   UNL     1     -12.667 -23.066  21.397  1.00  0.00    -0.017 C 
ATOM      9  C   UNL     1     -14.230 -24.820  22.243  1.00  0.00     0.043 C 
ATOM     10  C   UNL     1     -13.333 -24.470  21.019  1.00  0.00    -0.003 C 
ATOM     11  C   UNL     1     -11.260 -23.231  22.089  1.00  0.00     0.012 C 
ATOM     12  C   UNL     1     -12.444 -22.142  20.162  1.00  0.00     0.013 C 
ATOM     13  C   UNL     1     -14.263 -24.330  19.772  1.00  0.00     0.017 C 
ATOM     14  C   UNL     1     -12.292 -25.605  20.790  1.00  0.00    -0.064 C 
ATOM     15  C   UNL     1     -10.977 -24.631  22.598  1.00  0.00     0.032 C 
ATOM     16  C   UNL     1     -11.108 -25.597  21.449  1.00  0.00    -0.064 C 
ATOM     17  C   UNL     1     -12.658 -26.888  20.073  1.00  0.00     0.032 C 
ATOM     18  C   UNL     1     -10.002 -26.632  21.141  1.00  0.00    -0.008 C 
ATOM     19  C   UNL     1     -11.556 -27.356  19.125  1.00  0.00     0.009 C 
ATOM     20  C   UNL     1     -10.092 -27.159  19.643  1.00  0.00     0.009 C 
ATOM     21  C   UNL     1      -8.594 -26.006  21.426  1.00  0.00     0.015 C 
ATOM     22  C   UNL     1     -10.182 -27.826  22.118  1.00  0.00     0.016 C 
ATOM     23  C   UNL     1      -9.165 -26.376  18.623  1.00  0.00     0.005 C 
ATOM     24  C   UNL     1      -7.481 -26.654  20.617  1.00  0.00     0.047 C 
ATOM     25  C   UNL     1      -7.659 -26.435  19.099  1.00  0.00     0.182 C 
ATOM     26  C   UNL     1      -9.645 -24.906  18.449  1.00  0.00     0.015 C 
ATOM     27  C   UNL     1      -9.211 -27.050  17.219  1.00  0.00     0.015 C 
BRANCH   7  28
ATOM     28  O   UNL     1     -15.557 -23.347  23.636  1.00  0.00    -0.393 OA
ATOM     29  H   UNL     1     -15.895 -22.571  23.116  1.00  0.00     0.210 HD
ENDBRANCH   7  28
BRANCH  25  30
ATOM     30  O   UNL     1      -6.940 -25.273  18.662  1.00  0.00    -0.462 OA
BRANCH  30  31
ATOM     31  C   UNL     1      -6.084 -25.253  17.553  1.00  0.00     0.302 C 
ATOM     32  O   UNL     1      -5.680 -26.326  17.035  1.00  0.00    -0.253 OA
ATOM     33  C   UNL     1      -5.597 -23.946  17.025  1.00  0.00     0.139 C 
ENDBRANCH  30  31
ENDBRANCH  25  30
ENDBRANCH   2   6
ENDBRANCH   1   2
BRANCH   1  34
ATOM     34  C   UNL     1     -15.563 -20.123  22.276  1.00  0.00     0.031 C 
BRANCH  34  35
ATOM     35  C   UNL     1     -15.675 -19.771  20.804  1.00  0.00    -0.075 C 
ATOM     36  C   UNL     1     -15.156 -18.606  20.365  1.00  0.00     0.008 C 
BRANCH  35  37
ATOM     37  C   UNL     1     -16.413 -20.708  19.855  1.00  0.00     0.008 C 
ATOM     38  C   UNL     1     -16.808 -22.030  20.535  1.00  0.00     0.012 C 
ATOM     39  C   UNL     1     -15.576 -20.972  18.598  1.00  0.00     0.012 C 
ENDBRANCH  35  37
ENDBRANCH  34  35
ENDBRANCH   1  34
TORSDOF 9
ENDMDL
MODEL 7
REMARK VINA RESULT:    -6.505      5.038      7.491
REMARK INTER + INTRA:         -11.402
REMARK INTER:                  -9.469
REMARK INTRA:                  -1.932
REMARK UNBOUND:                -1.664
REMARK SMILES C=C(CC[C@@H](C(=O)[O-])[C@@H]1[C@@H](O)C[C@]2(C)C3=C(CC[C@]12C)[C@]1(C)CC[C@H](OC(C)=O)C(C)(C)[C@@H]1CC3)C(C)C
REMARK SMILES IDX 4 1 5 2 6 3 7 4 8 5 9 6 10 7 19 8 12 9 13 10 18 11 20 12
REMARK SMILES IDX 14 13 15 14 17 15 16 16 35 17 21 18 34 19 33 20 23 21 22 22
REMARK SMILES IDX 30 23 24 24 25 25 31 26 32 27 11 28 26 30 27 31 29 32 28 33
REMARK SMILES IDX 3 34 2 35 1 36 36 37 37 38 38 39
REMARK H PARENT 11 29
REMARK Flexibility Score: inf
ROOT
ATOM      1  C   UNL     1     -16.192 -21.303  22.287  1.00  0.00     0.014 C 
ENDROOT
BRANCH   1   2
ATOM      2  C   UNL     1     -16.118 -20.408  21.024  1.00  0.00     0.042 C 
BRANCH   2   3
ATOM      3  C   UNL     1     -15.155 -19.254  21.220  1.00  0.00     0.045 C 
ATOM      4  O   UNL     1     -15.436 -18.094  20.822  1.00  0.00    -0.550 OA
ATOM      5  O   UNL     1     -13.941 -19.466  21.860  1.00  0.00    -0.550 OA
ENDBRANCH   2   3
BRANCH   2   6
ATOM      6  C   UNL     1     -15.952 -21.216  19.677  1.00  0.00     0.033 C 
ATOM      7  C   UNL     1     -14.683 -20.950  18.862  1.00  0.00     0.119 C 
ATOM      8  C   UNL     1     -17.114 -21.104  18.635  1.00  0.00    -0.017 C 
ATOM      9  C   UNL     1     -14.948 -21.537  17.468  1.00  0.00     0.043 C 
ATOM     10  C   UNL     1     -16.480 -21.780  17.330  1.00  0.00    -0.003 C 
ATOM     11  C   UNL     1     -17.560 -19.613  18.386  1.00  0.00     0.012 C 
ATOM     12  C   UNL     1     -18.370 -21.856  19.165  1.00  0.00     0.013 C 
ATOM     13  C   UNL     1     -16.720 -23.323  17.329  1.00  0.00     0.017 C 
ATOM     14  C   UNL     1     -16.992 -21.153  16.000  1.00  0.00    -0.064 C 
ATOM     15  C   UNL     1     -16.984 -18.991  17.128  1.00  0.00     0.032 C 
ATOM     16  C   UNL     1     -17.363 -19.851  15.950  1.00  0.00    -0.064 C 
ATOM     17  C   UNL     1     -16.826 -21.861  14.671  1.00  0.00     0.032 C 
ATOM     18  C   UNL     1     -18.002 -19.238  14.683  1.00  0.00    -0.008 C 
ATOM     19  C   UNL     1     -18.063 -21.727  13.786  1.00  0.00     0.009 C 
ATOM     20  C   UNL     1     -18.776 -20.334  13.828  1.00  0.00     0.009 C 
ATOM     21  C   UNL     1     -18.963 -18.068  15.086  1.00  0.00     0.015 C 
ATOM     22  C   UNL     1     -16.864 -18.625  13.824  1.00  0.00     0.016 C 
ATOM     23  C   UNL     1     -20.325 -20.430  14.146  1.00  0.00     0.005 C 
ATOM     24  C   UNL     1     -20.060 -17.820  14.061  1.00  0.00     0.047 C 
ATOM     25  C   UNL     1     -21.016 -19.026  13.927  1.00  0.00     0.182 C 
ATOM     26  C   UNL     1     -20.566 -20.958  15.591  1.00  0.00     0.015 C 
ATOM     27  C   UNL     1     -21.021 -21.422  13.166  1.00  0.00     0.015 C 
BRANCH   7  28
ATOM     28  O   UNL     1     -13.570 -21.561  19.462  1.00  0.00    -0.393 OA
ATOM     29  H   UNL     1     -13.076 -20.844  19.939  1.00  0.00     0.210 HD
ENDBRANCH   7  28
BRANCH  25  30
ATOM     30  O   UNL     1     -22.153 -18.876  14.789  1.00  0.00    -0.462 OA
BRANCH  30  31
ATOM     31  C   UNL     1     -23.268 -18.084  14.484  1.00  0.00     0.302 C 
ATOM     32  O   UNL     1     -24.022 -18.383  13.521  1.00  0.00    -0.253 OA
ATOM     33  C   UNL     1     -23.523 -16.841  15.268  1.00  0.00     0.139 C 
ENDBRANCH  30  31
ENDBRANCH  25  30
ENDBRANCH   2   6
ENDBRANCH   1   2
BRANCH   1  34
ATOM     34  C   UNL     1     -16.455 -22.806  22.039  1.00  0.00     0.031 C 
BRANCH  34  35
ATOM     35  C   UNL     1     -15.369 -23.645  22.687  1.00  0.00    -0.075 C 
ATOM     36  C   UNL     1     -15.704 -24.806  23.286  1.00  0.00     0.008 C 
BRANCH  35  37
ATOM     37  C   UNL     1     -13.929 -23.144  22.699  1.00  0.00     0.008 C 
ATOM     38  C   UNL     1     -12.985 -24.072  21.916  1.00  0.00     0.012 C 
ATOM     39  C   UNL     1     -13.436 -22.956  24.139  1.00  0.00     0.012 C 
ENDBRANCH  35  37
ENDBRANCH  34  35
ENDBRANCH   1  34
TORSDOF 9
ENDMDL
MODEL 8
REMARK VINA RESULT:    -6.492      3.651      8.944
REMARK INTER + INTRA:         -11.383
REMARK INTER:                  -8.996
REMARK INTRA:                  -2.386
REMARK UNBOUND:                -1.664
REMARK SMILES C=C(CC[C@@H](C(=O)[O-])[C@@H]1[C@@H](O)C[C@]2(C)C3=C(CC[C@]12C)[C@]1(C)CC[C@H](OC(C)=O)C(C)(C)[C@@H]1CC3)C(C)C
REMARK SMILES IDX 4 1 5 2 6 3 7 4 8 5 9 6 10 7 19 8 12 9 13 10 18 11 20 12
REMARK SMILES IDX 14 13 15 14 17 15 16 16 35 17 21 18 34 19 33 20 23 21 22 22
REMARK SMILES IDX 30 23 24 24 25 25 31 26 32 27 11 28 26 30 27 31 29 32 28 33
REMARK SMILES IDX 3 34 2 35 1 36 36 37 37 38 38 39
REMARK H PARENT 11 29
REMARK Flexibility Score: inf
ROOT
ATOM      1  C   UNL     1     -13.802 -22.762  20.097  1.00  0.00     0.014 C 
ENDROOT
BRANCH   1   2
ATOM      2  C   UNL     1     -13.720 -23.172  21.589  1.00  0.00     0.042 C 
BRANCH   2   3
ATOM      3  C   UNL     1     -14.294 -24.556  21.815  1.00  0.00     0.045 C 
ATOM      4  O   UNL     1     -15.163 -24.767  22.701  1.00  0.00    -0.550 OA
ATOM      5  O   UNL     1     -13.870 -25.619  21.028  1.00  0.00    -0.550 OA
ENDBRANCH   2   3
BRANCH   2   6
ATOM      6  C   UNL     1     -12.312 -22.899  22.251  1.00  0.00     0.033 C 
ATOM      7  C   UNL     1     -11.508 -24.124  22.697  1.00  0.00     0.119 C 
ATOM      8  C   UNL     1     -12.282 -21.943  23.489  1.00  0.00    -0.017 C 
ATOM      9  C   UNL     1     -10.410 -23.590  23.627  1.00  0.00     0.043 C 
ATOM     10  C   UNL     1     -10.797 -22.142  24.049  1.00  0.00    -0.003 C 
ATOM     11  C   UNL     1     -13.384 -22.303  24.557  1.00  0.00     0.012 C 
ATOM     12  C   UNL     1     -12.574 -20.483  23.031  1.00  0.00     0.013 C 
ATOM     13  C   UNL     1      -9.801 -21.160  23.353  1.00  0.00     0.017 C 
ATOM     14  C   UNL     1     -10.698 -22.003  25.597  1.00  0.00    -0.064 C 
ATOM     15  C   UNL     1     -12.870 -23.103  25.737  1.00  0.00     0.032 C 
ATOM     16  C   UNL     1     -11.748 -22.335  26.387  1.00  0.00    -0.064 C 
ATOM     17  C   UNL     1      -9.371 -21.781  26.293  1.00  0.00     0.032 C 
ATOM     18  C   UNL     1     -11.728 -22.079  27.911  1.00  0.00    -0.008 C 
ATOM     19  C   UNL     1      -9.477 -20.771  27.433  1.00  0.00     0.009 C 
ATOM     20  C   UNL     1     -10.786 -20.854  28.288  1.00  0.00     0.009 C 
ATOM     21  C   UNL     1     -13.187 -21.838  28.428  1.00  0.00     0.015 C 
ATOM     22  C   UNL     1     -11.200 -23.365  28.603  1.00  0.00     0.016 C 
ATOM     23  C   UNL     1     -11.544 -19.468  28.412  1.00  0.00     0.005 C 
ATOM     24  C   UNL     1     -13.236 -21.006  29.701  1.00  0.00     0.047 C 
ATOM     25  C   UNL     1     -12.703 -19.573  29.481  1.00  0.00     0.182 C 
ATOM     26  C   UNL     1     -12.092 -19.006  27.030  1.00  0.00     0.015 C 
ATOM     27  C   UNL     1     -10.573 -18.360  28.922  1.00  0.00     0.015 C 
BRANCH   7  28
ATOM     28  O   UNL     1     -10.953 -24.785  21.590  1.00  0.00    -0.393 OA
ATOM     29  H   UNL     1      -9.986 -24.560  21.580  1.00  0.00     0.210 HD
ENDBRANCH   7  28
BRANCH  25  30
ATOM     30  O   UNL     1     -13.773 -18.672  29.165  1.00  0.00    -0.462 OA
BRANCH  30  31
ATOM     31  C   UNL     1     -13.993 -17.454  29.823  1.00  0.00     0.302 C 
ATOM     32  O   UNL     1     -14.017 -17.401  31.081  1.00  0.00    -0.253 OA
ATOM     33  C   UNL     1     -14.265 -16.225  29.024  1.00  0.00     0.139 C 
ENDBRANCH  30  31
ENDBRANCH  25  30
ENDBRANCH   2   6
ENDBRANCH   1   2
BRANCH   1  34
ATOM     34  C   UNL     1     -14.425 -21.378  19.807  1.00  0.00     0.031 C 
BRANCH  34  35
ATOM     35  C   UNL     1     -15.831 -21.303  20.371  1.00  0.00    -0.075 C 
ATOM     36  C   UNL     1     -16.744 -22.217  19.985  1.00  0.00     0.008 C 
BRANCH  35  37
ATOM     37  C   UNL     1     -16.208 -20.172  21.321  1.00  0.00     0.008 C 
ATOM     38  C   UNL     1     -15.298 -18.944  21.150  1.00  0.00     0.012 C 
ATOM     39  C   UNL     1     -16.193 -20.661  22.774  1.00  0.00     0.012 C 
ENDBRANCH  35  37
ENDBRANCH  34  35
ENDBRANCH   1  34
TORSDOF 9
ENDMDL
MODEL 9
REMARK VINA RESULT:    -6.473      2.825      4.572
REMARK INTER + INTRA:         -11.354
REMARK INTER:                 -10.053
REMARK INTRA:                  -1.301
REMARK UNBOUND:                -1.664
REMARK SMILES C=C(CC[C@@H](C(=O)[O-])[C@@H]1[C@@H](O)C[C@]2(C)C3=C(CC[C@]12C)[C@]1(C)CC[C@H](OC(C)=O)C(C)(C)[C@@H]1CC3)C(C)C
REMARK SMILES IDX 4 1 5 2 6 3 7 4 8 5 9 6 10 7 19 8 12 9 13 10 18 11 20 12
REMARK SMILES IDX 14 13 15 14 17 15 16 16 35 17 21 18 34 19 33 20 23 21 22 22
REMARK SMILES IDX 30 23 24 24 25 25 31 26 32 27 11 28 26 30 27 31 29 32 28 33
REMARK SMILES IDX 3 34 2 35 1 36 36 37 37 38 38 39
REMARK H PARENT 11 29
REMARK Flexibility Score: inf
ROOT
ATOM      1  C   UNL     1     -13.515 -17.320  27.095  1.00  0.00     0.014 C 
ENDROOT
BRANCH   1   2
ATOM      2  C   UNL     1     -13.422 -18.738  26.477  1.00  0.00     0.042 C 
BRANCH   2   3
ATOM      3  C   UNL     1     -13.176 -19.789  27.540  1.00  0.00     0.045 C 
ATOM      4  O   UNL     1     -12.080 -20.404  27.610  1.00  0.00    -0.550 OA
ATOM      5  O   UNL     1     -14.166 -20.080  28.469  1.00  0.00    -0.550 OA
ENDBRANCH   2   3
BRANCH   2   6
ATOM      6  C   UNL     1     -14.574 -19.063  25.447  1.00  0.00     0.033 C 
ATOM      7  C   UNL     1     -15.767 -19.865  25.974  1.00  0.00     0.119 C 
ATOM      8  C   UNL     1     -14.162 -19.801  24.130  1.00  0.00    -0.017 C 
ATOM      9  C   UNL     1     -16.519 -20.366  24.733  1.00  0.00     0.043 C 
ATOM     10  C   UNL     1     -15.574 -20.214  23.504  1.00  0.00    -0.003 C 
ATOM     11  C   UNL     1     -13.233 -21.046  24.401  1.00  0.00     0.012 C 
ATOM     12  C   UNL     1     -13.347 -18.834  23.220  1.00  0.00     0.013 C 
ATOM     13  C   UNL     1     -16.143 -19.071  22.604  1.00  0.00     0.017 C 
ATOM     14  C   UNL     1     -15.529 -21.553  22.710  1.00  0.00    -0.064 C 
ATOM     15  C   UNL     1     -13.956 -22.378  24.381  1.00  0.00     0.032 C 
ATOM     16  C   UNL     1     -14.653 -22.528  23.053  1.00  0.00    -0.064 C 
ATOM     17  C   UNL     1     -16.625 -21.940  21.738  1.00  0.00     0.032 C 
ATOM     18  C   UNL     1     -14.490 -23.808  22.202  1.00  0.00    -0.008 C 
ATOM     19  C   UNL     1     -16.072 -22.584  20.469  1.00  0.00     0.009 C 
ATOM     20  C   UNL     1     -14.856 -23.548  20.676  1.00  0.00     0.009 C 
ATOM     21  C   UNL     1     -13.027 -24.354  22.337  1.00  0.00     0.015 C 
ATOM     22  C   UNL     1     -15.441 -24.890  22.782  1.00  0.00     0.016 C 
ATOM     23  C   UNL     1     -13.611 -23.195  19.761  1.00  0.00     0.005 C 
ATOM     24  C   UNL     1     -12.589 -25.182  21.138  1.00  0.00     0.047 C 
ATOM     25  C   UNL     1     -12.531 -24.346  19.842  1.00  0.00     0.182 C 
ATOM     26  C   UNL     1     -13.000 -21.819  20.157  1.00  0.00     0.015 C 
ATOM     27  C   UNL     1     -14.043 -23.099  18.267  1.00  0.00     0.015 C 
BRANCH   7  28
ATOM     28  O   UNL     1     -16.595 -19.058  26.772  1.00  0.00    -0.393 OA
ATOM     29  H   UNL     1     -16.214 -18.142  26.740  1.00  0.00     0.210 HD
ENDBRANCH   7  28
BRANCH  25  30
ATOM     30  O   UNL     1     -11.212 -23.823  19.629  1.00  0.00    -0.462 OA
BRANCH  30  31
ATOM     31  C   UNL     1     -10.493 -23.972  18.435  1.00  0.00     0.302 C 
ATOM     32  O   UNL     1     -10.578 -23.108  17.523  1.00  0.00    -0.253 OA
ATOM     33  C   UNL     1      -9.674 -25.199  18.219  1.00  0.00     0.139 C 
ENDBRANCH  30  31
ENDBRANCH  25  30
ENDBRANCH   2   6
ENDBRANCH   1   2
BRANCH   1  34
ATOM     34  C   UNL     1     -12.823 -17.130  28.464  1.00  0.00     0.031 C 
BRANCH  34  35
ATOM     35  C   UNL     1     -13.842 -16.744  29.521  1.00  0.00    -0.075 C 
ATOM     36  C   UNL     1     -13.433 -16.562  30.793  1.00  0.00     0.008 C 
BRANCH  35  37
ATOM     37  C   UNL     1     -15.314 -16.619  29.145  1.00  0.00     0.008 C 
ATOM     38  C   UNL     1     -15.846 -15.191  29.354  1.00  0.00     0.012 C 
ATOM     39  C   UNL     1     -16.158 -17.633  29.925  1.00  0.00     0.012 C 
ENDBRANCH  35  37
ENDBRANCH  34  35
ENDBRANCH   1  34
TORSDOF 9
ENDMDL
